MODEL 1
REMARK VINA RESULT:     -10.6      0.000      0.000
REMARK SMILES C[C@]1(C(=O)N2CCC(CC(=O)OCCOCCOCCOC(=O)c3ccc(-c4c5nc(c(-c6c(F)cc(S(=O)(=O)[O-])cc6F)c6ccc([nH]6)c(-c6c(F)cc(S(=O)(=O)[O-])cc6F)c6nc(c(-c7c(F)cc(S(=O)(=O)[O-])cc7F)c7ccc4[nH]7)C=C6)C=C5)cc3)CC2)CCC[NH2+]C1
REMARK SMILES IDX 17 1 16 2 15 3 14 4 13 5 12 6 10 7 11 8 9 9 8 10 3 11 4 12
REMARK SMILES IDX 5 13 6 14 91 15 7 16 90 17 2 18 1 19 92 20 96 21 93 22 95 23
REMARK SMILES IDX 94 24 18 27 19 28 20 29 21 30 22 31 23 32 24 33 25 34 89 35
REMARK SMILES IDX 26 36 88 37 27 38 28 39 29 40 82 41 30 42 87 43 81 44 83 45
REMARK SMILES IDX 31 46 86 47 80 48 79 49 32 51 66 52 45 53 65 54 46 55 49 56
REMARK SMILES IDX 64 57 84 58 47 59 48 60 63 62 85 63 50 64 33 65 34 66 43 67
REMARK SMILES IDX 35 68 36 69 42 70 44 71 37 72 38 73 39 74 40 75 41 76 67 77
REMARK SMILES IDX 68 78 77 79 69 80 70 81 76 82 78 83 71 84 72 85 73 86 74 87
REMARK SMILES IDX 75 88 51 89 52 90 61 91 53 92 54 93 60 94 62 95 55 96 56 97
REMARK SMILES IDX 57 98 58 99 59 100
REMARK H PARENT 95 25 95 26 83 50 49 61
REMARK Flexibility Score: inf
ROOT
ATOM      1  C   UNL A   1      40.834  19.869  26.478  1.00  0.00     0.188 C 
ENDROOT
BRANCH   1   2
ATOM      2  C   UNL A   1      39.495  20.003  25.754  1.00  0.00     0.188 C 
BRANCH   2   3
ATOM      3  O   UNL A   1      38.859  21.274  25.823  1.00  0.00    -0.376 OA
BRANCH   3   4
ATOM      4  C   UNL A   1      37.775  21.498  24.924  1.00  0.00     0.202 C 
BRANCH   4   5
ATOM      5  C   UNL A   1      36.365  21.286  25.493  1.00  0.00     0.261 C 
BRANCH   5   6
ATOM      6  O   UNL A   1      35.825  22.460  26.129  1.00  0.00    -0.463 OA
BRANCH   6   7
ATOM      7  C   UNL A   1      34.567  22.343  26.617  1.00  0.00     0.306 C 
ATOM      8  O   UNL A   1      34.202  21.468  27.395  1.00  0.00    -0.252 OA
BRANCH   7   9
ATOM      9  C   UNL A   1      33.606  23.426  26.162  1.00  0.00     0.126 C 
BRANCH   9  10
ATOM     10  C   UNL A   1      33.001  23.466  24.739  1.00  0.00     0.003 C 
ATOM     11  C   UNL A   1      30.943  26.510  22.731  1.00  0.00     0.234 C 
ATOM     12  O   UNL A   1      31.159  27.022  21.626  1.00  0.00    -0.274 OA
ATOM     13  N   UNL A   1      31.578  25.342  23.085  1.00  0.00    -0.342 N 
ATOM     14  C   UNL A   1      32.964  25.116  22.728  1.00  0.00     0.120 C 
ATOM     15  C   UNL A   1      30.882  24.128  23.458  1.00  0.00     0.120 C 
ATOM     16  C   UNL A   1      33.691  24.647  23.984  1.00  0.00     0.026 C 
ATOM     17  C   UNL A   1      31.463  23.572  24.750  1.00  0.00     0.026 C 
BRANCH  11  18
ATOM     18  C   UNL A   1      30.177  27.321  23.820  1.00  0.00     0.095 C 
ATOM     19  C   UNL A   1      28.784  26.641  23.876  1.00  0.00     0.028 C 
ATOM     20  C   UNL A   1      30.874  27.145  25.183  1.00  0.00     0.028 C 
ATOM     21  C   UNL A   1      29.912  28.823  23.591  1.00  0.00     0.277 C 
ATOM     22  C   UNL A   1      32.108  28.039  25.282  1.00  0.00     0.063 C 
ATOM     23  N   UNL A   1      31.072  29.701  23.761  1.00  0.00    -0.345 N 
ATOM     24  C   UNL A   1      31.756  29.504  25.033  1.00  0.00     0.260 C 
ATOM     25  H   UNL A   1      31.732  29.517  23.006  1.00  0.00     0.346 HD
ATOM     26  H   UNL A   1      30.732  30.663  23.745  1.00  0.00     0.346 HD
ENDBRANCH  11  18
ENDBRANCH   9  10
ENDBRANCH   7   9
ENDBRANCH   6   7
ENDBRANCH   5   6
ENDBRANCH   4   5
ENDBRANCH   3   4
ENDBRANCH   2   3
ENDBRANCH   1   2
BRANCH   1  27
ATOM     27  O   UNL A   1      41.997  19.833  25.660  1.00  0.00    -0.376 OA
BRANCH  27  28
ATOM     28  C   UNL A   1      42.853  20.979  25.760  1.00  0.00     0.202 C 
BRANCH  28  29
ATOM     29  C   UNL A   1      42.467  22.037  26.816  1.00  0.00     0.261 C 
BRANCH  29  30
ATOM     30  O   UNL A   1      41.746  23.183  26.312  1.00  0.00    -0.460 OA
BRANCH  30  31
ATOM     31  C   UNL A   1      42.445  24.321  26.082  1.00  0.00     0.338 C 
ATOM     32  O   UNL A   1      43.150  24.549  25.113  1.00  0.00    -0.246 OA
BRANCH  31  33
ATOM     33  C   UNL A   1      41.990  25.359  27.050  1.00  0.00     0.060 A 
ATOM     34  C   UNL A   1      42.657  26.594  27.061  1.00  0.00     0.016 A 
ATOM     35  C   UNL A   1      40.883  25.166  27.884  1.00  0.00     0.016 A 
ATOM     36  C   UNL A   1      42.250  27.613  27.929  1.00  0.00     0.010 A 
ATOM     37  C   UNL A   1      40.483  26.182  28.760  1.00  0.00     0.010 A 
ATOM     38  C   UNL A   1      41.185  27.399  28.814  1.00  0.00    -0.014 A 
BRANCH  38  39
ATOM     39  C   UNL A   1      40.949  28.346  29.938  1.00  0.00     0.031 A 
ATOM     40  C   UNL A   1      41.813  28.211  31.166  1.00  0.00     0.074 A 
ATOM     41  C   UNL A   1      40.023  29.322  29.878  1.00  0.00     0.049 A 
ATOM     42  N   UNL A   1      41.764  28.869  32.296  1.00  0.00    -0.248 NA
ATOM     43  C   UNL A   1      42.879  27.197  31.106  1.00  0.00     0.031 C 
ATOM     44  C   UNL A   1      39.152  29.602  28.737  1.00  0.00     0.029 A 
ATOM     45  N   UNL A   1      39.657  30.260  30.816  1.00  0.00    -0.354 N 
ATOM     46  C   UNL A   1      42.794  28.356  33.076  1.00  0.00     0.074 A 
ATOM     47  C   UNL A   1      43.425  27.305  32.309  1.00  0.00     0.031 C 
ATOM     48  C   UNL A   1      38.343  30.633  29.047  1.00  0.00     0.029 A 
ATOM     49  C   UNL A   1      38.613  31.066  30.419  1.00  0.00     0.049 A 
ATOM     50  H   UNL A   1      40.099  30.346  31.690  1.00  0.00     0.167 HD
ATOM     51  C   UNL A   1      43.196  28.735  34.312  1.00  0.00     0.037 A 
ATOM     52  C   UNL A   1      37.942  32.024  31.093  1.00  0.00     0.037 A 
ATOM     53  C   UNL A   1      42.567  29.771  35.087  1.00  0.00     0.049 A 
ATOM     54  C   UNL A   1      38.340  32.355  32.515  1.00  0.00     0.074 A 
ATOM     55  C   UNL A   1      42.887  30.203  36.363  1.00  0.00     0.029 A 
ATOM     56  N   UNL A   1      41.494  30.538  34.662  1.00  0.00    -0.354 N 
ATOM     57  N   UNL A   1      39.315  31.860  33.239  1.00  0.00    -0.248 NA
ATOM     58  C   UNL A   1      37.542  33.378  33.211  1.00  0.00     0.031 C 
ATOM     59  C   UNL A   1      41.982  31.206  36.725  1.00  0.00     0.029 A 
ATOM     60  C   UNL A   1      41.132  31.433  35.655  1.00  0.00     0.049 A 
ATOM     61  H   UNL A   1      41.055  30.459  33.785  1.00  0.00     0.167 HD
ATOM     62  C   UNL A   1      39.271  32.539  34.455  1.00  0.00     0.074 A 
ATOM     63  C   UNL A   1      38.180  33.485  34.368  1.00  0.00     0.031 C 
ATOM     64  C   UNL A   1      40.063  32.393  35.547  1.00  0.00     0.037 A 
BRANCH  51  65
ATOM     65  C   UNL A   1      44.372  28.016  34.909  1.00  0.00     0.058 A 
ATOM     66  C   UNL A   1      45.679  28.509  34.765  1.00  0.00     0.135 A 
ATOM     67  C   UNL A   1      44.190  26.851  35.669  1.00  0.00     0.135 A 
ATOM     68  F   UNL A   1      45.911  29.607  34.027  1.00  0.00    -0.206 F 
ATOM     69  C   UNL A   1      46.766  27.862  35.342  1.00  0.00     0.059 A 
ATOM     70  C   UNL A   1      45.260  26.202  36.278  1.00  0.00     0.059 A 
ATOM     71  F   UNL A   1      42.961  26.335  35.831  1.00  0.00    -0.206 F 
ATOM     72  C   UNL A   1      46.545  26.712  36.100  1.00  0.00     0.060 A 
BRANCH  72  73
ATOM     73  S   UNL A   1      47.966  25.897  36.861  1.00  0.00     0.124 S 
ATOM     74  O   UNL A   1      47.644  24.490  36.641  1.00  0.00    -0.237 OA
ATOM     75  O   UNL A   1      49.080  26.422  36.078  1.00  0.00    -0.237 OA
ATOM     76  O   UNL A   1      47.912  26.344  38.249  1.00  0.00    -0.744 OA
ENDBRANCH  72  73
ENDBRANCH  51  65
BRANCH  52  77
ATOM     77  C   UNL A   1      36.791  32.733  30.465  1.00  0.00     0.058 A 
ATOM     78  C   UNL A   1      36.988  33.836  29.618  1.00  0.00     0.135 A 
ATOM     79  C   UNL A   1      35.467  32.369  30.758  1.00  0.00     0.135 A 
ATOM     80  F   UNL A   1      38.234  34.235  29.319  1.00  0.00    -0.206 F 
ATOM     81  C   UNL A   1      35.920  34.576  29.119  1.00  0.00     0.059 A 
ATOM     82  C   UNL A   1      34.381  33.074  30.245  1.00  0.00     0.059 A 
ATOM     83  F   UNL A   1      35.218  31.320  31.558  1.00  0.00    -0.206 F 
ATOM     84  C   UNL A   1      34.619  34.190  29.444  1.00  0.00     0.060 A 
BRANCH  84  85
ATOM     85  S   UNL A   1      33.238  35.157  28.796  1.00  0.00     0.124 S 
ATOM     86  O   UNL A   1      32.535  35.521  30.020  1.00  0.00    -0.237 OA
ATOM     87  O   UNL A   1      33.921  36.245  28.104  1.00  0.00    -0.237 OA
ATOM     88  O   UNL A   1      32.544  34.210  27.927  1.00  0.00    -0.744 OA
ENDBRANCH  84  85
ENDBRANCH  52  77
BRANCH  64  89
ATOM     89  C   UNL A   1      39.828  33.311  36.718  1.00  0.00     0.058 A 
ATOM     90  C   UNL A   1      38.874  33.023  37.707  1.00  0.00     0.135 A 
ATOM     91  C   UNL A   1      40.615  34.462  36.883  1.00  0.00     0.135 A 
ATOM     92  F   UNL A   1      38.094  31.937  37.598  1.00  0.00    -0.206 F 
ATOM     93  C   UNL A   1      38.693  33.858  38.806  1.00  0.00     0.059 A 
ATOM     94  C   UNL A   1      40.470  35.296  37.989  1.00  0.00     0.059 A 
ATOM     95  F   UNL A   1      41.552  34.778  35.974  1.00  0.00    -0.206 F 
ATOM     96  C   UNL A   1      39.498  34.991  38.940  1.00  0.00     0.060 A 
BRANCH  96  97
ATOM     97  S   UNL A   1      39.279  36.044  40.391  1.00  0.00     0.124 S 
ATOM     98  O   UNL A   1      38.584  37.192  39.820  1.00  0.00    -0.237 OA
ATOM     99  O   UNL A   1      38.485  35.198  41.275  1.00  0.00    -0.237 OA
ATOM    100  O   UNL A   1      40.645  36.297  40.838  1.00  0.00    -0.744 OA
ENDBRANCH  96  97
ENDBRANCH  64  89
ENDBRANCH  38  39
ENDBRANCH  31  33
ENDBRANCH  30  31
ENDBRANCH  29  30
ENDBRANCH  28  29
ENDBRANCH  27  28
ENDBRANCH   1  27
TORSDOF 22
ENDMDL
MODEL 2
REMARK VINA RESULT:     -10.5      6.148     12.033
REMARK SMILES C[C@]1(C(=O)N2CCC(CC(=O)OCCOCCOCCOC(=O)c3ccc(-c4c5nc(c(-c6c(F)cc(S(=O)(=O)[O-])cc6F)c6ccc([nH]6)c(-c6c(F)cc(S(=O)(=O)[O-])cc6F)c6nc(c(-c7c(F)cc(S(=O)(=O)[O-])cc7F)c7ccc4[nH]7)C=C6)C=C5)cc3)CC2)CCC[NH2+]C1
REMARK SMILES IDX 17 1 16 2 15 3 14 4 13 5 12 6 10 7 11 8 9 9 8 10 3 11 4 12
REMARK SMILES IDX 5 13 6 14 91 15 7 16 90 17 2 18 1 19 92 20 96 21 93 22 95 23
REMARK SMILES IDX 94 24 18 27 19 28 20 29 21 30 22 31 23 32 24 33 25 34 89 35
REMARK SMILES IDX 26 36 88 37 27 38 28 39 29 40 82 41 30 42 87 43 81 44 83 45
REMARK SMILES IDX 31 46 86 47 80 48 79 49 32 51 66 52 45 53 65 54 46 55 49 56
REMARK SMILES IDX 64 57 84 58 47 59 48 60 63 62 85 63 50 64 33 65 34 66 43 67
REMARK SMILES IDX 35 68 36 69 42 70 44 71 37 72 38 73 39 74 40 75 41 76 67 77
REMARK SMILES IDX 68 78 77 79 69 80 70 81 76 82 78 83 71 84 72 85 73 86 74 87
REMARK SMILES IDX 75 88 51 89 52 90 61 91 53 92 54 93 60 94 62 95 55 96 56 97
REMARK SMILES IDX 57 98 58 99 59 100
REMARK H PARENT 95 25 95 26 83 50 49 61
REMARK Flexibility Score: inf
ROOT
ATOM      1  C   UNL A   1      31.809  30.461  25.836  1.00  0.00     0.188 C 
ENDROOT
BRANCH   1   2
ATOM      2  C   UNL A   1      32.166  29.104  25.228  1.00  0.00     0.188 C 
BRANCH   2   3
ATOM      3  O   UNL A   1      31.428  28.709  24.078  1.00  0.00    -0.376 OA
BRANCH   3   4
ATOM      4  C   UNL A   1      32.185  28.294  22.942  1.00  0.00     0.202 C 
BRANCH   4   5
ATOM      5  C   UNL A   1      33.577  27.714  23.229  1.00  0.00     0.261 C 
BRANCH   5   6
ATOM      6  O   UNL A   1      33.724  26.347  22.802  1.00  0.00    -0.463 OA
BRANCH   6   7
ATOM      7  C   UNL A   1      32.936  25.442  23.430  1.00  0.00     0.306 C 
ATOM      8  O   UNL A   1      32.135  24.706  22.862  1.00  0.00    -0.252 OA
BRANCH   7   9
ATOM      9  C   UNL A   1      33.138  25.356  24.931  1.00  0.00     0.126 C 
BRANCH   9  10
ATOM     10  C   UNL A   1      34.159  24.397  25.587  1.00  0.00     0.003 C 
ATOM     11  C   UNL A   1      34.829  20.306  25.000  1.00  0.00     0.234 C 
ATOM     12  O   UNL A   1      35.872  19.702  24.722  1.00  0.00    -0.274 OA
ATOM     13  N   UNL A   1      34.881  21.618  25.411  1.00  0.00    -0.342 N 
ATOM     14  C   UNL A   1      35.812  22.547  24.804  1.00  0.00     0.120 C 
ATOM     15  C   UNL A   1      34.355  22.086  26.677  1.00  0.00     0.120 C 
ATOM     16  C   UNL A   1      35.030  23.803  24.434  1.00  0.00     0.026 C 
ATOM     17  C   UNL A   1      33.485  23.315  26.455  1.00  0.00     0.026 C 
BRANCH  11  18
ATOM     18  C   UNL A   1      33.452  19.680  24.621  1.00  0.00     0.095 C 
ATOM     19  C   UNL A   1      32.752  20.797  23.802  1.00  0.00     0.028 C 
ATOM     20  C   UNL A   1      33.673  18.457  23.710  1.00  0.00     0.028 C 
ATOM     21  C   UNL A   1      32.469  19.291  25.743  1.00  0.00     0.277 C 
ATOM     22  C   UNL A   1      34.083  17.236  24.530  1.00  0.00     0.063 C 
ATOM     23  N   UNL A   1      32.810  18.075  26.486  1.00  0.00    -0.345 N 
ATOM     24  C   UNL A   1      33.059  16.929  25.621  1.00  0.00     0.260 C 
ATOM     25  H   UNL A   1      33.649  18.255  27.036  1.00  0.00     0.346 HD
ATOM     26  H   UNL A   1      32.010  17.843  27.075  1.00  0.00     0.346 HD
ENDBRANCH  11  18
ENDBRANCH   9  10
ENDBRANCH   7   9
ENDBRANCH   6   7
ENDBRANCH   5   6
ENDBRANCH   4   5
ENDBRANCH   3   4
ENDBRANCH   2   3
ENDBRANCH   1   2
BRANCH   1  27
ATOM     27  O   UNL A   1      32.465  30.804  27.051  1.00  0.00    -0.376 OA
BRANCH  27  28
ATOM     28  C   UNL A   1      33.774  30.243  27.221  1.00  0.00     0.202 C 
BRANCH  28  29
ATOM     29  C   UNL A   1      34.675  30.907  28.285  1.00  0.00     0.261 C 
BRANCH  29  30
ATOM     30  O   UNL A   1      35.527  30.007  29.027  1.00  0.00    -0.460 OA
BRANCH  30  31
ATOM     31  C   UNL A   1      36.306  30.533  30.003  1.00  0.00     0.338 C 
ATOM     32  O   UNL A   1      35.921  30.971  31.074  1.00  0.00    -0.246 OA
BRANCH  31  33
ATOM     33  C   UNL A   1      37.730  30.229  29.685  1.00  0.00     0.060 A 
ATOM     34  C   UNL A   1      38.113  30.183  28.336  1.00  0.00     0.016 A 
ATOM     35  C   UNL A   1      38.698  30.069  30.684  1.00  0.00     0.016 A 
ATOM     36  C   UNL A   1      39.445  29.934  27.985  1.00  0.00     0.010 A 
ATOM     37  C   UNL A   1      40.028  29.808  30.331  1.00  0.00     0.010 A 
ATOM     38  C   UNL A   1      40.404  29.704  28.980  1.00  0.00    -0.014 A 
BRANCH  38  39
ATOM     39  C   UNL A   1      41.733  29.139  28.618  1.00  0.00     0.031 A 
ATOM     40  C   UNL A   1      42.911  30.079  28.578  1.00  0.00     0.074 A 
ATOM     41  C   UNL A   1      41.915  27.830  28.359  1.00  0.00     0.049 A 
ATOM     42  N   UNL A   1      44.152  29.846  28.234  1.00  0.00    -0.248 NA
ATOM     43  C   UNL A   1      42.652  31.470  28.988  1.00  0.00     0.031 C 
ATOM     44  C   UNL A   1      40.879  26.799  28.410  1.00  0.00     0.029 A 
ATOM     45  N   UNL A   1      43.050  27.145  27.992  1.00  0.00    -0.354 N 
ATOM     46  C   UNL A   1      44.820  31.054  28.392  1.00  0.00     0.074 A 
ATOM     47  C   UNL A   1      43.841  32.028  28.823  1.00  0.00     0.031 C 
ATOM     48  C   UNL A   1      41.424  25.615  28.071  1.00  0.00     0.029 A 
ATOM     49  C   UNL A   1      42.838  25.807  27.749  1.00  0.00     0.049 A 
ATOM     50  H   UNL A   1      43.932  27.573  27.910  1.00  0.00     0.167 HD
ATOM     51  C   UNL A   1      46.134  31.331  28.214  1.00  0.00     0.037 A 
ATOM     52  C   UNL A   1      43.683  24.855  27.296  1.00  0.00     0.037 A 
ATOM     53  C   UNL A   1      47.111  30.372  27.775  1.00  0.00     0.049 A 
ATOM     54  C   UNL A   1      45.123  25.213  27.001  1.00  0.00     0.074 A 
ATOM     55  C   UNL A   1      48.461  30.569  27.538  1.00  0.00     0.029 A 
ATOM     56  N   UNL A   1      46.849  29.038  27.508  1.00  0.00    -0.354 N 
ATOM     57  N   UNL A   1      45.739  26.361  27.154  1.00  0.00    -0.248 NA
ATOM     58  C   UNL A   1      45.982  24.142  26.470  1.00  0.00     0.031 C 
ATOM     59  C   UNL A   1      49.008  29.362  27.090  1.00  0.00     0.029 A 
ATOM     60  C   UNL A   1      48.009  28.402  27.097  1.00  0.00     0.049 A 
ATOM     61  H   UNL A   1      45.969  28.606  27.597  1.00  0.00     0.167 HD
ATOM     62  C   UNL A   1      47.062  26.137  26.778  1.00  0.00     0.074 A 
ATOM     63  C   UNL A   1      47.161  24.746  26.397  1.00  0.00     0.031 C 
ATOM     64  C   UNL A   1      48.104  27.007  26.749  1.00  0.00     0.037 A 
BRANCH  51  65
ATOM     65  C   UNL A   1      46.590  32.735  28.492  1.00  0.00     0.058 A 
ATOM     66  C   UNL A   1      47.113  33.100  29.743  1.00  0.00     0.135 A 
ATOM     67  C   UNL A   1      46.549  33.713  27.487  1.00  0.00     0.135 A 
ATOM     68  F   UNL A   1      47.152  32.208  30.746  1.00  0.00    -0.206 F 
ATOM     69  C   UNL A   1      47.564  34.391  29.992  1.00  0.00     0.059 A 
ATOM     70  C   UNL A   1      47.020  35.004  27.705  1.00  0.00     0.059 A 
ATOM     71  F   UNL A   1      46.053  33.417  26.275  1.00  0.00    -0.206 F 
ATOM     72  C   UNL A   1      47.517  35.335  28.965  1.00  0.00     0.060 A 
BRANCH  72  73
ATOM     73  S   UNL A   1      48.127  37.001  29.300  1.00  0.00     0.124 S 
ATOM     74  O   UNL A   1      48.389  37.490  27.949  1.00  0.00    -0.237 OA
ATOM     75  O   UNL A   1      46.996  37.613  29.988  1.00  0.00    -0.237 OA
ATOM     76  O   UNL A   1      49.310  36.771  30.124  1.00  0.00    -0.744 OA
ENDBRANCH  72  73
ENDBRANCH  51  65
BRANCH  52  77
ATOM     77  C   UNL A   1      43.203  23.465  27.050  1.00  0.00     0.058 A 
ATOM     78  C   UNL A   1      43.052  22.549  28.104  1.00  0.00     0.135 A 
ATOM     79  C   UNL A   1      42.958  23.002  25.748  1.00  0.00     0.135 A 
ATOM     80  F   UNL A   1      43.290  22.937  29.367  1.00  0.00    -0.206 F 
ATOM     81  C   UNL A   1      42.715  21.218  27.874  1.00  0.00     0.059 A 
ATOM     82  C   UNL A   1      42.590  21.683  25.495  1.00  0.00     0.059 A 
ATOM     83  F   UNL A   1      43.082  23.834  24.703  1.00  0.00    -0.206 F 
ATOM     84  C   UNL A   1      42.493  20.793  26.564  1.00  0.00     0.060 A 
BRANCH  84  85
ATOM     85  S   UNL A   1      42.061  19.063  26.273  1.00  0.00     0.124 S 
ATOM     86  O   UNL A   1      42.291  18.478  27.587  1.00  0.00    -0.237 OA
ATOM     87  O   UNL A   1      40.666  19.161  25.852  1.00  0.00    -0.237 OA
ATOM     88  O   UNL A   1      42.996  18.657  25.227  1.00  0.00    -0.744 OA
ENDBRANCH  84  85
ENDBRANCH  52  77
BRANCH  64  89
ATOM     89  C   UNL A   1      49.456  26.476  26.352  1.00  0.00     0.058 A 
ATOM     90  C   UNL A   1      49.993  26.694  25.074  1.00  0.00     0.135 A 
ATOM     91  C   UNL A   1      50.251  25.795  27.288  1.00  0.00     0.135 A 
ATOM     92  F   UNL A   1      49.276  27.338  24.140  1.00  0.00    -0.206 F 
ATOM     93  C   UNL A   1      51.261  26.234  24.730  1.00  0.00     0.059 A 
ATOM     94  C   UNL A   1      51.534  25.351  26.975  1.00  0.00     0.059 A 
ATOM     95  F   UNL A   1      49.793  25.571  28.530  1.00  0.00    -0.206 F 
ATOM     96  C   UNL A   1      52.025  25.566  25.689  1.00  0.00     0.060 A 
BRANCH  96  97
ATOM     97  S   UNL A   1      53.684  25.008  25.241  1.00  0.00     0.124 S 
ATOM     98  O   UNL A   1      53.893  25.694  23.971  1.00  0.00    -0.237 OA
ATOM     99  O   UNL A   1      54.488  25.486  26.360  1.00  0.00    -0.237 OA
ATOM    100  O   UNL A   1      53.543  23.557  25.154  1.00  0.00    -0.744 OA
ENDBRANCH  96  97
ENDBRANCH  64  89
ENDBRANCH  38  39
ENDBRANCH  31  33
ENDBRANCH  30  31
ENDBRANCH  29  30
ENDBRANCH  28  29
ENDBRANCH  27  28
ENDBRANCH   1  27
TORSDOF 22
ENDMDL
MODEL 3
REMARK VINA RESULT:     -10.4      1.262      2.120
REMARK SMILES C[C@]1(C(=O)N2CCC(CC(=O)OCCOCCOCCOC(=O)c3ccc(-c4c5nc(c(-c6c(F)cc(S(=O)(=O)[O-])cc6F)c6ccc([nH]6)c(-c6c(F)cc(S(=O)(=O)[O-])cc6F)c6nc(c(-c7c(F)cc(S(=O)(=O)[O-])cc7F)c7ccc4[nH]7)C=C6)C=C5)cc3)CC2)CCC[NH2+]C1
REMARK SMILES IDX 17 1 16 2 15 3 14 4 13 5 12 6 10 7 11 8 9 9 8 10 3 11 4 12
REMARK SMILES IDX 5 13 6 14 91 15 7 16 90 17 2 18 1 19 92 20 96 21 93 22 95 23
REMARK SMILES IDX 94 24 18 27 19 28 20 29 21 30 22 31 23 32 24 33 25 34 89 35
REMARK SMILES IDX 26 36 88 37 27 38 28 39 29 40 82 41 30 42 87 43 81 44 83 45
REMARK SMILES IDX 31 46 86 47 80 48 79 49 32 51 66 52 45 53 65 54 46 55 49 56
REMARK SMILES IDX 64 57 84 58 47 59 48 60 63 62 85 63 50 64 33 65 34 66 43 67
REMARK SMILES IDX 35 68 36 69 42 70 44 71 37 72 38 73 39 74 40 75 41 76 67 77
REMARK SMILES IDX 68 78 77 79 69 80 70 81 76 82 78 83 71 84 72 85 73 86 74 87
REMARK SMILES IDX 75 88 51 89 52 90 61 91 53 92 54 93 60 94 62 95 55 96 56 97
REMARK SMILES IDX 57 98 58 99 59 100
REMARK H PARENT 95 25 95 26 83 50 49 61
REMARK Flexibility Score: inf
ROOT
ATOM      1  C   UNL A   1      37.306  21.873  24.358  1.00  0.00     0.188 C 
ENDROOT
BRANCH   1   2
ATOM      2  C   UNL A   1      35.893  22.392  24.622  1.00  0.00     0.188 C 
BRANCH   2   3
ATOM      3  O   UNL A   1      35.221  21.858  25.757  1.00  0.00    -0.376 OA
BRANCH   3   4
ATOM      4  C   UNL A   1      34.854  22.782  26.779  1.00  0.00     0.202 C 
BRANCH   4   5
ATOM      5  C   UNL A   1      33.349  23.001  26.988  1.00  0.00     0.261 C 
BRANCH   5   6
ATOM      6  O   UNL A   1      32.740  23.794  25.952  1.00  0.00    -0.463 OA
BRANCH   6   7
ATOM      7  C   UNL A   1      31.834  23.156  25.173  1.00  0.00     0.306 C 
ATOM      8  O   UNL A   1      30.735  22.770  25.558  1.00  0.00    -0.252 OA
BRANCH   7   9
ATOM      9  C   UNL A   1      32.255  22.976  23.726  1.00  0.00     0.126 C 
BRANCH   9  10
ATOM     10  C   UNL A   1      32.258  24.136  22.703  1.00  0.00     0.003 C 
ATOM     11  C   UNL A   1      32.735  28.259  23.249  1.00  0.00     0.234 C 
ATOM     12  O   UNL A   1      33.525  29.046  22.714  1.00  0.00    -0.274 OA
ATOM     13  N   UNL A   1      32.565  26.995  22.731  1.00  0.00    -0.342 N 
ATOM     14  C   UNL A   1      33.696  26.248  22.219  1.00  0.00     0.120 C 
ATOM     15  C   UNL A   1      31.290  26.472  22.288  1.00  0.00     0.120 C 
ATOM     16  C   UNL A   1      33.639  24.853  22.832  1.00  0.00     0.026 C 
ATOM     17  C   UNL A   1      31.061  25.090  22.884  1.00  0.00     0.026 C 
BRANCH  11  18
ATOM     18  C   UNL A   1      32.148  28.592  24.654  1.00  0.00     0.095 C 
ATOM     19  C   UNL A   1      30.643  28.846  24.374  1.00  0.00     0.028 C 
ATOM     20  C   UNL A   1      32.284  27.365  25.576  1.00  0.00     0.028 C 
ATOM     21  C   UNL A   1      32.659  29.836  25.407  1.00  0.00     0.277 C 
ATOM     22  C   UNL A   1      33.707  27.249  26.119  1.00  0.00     0.063 C 
ATOM     23  N   UNL A   1      33.992  29.709  26.002  1.00  0.00    -0.345 N 
ATOM     24  C   UNL A   1      34.133  28.526  26.841  1.00  0.00     0.260 C 
ATOM     25  H   UNL A   1      34.679  29.659  25.250  1.00  0.00     0.346 HD
ATOM     26  H   UNL A   1      34.138  30.524  26.598  1.00  0.00     0.346 HD
ENDBRANCH  11  18
ENDBRANCH   9  10
ENDBRANCH   7   9
ENDBRANCH   6   7
ENDBRANCH   5   6
ENDBRANCH   4   5
ENDBRANCH   3   4
ENDBRANCH   2   3
ENDBRANCH   1   2
BRANCH   1  27
ATOM     27  O   UNL A   1      38.033  21.407  25.490  1.00  0.00    -0.376 OA
BRANCH  27  28
ATOM     28  C   UNL A   1      38.575  22.432  26.335  1.00  0.00     0.202 C 
BRANCH  28  29
ATOM     29  C   UNL A   1      40.113  22.479  26.460  1.00  0.00     0.261 C 
BRANCH  29  30
ATOM     30  O   UNL A   1      40.710  23.785  26.304  1.00  0.00    -0.460 OA
BRANCH  30  31
ATOM     31  C   UNL A   1      41.780  24.090  27.078  1.00  0.00     0.338 C 
ATOM     32  O   UNL A   1      42.908  23.643  26.955  1.00  0.00    -0.246 OA
BRANCH  31  33
ATOM     33  C   UNL A   1      41.432  25.269  27.920  1.00  0.00     0.060 A 
ATOM     34  C   UNL A   1      42.398  26.274  28.084  1.00  0.00     0.016 A 
ATOM     35  C   UNL A   1      40.160  25.436  28.479  1.00  0.00     0.016 A 
ATOM     36  C   UNL A   1      42.111  27.417  28.839  1.00  0.00     0.010 A 
ATOM     37  C   UNL A   1      39.878  26.575  29.244  1.00  0.00     0.010 A 
ATOM     38  C   UNL A   1      40.862  27.556  29.458  1.00  0.00    -0.014 A 
BRANCH  38  39
ATOM     39  C   UNL A   1      40.659  28.599  30.501  1.00  0.00     0.031 A 
ATOM     40  C   UNL A   1      41.535  28.548  31.728  1.00  0.00     0.074 A 
ATOM     41  C   UNL A   1      39.753  29.587  30.369  1.00  0.00     0.049 A 
ATOM     42  N   UNL A   1      41.512  29.299  32.799  1.00  0.00    -0.248 NA
ATOM     43  C   UNL A   1      42.578  27.509  31.743  1.00  0.00     0.031 C 
ATOM     44  C   UNL A   1      38.876  29.789  29.217  1.00  0.00     0.029 A 
ATOM     45  N   UNL A   1      39.418  30.608  31.228  1.00  0.00    -0.354 N 
ATOM     46  C   UNL A   1      42.540  28.831  33.609  1.00  0.00     0.074 A 
ATOM     47  C   UNL A   1      43.140  27.705  32.927  1.00  0.00     0.031 C 
ATOM     48  C   UNL A   1      38.092  30.860  29.447  1.00  0.00     0.029 A 
ATOM     49  C   UNL A   1      38.388  31.401  30.775  1.00  0.00     0.049 A 
ATOM     50  H   UNL A   1      39.873  30.757  32.088  1.00  0.00     0.167 HD
ATOM     51  C   UNL A   1      42.964  29.302  34.805  1.00  0.00     0.037 A 
ATOM     52  C   UNL A   1      37.745  32.427  31.373  1.00  0.00     0.037 A 
ATOM     53  C   UNL A   1      42.367  30.413  35.496  1.00  0.00     0.049 A 
ATOM     54  C   UNL A   1      38.166  32.867  32.758  1.00  0.00     0.074 A 
ATOM     55  C   UNL A   1      42.711  30.944  36.728  1.00  0.00     0.029 A 
ATOM     56  N   UNL A   1      41.306  31.166  35.019  1.00  0.00    -0.354 N 
ATOM     57  N   UNL A   1      39.139  32.412  33.512  1.00  0.00    -0.248 NA
ATOM     58  C   UNL A   1      37.398  33.962  33.373  1.00  0.00     0.031 C 
ATOM     59  C   UNL A   1      41.832  31.993  37.014  1.00  0.00     0.029 A 
ATOM     60  C   UNL A   1      40.975  32.149  35.937  1.00  0.00     0.049 A 
ATOM     61  H   UNL A   1      40.855  31.023  34.156  1.00  0.00     0.167 HD
ATOM     62  C   UNL A   1      39.124  33.192  34.666  1.00  0.00     0.074 A 
ATOM     63  C   UNL A   1      38.052  34.150  34.511  1.00  0.00     0.031 C 
ATOM     64  C   UNL A   1      39.925  33.120  35.760  1.00  0.00     0.037 A 
BRANCH  51  65
ATOM     65  C   UNL A   1      44.132  28.610  35.448  1.00  0.00     0.058 A 
ATOM     66  C   UNL A   1      43.952  27.508  36.299  1.00  0.00     0.135 A 
ATOM     67  C   UNL A   1      45.446  29.022  35.178  1.00  0.00     0.135 A 
ATOM     68  F   UNL A   1      42.714  27.089  36.609  1.00  0.00    -0.206 F 
ATOM     69  C   UNL A   1      45.033  26.847  36.870  1.00  0.00     0.059 A 
ATOM     70  C   UNL A   1      46.544  28.359  35.717  1.00  0.00     0.059 A 
ATOM     71  F   UNL A   1      45.673  30.075  34.377  1.00  0.00    -0.206 F 
ATOM     72  C   UNL A   1      46.326  27.278  36.570  1.00  0.00     0.060 A 
BRANCH  72  73
ATOM     73  S   UNL A   1      47.719  26.396  37.304  1.00  0.00     0.124 S 
ATOM     74  O   UNL A   1      48.236  25.662  36.153  1.00  0.00    -0.237 OA
ATOM     75  O   UNL A   1      48.557  27.488  37.789  1.00  0.00    -0.237 OA
ATOM     76  O   UNL A   1      47.097  25.578  38.341  1.00  0.00    -0.744 OA
ENDBRANCH  72  73
ENDBRANCH  51  65
BRANCH  52  77
ATOM     77  C   UNL A   1      36.602  33.106  30.699  1.00  0.00     0.058 A 
ATOM     78  C   UNL A   1      36.813  34.054  29.685  1.00  0.00     0.135 A 
ATOM     79  C   UNL A   1      35.278  32.876  31.106  1.00  0.00     0.135 A 
ATOM     80  F   UNL A   1      38.060  34.323  29.270  1.00  0.00    -0.206 F 
ATOM     81  C   UNL A   1      35.761  34.778  29.129  1.00  0.00     0.059 A 
ATOM     82  C   UNL A   1      34.207  33.564  30.544  1.00  0.00     0.059 A 
ATOM     83  F   UNL A   1      35.016  31.977  32.068  1.00  0.00    -0.206 F 
ATOM     84  C   UNL A   1      34.461  34.530  29.570  1.00  0.00     0.060 A 
BRANCH  84  85
ATOM     85  S   UNL A   1      33.102  35.475  28.848  1.00  0.00     0.124 S 
ATOM     86  O   UNL A   1      33.821  36.493  28.092  1.00  0.00    -0.237 OA
ATOM     87  O   UNL A   1      32.410  34.462  28.057  1.00  0.00    -0.237 OA
ATOM     88  O   UNL A   1      32.370  35.955  30.017  1.00  0.00    -0.744 OA
ENDBRANCH  84  85
ENDBRANCH  52  77
BRANCH  64  89
ATOM     89  C   UNL A   1      39.723  34.137  36.851  1.00  0.00     0.058 A 
ATOM     90  C   UNL A   1      39.023  33.833  38.029  1.00  0.00     0.135 A 
ATOM     91  C   UNL A   1      40.295  35.416  36.741  1.00  0.00     0.135 A 
ATOM     92  F   UNL A   1      38.455  32.628  38.186  1.00  0.00    -0.206 F 
ATOM     93  C   UNL A   1      38.877  34.770  39.050  1.00  0.00     0.059 A 
ATOM     94  C   UNL A   1      40.185  36.357  37.761  1.00  0.00     0.059 A 
ATOM     95  F   UNL A   1      40.986  35.755  35.641  1.00  0.00    -0.206 F 
ATOM     96  C   UNL A   1      39.465  36.028  38.907  1.00  0.00     0.060 A 
BRANCH  96  97
ATOM     97  S   UNL A   1      39.300  37.219  40.255  1.00  0.00     0.124 S 
ATOM     98  O   UNL A   1      38.377  36.528  41.149  1.00  0.00    -0.237 OA
ATOM     99  O   UNL A   1      40.672  37.343  40.733  1.00  0.00    -0.237 OA
ATOM    100  O   UNL A   1      38.763  38.406  39.596  1.00  0.00    -0.744 OA
ENDBRANCH  96  97
ENDBRANCH  64  89
ENDBRANCH  38  39
ENDBRANCH  31  33
ENDBRANCH  30  31
ENDBRANCH  29  30
ENDBRANCH  28  29
ENDBRANCH  27  28
ENDBRANCH   1  27
TORSDOF 22
ENDMDL
