MODEL 1
REMARK VINA RESULT:     -10.5      0.000      0.000
REMARK SMILES O=C(OCCOCCOCCOC(=O)[C@@H]1[NH2+]CC[C@H]1c1cccc2cccnc12)c1ccc(-c2c3nc(c(-c4c(F)cc(S(=O)(=O)[O-])cc4F)c4ccc([nH]4)c(-c4c(F)cc(S(=O)(=O)[O-])cc4F)c4nc(c(-c5c(F)cc(S(=O)(=O)[O-])cc5F)c5ccc2[nH]5)C=C4)C=C3)cc1
REMARK SMILES IDX 7 1 6 2 5 3 4 4 3 5 2 6 1 7 30 8 31 9 95 10 32 11 94 12
REMARK SMILES IDX 33 13 34 14 35 15 88 16 36 17 93 18 87 19 89 20 37 21 92 22
REMARK SMILES IDX 86 23 85 24 38 26 72 27 51 28 71 29 52 30 55 31 70 32 90 33
REMARK SMILES IDX 53 34 54 35 69 37 91 38 56 39 39 40 40 41 49 42 41 43 42 44
REMARK SMILES IDX 48 45 50 46 43 47 44 48 45 49 46 50 47 51 73 52 74 53 83 54
REMARK SMILES IDX 75 55 76 56 82 57 84 58 77 59 78 60 79 61 80 62 81 63 57 64
REMARK SMILES IDX 58 65 67 66 59 67 60 68 66 69 68 70 61 71 62 72 63 73 64 74
REMARK SMILES IDX 65 75 8 76 9 77 10 78 11 79 12 80 13 81 14 82 15 83 16 84
REMARK SMILES IDX 19 85 17 86 18 89 20 90 21 91 29 92 22 93 24 94 28 95 23 96
REMARK SMILES IDX 25 97 27 98 26 99
REMARK H PARENT 89 25 55 36 16 87 16 88
REMARK Flexibility Score: inf
ROOT
ATOM      1  C   UNL A   1      36.983  21.712  24.257  1.00  0.00     0.188 C 
ENDROOT
BRANCH   1   2
ATOM      2  O   UNL A   1      37.394  21.465  25.603  1.00  0.00    -0.376 OA
BRANCH   2   3
ATOM      3  C   UNL A   1      38.754  21.804  25.883  1.00  0.00     0.202 C 
BRANCH   3   4
ATOM      4  C   UNL A   1      39.018  23.231  26.401  1.00  0.00     0.261 C 
BRANCH   4   5
ATOM      5  O   UNL A   1      40.296  23.405  27.042  1.00  0.00    -0.460 OA
BRANCH   5   6
ATOM      6  C   UNL A   1      41.115  24.489  27.020  1.00  0.00     0.338 C 
ATOM      7  O   UNL A   1      42.083  24.473  26.260  1.00  0.00    -0.246 OA
BRANCH   6   8
ATOM      8  C   UNL A   1      40.913  25.701  27.874  1.00  0.00     0.060 A 
ATOM      9  C   UNL A   1      41.784  26.785  27.931  1.00  0.00     0.016 A 
ATOM     10  C   UNL A   1      39.738  25.767  28.644  1.00  0.00     0.016 A 
ATOM     11  C   UNL A   1      41.597  27.826  28.824  1.00  0.00     0.010 A 
ATOM     12  C   UNL A   1      39.507  26.843  29.509  1.00  0.00     0.010 A 
ATOM     13  C   UNL A   1      40.477  27.842  29.645  1.00  0.00    -0.014 A 
BRANCH  13  14
ATOM     14  C   UNL A   1      40.489  28.788  30.776  1.00  0.00     0.031 A 
ATOM     15  C   UNL A   1      39.439  29.861  30.791  1.00  0.00     0.074 A 
ATOM     16  C   UNL A   1      41.291  28.564  31.831  1.00  0.00     0.049 A 
ATOM     17  N   UNL A   1      39.209  30.785  31.681  1.00  0.00    -0.248 NA
ATOM     18  C   UNL A   1      38.502  29.883  29.650  1.00  0.00     0.031 C 
ATOM     19  C   UNL A   1      42.236  27.451  31.951  1.00  0.00     0.029 A 
ATOM     20  N   UNL A   1      41.410  29.228  33.021  1.00  0.00    -0.354 N 
ATOM     21  C   UNL A   1      38.132  31.517  31.193  1.00  0.00     0.074 A 
ATOM     22  C   UNL A   1      37.757  30.940  29.925  1.00  0.00     0.031 C 
ATOM     23  C   UNL A   1      42.820  27.496  33.159  1.00  0.00     0.029 A 
ATOM     24  C   UNL A   1      42.337  28.673  33.872  1.00  0.00     0.049 A 
ATOM     25  H   UNL A   1      40.882  30.029  33.247  1.00  0.00     0.167 HD
ATOM     26  C   UNL A   1      37.518  32.579  31.760  1.00  0.00     0.037 A 
ATOM     27  C   UNL A   1      42.758  29.092  35.079  1.00  0.00     0.037 A 
ATOM     28  C   UNL A   1      37.915  33.119  33.032  1.00  0.00     0.049 A 
ATOM     29  C   UNL A   1      42.124  30.334  35.647  1.00  0.00     0.074 A 
ATOM     30  C   UNL A   1      37.415  34.220  33.699  1.00  0.00     0.029 A 
ATOM     31  N   UNL A   1      38.923  32.586  33.829  1.00  0.00    -0.354 N 
ATOM     32  N   UNL A   1      41.151  31.063  35.149  1.00  0.00    -0.248 NA
ATOM     33  C   UNL A   1      42.640  30.814  36.933  1.00  0.00     0.031 C 
ATOM     34  C   UNL A   1      38.161  34.388  34.870  1.00  0.00     0.029 A 
ATOM     35  C   UNL A   1      39.077  33.350  34.970  1.00  0.00     0.049 A 
ATOM     36  H   UNL A   1      39.449  31.783  33.611  1.00  0.00     0.167 HD
ATOM     37  C   UNL A   1      40.914  32.069  36.076  1.00  0.00     0.074 A 
ATOM     38  C   UNL A   1      41.844  31.848  37.168  1.00  0.00     0.031 C 
ATOM     39  C   UNL A   1      40.011  33.081  36.038  1.00  0.00     0.037 A 
BRANCH  26  40
ATOM     40  C   UNL A   1      36.438  33.256  30.964  1.00  0.00     0.058 A 
ATOM     41  C   UNL A   1      36.712  34.043  29.832  1.00  0.00     0.135 A 
ATOM     42  C   UNL A   1      35.099  33.154  31.376  1.00  0.00     0.135 A 
ATOM     43  F   UNL A   1      37.976  34.206  29.412  1.00  0.00    -0.206 F 
ATOM     44  C   UNL A   1      35.704  34.733  29.163  1.00  0.00     0.059 A 
ATOM     45  C   UNL A   1      34.071  33.810  30.706  1.00  0.00     0.059 A 
ATOM     46  F   UNL A   1      34.780  32.428  32.459  1.00  0.00    -0.206 F 
ATOM     47  C   UNL A   1      34.386  34.613  29.612  1.00  0.00     0.060 A 
BRANCH  47  48
ATOM     48  S   UNL A   1      33.093  35.533  28.752  1.00  0.00     0.124 S 
ATOM     49  O   UNL A   1      33.876  36.512  28.007  1.00  0.00    -0.237 OA
ATOM     50  O   UNL A   1      32.449  34.497  27.955  1.00  0.00    -0.237 OA
ATOM     51  O   UNL A   1      32.282  36.078  29.841  1.00  0.00    -0.744 OA
ENDBRANCH  47  48
ENDBRANCH  26  40
BRANCH  27  52
ATOM     52  C   UNL A   1      43.831  28.357  35.801  1.00  0.00     0.058 A 
ATOM     53  C   UNL A   1      43.532  27.353  36.735  1.00  0.00     0.135 A 
ATOM     54  C   UNL A   1      45.187  28.637  35.564  1.00  0.00     0.135 A 
ATOM     55  F   UNL A   1      42.253  27.048  37.004  1.00  0.00    -0.206 F 
ATOM     56  C   UNL A   1      44.533  26.667  37.418  1.00  0.00     0.059 A 
ATOM     57  C   UNL A   1      46.206  27.944  36.211  1.00  0.00     0.059 A 
ATOM     58  F   UNL A   1      45.535  29.579  34.674  1.00  0.00    -0.206 F 
ATOM     59  C   UNL A   1      45.869  26.968  37.145  1.00  0.00     0.060 A 
BRANCH  59  60
ATOM     60  S   UNL A   1      47.163  26.046  38.002  1.00  0.00     0.124 S 
ATOM     61  O   UNL A   1      46.930  24.692  37.515  1.00  0.00    -0.237 OA
ATOM     62  O   UNL A   1      48.375  26.700  37.518  1.00  0.00    -0.237 OA
ATOM     63  O   UNL A   1      46.859  26.272  39.412  1.00  0.00    -0.744 OA
ENDBRANCH  59  60
ENDBRANCH  27  52
BRANCH  39  64
ATOM     64  C   UNL A   1      39.947  33.981  37.238  1.00  0.00     0.058 A 
ATOM     65  C   UNL A   1      40.682  35.172  37.314  1.00  0.00     0.135 A 
ATOM     66  C   UNL A   1      39.090  33.662  38.305  1.00  0.00     0.135 A 
ATOM     67  F   UNL A   1      41.516  35.517  36.321  1.00  0.00    -0.206 F 
ATOM     68  C   UNL A   1      40.596  36.003  38.425  1.00  0.00     0.059 A 
ATOM     69  C   UNL A   1      38.962  34.496  39.408  1.00  0.00     0.059 A 
ATOM     70  F   UNL A   1      38.355  32.539  38.271  1.00  0.00    -0.206 F 
ATOM     71  C   UNL A   1      39.731  35.656  39.465  1.00  0.00     0.060 A 
BRANCH  71  72
ATOM     72  S   UNL A   1      39.609  36.755  40.890  1.00  0.00     0.124 S 
ATOM     73  O   UNL A   1      38.529  36.134  41.648  1.00  0.00    -0.237 OA
ATOM     74  O   UNL A   1      40.942  36.650  41.479  1.00  0.00    -0.237 OA
ATOM     75  O   UNL A   1      39.294  38.050  40.294  1.00  0.00    -0.744 OA
ENDBRANCH  71  72
ENDBRANCH  39  64
ENDBRANCH  13  14
ENDBRANCH   6   8
ENDBRANCH   5   6
ENDBRANCH   4   5
ENDBRANCH   3   4
ENDBRANCH   2   3
ENDBRANCH   1   2
BRANCH   1  76
ATOM     76  C   UNL A   1      35.641  22.434  24.144  1.00  0.00     0.188 C 
BRANCH  76  77
ATOM     77  O   UNL A   1      34.746  22.310  25.245  1.00  0.00    -0.376 OA
BRANCH  77  78
ATOM     78  C   UNL A   1      33.783  21.264  25.160  1.00  0.00     0.202 C 
BRANCH  78  79
ATOM     79  C   UNL A   1      32.578  21.449  24.218  1.00  0.00     0.261 C 
BRANCH  79  80
ATOM     80  O   UNL A   1      32.508  22.711  23.532  1.00  0.00    -0.459 OA
BRANCH  80  81
ATOM     81  C   UNL A   1      31.546  23.581  23.967  1.00  0.00     0.365 C 
ATOM     82  O   UNL A   1      30.754  23.326  24.870  1.00  0.00    -0.245 OA
BRANCH  81  83
ATOM     83  C   UNL A   1      31.511  24.908  23.168  1.00  0.00     0.301 C 
ATOM     84  N   UNL A   1      32.109  24.758  21.808  1.00  0.00    -0.334 N 
ATOM     85  C   UNL A   1      32.355  25.991  23.904  1.00  0.00     0.097 C 
ATOM     86  C   UNL A   1      33.277  25.640  21.732  1.00  0.00     0.262 C 
ATOM     87  H   UNL A   1      31.427  25.022  21.097  1.00  0.00     0.347 HD
ATOM     88  H   UNL A   1      32.383  23.789  21.645  1.00  0.00     0.347 HD
ATOM     89  C   UNL A   1      33.689  25.847  23.172  1.00  0.00     0.076 C 
BRANCH  85  90
ATOM     90  C   UNL A   1      31.641  27.352  23.955  1.00  0.00    -0.012 A 
ATOM     91  C   UNL A   1      30.576  27.526  23.037  1.00  0.00     0.006 A 
ATOM     92  C   UNL A   1      31.923  28.380  24.880  1.00  0.00     0.074 A 
ATOM     93  C   UNL A   1      29.841  28.704  22.985  1.00  0.00     0.001 A 
ATOM     94  C   UNL A   1      31.148  29.566  24.827  1.00  0.00     0.000 A 
ATOM     95  N   UNL A   1      32.891  28.263  25.815  1.00  0.00    -0.256 NA
ATOM     96  C   UNL A   1      30.130  29.724  23.878  1.00  0.00     0.010 A 
ATOM     97  C   UNL A   1      31.403  30.592  25.749  1.00  0.00     0.012 A 
ATOM     98  C   UNL A   1      33.113  29.268  26.690  1.00  0.00     0.112 A 
ATOM     99  C   UNL A   1      32.399  30.444  26.700  1.00  0.00     0.021 A 
ENDBRANCH  85  90
ENDBRANCH  81  83
ENDBRANCH  80  81
ENDBRANCH  79  80
ENDBRANCH  78  79
ENDBRANCH  77  78
ENDBRANCH  76  77
ENDBRANCH   1  76
TORSDOF 21
ENDMDL
MODEL 2
REMARK VINA RESULT:     -10.4      1.211      8.427
REMARK SMILES O=C(OCCOCCOCCOC(=O)[C@@H]1[NH2+]CC[C@H]1c1cccc2cccnc12)c1ccc(-c2c3nc(c(-c4c(F)cc(S(=O)(=O)[O-])cc4F)c4ccc([nH]4)c(-c4c(F)cc(S(=O)(=O)[O-])cc4F)c4nc(c(-c5c(F)cc(S(=O)(=O)[O-])cc5F)c5ccc2[nH]5)C=C4)C=C3)cc1
REMARK SMILES IDX 7 1 6 2 5 3 4 4 3 5 2 6 1 7 30 8 31 9 95 10 32 11 94 12
REMARK SMILES IDX 33 13 34 14 35 15 88 16 36 17 93 18 87 19 89 20 37 21 92 22
REMARK SMILES IDX 86 23 85 24 38 26 72 27 51 28 71 29 52 30 55 31 70 32 90 33
REMARK SMILES IDX 53 34 54 35 69 37 91 38 56 39 39 40 40 41 49 42 41 43 42 44
REMARK SMILES IDX 48 45 50 46 43 47 44 48 45 49 46 50 47 51 73 52 74 53 83 54
REMARK SMILES IDX 75 55 76 56 82 57 84 58 77 59 78 60 79 61 80 62 81 63 57 64
REMARK SMILES IDX 58 65 67 66 59 67 60 68 66 69 68 70 61 71 62 72 63 73 64 74
REMARK SMILES IDX 65 75 8 76 9 77 10 78 11 79 12 80 13 81 14 82 15 83 16 84
REMARK SMILES IDX 19 85 17 86 18 89 20 90 21 91 29 92 22 93 24 94 28 95 23 96
REMARK SMILES IDX 25 97 27 98 26 99
REMARK H PARENT 89 25 55 36 16 87 16 88
REMARK Flexibility Score: inf
ROOT
ATOM      1  C   UNL A   1      36.585  22.582  25.679  1.00  0.00     0.188 C 
ENDROOT
BRANCH   1   2
ATOM      2  O   UNL A   1      37.910  22.888  26.119  1.00  0.00    -0.376 OA
BRANCH   2   3
ATOM      3  C   UNL A   1      38.886  21.891  25.808  1.00  0.00     0.202 C 
BRANCH   3   4
ATOM      4  C   UNL A   1      40.196  21.929  26.620  1.00  0.00     0.261 C 
BRANCH   4   5
ATOM      5  O   UNL A   1      40.284  23.018  27.558  1.00  0.00    -0.460 OA
BRANCH   5   6
ATOM      6  C   UNL A   1      41.076  24.121  27.506  1.00  0.00     0.338 C 
ATOM      7  O   UNL A   1      42.079  24.085  26.793  1.00  0.00    -0.246 OA
BRANCH   6   8
ATOM      8  C   UNL A   1      40.805  25.377  28.272  1.00  0.00     0.060 A 
ATOM      9  C   UNL A   1      41.739  26.382  28.503  1.00  0.00     0.016 A 
ATOM     10  C   UNL A   1      39.500  25.574  28.759  1.00  0.00     0.016 A 
ATOM     11  C   UNL A   1      41.457  27.469  29.313  1.00  0.00     0.010 A 
ATOM     12  C   UNL A   1      39.185  26.697  29.532  1.00  0.00     0.010 A 
ATOM     13  C   UNL A   1      40.190  27.612  29.864  1.00  0.00    -0.014 A 
BRANCH  13  14
ATOM     14  C   UNL A   1      40.041  28.596  30.952  1.00  0.00     0.031 A 
ATOM     15  C   UNL A   1      41.029  28.533  32.081  1.00  0.00     0.074 A 
ATOM     16  C   UNL A   1      39.174  29.616  30.822  1.00  0.00     0.049 A 
ATOM     17  N   UNL A   1      41.140  29.300  33.130  1.00  0.00    -0.248 NA
ATOM     18  C   UNL A   1      42.046  27.467  32.009  1.00  0.00     0.031 C 
ATOM     19  C   UNL A   1      38.284  29.825  29.677  1.00  0.00     0.029 A 
ATOM     20  N   UNL A   1      38.930  30.691  31.631  1.00  0.00    -0.354 N 
ATOM     21  C   UNL A   1      42.210  28.788  33.856  1.00  0.00     0.074 A 
ATOM     22  C   UNL A   1      42.711  27.642  33.139  1.00  0.00     0.031 C 
ATOM     23  C   UNL A   1      37.609  30.973  29.848  1.00  0.00     0.029 A 
ATOM     24  C   UNL A   1      37.973  31.546  31.138  1.00  0.00     0.049 A 
ATOM     25  H   UNL A   1      39.396  30.839  32.487  1.00  0.00     0.167 HD
ATOM     26  C   UNL A   1      42.722  29.243  35.022  1.00  0.00     0.037 A 
ATOM     27  C   UNL A   1      37.440  32.652  31.689  1.00  0.00     0.037 A 
ATOM     28  C   UNL A   1      42.201  30.397  35.702  1.00  0.00     0.049 A 
ATOM     29  C   UNL A   1      37.962  33.083  33.034  1.00  0.00     0.074 A 
ATOM     30  C   UNL A   1      42.589  30.936  36.912  1.00  0.00     0.029 A 
ATOM     31  N   UNL A   1      41.166  31.190  35.219  1.00  0.00    -0.354 N 
ATOM     32  N   UNL A   1      38.929  32.555  33.750  1.00  0.00    -0.248 NA
ATOM     33  C   UNL A   1      37.324  34.251  33.649  1.00  0.00     0.031 C 
ATOM     34  C   UNL A   1      41.749  32.020  37.189  1.00  0.00     0.029 A 
ATOM     35  C   UNL A   1      40.885  32.201  36.118  1.00  0.00     0.049 A 
ATOM     36  H   UNL A   1      40.701  31.051  34.362  1.00  0.00     0.167 HD
ATOM     37  C   UNL A   1      39.041  33.347  34.884  1.00  0.00     0.074 A 
ATOM     38  C   UNL A   1      38.044  34.394  34.754  1.00  0.00     0.031 C 
ATOM     39  C   UNL A   1      39.889  33.230  35.937  1.00  0.00     0.037 A 
BRANCH  26  40
ATOM     40  C   UNL A   1      43.821  28.435  35.653  1.00  0.00     0.058 A 
ATOM     41  C   UNL A   1      43.570  27.404  36.575  1.00  0.00     0.135 A 
ATOM     42  C   UNL A   1      45.163  28.736  35.363  1.00  0.00     0.135 A 
ATOM     43  F   UNL A   1      42.310  27.095  36.917  1.00  0.00    -0.206 F 
ATOM     44  C   UNL A   1      44.608  26.729  37.213  1.00  0.00     0.059 A 
ATOM     45  C   UNL A   1      46.215  28.055  35.965  1.00  0.00     0.059 A 
ATOM     46  F   UNL A   1      45.462  29.721  34.500  1.00  0.00    -0.206 F 
ATOM     47  C   UNL A   1      45.928  27.066  36.904  1.00  0.00     0.060 A 
BRANCH  47  48
ATOM     48  S   UNL A   1      47.263  26.202  37.758  1.00  0.00     0.124 S 
ATOM     49  O   UNL A   1      47.120  26.712  39.117  1.00  0.00    -0.237 OA
ATOM     50  O   UNL A   1      46.903  24.803  37.564  1.00  0.00    -0.237 OA
ATOM     51  O   UNL A   1      48.463  26.642  37.047  1.00  0.00    -0.744 OA
ENDBRANCH  47  48
ENDBRANCH  26  40
BRANCH  27  52
ATOM     52  C   UNL A   1      36.356  33.395  30.991  1.00  0.00     0.058 A 
ATOM     53  C   UNL A   1      36.613  34.160  29.843  1.00  0.00     0.135 A 
ATOM     54  C   UNL A   1      35.030  33.348  31.454  1.00  0.00     0.135 A 
ATOM     55  F   UNL A   1      37.862  34.244  29.359  1.00  0.00    -0.206 F 
ATOM     56  C   UNL A   1      35.602  34.862  29.190  1.00  0.00     0.059 A 
ATOM     57  C   UNL A   1      33.998  34.016  30.803  1.00  0.00     0.059 A 
ATOM     58  F   UNL A   1      34.722  32.624  32.542  1.00  0.00    -0.206 F 
ATOM     59  C   UNL A   1      34.296  34.780  29.677  1.00  0.00     0.060 A 
BRANCH  59  60
ATOM     60  S   UNL A   1      32.983  35.658  28.802  1.00  0.00     0.124 S 
ATOM     61  O   UNL A   1      32.177  36.160  29.908  1.00  0.00    -0.237 OA
ATOM     62  O   UNL A   1      33.733  36.659  28.051  1.00  0.00    -0.237 OA
ATOM     63  O   UNL A   1      32.363  34.613  27.992  1.00  0.00    -0.744 OA
ENDBRANCH  59  60
ENDBRANCH  27  52
BRANCH  39  64
ATOM     64  C   UNL A   1      39.813  34.295  36.993  1.00  0.00     0.058 A 
ATOM     65  C   UNL A   1      39.018  34.151  38.139  1.00  0.00     0.135 A 
ATOM     66  C   UNL A   1      40.595  35.456  36.871  1.00  0.00     0.135 A 
ATOM     67  F   UNL A   1      38.251  33.061  38.298  1.00  0.00    -0.206 F 
ATOM     68  C   UNL A   1      38.975  35.138  39.116  1.00  0.00     0.059 A 
ATOM     69  C   UNL A   1      40.594  36.438  37.852  1.00  0.00     0.059 A 
ATOM     70  F   UNL A   1      41.383  35.632  35.798  1.00  0.00    -0.206 F 
ATOM     71  C   UNL A   1      39.769  36.277  38.963  1.00  0.00     0.060 A 
BRANCH  71  72
ATOM     72  S   UNL A   1      39.724  37.540  40.250  1.00  0.00     0.124 S 
ATOM     73  O   UNL A   1      39.171  36.793  41.374  1.00  0.00    -0.237 OA
ATOM     74  O   UNL A   1      41.131  37.916  40.367  1.00  0.00    -0.237 OA
ATOM     75  O   UNL A   1      38.852  38.567  39.687  1.00  0.00    -0.744 OA
ENDBRANCH  71  72
ENDBRANCH  39  64
ENDBRANCH  13  14
ENDBRANCH   6   8
ENDBRANCH   5   6
ENDBRANCH   4   5
ENDBRANCH   3   4
ENDBRANCH   2   3
ENDBRANCH   1   2
BRANCH   1  76
ATOM     76  C   UNL A   1      36.395  21.124  25.263  1.00  0.00     0.188 C 
BRANCH  76  77
ATOM     77  O   UNL A   1      35.159  20.785  24.643  1.00  0.00    -0.376 OA
BRANCH  77  78
ATOM     78  C   UNL A   1      34.068  21.667  24.887  1.00  0.00     0.202 C 
BRANCH  78  79
ATOM     79  C   UNL A   1      32.794  21.097  25.540  1.00  0.00     0.261 C 
BRANCH  79  80
ATOM     80  O   UNL A   1      31.786  22.060  25.894  1.00  0.00    -0.459 OA
BRANCH  80  81
ATOM     81  C   UNL A   1      32.067  22.862  26.966  1.00  0.00     0.365 C 
ATOM     82  O   UNL A   1      32.562  22.453  28.012  1.00  0.00    -0.245 OA
BRANCH  81  83
ATOM     83  C   UNL A   1      31.645  24.338  26.756  1.00  0.00     0.301 C 
ATOM     84  N   UNL A   1      30.167  24.517  26.856  1.00  0.00    -0.334 N 
ATOM     85  C   UNL A   1      32.050  24.806  25.327  1.00  0.00     0.097 C 
ATOM     86  C   UNL A   1      29.685  25.002  25.560  1.00  0.00     0.262 C 
ATOM     87  H   UNL A   1      29.947  25.196  27.585  1.00  0.00     0.347 HD
ATOM     88  H   UNL A   1      29.717  23.633  27.096  1.00  0.00     0.347 HD
ATOM     89  C   UNL A   1      30.743  24.560  24.574  1.00  0.00     0.076 C 
BRANCH  85  90
ATOM     90  C   UNL A   1      32.693  26.203  25.329  1.00  0.00    -0.012 A 
ATOM     91  C   UNL A   1      32.889  26.791  26.604  1.00  0.00     0.006 A 
ATOM     92  C   UNL A   1      33.156  26.883  24.183  1.00  0.00     0.074 A 
ATOM     93  C   UNL A   1      33.469  28.044  26.749  1.00  0.00     0.001 A 
ATOM     94  C   UNL A   1      33.765  28.152  24.353  1.00  0.00     0.000 A 
ATOM     95  N   UNL A   1      33.047  26.362  22.941  1.00  0.00    -0.256 NA
ATOM     96  C   UNL A   1      33.903  28.726  25.623  1.00  0.00     0.010 A 
ATOM     97  C   UNL A   1      34.245  28.837  23.226  1.00  0.00     0.012 A 
ATOM     98  C   UNL A   1      33.519  27.045  21.876  1.00  0.00     0.112 A 
ATOM     99  C   UNL A   1      34.125  28.277  21.965  1.00  0.00     0.021 A 
ENDBRANCH  85  90
ENDBRANCH  81  83
ENDBRANCH  80  81
ENDBRANCH  79  80
ENDBRANCH  78  79
ENDBRANCH  77  78
ENDBRANCH  76  77
ENDBRANCH   1  76
TORSDOF 21
ENDMDL
MODEL 3
REMARK VINA RESULT:     -10.3      1.831      8.737
REMARK SMILES O=C(OCCOCCOCCOC(=O)[C@@H]1[NH2+]CC[C@H]1c1cccc2cccnc12)c1ccc(-c2c3nc(c(-c4c(F)cc(S(=O)(=O)[O-])cc4F)c4ccc([nH]4)c(-c4c(F)cc(S(=O)(=O)[O-])cc4F)c4nc(c(-c5c(F)cc(S(=O)(=O)[O-])cc5F)c5ccc2[nH]5)C=C4)C=C3)cc1
REMARK SMILES IDX 7 1 6 2 5 3 4 4 3 5 2 6 1 7 30 8 31 9 95 10 32 11 94 12
REMARK SMILES IDX 33 13 34 14 35 15 88 16 36 17 93 18 87 19 89 20 37 21 92 22
REMARK SMILES IDX 86 23 85 24 38 26 72 27 51 28 71 29 52 30 55 31 70 32 90 33
REMARK SMILES IDX 53 34 54 35 69 37 91 38 56 39 39 40 40 41 49 42 41 43 42 44
REMARK SMILES IDX 48 45 50 46 43 47 44 48 45 49 46 50 47 51 73 52 74 53 83 54
REMARK SMILES IDX 75 55 76 56 82 57 84 58 77 59 78 60 79 61 80 62 81 63 57 64
REMARK SMILES IDX 58 65 67 66 59 67 60 68 66 69 68 70 61 71 62 72 63 73 64 74
REMARK SMILES IDX 65 75 8 76 9 77 10 78 11 79 12 80 13 81 14 82 15 83 16 84
REMARK SMILES IDX 19 85 17 86 18 89 20 90 21 91 29 92 22 93 24 94 28 95 23 96
REMARK SMILES IDX 25 97 27 98 26 99
REMARK H PARENT 89 25 55 36 16 87 16 88
REMARK Flexibility Score: inf
ROOT
ATOM      1  C   UNL A   1      42.152  20.059  26.077  1.00  0.00     0.188 C 
ENDROOT
BRANCH   1   2
ATOM      2  O   UNL A   1      42.701  21.183  25.385  1.00  0.00    -0.376 OA
BRANCH   2   3
ATOM      3  C   UNL A   1      44.118  21.322  25.507  1.00  0.00     0.202 C 
BRANCH   3   4
ATOM      4  C   UNL A   1      44.630  22.588  26.223  1.00  0.00     0.261 C 
BRANCH   4   5
ATOM      5  O   UNL A   1      43.596  23.392  26.821  1.00  0.00    -0.460 OA
BRANCH   5   6
ATOM      6  C   UNL A   1      43.085  24.575  26.389  1.00  0.00     0.338 C 
ATOM      7  O   UNL A   1      43.095  24.807  25.180  1.00  0.00    -0.246 OA
BRANCH   6   8
ATOM      8  C   UNL A   1      42.518  25.618  27.299  1.00  0.00     0.060 A 
ATOM      9  C   UNL A   1      42.966  26.933  27.376  1.00  0.00     0.016 A 
ATOM     10  C   UNL A   1      41.425  25.253  28.105  1.00  0.00     0.016 A 
ATOM     11  C   UNL A   1      42.471  27.819  28.317  1.00  0.00     0.010 A 
ATOM     12  C   UNL A   1      40.876  26.158  29.021  1.00  0.00     0.010 A 
ATOM     13  C   UNL A   1      41.450  27.424  29.171  1.00  0.00    -0.014 A 
BRANCH  13  14
ATOM     14  C   UNL A   1      41.185  28.284  30.340  1.00  0.00     0.031 A 
ATOM     15  C   UNL A   1      42.161  28.221  31.479  1.00  0.00     0.074 A 
ATOM     16  C   UNL A   1      40.217  29.215  30.284  1.00  0.00     0.049 A 
ATOM     17  N   UNL A   1      42.178  28.896  32.595  1.00  0.00    -0.248 NA
ATOM     18  C   UNL A   1      43.287  27.278  31.333  1.00  0.00     0.031 C 
ATOM     19  C   UNL A   1      39.323  29.434  29.144  1.00  0.00     0.029 A 
ATOM     20  N   UNL A   1      39.851  30.180  31.181  1.00  0.00    -0.354 N 
ATOM     21  C   UNL A   1      43.288  28.435  33.294  1.00  0.00     0.074 A 
ATOM     22  C   UNL A   1      43.916  27.417  32.488  1.00  0.00     0.031 C 
ATOM     23  C   UNL A   1      38.528  30.484  29.403  1.00  0.00     0.029 A 
ATOM     24  C   UNL A   1      38.814  30.972  30.747  1.00  0.00     0.049 A 
ATOM     25  H   UNL A   1      40.289  30.297  32.056  1.00  0.00     0.167 HD
ATOM     26  C   UNL A   1      43.736  28.832  34.507  1.00  0.00     0.037 A 
ATOM     27  C   UNL A   1      38.161  31.961  31.383  1.00  0.00     0.037 A 
ATOM     28  C   UNL A   1      43.088  29.858  35.277  1.00  0.00     0.049 A 
ATOM     29  C   UNL A   1      38.619  32.319  32.772  1.00  0.00     0.074 A 
ATOM     30  C   UNL A   1      43.403  30.322  36.538  1.00  0.00     0.029 A 
ATOM     31  N   UNL A   1      41.980  30.580  34.845  1.00  0.00    -0.354 N 
ATOM     32  N   UNL A   1      39.628  31.832  33.458  1.00  0.00    -0.248 NA
ATOM     33  C   UNL A   1      37.854  33.354  33.476  1.00  0.00     0.031 C 
ATOM     34  C   UNL A   1      42.449  31.283  36.894  1.00  0.00     0.029 A 
ATOM     35  C   UNL A   1      41.583  31.470  35.825  1.00  0.00     0.049 A 
ATOM     36  H   UNL A   1      41.543  30.472  33.969  1.00  0.00     0.167 HD
ATOM     37  C   UNL A   1      39.643  32.524  34.661  1.00  0.00     0.074 A 
ATOM     38  C   UNL A   1      38.542  33.469  34.604  1.00  0.00     0.031 C 
ATOM     39  C   UNL A   1      40.486  32.401  35.717  1.00  0.00     0.037 A 
BRANCH  26  40
ATOM     40  C   UNL A   1      44.908  28.089  35.085  1.00  0.00     0.058 A 
ATOM     41  C   UNL A   1      44.760  26.917  35.846  1.00  0.00     0.135 A 
ATOM     42  C   UNL A   1      46.207  28.594  34.914  1.00  0.00     0.135 A 
ATOM     43  F   UNL A   1      43.540  26.407  36.072  1.00  0.00    -0.206 F 
ATOM     44  C   UNL A   1      45.853  26.296  36.446  1.00  0.00     0.059 A 
ATOM     45  C   UNL A   1      47.317  27.974  35.479  1.00  0.00     0.059 A 
ATOM     46  F   UNL A   1      46.407  29.719  34.209  1.00  0.00    -0.206 F 
ATOM     47  C   UNL A   1      47.127  26.836  36.260  1.00  0.00     0.060 A 
BRANCH  47  48
ATOM     48  S   UNL A   1      48.531  26.036  37.066  1.00  0.00     0.124 S 
ATOM     49  O   UNL A   1      48.555  24.741  36.396  1.00  0.00    -0.237 OA
ATOM     50  O   UNL A   1      49.630  26.938  36.743  1.00  0.00    -0.237 OA
ATOM     51  O   UNL A   1      48.142  26.007  38.475  1.00  0.00    -0.744 OA
ENDBRANCH  47  48
ENDBRANCH  26  40
BRANCH  27  52
ATOM     52  C   UNL A   1      37.012  32.647  30.732  1.00  0.00     0.058 A 
ATOM     53  C   UNL A   1      37.203  33.725  29.855  1.00  0.00     0.135 A 
ATOM     54  C   UNL A   1      35.691  32.231  30.968  1.00  0.00     0.135 A 
ATOM     55  F   UNL A   1      38.444  34.168  29.597  1.00  0.00    -0.206 F 
ATOM     56  C   UNL A   1      36.131  34.375  29.248  1.00  0.00     0.059 A 
ATOM     57  C   UNL A   1      34.605  32.844  30.350  1.00  0.00     0.059 A 
ATOM     58  F   UNL A   1      35.446  31.198  31.789  1.00  0.00    -0.206 F 
ATOM     59  C   UNL A   1      34.834  33.923  29.500  1.00  0.00     0.060 A 
BRANCH  59  60
ATOM     60  S   UNL A   1      33.450  34.741  28.678  1.00  0.00     0.124 S 
ATOM     61  O   UNL A   1      32.545  34.981  29.795  1.00  0.00    -0.237 OA
ATOM     62  O   UNL A   1      34.090  35.923  28.108  1.00  0.00    -0.237 OA
ATOM     63  O   UNL A   1      33.005  33.748  27.705  1.00  0.00    -0.744 OA
ENDBRANCH  59  60
ENDBRANCH  27  52
BRANCH  39  64
ATOM     64  C   UNL A   1      40.286  33.351  36.862  1.00  0.00     0.058 A 
ATOM     65  C   UNL A   1      39.371  33.092  37.892  1.00  0.00     0.135 A 
ATOM     66  C   UNL A   1      41.067  34.516  36.947  1.00  0.00     0.135 A 
ATOM     67  F   UNL A   1      38.600  31.994  37.852  1.00  0.00    -0.206 F 
ATOM     68  C   UNL A   1      39.213  33.973  38.955  1.00  0.00     0.059 A 
ATOM     69  C   UNL A   1      40.950  35.391  38.018  1.00  0.00     0.059 A 
ATOM     70  F   UNL A   1      41.967  34.799  35.992  1.00  0.00    -0.206 F 
ATOM     71  C   UNL A   1      40.010  35.119  39.009  1.00  0.00     0.060 A 
BRANCH  71  72
ATOM     72  S   UNL A   1      39.813  36.242  40.406  1.00  0.00     0.124 S 
ATOM     73  O   UNL A   1      39.822  37.540  39.742  1.00  0.00    -0.237 OA
ATOM     74  O   UNL A   1      38.529  35.823  40.964  1.00  0.00    -0.237 OA
ATOM     75  O   UNL A   1      40.975  35.954  41.240  1.00  0.00    -0.744 OA
ENDBRANCH  71  72
ENDBRANCH  39  64
ENDBRANCH  13  14
ENDBRANCH   6   8
ENDBRANCH   5   6
ENDBRANCH   4   5
ENDBRANCH   3   4
ENDBRANCH   2   3
ENDBRANCH   1   2
BRANCH   1  76
ATOM     76  C   UNL A   1      40.855  20.368  26.822  1.00  0.00     0.188 C 
BRANCH  76  77
ATOM     77  O   UNL A   1      40.527  21.742  27.006  1.00  0.00    -0.376 OA
BRANCH  77  78
ATOM     78  C   UNL A   1      39.359  22.206  26.335  1.00  0.00     0.202 C 
BRANCH  78  79
ATOM     79  C   UNL A   1      38.947  23.680  26.512  1.00  0.00     0.261 C 
BRANCH  79  80
ATOM     80  O   UNL A   1      37.532  23.934  26.558  1.00  0.00    -0.459 OA
BRANCH  80  81
ATOM     81  C   UNL A   1      36.782  23.346  25.577  1.00  0.00     0.365 C 
ATOM     82  O   UNL A   1      37.152  23.230  24.412  1.00  0.00    -0.245 OA
BRANCH  81  83
ATOM     83  C   UNL A   1      35.384  22.887  26.065  1.00  0.00     0.301 C 
ATOM     84  N   UNL A   1      35.374  21.447  26.459  1.00  0.00    -0.334 N 
ATOM     85  C   UNL A   1      34.347  23.037  24.913  1.00  0.00     0.097 C 
ATOM     86  C   UNL A   1      34.441  20.746  25.571  1.00  0.00     0.262 C 
ATOM     87  H   UNL A   1      35.067  21.354  27.427  1.00  0.00     0.347 HD
ATOM     88  H   UNL A   1      36.309  21.049  26.379  1.00  0.00     0.347 HD
ATOM     89  C   UNL A   1      34.363  21.619  24.339  1.00  0.00     0.076 C 
BRANCH  85  90
ATOM     90  C   UNL A   1      33.027  23.664  25.392  1.00  0.00    -0.012 A 
ATOM     91  C   UNL A   1      31.944  22.767  25.568  1.00  0.00     0.006 A 
ATOM     92  C   UNL A   1      32.852  25.023  25.729  1.00  0.00     0.074 A 
ATOM     93  C   UNL A   1      30.700  23.200  26.007  1.00  0.00     0.001 A 
ATOM     94  C   UNL A   1      31.580  25.443  26.196  1.00  0.00     0.000 A 
ATOM     95  N   UNL A   1      33.853  25.925  25.632  1.00  0.00    -0.256 NA
ATOM     96  C   UNL A   1      30.518  24.539  26.316  1.00  0.00     0.010 A 
ATOM     97  C   UNL A   1      31.392  26.787  26.550  1.00  0.00     0.012 A 
ATOM     98  C   UNL A   1      33.641  27.212  25.982  1.00  0.00     0.112 A 
ATOM     99  C   UNL A   1      32.437  27.690  26.446  1.00  0.00     0.021 A 
ENDBRANCH  85  90
ENDBRANCH  81  83
ENDBRANCH  80  81
ENDBRANCH  79  80
ENDBRANCH  78  79
ENDBRANCH  77  78
ENDBRANCH  76  77
ENDBRANCH   1  76
TORSDOF 21
ENDMDL
