MODEL 1
REMARK VINA RESULT:     -10.3      0.000      0.000
REMARK SMILES O=C(CCCC(=O)N1CCC(C2N=c3ccccc3=N2)CC1)OCCOCCOCCOC(=O)c1ccc(-c2c3nc(c(-c4c(F)cc(S(=O)(=O)[O-])cc4F)c4ccc([nH]4)c(-c4c(F)cc(S(=O)(=O)[O-])cc4F)c4nc(c(-c5c(F)cc(S(=O)(=O)[O-])cc5F)c5ccc2[nH]5)C=C4)C=C3)cc1
REMARK SMILES IDX 27 1 26 2 25 3 24 4 23 5 2 6 1 7 3 8 4 9 5 10 6 11 7 12 8 13
REMARK SMILES IDX 9 14 22 15 10 16 21 17 11 18 12 19 13 20 20 21 14 22 19 23
REMARK SMILES IDX 15 24 18 25 16 26 17 27 28 28 29 29 30 30 31 31 32 32 33 33
REMARK SMILES IDX 34 34 35 35 36 36 100 37 37 38 99 39 38 40 39 41 40 42 93 43
REMARK SMILES IDX 41 44 98 45 92 46 94 47 42 48 97 49 91 50 90 51 43 53 77 54
REMARK SMILES IDX 56 55 76 56 57 57 60 58 75 59 95 60 58 61 59 62 74 64 96 65
REMARK SMILES IDX 61 66 44 67 45 68 54 69 46 70 47 71 53 72 55 73 48 74 49 75
REMARK SMILES IDX 50 76 51 77 52 78 78 79 79 80 88 81 80 82 81 83 87 84 89 85
REMARK SMILES IDX 82 86 83 87 84 88 85 89 86 90 62 91 63 92 72 93 64 94 65 95
REMARK SMILES IDX 71 96 73 97 66 98 67 99 68 100 69 101 70 102
REMARK H PARENT 94 52 60 63
REMARK Flexibility Score: inf
ROOT
ATOM      1  C   UNL A   1      36.560  23.826  25.179  1.00  0.00     0.188 C 
ENDROOT
BRANCH   1   2
ATOM      2  O   UNL A   1      35.342  23.433  25.810  1.00  0.00    -0.376 OA
BRANCH   2   3
ATOM      3  C   UNL A   1      34.378  24.485  25.919  1.00  0.00     0.202 C 
BRANCH   3   4
ATOM      4  C   UNL A   1      34.352  25.399  24.686  1.00  0.00     0.261 C 
BRANCH   4   5
ATOM      5  O   UNL A   1      33.135  26.159  24.704  1.00  0.00    -0.463 OA
BRANCH   5   6
ATOM      6  C   UNL A   1      33.231  27.406  24.185  1.00  0.00     0.305 C 
ATOM      7  O   UNL A   1      34.294  27.978  23.965  1.00  0.00    -0.252 OA
BRANCH   6   8
ATOM      8  C   UNL A   1      31.890  28.107  24.152  1.00  0.00     0.123 C 
BRANCH   8   9
ATOM      9  C   UNL A   1      30.679  27.382  23.557  1.00  0.00     0.022 C 
BRANCH   9  10
ATOM     10  C   UNL A   1      29.861  26.389  24.380  1.00  0.00     0.101 C 
BRANCH  10  11
ATOM     11  C   UNL A   1      30.284  25.391  25.464  1.00  0.00     0.222 C 
ATOM     12  O   UNL A   1      30.306  25.852  26.619  1.00  0.00    -0.275 OA
ATOM     13  N   UNL A   1      30.521  24.049  25.275  1.00  0.00    -0.343 N 
ATOM     14  C   UNL A   1      30.410  23.166  26.442  1.00  0.00     0.120 C 
ATOM     15  C   UNL A   1      30.811  23.375  24.020  1.00  0.00     0.120 C 
ATOM     16  C   UNL A   1      31.585  22.206  26.592  1.00  0.00     0.029 C 
ATOM     17  C   UNL A   1      31.991  22.418  24.136  1.00  0.00     0.029 C 
ATOM     18  C   UNL A   1      31.824  21.424  25.295  1.00  0.00     0.039 C 
BRANCH  18  19
ATOM     19  C   UNL A   1      33.026  20.472  25.371  1.00  0.00     0.225 C 
ATOM     20  N   UNL A   1      32.709  19.326  26.251  1.00  0.00    -0.256 NA
ATOM     21  N   UNL A   1      33.432  20.006  24.015  1.00  0.00    -0.256 NA
ATOM     22  C   UNL A   1      32.941  18.317  25.493  1.00  0.00     0.085 A 
ATOM     23  C   UNL A   1      33.409  18.724  24.151  1.00  0.00     0.085 A 
ATOM     24  C   UNL A   1      32.756  16.903  25.806  1.00  0.00     0.030 A 
ATOM     25  C   UNL A   1      33.760  17.686  23.177  1.00  0.00     0.030 A 
ATOM     26  C   UNL A   1      33.057  16.021  24.845  1.00  0.00     0.002 A 
ATOM     27  C   UNL A   1      33.583  16.410  23.549  1.00  0.00     0.002 A 
ENDBRANCH  18  19
ENDBRANCH  10  11
ENDBRANCH   9  10
ENDBRANCH   8   9
ENDBRANCH   6   8
ENDBRANCH   5   6
ENDBRANCH   4   5
ENDBRANCH   3   4
ENDBRANCH   2   3
ENDBRANCH   1   2
BRANCH   1  28
ATOM     28  C   UNL A   1      37.765  23.654  26.096  1.00  0.00     0.188 C 
BRANCH  28  29
ATOM     29  O   UNL A   1      38.599  22.550  25.755  1.00  0.00    -0.376 OA
BRANCH  29  30
ATOM     30  C   UNL A   1      39.610  22.235  26.723  1.00  0.00     0.202 C 
BRANCH  30  31
ATOM     31  C   UNL A   1      41.046  22.450  26.228  1.00  0.00     0.261 C 
BRANCH  31  32
ATOM     32  O   UNL A   1      41.746  23.394  27.066  1.00  0.00    -0.460 OA
BRANCH  32  33
ATOM     33  C   UNL A   1      42.110  24.570  26.513  1.00  0.00     0.338 C 
ATOM     34  O   UNL A   1      42.567  24.757  25.390  1.00  0.00    -0.246 OA
BRANCH  33  35
ATOM     35  C   UNL A   1      41.773  25.652  27.453  1.00  0.00     0.060 A 
ATOM     36  C   UNL A   1      40.707  25.483  28.331  1.00  0.00     0.016 A 
ATOM     37  C   UNL A   1      42.550  26.813  27.510  1.00  0.00     0.016 A 
ATOM     38  C   UNL A   1      40.399  26.489  29.253  1.00  0.00     0.010 A 
ATOM     39  C   UNL A   1      42.286  27.785  28.489  1.00  0.00     0.010 A 
ATOM     40  C   UNL A   1      41.222  27.625  29.392  1.00  0.00    -0.014 A 
BRANCH  40  41
ATOM     41  C   UNL A   1      41.059  28.519  30.584  1.00  0.00     0.031 A 
ATOM     42  C   UNL A   1      41.943  28.431  31.804  1.00  0.00     0.074 A 
ATOM     43  C   UNL A   1      40.058  29.428  30.571  1.00  0.00     0.049 A 
ATOM     44  N   UNL A   1      41.883  29.129  32.913  1.00  0.00    -0.248 NA
ATOM     45  C   UNL A   1      43.020  27.430  31.793  1.00  0.00     0.031 C 
ATOM     46  C   UNL A   1      39.090  29.597  29.482  1.00  0.00     0.029 A 
ATOM     47  N   UNL A   1      39.690  30.392  31.481  1.00  0.00    -0.354 N 
ATOM     48  C   UNL A   1      42.895  28.647  33.736  1.00  0.00     0.074 A 
ATOM     49  C   UNL A   1      43.543  27.575  33.006  1.00  0.00     0.031 C 
ATOM     50  C   UNL A   1      38.299  30.644  29.748  1.00  0.00     0.029 A 
ATOM     51  C   UNL A   1      38.634  31.171  31.064  1.00  0.00     0.049 A 
ATOM     52  H   UNL A   1      40.139  30.513  32.348  1.00  0.00     0.167 HD
ATOM     53  C   UNL A   1      43.258  29.065  34.975  1.00  0.00     0.037 A 
ATOM     54  C   UNL A   1      37.982  32.185  31.668  1.00  0.00     0.037 A 
ATOM     55  C   UNL A   1      42.633  30.152  35.691  1.00  0.00     0.049 A 
ATOM     56  C   UNL A   1      38.392  32.613  33.047  1.00  0.00     0.074 A 
ATOM     57  C   UNL A   1      42.974  30.667  36.932  1.00  0.00     0.029 A 
ATOM     58  N   UNL A   1      41.549  30.892  35.243  1.00  0.00    -0.354 N 
ATOM     59  N   UNL A   1      39.374  32.161  33.787  1.00  0.00    -0.248 NA
ATOM     60  C   UNL A   1      37.596  33.673  33.683  1.00  0.00     0.031 C 
ATOM     61  C   UNL A   1      42.071  31.683  37.255  1.00  0.00     0.029 A 
ATOM     62  C   UNL A   1      41.196  31.839  36.194  1.00  0.00     0.049 A 
ATOM     63  H   UNL A   1      41.097  30.764  34.378  1.00  0.00     0.167 HD
ATOM     64  C   UNL A   1      39.321  32.888  34.970  1.00  0.00     0.074 A 
ATOM     65  C   UNL A   1      38.224  33.823  34.841  1.00  0.00     0.031 C 
ATOM     66  C   UNL A   1      40.110  32.777  36.064  1.00  0.00     0.037 A 
BRANCH  53  67
ATOM     67  C   UNL A   1      44.402  28.368  35.664  1.00  0.00     0.058 A 
ATOM     68  C   UNL A   1      44.190  27.253  36.487  1.00  0.00     0.135 A 
ATOM     69  C   UNL A   1      45.732  28.735  35.390  1.00  0.00     0.135 A 
ATOM     70  F   UNL A   1      42.941  26.861  36.786  1.00  0.00    -0.206 F 
ATOM     71  C   UNL A   1      45.252  26.528  37.019  1.00  0.00     0.059 A 
ATOM     72  C   UNL A   1      46.810  28.011  35.893  1.00  0.00     0.059 A 
ATOM     73  F   UNL A   1      45.993  29.789  34.601  1.00  0.00    -0.206 F 
ATOM     74  C   UNL A   1      46.559  26.910  36.710  1.00  0.00     0.060 A 
BRANCH  74  75
ATOM     75  S   UNL A   1      47.922  25.930  37.378  1.00  0.00     0.124 S 
ATOM     76  O   UNL A   1      49.004  26.910  37.396  1.00  0.00    -0.237 OA
ATOM     77  O   UNL A   1      47.407  25.532  38.684  1.00  0.00    -0.237 OA
ATOM     78  O   UNL A   1      48.074  24.849  36.410  1.00  0.00    -0.744 OA
ENDBRANCH  74  75
ENDBRANCH  53  67
BRANCH  54  79
ATOM     79  C   UNL A   1      36.857  32.862  30.966  1.00  0.00     0.058 A 
ATOM     80  C   UNL A   1      37.101  33.793  29.947  1.00  0.00     0.135 A 
ATOM     81  C   UNL A   1      35.520  32.573  31.283  1.00  0.00     0.135 A 
ATOM     82  F   UNL A   1      38.361  34.109  29.613  1.00  0.00    -0.206 F 
ATOM     83  C   UNL A   1      36.060  34.422  29.272  1.00  0.00     0.059 A 
ATOM     84  C   UNL A   1      34.462  33.164  30.600  1.00  0.00     0.059 A 
ATOM     85  F   UNL A   1      35.233  31.677  32.240  1.00  0.00    -0.206 F 
ATOM     86  C   UNL A   1      34.743  34.096  29.603  1.00  0.00     0.060 A 
BRANCH  86  87
ATOM     87  S   UNL A   1      33.401  34.884  28.688  1.00  0.00     0.124 S 
ATOM     88  O   UNL A   1      33.075  33.857  27.705  1.00  0.00    -0.237 OA
ATOM     89  O   UNL A   1      32.407  35.108  29.733  1.00  0.00    -0.237 OA
ATOM     90  O   UNL A   1      34.023  36.093  28.154  1.00  0.00    -0.744 OA
ENDBRANCH  86  87
ENDBRANCH  54  79
BRANCH  66  91
ATOM     91  C   UNL A   1      39.840  33.699  37.222  1.00  0.00     0.058 A 
ATOM     92  C   UNL A   1      38.964  33.337  38.257  1.00  0.00     0.135 A 
ATOM     93  C   UNL A   1      40.536  34.913  37.346  1.00  0.00     0.135 A 
ATOM     94  F   UNL A   1      38.264  32.194  38.181  1.00  0.00    -0.206 F 
ATOM     95  C   UNL A   1      38.791  34.144  39.377  1.00  0.00     0.059 A 
ATOM     96  C   UNL A   1      40.396  35.724  38.469  1.00  0.00     0.059 A 
ATOM     97  F   UNL A   1      41.388  35.303  36.384  1.00  0.00    -0.206 F 
ATOM     98  C   UNL A   1      39.522  35.330  39.479  1.00  0.00     0.060 A 
BRANCH  98  99
ATOM     99  S   UNL A   1      39.344  36.325  40.977  1.00  0.00     0.124 S 
ATOM    100  O   UNL A   1      40.735  36.503  41.381  1.00  0.00    -0.237 OA
ATOM    101  O   UNL A   1      38.671  37.520  40.476  1.00  0.00    -0.237 OA
ATOM    102  O   UNL A   1      38.539  35.480  41.855  1.00  0.00    -0.744 OA
ENDBRANCH  98  99
ENDBRANCH  66  91
ENDBRANCH  40  41
ENDBRANCH  33  35
ENDBRANCH  32  33
ENDBRANCH  31  32
ENDBRANCH  30  31
ENDBRANCH  29  30
ENDBRANCH  28  29
ENDBRANCH   1  28
TORSDOF 24
ENDMDL
MODEL 2
REMARK VINA RESULT:     -10.1      1.849      4.624
REMARK SMILES O=C(CCCC(=O)N1CCC(C2N=c3ccccc3=N2)CC1)OCCOCCOCCOC(=O)c1ccc(-c2c3nc(c(-c4c(F)cc(S(=O)(=O)[O-])cc4F)c4ccc([nH]4)c(-c4c(F)cc(S(=O)(=O)[O-])cc4F)c4nc(c(-c5c(F)cc(S(=O)(=O)[O-])cc5F)c5ccc2[nH]5)C=C4)C=C3)cc1
REMARK SMILES IDX 27 1 26 2 25 3 24 4 23 5 2 6 1 7 3 8 4 9 5 10 6 11 7 12 8 13
REMARK SMILES IDX 9 14 22 15 10 16 21 17 11 18 12 19 13 20 20 21 14 22 19 23
REMARK SMILES IDX 15 24 18 25 16 26 17 27 28 28 29 29 30 30 31 31 32 32 33 33
REMARK SMILES IDX 34 34 35 35 36 36 100 37 37 38 99 39 38 40 39 41 40 42 93 43
REMARK SMILES IDX 41 44 98 45 92 46 94 47 42 48 97 49 91 50 90 51 43 53 77 54
REMARK SMILES IDX 56 55 76 56 57 57 60 58 75 59 95 60 58 61 59 62 74 64 96 65
REMARK SMILES IDX 61 66 44 67 45 68 54 69 46 70 47 71 53 72 55 73 48 74 49 75
REMARK SMILES IDX 50 76 51 77 52 78 78 79 79 80 88 81 80 82 81 83 87 84 89 85
REMARK SMILES IDX 82 86 83 87 84 88 85 89 86 90 62 91 63 92 72 93 64 94 65 95
REMARK SMILES IDX 71 96 73 97 66 98 67 99 68 100 69 101 70 102
REMARK H PARENT 94 52 60 63
REMARK Flexibility Score: inf
ROOT
ATOM      1  C   UNL A   1      42.230  21.535  26.858  1.00  0.00     0.188 C 
ENDROOT
BRANCH   1   2
ATOM      2  O   UNL A   1      41.104  22.261  26.365  1.00  0.00    -0.376 OA
BRANCH   2   3
ATOM      3  C   UNL A   1      39.861  21.886  26.968  1.00  0.00     0.202 C 
BRANCH   3   4
ATOM      4  C   UNL A   1      38.739  21.679  25.941  1.00  0.00     0.261 C 
BRANCH   4   5
ATOM      5  O   UNL A   1      38.075  22.933  25.729  1.00  0.00    -0.463 OA
BRANCH   5   6
ATOM      6  C   UNL A   1      36.897  22.852  25.068  1.00  0.00     0.305 C 
ATOM      7  O   UNL A   1      36.475  23.717  24.307  1.00  0.00    -0.252 OA
BRANCH   6   8
ATOM      8  C   UNL A   1      36.047  21.705  25.570  1.00  0.00     0.123 C 
BRANCH   8   9
ATOM      9  C   UNL A   1      34.607  21.560  25.068  1.00  0.00     0.022 C 
BRANCH   9  10
ATOM     10  C   UNL A   1      33.414  21.866  25.972  1.00  0.00     0.101 C 
BRANCH  10  11
ATOM     11  C   UNL A   1      32.147  22.694  25.722  1.00  0.00     0.222 C 
ATOM     12  O   UNL A   1      31.089  22.041  25.724  1.00  0.00    -0.275 OA
ATOM     13  N   UNL A   1      32.090  24.064  25.616  1.00  0.00    -0.343 N 
ATOM     14  C   UNL A   1      30.803  24.715  25.891  1.00  0.00     0.120 C 
ATOM     15  C   UNL A   1      33.187  24.971  25.322  1.00  0.00     0.120 C 
ATOM     16  C   UNL A   1      30.402  25.738  24.834  1.00  0.00     0.029 C 
ATOM     17  C   UNL A   1      32.819  25.998  24.258  1.00  0.00     0.029 C 
ATOM     18  C   UNL A   1      31.526  26.754  24.599  1.00  0.00     0.039 C 
BRANCH  18  19
ATOM     19  C   UNL A   1      31.197  27.785  23.510  1.00  0.00     0.225 C 
ATOM     20  N   UNL A   1      29.858  27.512  22.944  1.00  0.00    -0.256 NA
ATOM     21  N   UNL A   1      31.278  29.175  24.041  1.00  0.00    -0.256 NA
ATOM     22  C   UNL A   1      29.253  28.633  23.102  1.00  0.00     0.085 A 
ATOM     23  C   UNL A   1      30.119  29.649  23.736  1.00  0.00     0.085 A 
ATOM     24  C   UNL A   1      27.868  28.954  22.772  1.00  0.00     0.030 A 
ATOM     25  C   UNL A   1      29.590  31.000  23.947  1.00  0.00     0.030 A 
ATOM     26  C   UNL A   1      27.450  30.197  23.038  1.00  0.00     0.002 A 
ATOM     27  C   UNL A   1      28.314  31.221  23.596  1.00  0.00     0.002 A 
ENDBRANCH  18  19
ENDBRANCH  10  11
ENDBRANCH   9  10
ENDBRANCH   8   9
ENDBRANCH   6   8
ENDBRANCH   5   6
ENDBRANCH   4   5
ENDBRANCH   3   4
ENDBRANCH   2   3
ENDBRANCH   1   2
BRANCH   1  28
ATOM     28  C   UNL A   1      42.764  20.539  25.836  1.00  0.00     0.188 C 
BRANCH  28  29
ATOM     29  O   UNL A   1      43.892  21.011  25.102  1.00  0.00    -0.376 OA
BRANCH  29  30
ATOM     30  C   UNL A   1      44.298  22.350  25.416  1.00  0.00     0.202 C 
BRANCH  30  31
ATOM     31  C   UNL A   1      43.750  23.416  24.459  1.00  0.00     0.261 C 
BRANCH  31  32
ATOM     32  O   UNL A   1      43.179  24.522  25.189  1.00  0.00    -0.460 OA
BRANCH  32  33
ATOM     33  C   UNL A   1      43.983  25.570  25.465  1.00  0.00     0.338 C 
ATOM     34  O   UNL A   1      45.024  25.881  24.896  1.00  0.00    -0.246 OA
BRANCH  33  35
ATOM     35  C   UNL A   1      43.354  26.375  26.525  1.00  0.00     0.060 A 
ATOM     36  C   UNL A   1      42.664  25.733  27.549  1.00  0.00     0.016 A 
ATOM     37  C   UNL A   1      43.499  27.765  26.544  1.00  0.00     0.016 A 
ATOM     38  C   UNL A   1      42.093  26.484  28.581  1.00  0.00     0.010 A 
ATOM     39  C   UNL A   1      42.992  28.508  27.623  1.00  0.00     0.010 A 
ATOM     40  C   UNL A   1      42.303  27.875  28.671  1.00  0.00    -0.014 A 
BRANCH  40  41
ATOM     41  C   UNL A   1      41.958  28.598  29.937  1.00  0.00     0.031 A 
ATOM     42  C   UNL A   1      42.774  28.478  31.201  1.00  0.00     0.074 A 
ATOM     43  C   UNL A   1      40.850  29.374  29.951  1.00  0.00     0.049 A 
ATOM     44  N   UNL A   1      42.560  29.030  32.371  1.00  0.00    -0.248 NA
ATOM     45  C   UNL A   1      43.970  27.623  31.160  1.00  0.00     0.031 C 
ATOM     46  C   UNL A   1      39.933  29.548  28.819  1.00  0.00     0.029 A 
ATOM     47  N   UNL A   1      40.309  30.173  30.930  1.00  0.00    -0.354 N 
ATOM     48  C   UNL A   1      43.577  28.583  33.208  1.00  0.00     0.074 A 
ATOM     49  C   UNL A   1      44.399  27.690  32.416  1.00  0.00     0.031 C 
ATOM     50  C   UNL A   1      38.999  30.454  29.138  1.00  0.00     0.029 A 
ATOM     51  C   UNL A   1      39.187  30.861  30.525  1.00  0.00     0.049 A 
ATOM     52  H   UNL A   1      40.688  30.248  31.834  1.00  0.00     0.167 HD
ATOM     53  C   UNL A   1      43.810  28.896  34.508  1.00  0.00     0.037 A 
ATOM     54  C   UNL A   1      38.376  31.712  31.185  1.00  0.00     0.037 A 
ATOM     55  C   UNL A   1      43.010  29.809  35.290  1.00  0.00     0.049 A 
ATOM     56  C   UNL A   1      38.647  32.023  32.628  1.00  0.00     0.074 A 
ATOM     57  C   UNL A   1      43.210  30.214  36.601  1.00  0.00     0.029 A 
ATOM     58  N   UNL A   1      41.867  30.458  34.847  1.00  0.00    -0.354 N 
ATOM     59  N   UNL A   1      39.634  31.612  33.384  1.00  0.00    -0.248 NA
ATOM     60  C   UNL A   1      37.685  32.898  33.315  1.00  0.00     0.031 C 
ATOM     61  C   UNL A   1      42.166  31.068  36.965  1.00  0.00     0.029 A 
ATOM     62  C   UNL A   1      41.341  31.238  35.867  1.00  0.00     0.049 A 
ATOM     63  H   UNL A   1      41.486  30.377  33.944  1.00  0.00     0.167 HD
ATOM     64  C   UNL A   1      39.420  32.186  34.631  1.00  0.00     0.074 A 
ATOM     65  C   UNL A   1      38.221  32.988  34.526  1.00  0.00     0.031 C 
ATOM     66  C   UNL A   1      40.152  32.046  35.761  1.00  0.00     0.037 A 
BRANCH  53  67
ATOM     67  C   UNL A   1      44.993  28.268  35.198  1.00  0.00     0.058 A 
ATOM     68  C   UNL A   1      44.932  26.967  35.717  1.00  0.00     0.135 A 
ATOM     69  C   UNL A   1      46.238  28.923  35.222  1.00  0.00     0.135 A 
ATOM     70  F   UNL A   1      43.768  26.297  35.725  1.00  0.00    -0.206 F 
ATOM     71  C   UNL A   1      46.058  26.337  36.237  1.00  0.00     0.059 A 
ATOM     72  C   UNL A   1      47.382  28.303  35.716  1.00  0.00     0.059 A 
ATOM     73  F   UNL A   1      46.356  30.166  34.730  1.00  0.00    -0.206 F 
ATOM     74  C   UNL A   1      47.281  27.010  36.225  1.00  0.00     0.060 A 
BRANCH  74  75
ATOM     75  S   UNL A   1      48.738  26.157  36.868  1.00  0.00     0.124 S 
ATOM     76  O   UNL A   1      48.358  24.758  36.691  1.00  0.00    -0.237 OA
ATOM     77  O   UNL A   1      49.795  26.642  35.987  1.00  0.00    -0.237 OA
ATOM     78  O   UNL A   1      48.818  26.612  38.252  1.00  0.00    -0.744 OA
ENDBRANCH  74  75
ENDBRANCH  53  67
BRANCH  54  79
ATOM     79  C   UNL A   1      37.215  32.323  30.481  1.00  0.00     0.058 A 
ATOM     80  C   UNL A   1      35.924  31.798  30.632  1.00  0.00     0.135 A 
ATOM     81  C   UNL A   1      37.369  33.457  29.667  1.00  0.00     0.135 A 
ATOM     82  F   UNL A   1      35.726  30.710  31.393  1.00  0.00    -0.206 F 
ATOM     83  C   UNL A   1      34.828  32.367  29.992  1.00  0.00     0.059 A 
ATOM     84  C   UNL A   1      36.285  34.063  29.044  1.00  0.00     0.059 A 
ATOM     85  F   UNL A   1      38.582  34.008  29.503  1.00  0.00    -0.206 F 
ATOM     86  C   UNL A   1      35.018  33.504  29.204  1.00  0.00     0.060 A 
BRANCH  86  87
ATOM     87  S   UNL A   1      33.581  34.261  28.418  1.00  0.00     0.124 S 
ATOM     88  O   UNL A   1      33.062  33.152  27.626  1.00  0.00    -0.237 OA
ATOM     89  O   UNL A   1      32.775  34.657  29.569  1.00  0.00    -0.237 OA
ATOM     90  O   UNL A   1      34.158  35.365  27.656  1.00  0.00    -0.744 OA
ENDBRANCH  86  87
ENDBRANCH  54  79
BRANCH  66  91
ATOM     91  C   UNL A   1      39.699  32.787  36.989  1.00  0.00     0.058 A 
ATOM     92  C   UNL A   1      38.670  32.292  37.806  1.00  0.00     0.135 A 
ATOM     93  C   UNL A   1      40.363  33.953  37.404  1.00  0.00     0.135 A 
ATOM     94  F   UNL A   1      37.995  31.189  37.448  1.00  0.00    -0.206 F 
ATOM     95  C   UNL A   1      38.319  32.924  38.995  1.00  0.00     0.059 A 
ATOM     96  C   UNL A   1      40.044  34.588  38.602  1.00  0.00     0.059 A 
ATOM     97  F   UNL A   1      41.355  34.467  36.660  1.00  0.00    -0.206 F 
ATOM     98  C   UNL A   1      39.021  34.065  39.390  1.00  0.00     0.060 A 
BRANCH  98  99
ATOM     99  S   UNL A   1      38.605  34.825  40.975  1.00  0.00     0.124 S 
ATOM    100  O   UNL A   1      38.638  36.245  40.640  1.00  0.00    -0.237 OA
ATOM    101  O   UNL A   1      37.283  34.269  41.248  1.00  0.00    -0.237 OA
ATOM    102  O   UNL A   1      39.668  34.366  41.864  1.00  0.00    -0.744 OA
ENDBRANCH  98  99
ENDBRANCH  66  91
ENDBRANCH  40  41
ENDBRANCH  33  35
ENDBRANCH  32  33
ENDBRANCH  31  32
ENDBRANCH  30  31
ENDBRANCH  29  30
ENDBRANCH  28  29
ENDBRANCH   1  28
TORSDOF 24
ENDMDL
MODEL 3
REMARK VINA RESULT:     -10.1      0.917      7.904
REMARK SMILES O=C(CCCC(=O)N1CCC(C2N=c3ccccc3=N2)CC1)OCCOCCOCCOC(=O)c1ccc(-c2c3nc(c(-c4c(F)cc(S(=O)(=O)[O-])cc4F)c4ccc([nH]4)c(-c4c(F)cc(S(=O)(=O)[O-])cc4F)c4nc(c(-c5c(F)cc(S(=O)(=O)[O-])cc5F)c5ccc2[nH]5)C=C4)C=C3)cc1
REMARK SMILES IDX 27 1 26 2 25 3 24 4 23 5 2 6 1 7 3 8 4 9 5 10 6 11 7 12 8 13
REMARK SMILES IDX 9 14 22 15 10 16 21 17 11 18 12 19 13 20 20 21 14 22 19 23
REMARK SMILES IDX 15 24 18 25 16 26 17 27 28 28 29 29 30 30 31 31 32 32 33 33
REMARK SMILES IDX 34 34 35 35 36 36 100 37 37 38 99 39 38 40 39 41 40 42 93 43
REMARK SMILES IDX 41 44 98 45 92 46 94 47 42 48 97 49 91 50 90 51 43 53 77 54
REMARK SMILES IDX 56 55 76 56 57 57 60 58 75 59 95 60 58 61 59 62 74 64 96 65
REMARK SMILES IDX 61 66 44 67 45 68 54 69 46 70 47 71 53 72 55 73 48 74 49 75
REMARK SMILES IDX 50 76 51 77 52 78 78 79 79 80 88 81 80 82 81 83 87 84 89 85
REMARK SMILES IDX 82 86 83 87 84 88 85 89 86 90 62 91 63 92 72 93 64 94 65 95
REMARK SMILES IDX 71 96 73 97 66 98 67 99 68 100 69 101 70 102
REMARK H PARENT 94 52 60 63
REMARK Flexibility Score: inf
ROOT
ATOM      1  C   UNL A   1      37.611  24.170  25.889  1.00  0.00     0.188 C 
ENDROOT
BRANCH   1   2
ATOM      2  O   UNL A   1      36.691  23.083  25.981  1.00  0.00    -0.376 OA
BRANCH   2   3
ATOM      3  C   UNL A   1      35.392  23.375  25.454  1.00  0.00     0.202 C 
BRANCH   3   4
ATOM      4  C   UNL A   1      35.447  24.139  24.124  1.00  0.00     0.261 C 
BRANCH   4   5
ATOM      5  O   UNL A   1      34.401  25.121  24.116  1.00  0.00    -0.463 OA
BRANCH   5   6
ATOM      6  C   UNL A   1      33.752  25.255  22.935  1.00  0.00     0.305 C 
ATOM      7  O   UNL A   1      33.928  24.521  21.968  1.00  0.00    -0.252 OA
BRANCH   6   8
ATOM      8  C   UNL A   1      32.988  26.559  22.858  1.00  0.00     0.123 C 
BRANCH   8   9
ATOM      9  C   UNL A   1      31.460  26.527  22.742  1.00  0.00     0.022 C 
BRANCH   9  10
ATOM     10  C   UNL A   1      30.577  26.185  23.941  1.00  0.00     0.101 C 
BRANCH  10  11
ATOM     11  C   UNL A   1      30.819  25.257  25.137  1.00  0.00     0.222 C 
ATOM     12  O   UNL A   1      30.781  25.816  26.247  1.00  0.00    -0.275 OA
ATOM     13  N   UNL A   1      30.954  23.889  25.079  1.00  0.00    -0.343 N 
ATOM     14  C   UNL A   1      30.668  23.124  26.299  1.00  0.00     0.120 C 
ATOM     15  C   UNL A   1      31.291  23.086  23.915  1.00  0.00     0.120 C 
ATOM     16  C   UNL A   1      31.739  22.093  26.634  1.00  0.00     0.029 C 
ATOM     17  C   UNL A   1      32.370  22.053  24.218  1.00  0.00     0.029 C 
ATOM     18  C   UNL A   1      32.019  21.182  25.433  1.00  0.00     0.039 C 
BRANCH  18  19
ATOM     19  C   UNL A   1      33.124  20.150  25.697  1.00  0.00     0.225 C 
ATOM     20  N   UNL A   1      32.545  18.935  26.314  1.00  0.00    -0.256 NA
ATOM     21  N   UNL A   1      33.858  19.811  24.444  1.00  0.00    -0.256 NA
ATOM     22  C   UNL A   1      32.934  18.004  25.521  1.00  0.00     0.085 A 
ATOM     23  C   UNL A   1      33.754  18.527  24.408  1.00  0.00     0.085 A 
ATOM     24  C   UNL A   1      32.623  16.581  25.595  1.00  0.00     0.030 A 
ATOM     25  C   UNL A   1      34.314  17.584  23.435  1.00  0.00     0.030 A 
ATOM     26  C   UNL A   1      33.137  15.793  24.642  1.00  0.00     0.002 A 
ATOM     27  C   UNL A   1      34.000  16.288  23.586  1.00  0.00     0.002 A 
ENDBRANCH  18  19
ENDBRANCH  10  11
ENDBRANCH   9  10
ENDBRANCH   8   9
ENDBRANCH   6   8
ENDBRANCH   5   6
ENDBRANCH   4   5
ENDBRANCH   3   4
ENDBRANCH   2   3
ENDBRANCH   1   2
BRANCH   1  28
ATOM     28  C   UNL A   1      38.889  23.910  26.679  1.00  0.00     0.188 C 
BRANCH  28  29
ATOM     29  O   UNL A   1      39.428  22.603  26.496  1.00  0.00    -0.376 OA
BRANCH  29  30
ATOM     30  C   UNL A   1      40.823  22.477  26.805  1.00  0.00     0.202 C 
BRANCH  30  31
ATOM     31  C   UNL A   1      41.754  23.208  25.830  1.00  0.00     0.261 C 
BRANCH  31  32
ATOM     32  O   UNL A   1      42.536  24.210  26.515  1.00  0.00    -0.460 OA
BRANCH  32  33
ATOM     33  C   UNL A   1      42.270  25.505  26.241  1.00  0.00     0.338 C 
ATOM     34  O   UNL A   1      42.062  26.007  25.141  1.00  0.00    -0.246 OA
BRANCH  33  35
ATOM     35  C   UNL A   1      42.165  26.239  27.512  1.00  0.00     0.060 A 
ATOM     36  C   UNL A   1      42.842  27.446  27.659  1.00  0.00     0.016 A 
ATOM     37  C   UNL A   1      41.344  25.768  28.540  1.00  0.00     0.016 A 
ATOM     38  C   UNL A   1      42.722  28.171  28.849  1.00  0.00     0.010 A 
ATOM     39  C   UNL A   1      41.164  26.537  29.701  1.00  0.00     0.010 A 
ATOM     40  C   UNL A   1      41.830  27.763  29.862  1.00  0.00    -0.014 A 
BRANCH  40  41
ATOM     41  C   UNL A   1      41.483  28.710  30.971  1.00  0.00     0.031 A 
ATOM     42  C   UNL A   1      40.320  29.669  30.899  1.00  0.00     0.074 A 
ATOM     43  C   UNL A   1      42.264  28.718  32.074  1.00  0.00     0.049 A 
ATOM     44  N   UNL A   1      39.935  30.559  31.782  1.00  0.00    -0.248 NA
ATOM     45  C   UNL A   1      39.490  29.642  29.685  1.00  0.00     0.031 C 
ATOM     46  C   UNL A   1      43.455  27.883  32.267  1.00  0.00     0.029 A 
ATOM     47  N   UNL A   1      42.178  29.431  33.247  1.00  0.00    -0.354 N 
ATOM     48  C   UNL A   1      38.835  31.209  31.231  1.00  0.00     0.074 A 
ATOM     49  C   UNL A   1      38.627  30.625  29.921  1.00  0.00     0.031 C 
ATOM     50  C   UNL A   1      43.935  28.070  33.503  1.00  0.00     0.029 A 
ATOM     51  C   UNL A   1      43.150  29.103  34.167  1.00  0.00     0.049 A 
ATOM     52  H   UNL A   1      41.487  30.110  33.414  1.00  0.00     0.167 HD
ATOM     53  C   UNL A   1      38.066  32.188  31.770  1.00  0.00     0.037 A 
ATOM     54  C   UNL A   1      43.409  29.583  35.400  1.00  0.00     0.037 A 
ATOM     55  C   UNL A   1      38.254  32.750  33.086  1.00  0.00     0.049 A 
ATOM     56  C   UNL A   1      42.553  30.681  35.961  1.00  0.00     0.074 A 
ATOM     57  C   UNL A   1      37.487  33.714  33.723  1.00  0.00     0.029 A 
ATOM     58  N   UNL A   1      39.269  32.409  33.969  1.00  0.00    -0.354 N 
ATOM     59  N   UNL A   1      41.500  31.252  35.431  1.00  0.00    -0.248 NA
ATOM     60  C   UNL A   1      42.931  31.215  37.278  1.00  0.00     0.031 C 
ATOM     61  C   UNL A   1      38.062  33.989  34.966  1.00  0.00     0.029 A 
ATOM     62  C   UNL A   1      39.159  33.162  35.129  1.00  0.00     0.049 A 
ATOM     63  H   UNL A   1      39.963  31.734  33.797  1.00  0.00     0.167 HD
ATOM     64  C   UNL A   1      41.083  32.204  36.354  1.00  0.00     0.074 A 
ATOM     65  C   UNL A   1      41.982  32.120  37.483  1.00  0.00     0.031 C 
ATOM     66  C   UNL A   1      40.049  33.073  36.260  1.00  0.00     0.037 A 
BRANCH  53  67
ATOM     67  C   UNL A   1      36.920  32.731  30.957  1.00  0.00     0.058 A 
ATOM     68  C   UNL A   1      37.085  33.829  30.100  1.00  0.00     0.135 A 
ATOM     69  C   UNL A   1      35.681  32.066  30.935  1.00  0.00     0.135 A 
ATOM     70  F   UNL A   1      38.246  34.505  30.084  1.00  0.00    -0.206 F 
ATOM     71  C   UNL A   1      36.066  34.251  29.253  1.00  0.00     0.059 A 
ATOM     72  C   UNL A   1      34.654  32.457  30.079  1.00  0.00     0.059 A 
ATOM     73  F   UNL A   1      35.470  31.004  31.729  1.00  0.00    -0.206 F 
ATOM     74  C   UNL A   1      34.856  33.553  29.243  1.00  0.00     0.060 A 
BRANCH  74  75
ATOM     75  S   UNL A   1      33.561  34.094  28.105  1.00  0.00     0.124 S 
ATOM     76  O   UNL A   1      34.329  34.880  27.143  1.00  0.00    -0.237 OA
ATOM     77  O   UNL A   1      33.035  32.827  27.609  1.00  0.00    -0.237 OA
ATOM     78  O   UNL A   1      32.655  34.858  28.955  1.00  0.00    -0.744 OA
ENDBRANCH  74  75
ENDBRANCH  53  67
BRANCH  54  79
ATOM     79  C   UNL A   1      44.545  29.028  36.185  1.00  0.00     0.058 A 
ATOM     80  C   UNL A   1      45.824  29.594  36.098  1.00  0.00     0.135 A 
ATOM     81  C   UNL A   1      44.368  27.940  37.055  1.00  0.00     0.135 A 
ATOM     82  F   UNL A   1      46.046  30.630  35.274  1.00  0.00    -0.206 F 
ATOM     83  C   UNL A   1      46.893  29.096  36.837  1.00  0.00     0.059 A 
ATOM     84  C   UNL A   1      45.412  27.445  37.829  1.00  0.00     0.059 A 
ATOM     85  F   UNL A   1      43.159  27.373  37.187  1.00  0.00    -0.206 F 
ATOM     86  C   UNL A   1      46.674  28.023  37.704  1.00  0.00     0.060 A 
BRANCH  86  87
ATOM     87  S   UNL A   1      48.057  27.417  38.692  1.00  0.00     0.124 S 
ATOM     88  O   UNL A   1      47.369  26.613  39.696  1.00  0.00    -0.237 OA
ATOM     89  O   UNL A   1      48.838  26.677  37.705  1.00  0.00    -0.237 OA
ATOM     90  O   UNL A   1      48.681  28.642  39.184  1.00  0.00    -0.744 OA
ENDBRANCH  86  87
ENDBRANCH  54  79
BRANCH  66  91
ATOM     91  C   UNL A   1      39.807  34.006  37.415  1.00  0.00     0.058 A 
ATOM     92  C   UNL A   1      39.056  33.610  38.532  1.00  0.00     0.135 A 
ATOM     93  C   UNL A   1      40.413  35.273  37.447  1.00  0.00     0.135 A 
ATOM     94  F   UNL A   1      38.445  32.414  38.546  1.00  0.00    -0.206 F 
ATOM     95  C   UNL A   1      38.917  34.435  39.643  1.00  0.00     0.059 A 
ATOM     96  C   UNL A   1      40.306  36.106  38.558  1.00  0.00     0.059 A 
ATOM     97  F   UNL A   1      41.144  35.699  36.405  1.00  0.00    -0.206 F 
ATOM     98  C   UNL A   1      39.557  35.676  39.651  1.00  0.00     0.060 A 
BRANCH  98  99
ATOM     99  S   UNL A   1      39.430  36.700  41.134  1.00  0.00     0.124 S 
ATOM    100  O   UNL A   1      38.592  35.872  41.995  1.00  0.00    -0.237 OA
ATOM    101  O   UNL A   1      40.826  36.828  41.542  1.00  0.00    -0.237 OA
ATOM    102  O   UNL A   1      38.809  37.929  40.650  1.00  0.00    -0.744 OA
ENDBRANCH  98  99
ENDBRANCH  66  91
ENDBRANCH  40  41
ENDBRANCH  33  35
ENDBRANCH  32  33
ENDBRANCH  31  32
ENDBRANCH  30  31
ENDBRANCH  29  30
ENDBRANCH  28  29
ENDBRANCH   1  28
TORSDOF 24
ENDMDL
