MODEL 1
REMARK VINA RESULT:     -11.6      0.000      0.000
REMARK SMILES Cc1ccc(C(F)(F)F)cc1/C=C/C(=O)OCCOCCOCCOC(=O)c1ccc(-c2c3nc(c(-c4c(F)cc(S(=O)(=O)[O-])cc4F)c4ccc([nH]4)c(-c4c(F)cc(S(=O)(=O)[O-])cc4F)c4nc(c(-c5c(F)cc(S(=O)(=O)[O-])cc5F)c5ccc2[nH]5)C=C4)C=C3)cc1
REMARK SMILES IDX 21 1 20 2 19 3 18 4 17 5 16 6 14 7 15 8 13 9 12 10 11 11
REMARK SMILES IDX 1 12 2 13 3 14 4 15 10 16 5 17 6 18 7 19 8 20 9 21 22 22
REMARK SMILES IDX 23 23 24 24 25 25 26 26 27 27 28 28 29 29 93 30 30 31 92 32
REMARK SMILES IDX 31 33 32 34 33 35 86 36 34 37 91 38 85 39 87 40 35 41 90 42
REMARK SMILES IDX 84 43 83 44 36 46 70 47 49 48 69 49 50 50 53 51 68 52 88 53
REMARK SMILES IDX 51 54 52 55 67 57 89 58 54 59 37 60 38 61 47 62 39 63 40 64
REMARK SMILES IDX 46 65 48 66 41 67 42 68 43 69 44 70 45 71 71 72 72 73 81 74
REMARK SMILES IDX 73 75 74 76 80 77 82 78 75 79 76 80 77 81 78 82 79 83 55 84
REMARK SMILES IDX 56 85 65 86 57 87 58 88 64 89 66 90 59 91 60 92 61 93 62 94
REMARK SMILES IDX 63 95
REMARK H PARENT 87 45 53 56
REMARK Flexibility Score: inf
ROOT
ATOM      1  C   UNL A   1      33.046  30.331  27.244  1.00  0.00     0.188 C 
ENDROOT
BRANCH   1   2
ATOM      2  C   UNL A   1      31.926  30.160  26.229  1.00  0.00     0.188 C 
BRANCH   2   3
ATOM      3  O   UNL A   1      32.077  29.149  25.234  1.00  0.00    -0.376 OA
BRANCH   3   4
ATOM      4  C   UNL A   1      31.213  28.064  24.986  1.00  0.00     0.202 C 
BRANCH   4   5
ATOM      5  C   UNL A   1      31.098  27.374  23.453  1.00  0.00     0.261 C 
BRANCH   5   6
ATOM      6  O   UNL A   1      31.729  26.145  22.615  1.00  0.00    -0.460 OA
BRANCH   6   7
ATOM      7  C   UNL A   1      32.908  25.686  22.077  1.00  0.00     0.330 C 
ATOM      8  O   UNL A   1      33.649  26.223  21.272  1.00  0.00    -0.247 OA
BRANCH   7   9
ATOM      9  C   UNL A   1      33.545  24.460  22.561  1.00  0.00     0.094 C 
ATOM     10  C   UNL A   1      32.652  23.559  23.048  1.00  0.00     0.016 C 
BRANCH  10  11
ATOM     11  C   UNL A   1      32.844  22.591  24.160  1.00  0.00    -0.022 A 
ATOM     12  C   UNL A   1      33.051  24.423  25.912  1.00  0.00     0.045 C 
ATOM     13  C   UNL A   1      33.083  22.984  25.486  1.00  0.00    -0.044 A 
ATOM     14  C   UNL A   1      33.296  22.004  26.472  1.00  0.00     0.004 A 
ATOM     15  C   UNL A   1      33.287  20.645  26.158  1.00  0.00     0.013 A 
ATOM     16  C   UNL A   1      32.828  21.202  23.857  1.00  0.00     0.021 A 
ATOM     17  C   UNL A   1      33.039  20.221  24.850  1.00  0.00     0.056 A 
BRANCH  17  18
ATOM     18  C   UNL A   1      33.019  18.736  24.559  1.00  0.00     0.416 C 
ATOM     19  F   UNL A   1      34.009  18.371  23.690  1.00  0.00    -0.166 F 
ATOM     20  F   UNL A   1      33.242  17.984  25.679  1.00  0.00    -0.166 F 
ATOM     21  F   UNL A   1      31.862  18.272  24.022  1.00  0.00    -0.166 F 
ENDBRANCH  17  18
ENDBRANCH  10  11
ENDBRANCH   7   9
ENDBRANCH   6   7
ENDBRANCH   5   6
ENDBRANCH   4   5
ENDBRANCH   3   4
ENDBRANCH   2   3
ENDBRANCH   1   2
BRANCH   1  22
ATOM     22  O   UNL A   1      33.763  31.525  26.975  1.00  0.00    -0.376 OA
BRANCH  22  23
ATOM     23  C   UNL A   1      33.633  32.528  27.967  1.00  0.00     0.202 C 
BRANCH  23  24
ATOM     24  C   UNL A   1      34.971  33.003  28.561  1.00  0.00     0.261 C 
BRANCH  24  25
ATOM     25  O   UNL A   1      35.944  31.935  28.570  1.00  0.00    -0.460 OA
BRANCH  25  26
ATOM     26  C   UNL A   1      36.092  31.229  29.753  1.00  0.00     0.338 C 
ATOM     27  O   UNL A   1      35.411  31.433  30.715  1.00  0.00    -0.246 OA
BRANCH  26  28
ATOM     28  C   UNL A   1      37.084  30.103  29.561  1.00  0.00     0.060 A 
ATOM     29  C   UNL A   1      37.412  29.098  30.477  1.00  0.00     0.016 A 
ATOM     30  C   UNL A   1      37.814  30.097  28.416  1.00  0.00     0.016 A 
ATOM     31  C   UNL A   1      38.585  28.242  30.315  1.00  0.00     0.010 A 
ATOM     32  C   UNL A   1      38.970  29.309  28.373  1.00  0.00     0.010 A 
ATOM     33  C   UNL A   1      39.490  28.367  29.265  1.00  0.00    -0.014 A 
BRANCH  33  34
ATOM     34  C   UNL A   1      41.002  27.815  29.164  1.00  0.00     0.031 A 
ATOM     35  C   UNL A   1      41.594  26.478  28.563  1.00  0.00     0.074 A 
ATOM     36  C   UNL A   1      42.017  28.584  29.605  1.00  0.00     0.049 A 
ATOM     37  N   UNL A   1      41.954  25.390  29.212  1.00  0.00    -0.248 NA
ATOM     38  C   UNL A   1      41.868  26.292  27.120  1.00  0.00     0.031 C 
ATOM     39  C   UNL A   1      43.452  28.308  29.509  1.00  0.00     0.029 A 
ATOM     40  N   UNL A   1      41.934  29.721  30.400  1.00  0.00    -0.354 N 
ATOM     41  C   UNL A   1      42.378  24.442  28.258  1.00  0.00     0.074 A 
ATOM     42  C   UNL A   1      42.067  24.983  26.967  1.00  0.00     0.031 C 
ATOM     43  C   UNL A   1      44.079  29.040  30.444  1.00  0.00     0.029 A 
ATOM     44  C   UNL A   1      43.057  29.715  31.229  1.00  0.00     0.049 A 
ATOM     45  H   UNL A   1      41.220  30.399  30.381  1.00  0.00     0.167 HD
ATOM     46  C   UNL A   1      43.408  23.545  28.378  1.00  0.00     0.037 A 
ATOM     47  C   UNL A   1      42.875  29.610  32.575  1.00  0.00     0.037 A 
ATOM     48  C   UNL A   1      44.344  24.046  29.350  1.00  0.00     0.049 A 
ATOM     49  C   UNL A   1      43.451  28.335  33.142  1.00  0.00     0.074 A 
ATOM     50  C   UNL A   1      45.430  24.892  29.188  1.00  0.00     0.029 A 
ATOM     51  N   UNL A   1      44.022  24.045  30.687  1.00  0.00    -0.354 N 
ATOM     52  N   UNL A   1      43.842  27.315  32.424  1.00  0.00    -0.248 NA
ATOM     53  C   UNL A   1      43.657  28.115  34.570  1.00  0.00     0.031 C 
ATOM     54  C   UNL A   1      45.699  25.488  30.440  1.00  0.00     0.029 A 
ATOM     55  C   UNL A   1      44.818  24.949  31.360  1.00  0.00     0.049 A 
ATOM     56  H   UNL A   1      43.328  23.481  31.102  1.00  0.00     0.167 HD
ATOM     57  C   UNL A   1      44.281  26.314  33.250  1.00  0.00     0.074 A 
ATOM     58  C   UNL A   1      44.189  26.881  34.580  1.00  0.00     0.031 C 
ATOM     59  C   UNL A   1      44.667  25.090  32.790  1.00  0.00     0.037 A 
BRANCH  46  60
ATOM     60  C   UNL A   1      43.764  22.579  27.242  1.00  0.00     0.058 A 
ATOM     61  C   UNL A   1      42.971  21.471  26.874  1.00  0.00     0.135 A 
ATOM     62  C   UNL A   1      44.954  22.731  26.489  1.00  0.00     0.135 A 
ATOM     63  F   UNL A   1      41.782  21.245  27.448  1.00  0.00    -0.206 F 
ATOM     64  C   UNL A   1      43.382  20.524  25.922  1.00  0.00     0.059 A 
ATOM     65  C   UNL A   1      45.392  21.789  25.545  1.00  0.00     0.059 A 
ATOM     66  F   UNL A   1      45.756  23.790  26.699  1.00  0.00    -0.206 F 
ATOM     67  C   UNL A   1      44.609  20.672  25.284  1.00  0.00     0.060 A 
BRANCH  67  68
ATOM     68  S   UNL A   1      45.201  19.349  24.196  1.00  0.00     0.124 S 
ATOM     69  O   UNL A   1      44.754  18.146  24.892  1.00  0.00    -0.237 OA
ATOM     70  O   UNL A   1      44.515  19.647  22.943  1.00  0.00    -0.237 OA
ATOM     71  O   UNL A   1      46.648  19.545  24.181  1.00  0.00    -0.744 OA
ENDBRANCH  67  68
ENDBRANCH  46  60
BRANCH  47  72
ATOM     72  C   UNL A   1      41.692  30.391  33.067  1.00  0.00     0.058 A 
ATOM     73  C   UNL A   1      40.535  29.647  33.396  1.00  0.00     0.135 A 
ATOM     74  C   UNL A   1      41.760  31.697  33.574  1.00  0.00     0.135 A 
ATOM     75  F   UNL A   1      40.395  28.392  32.933  1.00  0.00    -0.206 F 
ATOM     76  C   UNL A   1      39.585  30.100  34.304  1.00  0.00     0.059 A 
ATOM     77  C   UNL A   1      40.794  32.187  34.476  1.00  0.00     0.059 A 
ATOM     78  F   UNL A   1      42.841  32.455  33.340  1.00  0.00    -0.206 F 
ATOM     79  C   UNL A   1      39.750  31.352  34.883  1.00  0.00     0.060 A 
BRANCH  79  80
ATOM     80  S   UNL A   1      38.672  31.753  36.287  1.00  0.00     0.124 S 
ATOM     81  O   UNL A   1      37.730  32.694  35.691  1.00  0.00    -0.237 OA
ATOM     82  O   UNL A   1      38.122  30.438  36.614  1.00  0.00    -0.237 OA
ATOM     83  O   UNL A   1      39.593  32.319  37.266  1.00  0.00    -0.744 OA
ENDBRANCH  79  80
ENDBRANCH  47  72
BRANCH  59  84
ATOM     84  C   UNL A   1      44.969  23.886  33.639  1.00  0.00     0.058 A 
ATOM     85  C   UNL A   1      44.017  22.901  33.935  1.00  0.00     0.135 A 
ATOM     86  C   UNL A   1      46.302  23.602  34.025  1.00  0.00     0.135 A 
ATOM     87  F   UNL A   1      42.746  23.019  33.523  1.00  0.00    -0.206 F 
ATOM     88  C   UNL A   1      44.346  21.738  34.627  1.00  0.00     0.059 A 
ATOM     89  C   UNL A   1      46.662  22.421  34.663  1.00  0.00     0.059 A 
ATOM     90  F   UNL A   1      47.301  24.463  33.775  1.00  0.00    -0.206 F 
ATOM     91  C   UNL A   1      45.670  21.507  34.988  1.00  0.00     0.060 A 
BRANCH  91  92
ATOM     92  S   UNL A   1      46.122  19.997  35.858  1.00  0.00     0.124 S 
ATOM     93  O   UNL A   1      45.345  19.000  35.129  1.00  0.00    -0.237 OA
ATOM     94  O   UNL A   1      47.568  19.925  35.671  1.00  0.00    -0.237 OA
ATOM     95  O   UNL A   1      45.687  20.266  37.225  1.00  0.00    -0.744 OA
ENDBRANCH  91  92
ENDBRANCH  59  84
ENDBRANCH  33  34
ENDBRANCH  26  28
ENDBRANCH  25  26
ENDBRANCH  24  25
ENDBRANCH  23  24
ENDBRANCH  22  23
ENDBRANCH   1  22
TORSDOF 22
ENDMDL
MODEL 2
REMARK VINA RESULT:     -11.3      1.748      2.625
REMARK SMILES Cc1ccc(C(F)(F)F)cc1/C=C/C(=O)OCCOCCOCCOC(=O)c1ccc(-c2c3nc(c(-c4c(F)cc(S(=O)(=O)[O-])cc4F)c4ccc([nH]4)c(-c4c(F)cc(S(=O)(=O)[O-])cc4F)c4nc(c(-c5c(F)cc(S(=O)(=O)[O-])cc5F)c5ccc2[nH]5)C=C4)C=C3)cc1
REMARK SMILES IDX 21 1 20 2 19 3 18 4 17 5 16 6 14 7 15 8 13 9 12 10 11 11
REMARK SMILES IDX 1 12 2 13 3 14 4 15 10 16 5 17 6 18 7 19 8 20 9 21 22 22
REMARK SMILES IDX 23 23 24 24 25 25 26 26 27 27 28 28 29 29 93 30 30 31 92 32
REMARK SMILES IDX 31 33 32 34 33 35 86 36 34 37 91 38 85 39 87 40 35 41 90 42
REMARK SMILES IDX 84 43 83 44 36 46 70 47 49 48 69 49 50 50 53 51 68 52 88 53
REMARK SMILES IDX 51 54 52 55 67 57 89 58 54 59 37 60 38 61 47 62 39 63 40 64
REMARK SMILES IDX 46 65 48 66 41 67 42 68 43 69 44 70 45 71 71 72 72 73 81 74
REMARK SMILES IDX 73 75 74 76 80 77 82 78 75 79 76 80 77 81 78 82 79 83 55 84
REMARK SMILES IDX 56 85 65 86 57 87 58 88 64 89 66 90 59 91 60 92 61 93 62 94
REMARK SMILES IDX 63 95
REMARK H PARENT 87 45 53 56
REMARK Flexibility Score: inf
ROOT
ATOM      1  C   UNL A   1      34.634  34.152  27.736  1.00  0.00     0.188 C 
ENDROOT
BRANCH   1   2
ATOM      2  C   UNL A   1      33.282  33.861  28.372  1.00  0.00     0.188 C 
BRANCH   2   3
ATOM      3  O   UNL A   1      32.146  33.776  27.512  1.00  0.00    -0.376 OA
BRANCH   3   4
ATOM      4  C   UNL A   1      31.702  32.643  26.802  1.00  0.00     0.202 C 
BRANCH   4   5
ATOM      5  C   UNL A   1      32.386  31.126  27.067  1.00  0.00     0.261 C 
BRANCH   5   6
ATOM      6  O   UNL A   1      33.769  30.341  26.777  1.00  0.00    -0.460 OA
BRANCH   6   7
ATOM      7  C   UNL A   1      34.356  29.101  26.863  1.00  0.00     0.330 C 
ATOM      8  O   UNL A   1      35.416  28.783  27.373  1.00  0.00    -0.247 OA
BRANCH   7   9
ATOM      9  C   UNL A   1      33.647  27.888  26.451  1.00  0.00     0.094 C 
ATOM     10  C   UNL A   1      33.997  27.470  25.206  1.00  0.00     0.016 C 
BRANCH  10  11
ATOM     11  C   UNL A   1      33.144  26.788  24.198  1.00  0.00    -0.022 A 
ATOM     12  C   UNL A   1      31.659  28.825  23.864  1.00  0.00     0.045 C 
ATOM     13  C   UNL A   1      32.023  27.392  23.607  1.00  0.00    -0.044 A 
ATOM     14  C   UNL A   1      31.244  26.663  22.691  1.00  0.00     0.004 A 
ATOM     15  C   UNL A   1      31.555  25.343  22.365  1.00  0.00     0.013 A 
ATOM     16  C   UNL A   1      33.454  25.446  23.847  1.00  0.00     0.021 A 
ATOM     17  C   UNL A   1      32.672  24.717  22.925  1.00  0.00     0.056 A 
BRANCH  17  18
ATOM     18  C   UNL A   1      32.981  23.290  22.527  1.00  0.00     0.416 C 
ATOM     19  F   UNL A   1      33.359  23.195  21.217  1.00  0.00    -0.166 F 
ATOM     20  F   UNL A   1      34.029  22.768  23.233  1.00  0.00    -0.166 F 
ATOM     21  F   UNL A   1      31.954  22.416  22.683  1.00  0.00    -0.166 F 
ENDBRANCH  17  18
ENDBRANCH  10  11
ENDBRANCH   7   9
ENDBRANCH   6   7
ENDBRANCH   5   6
ENDBRANCH   4   5
ENDBRANCH   3   4
ENDBRANCH   2   3
ENDBRANCH   1   2
BRANCH   1  22
ATOM     22  O   UNL A   1      35.612  34.342  28.746  1.00  0.00    -0.376 OA
BRANCH  22  23
ATOM     23  C   UNL A   1      35.120  34.243  30.071  1.00  0.00     0.202 C 
BRANCH  23  24
ATOM     24  C   UNL A   1      36.103  33.596  31.062  1.00  0.00     0.261 C 
BRANCH  24  25
ATOM     25  O   UNL A   1      36.836  32.518  30.437  1.00  0.00    -0.460 OA
BRANCH  25  26
ATOM     26  C   UNL A   1      36.170  31.313  30.280  1.00  0.00     0.338 C 
ATOM     27  O   UNL A   1      34.978  31.224  30.327  1.00  0.00    -0.246 OA
BRANCH  26  28
ATOM     28  C   UNL A   1      37.149  30.231  29.884  1.00  0.00     0.060 A 
ATOM     29  C   UNL A   1      37.358  29.002  30.520  1.00  0.00     0.016 A 
ATOM     30  C   UNL A   1      37.994  30.494  28.853  1.00  0.00     0.016 A 
ATOM     31  C   UNL A   1      38.521  28.162  30.242  1.00  0.00     0.010 A 
ATOM     32  C   UNL A   1      39.130  29.688  28.707  1.00  0.00     0.010 A 
ATOM     33  C   UNL A   1      39.532  28.518  29.355  1.00  0.00    -0.014 A 
BRANCH  33  34
ATOM     34  C   UNL A   1      41.033  27.936  29.250  1.00  0.00     0.031 A 
ATOM     35  C   UNL A   1      41.600  26.597  28.632  1.00  0.00     0.074 A 
ATOM     36  C   UNL A   1      42.062  28.679  29.705  1.00  0.00     0.049 A 
ATOM     37  N   UNL A   1      41.937  25.492  29.266  1.00  0.00    -0.248 NA
ATOM     38  C   UNL A   1      41.874  26.426  27.186  1.00  0.00     0.031 C 
ATOM     39  C   UNL A   1      43.491  28.376  29.610  1.00  0.00     0.029 A 
ATOM     40  N   UNL A   1      41.999  29.805  30.516  1.00  0.00    -0.354 N 
ATOM     41  C   UNL A   1      42.344  24.550  28.299  1.00  0.00     0.074 A 
ATOM     42  C   UNL A   1      42.048  25.116  27.015  1.00  0.00     0.031 C 
ATOM     43  C   UNL A   1      44.130  29.081  30.556  1.00  0.00     0.029 A 
ATOM     44  C   UNL A   1      43.120  29.765  31.349  1.00  0.00     0.049 A 
ATOM     45  H   UNL A   1      41.299  30.498  30.505  1.00  0.00     0.167 HD
ATOM     46  C   UNL A   1      43.355  23.631  28.409  1.00  0.00     0.037 A 
ATOM     47  C   UNL A   1      42.931  29.644  32.693  1.00  0.00     0.037 A 
ATOM     48  C   UNL A   1      44.299  24.099  29.390  1.00  0.00     0.049 A 
ATOM     49  C   UNL A   1      43.480  28.350  33.242  1.00  0.00     0.074 A 
ATOM     50  C   UNL A   1      45.401  24.926  29.244  1.00  0.00     0.029 A 
ATOM     51  N   UNL A   1      43.972  24.085  30.727  1.00  0.00    -0.354 N 
ATOM     52  N   UNL A   1      43.852  27.333  32.510  1.00  0.00    -0.248 NA
ATOM     53  C   UNL A   1      43.677  28.105  34.667  1.00  0.00     0.031 C 
ATOM     54  C   UNL A   1      45.679  25.498  30.505  1.00  0.00     0.029 A 
ATOM     55  C   UNL A   1      44.784  24.963  31.415  1.00  0.00     0.049 A 
ATOM     56  H   UNL A   1      43.266  23.530  31.131  1.00  0.00     0.167 HD
ATOM     57  C   UNL A   1      44.269  26.312  33.323  1.00  0.00     0.074 A 
ATOM     58  C   UNL A   1      44.184  26.861  34.661  1.00  0.00     0.031 C 
ATOM     59  C   UNL A   1      44.632  25.087  32.846  1.00  0.00     0.037 A 
BRANCH  46  60
ATOM     60  C   UNL A   1      43.696  22.675  27.260  1.00  0.00     0.058 A 
ATOM     61  C   UNL A   1      42.906  21.561  26.905  1.00  0.00     0.135 A 
ATOM     62  C   UNL A   1      44.866  22.843  26.481  1.00  0.00     0.135 A 
ATOM     63  F   UNL A   1      41.733  21.318  27.504  1.00  0.00    -0.206 F 
ATOM     64  C   UNL A   1      43.305  20.623  25.939  1.00  0.00     0.059 A 
ATOM     65  C   UNL A   1      45.292  21.910  25.522  1.00  0.00     0.059 A 
ATOM     66  F   UNL A   1      45.661  23.909  26.678  1.00  0.00    -0.206 F 
ATOM     67  C   UNL A   1      44.515  20.786  25.273  1.00  0.00     0.060 A 
BRANCH  67  68
ATOM     68  S   UNL A   1      45.096  19.476  24.165  1.00  0.00     0.124 S 
ATOM     69  O   UNL A   1      44.508  19.863  22.885  1.00  0.00    -0.237 OA
ATOM     70  O   UNL A   1      46.545  19.607  24.261  1.00  0.00    -0.237 OA
ATOM     71  O   UNL A   1      44.535  18.262  24.753  1.00  0.00    -0.744 OA
ENDBRANCH  67  68
ENDBRANCH  46  60
BRANCH  47  72
ATOM     72  C   UNL A   1      41.762  30.441  33.192  1.00  0.00     0.058 A 
ATOM     73  C   UNL A   1      40.540  29.747  33.339  1.00  0.00     0.135 A 
ATOM     74  C   UNL A   1      41.869  31.668  33.864  1.00  0.00     0.135 A 
ATOM     75  F   UNL A   1      40.360  28.571  32.713  1.00  0.00    -0.206 F 
ATOM     76  C   UNL A   1      39.549  30.153  34.227  1.00  0.00     0.059 A 
ATOM     77  C   UNL A   1      40.866  32.112  34.749  1.00  0.00     0.059 A 
ATOM     78  F   UNL A   1      43.011  32.370  33.807  1.00  0.00    -0.206 F 
ATOM     79  C   UNL A   1      39.743  31.310  34.970  1.00  0.00     0.060 A 
BRANCH  79  80
ATOM     80  S   UNL A   1      38.582  31.613  36.332  1.00  0.00     0.124 S 
ATOM     81  O   UNL A   1      37.532  32.383  35.674  1.00  0.00    -0.237 OA
ATOM     82  O   UNL A   1      38.216  30.248  36.708  1.00  0.00    -0.237 OA
ATOM     83  O   UNL A   1      39.388  32.346  37.302  1.00  0.00    -0.744 OA
ENDBRANCH  79  80
ENDBRANCH  47  72
BRANCH  59  84
ATOM     84  C   UNL A   1      44.906  23.865  33.679  1.00  0.00     0.058 A 
ATOM     85  C   UNL A   1      43.912  22.946  34.039  1.00  0.00     0.135 A 
ATOM     86  C   UNL A   1      46.240  23.491  33.979  1.00  0.00     0.135 A 
ATOM     87  F   UNL A   1      42.628  23.148  33.710  1.00  0.00    -0.206 F 
ATOM     88  C   UNL A   1      44.207  21.762  34.713  1.00  0.00     0.059 A 
ATOM     89  C   UNL A   1      46.561  22.288  34.596  1.00  0.00     0.059 A 
ATOM     90  F   UNL A   1      47.277  24.284  33.661  1.00  0.00    -0.206 F 
ATOM     91  C   UNL A   1      45.534  21.443  34.988  1.00  0.00     0.060 A 
BRANCH  91  92
ATOM     92  S   UNL A   1      45.939  19.906  35.833  1.00  0.00     0.124 S 
ATOM     93  O   UNL A   1      45.003  18.977  35.207  1.00  0.00    -0.237 OA
ATOM     94  O   UNL A   1      47.345  19.702  35.498  1.00  0.00    -0.237 OA
ATOM     95  O   UNL A   1      45.675  20.224  37.233  1.00  0.00    -0.744 OA
ENDBRANCH  91  92
ENDBRANCH  59  84
ENDBRANCH  33  34
ENDBRANCH  26  28
ENDBRANCH  25  26
ENDBRANCH  24  25
ENDBRANCH  23  24
ENDBRANCH  22  23
ENDBRANCH   1  22
TORSDOF 22
ENDMDL
MODEL 3
REMARK VINA RESULT:     -11.3      1.389      2.007
REMARK SMILES Cc1ccc(C(F)(F)F)cc1/C=C/C(=O)OCCOCCOCCOC(=O)c1ccc(-c2c3nc(c(-c4c(F)cc(S(=O)(=O)[O-])cc4F)c4ccc([nH]4)c(-c4c(F)cc(S(=O)(=O)[O-])cc4F)c4nc(c(-c5c(F)cc(S(=O)(=O)[O-])cc5F)c5ccc2[nH]5)C=C4)C=C3)cc1
REMARK SMILES IDX 21 1 20 2 19 3 18 4 17 5 16 6 14 7 15 8 13 9 12 10 11 11
REMARK SMILES IDX 1 12 2 13 3 14 4 15 10 16 5 17 6 18 7 19 8 20 9 21 22 22
REMARK SMILES IDX 23 23 24 24 25 25 26 26 27 27 28 28 29 29 93 30 30 31 92 32
REMARK SMILES IDX 31 33 32 34 33 35 86 36 34 37 91 38 85 39 87 40 35 41 90 42
REMARK SMILES IDX 84 43 83 44 36 46 70 47 49 48 69 49 50 50 53 51 68 52 88 53
REMARK SMILES IDX 51 54 52 55 67 57 89 58 54 59 37 60 38 61 47 62 39 63 40 64
REMARK SMILES IDX 46 65 48 66 41 67 42 68 43 69 44 70 45 71 71 72 72 73 81 74
REMARK SMILES IDX 73 75 74 76 80 77 82 78 75 79 76 80 77 81 78 82 79 83 55 84
REMARK SMILES IDX 56 85 65 86 57 87 58 88 64 89 66 90 59 91 60 92 61 93 62 94
REMARK SMILES IDX 63 95
REMARK H PARENT 87 45 53 56
REMARK Flexibility Score: inf
ROOT
ATOM      1  C   UNL A   1      33.633  31.201  27.583  1.00  0.00     0.188 C 
ENDROOT
BRANCH   1   2
ATOM      2  C   UNL A   1      32.422  30.599  26.886  1.00  0.00     0.188 C 
BRANCH   2   3
ATOM      3  O   UNL A   1      32.577  30.170  25.534  1.00  0.00    -0.376 OA
BRANCH   3   4
ATOM      4  C   UNL A   1      32.364  28.874  25.024  1.00  0.00     0.202 C 
BRANCH   4   5
ATOM      5  C   UNL A   1      31.542  28.633  23.573  1.00  0.00     0.261 C 
BRANCH   5   6
ATOM      6  O   UNL A   1      31.460  27.545  22.381  1.00  0.00    -0.460 OA
BRANCH   6   7
ATOM      7  C   UNL A   1      32.076  26.416  21.892  1.00  0.00     0.330 C 
ATOM      8  O   UNL A   1      31.885  25.826  20.844  1.00  0.00    -0.247 OA
BRANCH   7   9
ATOM      9  C   UNL A   1      33.238  25.828  22.561  1.00  0.00     0.094 C 
ATOM     10  C   UNL A   1      33.369  24.497  22.315  1.00  0.00     0.016 C 
BRANCH  10  11
ATOM     11  C   UNL A   1      33.906  23.449  23.222  1.00  0.00    -0.022 A 
ATOM     12  C   UNL A   1      32.045  21.808  22.664  1.00  0.00     0.045 C 
ATOM     13  C   UNL A   1      33.269  22.216  23.431  1.00  0.00    -0.044 A 
ATOM     14  C   UNL A   1      33.821  21.295  24.339  1.00  0.00     0.004 A 
ATOM     15  C   UNL A   1      34.987  21.585  25.048  1.00  0.00     0.013 A 
ATOM     16  C   UNL A   1      35.099  23.727  23.944  1.00  0.00     0.021 A 
ATOM     17  C   UNL A   1      35.652  22.799  24.852  1.00  0.00     0.056 A 
BRANCH  17  18
ATOM     18  C   UNL A   1      36.924  23.062  25.629  1.00  0.00     0.416 C 
ATOM     19  F   UNL A   1      37.774  23.892  24.954  1.00  0.00    -0.166 F 
ATOM     20  F   UNL A   1      36.686  23.696  26.817  1.00  0.00    -0.166 F 
ATOM     21  F   UNL A   1      37.648  21.956  25.936  1.00  0.00    -0.166 F 
ENDBRANCH  17  18
ENDBRANCH  10  11
ENDBRANCH   7   9
ENDBRANCH   6   7
ENDBRANCH   5   6
ENDBRANCH   4   5
ENDBRANCH   3   4
ENDBRANCH   2   3
ENDBRANCH   1   2
BRANCH   1  22
ATOM     22  O   UNL A   1      33.456  32.600  27.737  1.00  0.00    -0.376 OA
BRANCH  22  23
ATOM     23  C   UNL A   1      33.849  33.110  28.999  1.00  0.00     0.202 C 
BRANCH  23  24
ATOM     24  C   UNL A   1      35.371  33.246  29.177  1.00  0.00     0.261 C 
BRANCH  24  25
ATOM     25  O   UNL A   1      36.030  31.971  29.004  1.00  0.00    -0.460 OA
BRANCH  25  26
ATOM     26  C   UNL A   1      36.315  31.250  30.153  1.00  0.00     0.338 C 
ATOM     27  O   UNL A   1      35.747  31.437  31.189  1.00  0.00    -0.246 OA
BRANCH  26  28
ATOM     28  C   UNL A   1      37.283  30.133  29.833  1.00  0.00     0.060 A 
ATOM     29  C   UNL A   1      37.605  29.034  30.638  1.00  0.00     0.016 A 
ATOM     30  C   UNL A   1      37.998  30.230  28.683  1.00  0.00     0.016 A 
ATOM     31  C   UNL A   1      38.759  28.179  30.373  1.00  0.00     0.010 A 
ATOM     32  C   UNL A   1      39.139  29.431  28.544  1.00  0.00     0.010 A 
ATOM     33  C   UNL A   1      39.653  28.395  29.328  1.00  0.00    -0.014 A 
BRANCH  33  34
ATOM     34  C   UNL A   1      41.153  27.829  29.150  1.00  0.00     0.031 A 
ATOM     35  C   UNL A   1      41.702  26.484  28.528  1.00  0.00     0.074 A 
ATOM     36  C   UNL A   1      42.196  28.594  29.531  1.00  0.00     0.049 A 
ATOM     37  N   UNL A   1      42.088  25.397  29.164  1.00  0.00    -0.248 NA
ATOM     38  C   UNL A   1      41.896  26.286  27.073  1.00  0.00     0.031 C 
ATOM     39  C   UNL A   1      43.621  28.306  29.360  1.00  0.00     0.029 A 
ATOM     40  N   UNL A   1      42.164  29.736  30.321  1.00  0.00    -0.354 N 
ATOM     41  C   UNL A   1      42.452  24.440  28.195  1.00  0.00     0.074 A 
ATOM     42  C   UNL A   1      42.077  24.975  26.919  1.00  0.00     0.031 C 
ATOM     43  C   UNL A   1      44.304  29.039  30.254  1.00  0.00     0.029 A 
ATOM     44  C   UNL A   1      43.331  29.727  31.089  1.00  0.00     0.049 A 
ATOM     45  H   UNL A   1      41.456  30.419  30.336  1.00  0.00     0.167 HD
ATOM     46  C   UNL A   1      43.480  23.535  28.266  1.00  0.00     0.037 A 
ATOM     47  C   UNL A   1      43.220  29.632  32.444  1.00  0.00     0.037 A 
ATOM     48  C   UNL A   1      44.471  24.036  29.182  1.00  0.00     0.049 A 
ATOM     49  C   UNL A   1      43.816  28.356  32.987  1.00  0.00     0.074 A 
ATOM     50  C   UNL A   1      45.553  24.872  28.956  1.00  0.00     0.029 A 
ATOM     51  N   UNL A   1      44.221  24.045  30.535  1.00  0.00    -0.354 N 
ATOM     52  N   UNL A   1      44.160  27.328  32.256  1.00  0.00    -0.248 NA
ATOM     53  C   UNL A   1      44.096  28.144  34.404  1.00  0.00     0.031 C 
ATOM     54  C   UNL A   1      45.894  25.473  30.188  1.00  0.00     0.029 A 
ATOM     55  C   UNL A   1      45.060  24.948  31.158  1.00  0.00     0.049 A 
ATOM     56  H   UNL A   1      43.546  23.490  30.990  1.00  0.00     0.167 HD
ATOM     57  C   UNL A   1      44.635  26.330  33.065  1.00  0.00     0.074 A 
ATOM     58  C   UNL A   1      44.619  26.906  34.394  1.00  0.00     0.031 C 
ATOM     59  C   UNL A   1      44.987  25.099  32.593  1.00  0.00     0.037 A 
BRANCH  46  60
ATOM     60  C   UNL A   1      43.768  22.559  27.119  1.00  0.00     0.058 A 
ATOM     61  C   UNL A   1      42.950  21.453  26.805  1.00  0.00     0.135 A 
ATOM     62  C   UNL A   1      44.914  22.700  26.299  1.00  0.00     0.135 A 
ATOM     63  F   UNL A   1      41.794  21.237  27.446  1.00  0.00    -0.206 F 
ATOM     64  C   UNL A   1      43.302  20.497  25.839  1.00  0.00     0.059 A 
ATOM     65  C   UNL A   1      45.294  21.748  25.339  1.00  0.00     0.059 A 
ATOM     66  F   UNL A   1      45.731  23.756  26.455  1.00  0.00    -0.206 F 
ATOM     67  C   UNL A   1      44.492  20.634  25.131  1.00  0.00     0.060 A 
BRANCH  67  68
ATOM     68  S   UNL A   1      45.016  19.300  24.022  1.00  0.00     0.124 S 
ATOM     69  O   UNL A   1      46.471  19.358  24.126  1.00  0.00    -0.237 OA
ATOM     70  O   UNL A   1      44.384  18.130  24.622  1.00  0.00    -0.237 OA
ATOM     71  O   UNL A   1      44.478  19.707  22.726  1.00  0.00    -0.744 OA
ENDBRANCH  67  68
ENDBRANCH  46  60
BRANCH  47  72
ATOM     72  C   UNL A   1      42.071  30.425  32.992  1.00  0.00     0.058 A 
ATOM     73  C   UNL A   1      40.931  29.692  33.395  1.00  0.00     0.135 A 
ATOM     74  C   UNL A   1      42.175  31.737  33.480  1.00  0.00     0.135 A 
ATOM     75  F   UNL A   1      40.758  28.433  32.957  1.00  0.00    -0.206 F 
ATOM     76  C   UNL A   1      40.037  30.161  34.351  1.00  0.00     0.059 A 
ATOM     77  C   UNL A   1      41.265  32.243  34.429  1.00  0.00     0.059 A 
ATOM     78  F   UNL A   1      43.245  32.485  33.175  1.00  0.00    -0.206 F 
ATOM     79  C   UNL A   1      40.241  31.418  34.905  1.00  0.00     0.060 A 
BRANCH  79  80
ATOM     80  S   UNL A   1      39.247  31.842  36.364  1.00  0.00     0.124 S 
ATOM     81  O   UNL A   1      38.611  33.088  35.949  1.00  0.00    -0.237 OA
ATOM     82  O   UNL A   1      38.358  30.684  36.453  1.00  0.00    -0.237 OA
ATOM     83  O   UNL A   1      40.242  31.963  37.423  1.00  0.00    -0.744 OA
ENDBRANCH  79  80
ENDBRANCH  47  72
BRANCH  59  84
ATOM     84  C   UNL A   1      45.324  23.899  33.433  1.00  0.00     0.058 A 
ATOM     85  C   UNL A   1      46.588  23.694  34.003  1.00  0.00     0.135 A 
ATOM     86  C   UNL A   1      44.303  23.005  33.842  1.00  0.00     0.135 A 
ATOM     87  F   UNL A   1      47.600  24.543  33.769  1.00  0.00    -0.206 F 
ATOM     88  C   UNL A   1      46.846  22.635  34.871  1.00  0.00     0.059 A 
ATOM     89  C   UNL A   1      44.525  21.979  34.752  1.00  0.00     0.059 A 
ATOM     90  F   UNL A   1      43.048  23.118  33.377  1.00  0.00    -0.206 F 
ATOM     91  C   UNL A   1      45.809  21.783  35.239  1.00  0.00     0.060 A 
BRANCH  91  92
ATOM     92  S   UNL A   1      46.114  20.425  36.380  1.00  0.00     0.124 S 
ATOM     93  O   UNL A   1      47.553  20.234  36.224  1.00  0.00    -0.237 OA
ATOM     94  O   UNL A   1      45.689  20.968  37.667  1.00  0.00    -0.237 OA
ATOM     95  O   UNL A   1      45.272  19.357  35.849  1.00  0.00    -0.744 OA
ENDBRANCH  91  92
ENDBRANCH  59  84
ENDBRANCH  33  34
ENDBRANCH  26  28
ENDBRANCH  25  26
ENDBRANCH  24  25
ENDBRANCH  23  24
ENDBRANCH  22  23
ENDBRANCH   1  22
TORSDOF 22
ENDMDL
