MODEL 1
REMARK VINA RESULT:      -9.0      0.000      0.000
REMARK SMILES CC[C@H]1CCC[C@@H]([NH2+][C@@](C)(CC)C(=O)OCCOCCOCCOC(=O)c2ccc(-c3c4nc(c(-c5c(F)cc(S(=O)(=O)[O-])cc5F)c5ccc([nH]5)c(-c5c(F)cc(S(=O)(=O)[O-])cc5F)c5nc(c(-c6c(F)cc(S(=O)(=O)[O-])cc6F)c6ccc3[nH]6)C=C5)C=C4)cc2)C1
REMARK SMILES IDX 19 1 18 2 17 3 16 4 15 5 13 6 14 7 9 8 10 9 8 10 7 13 3 14
REMARK SMILES IDX 4 15 93 16 5 17 6 18 2 19 1 20 11 21 12 22 20 23 21 24 22 25
REMARK SMILES IDX 23 26 24 27 25 28 26 29 27 30 28 31 92 32 29 33 91 34 30 35
REMARK SMILES IDX 31 36 32 37 85 38 33 39 90 40 84 41 86 42 34 43 89 44 83 45
REMARK SMILES IDX 82 46 35 48 69 49 48 50 68 51 49 52 52 53 67 54 87 55 50 56
REMARK SMILES IDX 51 57 66 59 88 60 53 61 36 62 37 63 46 64 38 65 39 66 45 67
REMARK SMILES IDX 47 68 40 69 41 70 42 71 43 72 44 73 70 74 71 75 80 76 72 77
REMARK SMILES IDX 73 78 79 79 81 80 74 81 75 82 76 83 77 84 78 85 54 86 55 87
REMARK SMILES IDX 64 88 56 89 57 90 63 91 65 92 58 93 59 94 60 95 61 96 62 97
REMARK H PARENT 8 11 8 12 86 47 52 58
REMARK Flexibility Score: inf
ROOT
ATOM      1  C   UNL A   1      33.406  29.769  26.119  1.00  0.00     0.188 C 
ENDROOT
BRANCH   1   2
ATOM      2  O   UNL A   1      32.315  28.924  26.469  1.00  0.00    -0.376 OA
BRANCH   2   3
ATOM      3  C   UNL A   1      31.548  28.294  25.453  1.00  0.00     0.202 C 
BRANCH   3   4
ATOM      4  C   UNL A   1      31.503  28.996  24.093  1.00  0.00     0.261 C 
BRANCH   4   5
ATOM      5  O   UNL A   1      31.845  28.164  22.961  1.00  0.00    -0.459 OA
BRANCH   5   6
ATOM      6  C   UNL A   1      32.846  27.262  23.168  1.00  0.00     0.367 C 
ATOM      7  O   UNL A   1      34.001  27.575  23.440  1.00  0.00    -0.245 OA
BRANCH   6   8
ATOM      8  C   UNL A   1      32.419  25.788  22.900  1.00  0.00     0.191 C 
ATOM      9  C   UNL A   1      32.806  25.588  21.403  1.00  0.00     0.092 C 
BRANCH   8  10
ATOM     10  N   UNL A   1      33.338  24.840  23.609  1.00  0.00    -0.330 N 
ATOM     11  H   UNL A   1      34.073  25.405  24.037  1.00  0.00     0.347 HD
ATOM     12  H   UNL A   1      32.716  24.333  24.241  1.00  0.00     0.347 HD
BRANCH  10  13
ATOM     13  C   UNL A   1      34.005  23.771  22.853  1.00  0.00     0.183 C 
ATOM     14  C   UNL A   1      35.268  22.588  24.811  1.00  0.00    -0.006 C 
ATOM     15  C   UNL A   1      34.371  21.361  24.628  1.00  0.00     0.004 C 
ATOM     16  C   UNL A   1      35.350  23.351  23.481  1.00  0.00     0.068 C 
ATOM     17  C   UNL A   1      32.992  21.728  24.090  1.00  0.00     0.006 C 
ATOM     18  C   UNL A   1      33.081  22.525  22.784  1.00  0.00     0.065 C 
BRANCH  14  19
ATOM     19  C   UNL A   1      34.858  23.520  25.966  1.00  0.00     0.000 C 
ATOM     20  C   UNL A   1      34.421  22.788  27.221  1.00  0.00     0.004 C 
ENDBRANCH  14  19
ENDBRANCH  10  13
ENDBRANCH   8  10
BRANCH   8  21
ATOM     21  C   UNL A   1      30.908  25.430  22.953  1.00  0.00     0.077 C 
ATOM     22  C   UNL A   1      30.339  24.519  24.030  1.00  0.00     0.011 C 
ENDBRANCH   8  21
ENDBRANCH   6   8
ENDBRANCH   5   6
ENDBRANCH   4   5
ENDBRANCH   3   4
ENDBRANCH   2   3
ENDBRANCH   1   2
BRANCH   1  23
ATOM     23  C   UNL A   1      34.203  30.440  27.234  1.00  0.00     0.188 C 
BRANCH  23  24
ATOM     24  O   UNL A   1      33.427  31.346  28.006  1.00  0.00    -0.376 OA
BRANCH  24  25
ATOM     25  C   UNL A   1      32.483  32.103  27.259  1.00  0.00     0.202 C 
BRANCH  25  26
ATOM     26  C   UNL A   1      32.835  33.587  27.372  1.00  0.00     0.261 C 
BRANCH  26  27
ATOM     27  O   UNL A   1      32.529  34.132  28.669  1.00  0.00    -0.460 OA
BRANCH  27  28
ATOM     28  C   UNL A   1      33.438  35.021  29.135  1.00  0.00     0.338 C 
ATOM     29  O   UNL A   1      33.272  36.217  29.293  1.00  0.00    -0.246 OA
BRANCH  28  30
ATOM     30  C   UNL A   1      34.606  34.280  29.646  1.00  0.00     0.060 A 
ATOM     31  C   UNL A   1      34.391  33.390  30.701  1.00  0.00     0.016 A 
ATOM     32  C   UNL A   1      35.891  34.492  29.147  1.00  0.00     0.016 A 
ATOM     33  C   UNL A   1      35.467  32.723  31.286  1.00  0.00     0.010 A 
ATOM     34  C   UNL A   1      36.973  33.836  29.748  1.00  0.00     0.010 A 
ATOM     35  C   UNL A   1      36.770  32.967  30.836  1.00  0.00    -0.014 A 
BRANCH  35  36
ATOM     36  C   UNL A   1      37.919  32.476  31.636  1.00  0.00     0.031 A 
ATOM     37  C   UNL A   1      38.725  31.328  31.094  1.00  0.00     0.074 A 
ATOM     38  C   UNL A   1      38.291  33.067  32.787  1.00  0.00     0.049 A 
ATOM     39  N   UNL A   1      39.693  30.652  31.656  1.00  0.00    -0.248 NA
ATOM     40  C   UNL A   1      38.399  30.891  29.727  1.00  0.00     0.031 C 
ATOM     41  C   UNL A   1      37.670  34.255  33.371  1.00  0.00     0.029 A 
ATOM     42  N   UNL A   1      39.291  32.742  33.672  1.00  0.00    -0.354 N 
ATOM     43  C   UNL A   1      40.074  29.694  30.723  1.00  0.00     0.074 A 
ATOM     44  C   UNL A   1      39.235  29.878  29.559  1.00  0.00     0.031 C 
ATOM     45  C   UNL A   1      38.301  34.554  34.521  1.00  0.00     0.029 A 
ATOM     46  C   UNL A   1      39.334  33.552  34.782  1.00  0.00     0.049 A 
ATOM     47  H   UNL A   1      39.918  31.998  33.523  1.00  0.00     0.167 HD
ATOM     48  C   UNL A   1      41.031  28.743  30.830  1.00  0.00     0.037 A 
ATOM     49  C   UNL A   1      40.093  33.468  35.894  1.00  0.00     0.037 A 
ATOM     50  C   UNL A   1      41.868  28.561  31.985  1.00  0.00     0.049 A 
ATOM     51  C   UNL A   1      41.086  32.339  36.033  1.00  0.00     0.074 A 
ATOM     52  C   UNL A   1      42.832  27.594  32.206  1.00  0.00     0.029 A 
ATOM     53  N   UNL A   1      41.842  29.367  33.113  1.00  0.00    -0.354 N 
ATOM     54  N   UNL A   1      41.392  31.396  35.174  1.00  0.00    -0.248 NA
ATOM     55  C   UNL A   1      41.826  32.254  37.301  1.00  0.00     0.031 C 
ATOM     56  C   UNL A   1      43.366  27.793  33.484  1.00  0.00     0.029 A 
ATOM     57  C   UNL A   1      42.765  28.911  34.039  1.00  0.00     0.049 A 
ATOM     58  H   UNL A   1      41.255  30.146  33.237  1.00  0.00     0.167 HD
ATOM     59  C   UNL A   1      42.373  30.622  35.789  1.00  0.00     0.074 A 
ATOM     60  C   UNL A   1      42.618  31.213  37.087  1.00  0.00     0.031 C 
ATOM     61  C   UNL A   1      43.011  29.518  35.323  1.00  0.00     0.037 A 
BRANCH  48  62
ATOM     62  C   UNL A   1      41.176  27.788  29.681  1.00  0.00     0.058 A 
ATOM     63  C   UNL A   1      42.273  27.839  28.807  1.00  0.00     0.135 A 
ATOM     64  C   UNL A   1      40.197  26.809  29.453  1.00  0.00     0.135 A 
ATOM     65  F   UNL A   1      43.222  28.774  28.967  1.00  0.00    -0.206 F 
ATOM     66  C   UNL A   1      42.379  26.968  27.727  1.00  0.00     0.059 A 
ATOM     67  C   UNL A   1      40.295  25.912  28.393  1.00  0.00     0.059 A 
ATOM     68  F   UNL A   1      39.125  26.725  30.256  1.00  0.00    -0.206 F 
ATOM     69  C   UNL A   1      41.381  26.011  27.527  1.00  0.00     0.060 A 
BRANCH  69  70
ATOM     70  S   UNL A   1      41.522  24.897  26.113  1.00  0.00     0.124 S 
ATOM     71  O   UNL A   1      41.515  25.841  24.999  1.00  0.00    -0.237 OA
ATOM     72  O   UNL A   1      42.792  24.225  26.367  1.00  0.00    -0.237 OA
ATOM     73  O   UNL A   1      40.335  24.054  26.227  1.00  0.00    -0.744 OA
ENDBRANCH  69  70
ENDBRANCH  48  62
BRANCH  49  74
ATOM     74  C   UNL A   1      39.917  34.448  37.001  1.00  0.00     0.058 A 
ATOM     75  C   UNL A   1      38.940  34.260  37.991  1.00  0.00     0.135 A 
ATOM     76  C   UNL A   1      40.695  35.615  37.067  1.00  0.00     0.135 A 
ATOM     77  F   UNL A   1      38.156  33.171  37.961  1.00  0.00    -0.206 F 
ATOM     78  C   UNL A   1      38.727  35.201  38.994  1.00  0.00     0.059 A 
ATOM     79  C   UNL A   1      40.519  36.557  38.076  1.00  0.00     0.059 A 
ATOM     80  F   UNL A   1      41.642  35.844  36.145  1.00  0.00    -0.206 F 
ATOM     81  C   UNL A   1      39.522  36.348  39.027  1.00  0.00     0.060 A 
BRANCH  81  82
ATOM     82  S   UNL A   1      39.260  37.552  40.348  1.00  0.00     0.124 S 
ATOM     83  O   UNL A   1      40.556  38.220  40.396  1.00  0.00    -0.237 OA
ATOM     84  O   UNL A   1      38.151  38.346  39.828  1.00  0.00    -0.237 OA
ATOM     85  O   UNL A   1      38.937  36.718  41.501  1.00  0.00    -0.744 OA
ENDBRANCH  81  82
ENDBRANCH  49  74
BRANCH  61  86
ATOM     86  C   UNL A   1      44.066  28.898  36.198  1.00  0.00     0.058 A 
ATOM     87  C   UNL A   1      45.367  29.418  36.268  1.00  0.00     0.135 A 
ATOM     88  C   UNL A   1      43.752  27.805  37.022  1.00  0.00     0.135 A 
ATOM     89  F   UNL A   1      45.721  30.459  35.498  1.00  0.00    -0.206 F 
ATOM     90  C   UNL A   1      46.326  28.865  37.112  1.00  0.00     0.059 A 
ATOM     91  C   UNL A   1      44.688  27.251  37.891  1.00  0.00     0.059 A 
ATOM     92  F   UNL A   1      42.517  27.276  37.003  1.00  0.00    -0.206 F 
ATOM     93  C   UNL A   1      45.976  27.782  37.920  1.00  0.00     0.060 A 
BRANCH  93  94
ATOM     94  S   UNL A   1      47.216  27.096  39.040  1.00  0.00     0.124 S 
ATOM     95  O   UNL A   1      46.591  27.317  40.341  1.00  0.00    -0.237 OA
ATOM     96  O   UNL A   1      47.300  25.704  38.605  1.00  0.00    -0.237 OA
ATOM     97  O   UNL A   1      48.402  27.901  38.768  1.00  0.00    -0.744 OA
ENDBRANCH  93  94
ENDBRANCH  61  86
ENDBRANCH  35  36
ENDBRANCH  28  30
ENDBRANCH  27  28
ENDBRANCH  26  27
ENDBRANCH  25  26
ENDBRANCH  24  25
ENDBRANCH  23  24
ENDBRANCH   1  23
TORSDOF 24
ENDMDL
MODEL 2
REMARK VINA RESULT:      -8.7      6.183     10.927
REMARK SMILES CC[C@H]1CCC[C@@H]([NH2+][C@@](C)(CC)C(=O)OCCOCCOCCOC(=O)c2ccc(-c3c4nc(c(-c5c(F)cc(S(=O)(=O)[O-])cc5F)c5ccc([nH]5)c(-c5c(F)cc(S(=O)(=O)[O-])cc5F)c5nc(c(-c6c(F)cc(S(=O)(=O)[O-])cc6F)c6ccc3[nH]6)C=C5)C=C4)cc2)C1
REMARK SMILES IDX 19 1 18 2 17 3 16 4 15 5 13 6 14 7 9 8 10 9 8 10 7 13 3 14
REMARK SMILES IDX 4 15 93 16 5 17 6 18 2 19 1 20 11 21 12 22 20 23 21 24 22 25
REMARK SMILES IDX 23 26 24 27 25 28 26 29 27 30 28 31 92 32 29 33 91 34 30 35
REMARK SMILES IDX 31 36 32 37 85 38 33 39 90 40 84 41 86 42 34 43 89 44 83 45
REMARK SMILES IDX 82 46 35 48 69 49 48 50 68 51 49 52 52 53 67 54 87 55 50 56
REMARK SMILES IDX 51 57 66 59 88 60 53 61 36 62 37 63 46 64 38 65 39 66 45 67
REMARK SMILES IDX 47 68 40 69 41 70 42 71 43 72 44 73 70 74 71 75 80 76 72 77
REMARK SMILES IDX 73 78 79 79 81 80 74 81 75 82 76 83 77 84 78 85 54 86 55 87
REMARK SMILES IDX 64 88 56 89 57 90 63 91 65 92 58 93 59 94 60 95 61 96 62 97
REMARK H PARENT 8 11 8 12 86 47 52 58
REMARK Flexibility Score: inf
ROOT
ATOM      1  C   UNL A   1      32.060  29.039  25.945  1.00  0.00     0.188 C 
ENDROOT
BRANCH   1   2
ATOM      2  O   UNL A   1      31.692  28.794  24.592  1.00  0.00    -0.376 OA
BRANCH   2   3
ATOM      3  C   UNL A   1      32.583  29.135  23.540  1.00  0.00     0.202 C 
BRANCH   3   4
ATOM      4  C   UNL A   1      33.267  27.972  22.815  1.00  0.00     0.261 C 
BRANCH   4   5
ATOM      5  O   UNL A   1      32.528  26.729  22.817  1.00  0.00    -0.459 OA
BRANCH   5   6
ATOM      6  C   UNL A   1      33.100  25.699  23.501  1.00  0.00     0.367 C 
ATOM      7  O   UNL A   1      34.302  25.447  23.478  1.00  0.00    -0.245 OA
BRANCH   6   8
ATOM      8  C   UNL A   1      32.067  24.780  24.219  1.00  0.00     0.191 C 
ATOM      9  C   UNL A   1      30.887  24.734  23.202  1.00  0.00     0.092 C 
BRANCH   8  10
ATOM     10  N   UNL A   1      32.549  23.361  24.232  1.00  0.00    -0.330 N 
ATOM     11  H   UNL A   1      31.803  22.792  23.829  1.00  0.00     0.347 HD
ATOM     12  H   UNL A   1      33.429  23.403  23.716  1.00  0.00     0.347 HD
BRANCH  10  13
ATOM     13  C   UNL A   1      32.926  22.733  25.506  1.00  0.00     0.183 C 
ATOM     14  C   UNL A   1      32.767  20.221  24.805  1.00  0.00    -0.006 C 
ATOM     15  C   UNL A   1      34.285  20.096  24.962  1.00  0.00     0.004 C 
ATOM     16  C   UNL A   1      32.261  21.355  25.707  1.00  0.00     0.068 C 
ATOM     17  C   UNL A   1      35.004  21.412  24.687  1.00  0.00     0.006 C 
ATOM     18  C   UNL A   1      34.467  22.551  25.562  1.00  0.00     0.065 C 
BRANCH  14  19
ATOM     19  C   UNL A   1      32.281  20.400  23.355  1.00  0.00     0.000 C 
ATOM     20  C   UNL A   1      32.322  19.126  22.531  1.00  0.00     0.004 C 
ENDBRANCH  14  19
ENDBRANCH  10  13
ENDBRANCH   8  10
BRANCH   8  21
ATOM     21  C   UNL A   1      31.415  25.283  25.536  1.00  0.00     0.077 C 
ATOM     22  C   UNL A   1      29.924  25.572  25.632  1.00  0.00     0.011 C 
ENDBRANCH   8  21
ENDBRANCH   6   8
ENDBRANCH   5   6
ENDBRANCH   4   5
ENDBRANCH   3   4
ENDBRANCH   2   3
ENDBRANCH   1   2
BRANCH   1  23
ATOM     23  C   UNL A   1      31.826  30.430  26.529  1.00  0.00     0.188 C 
BRANCH  23  24
ATOM     24  O   UNL A   1      33.030  31.086  26.904  1.00  0.00    -0.376 OA
BRANCH  24  25
ATOM     25  C   UNL A   1      34.014  30.234  27.475  1.00  0.00     0.202 C 
BRANCH  25  26
ATOM     26  C   UNL A   1      34.635  30.935  28.686  1.00  0.00     0.261 C 
BRANCH  26  27
ATOM     27  O   UNL A   1      36.071  30.835  28.709  1.00  0.00    -0.460 OA
BRANCH  27  28
ATOM     28  C   UNL A   1      36.578  30.272  29.831  1.00  0.00     0.338 C 
ATOM     29  O   UNL A   1      35.946  29.814  30.765  1.00  0.00    -0.246 OA
BRANCH  28  30
ATOM     30  C   UNL A   1      38.030  30.085  29.653  1.00  0.00     0.060 A 
ATOM     31  C   UNL A   1      38.534  30.165  28.352  1.00  0.00     0.016 A 
ATOM     32  C   UNL A   1      38.873  29.783  30.722  1.00  0.00     0.016 A 
ATOM     33  C   UNL A   1      39.883  29.913  28.106  1.00  0.00     0.010 A 
ATOM     34  C   UNL A   1      40.224  29.511  30.472  1.00  0.00     0.010 A 
ATOM     35  C   UNL A   1      40.731  29.552  29.159  1.00  0.00    -0.014 A 
BRANCH  35  36
ATOM     36  C   UNL A   1      42.082  29.018  28.854  1.00  0.00     0.031 A 
ATOM     37  C   UNL A   1      43.257  29.951  28.964  1.00  0.00     0.074 A 
ATOM     38  C   UNL A   1      42.285  27.723  28.550  1.00  0.00     0.049 A 
ATOM     39  N   UNL A   1      44.508  29.756  28.641  1.00  0.00    -0.248 NA
ATOM     40  C   UNL A   1      42.980  31.283  29.526  1.00  0.00     0.031 C 
ATOM     41  C   UNL A   1      41.255  26.686  28.518  1.00  0.00     0.029 A 
ATOM     42  N   UNL A   1      43.440  27.060  28.210  1.00  0.00    -0.354 N 
ATOM     43  C   UNL A   1      45.163  30.945  28.934  1.00  0.00     0.074 A 
ATOM     44  C   UNL A   1      44.172  31.856  29.463  1.00  0.00     0.031 C 
ATOM     45  C   UNL A   1      41.825  25.518  28.171  1.00  0.00     0.029 A 
ATOM     46  C   UNL A   1      43.247  25.733  27.905  1.00  0.00     0.049 A 
ATOM     47  H   UNL A   1      44.322  27.495  28.188  1.00  0.00     0.167 HD
ATOM     48  C   UNL A   1      46.471  31.254  28.769  1.00  0.00     0.037 A 
ATOM     49  C   UNL A   1      44.112  24.812  27.431  1.00  0.00     0.037 A 
ATOM     50  C   UNL A   1      47.458  30.349  28.246  1.00  0.00     0.049 A 
ATOM     51  C   UNL A   1      45.544  25.207  27.162  1.00  0.00     0.074 A 
ATOM     52  C   UNL A   1      48.798  30.586  27.997  1.00  0.00     0.029 A 
ATOM     53  N   UNL A   1      47.212  29.030  27.895  1.00  0.00    -0.354 N 
ATOM     54  N   UNL A   1      46.141  26.356  27.377  1.00  0.00    -0.248 NA
ATOM     55  C   UNL A   1      46.418  24.183  26.569  1.00  0.00     0.031 C 
ATOM     56  C   UNL A   1      49.355  29.420  27.460  1.00  0.00     0.029 A 
ATOM     57  C   UNL A   1      48.373  28.444  27.419  1.00  0.00     0.049 A 
ATOM     58  H   UNL A   1      46.342  28.578  27.972  1.00  0.00     0.167 HD
ATOM     59  C   UNL A   1      47.460  26.184  26.968  1.00  0.00     0.074 A 
ATOM     60  C   UNL A   1      47.580  24.819  26.504  1.00  0.00     0.031 C 
ATOM     61  C   UNL A   1      48.482  27.078  26.973  1.00  0.00     0.037 A 
BRANCH  48  62
ATOM     62  C   UNL A   1      46.890  32.655  29.107  1.00  0.00     0.058 A 
ATOM     63  C   UNL A   1      46.844  33.693  28.164  1.00  0.00     0.135 A 
ATOM     64  C   UNL A   1      47.346  32.960  30.399  1.00  0.00     0.135 A 
ATOM     65  F   UNL A   1      46.440  33.446  26.908  1.00  0.00    -0.206 F 
ATOM     66  C   UNL A   1      47.264  34.980  28.482  1.00  0.00     0.059 A 
ATOM     67  C   UNL A   1      47.749  34.246  30.746  1.00  0.00     0.059 A 
ATOM     68  F   UNL A   1      47.416  32.001  31.335  1.00  0.00    -0.206 F 
ATOM     69  C   UNL A   1      47.719  35.245  29.776  1.00  0.00     0.060 A 
BRANCH  69  70
ATOM     70  S   UNL A   1      48.277  36.915  30.172  1.00  0.00     0.124 S 
ATOM     71  O   UNL A   1      47.630  37.138  31.462  1.00  0.00    -0.237 OA
ATOM     72  O   UNL A   1      49.728  36.762  30.209  1.00  0.00    -0.237 OA
ATOM     73  O   UNL A   1      47.762  37.716  29.065  1.00  0.00    -0.744 OA
ENDBRANCH  69  70
ENDBRANCH  48  62
BRANCH  49  74
ATOM     74  C   UNL A   1      43.647  23.432  27.122  1.00  0.00     0.058 A 
ATOM     75  C   UNL A   1      43.472  23.002  25.798  1.00  0.00     0.135 A 
ATOM     76  C   UNL A   1      43.328  22.528  28.148  1.00  0.00     0.135 A 
ATOM     77  F   UNL A   1      43.743  23.835  24.781  1.00  0.00    -0.206 F 
ATOM     78  C   UNL A   1      42.980  21.734  25.501  1.00  0.00     0.059 A 
ATOM     79  C   UNL A   1      42.861  21.246  27.876  1.00  0.00     0.059 A 
ATOM     80  F   UNL A   1      43.477  22.888  29.432  1.00  0.00    -0.206 F 
ATOM     81  C   UNL A   1      42.676  20.863  26.548  1.00  0.00     0.060 A 
BRANCH  81  82
ATOM     82  S   UNL A   1      42.065  19.209  26.157  1.00  0.00     0.124 S 
ATOM     83  O   UNL A   1      42.531  18.445  27.308  1.00  0.00    -0.237 OA
ATOM     84  O   UNL A   1      40.623  19.424  26.074  1.00  0.00    -0.237 OA
ATOM     85  O   UNL A   1      42.718  18.903  24.888  1.00  0.00    -0.744 OA
ENDBRANCH  81  82
ENDBRANCH  49  74
BRANCH  61  86
ATOM     86  C   UNL A   1      49.830  26.604  26.502  1.00  0.00     0.058 A 
ATOM     87  C   UNL A   1      50.233  26.733  25.165  1.00  0.00     0.135 A 
ATOM     88  C   UNL A   1      50.753  26.069  27.416  1.00  0.00     0.135 A 
ATOM     89  F   UNL A   1      49.388  27.233  24.249  1.00  0.00    -0.206 F 
ATOM     90  C   UNL A   1      51.498  26.332  24.744  1.00  0.00     0.059 A 
ATOM     91  C   UNL A   1      52.031  25.684  27.023  1.00  0.00     0.059 A 
ATOM     92  F   UNL A   1      50.423  25.936  28.711  1.00  0.00    -0.206 F 
ATOM     93  C   UNL A   1      52.391  25.809  25.682  1.00  0.00     0.060 A 
BRANCH  93  94
ATOM     94  S   UNL A   1      54.043  25.327  25.135  1.00  0.00     0.124 S 
ATOM     95  O   UNL A   1      53.830  23.937  24.746  1.00  0.00    -0.237 OA
ATOM     96  O   UNL A   1      54.297  26.259  24.039  1.00  0.00    -0.237 OA
ATOM     97  O   UNL A   1      54.867  25.529  26.322  1.00  0.00    -0.744 OA
ENDBRANCH  93  94
ENDBRANCH  61  86
ENDBRANCH  35  36
ENDBRANCH  28  30
ENDBRANCH  27  28
ENDBRANCH  26  27
ENDBRANCH  25  26
ENDBRANCH  24  25
ENDBRANCH  23  24
ENDBRANCH   1  23
TORSDOF 24
ENDMDL
MODEL 3
REMARK VINA RESULT:      -8.0      5.076     10.670
REMARK SMILES CC[C@H]1CCC[C@@H]([NH2+][C@@](C)(CC)C(=O)OCCOCCOCCOC(=O)c2ccc(-c3c4nc(c(-c5c(F)cc(S(=O)(=O)[O-])cc5F)c5ccc([nH]5)c(-c5c(F)cc(S(=O)(=O)[O-])cc5F)c5nc(c(-c6c(F)cc(S(=O)(=O)[O-])cc6F)c6ccc3[nH]6)C=C5)C=C4)cc2)C1
REMARK SMILES IDX 19 1 18 2 17 3 16 4 15 5 13 6 14 7 9 8 10 9 8 10 7 13 3 14
REMARK SMILES IDX 4 15 93 16 5 17 6 18 2 19 1 20 11 21 12 22 20 23 21 24 22 25
REMARK SMILES IDX 23 26 24 27 25 28 26 29 27 30 28 31 92 32 29 33 91 34 30 35
REMARK SMILES IDX 31 36 32 37 85 38 33 39 90 40 84 41 86 42 34 43 89 44 83 45
REMARK SMILES IDX 82 46 35 48 69 49 48 50 68 51 49 52 52 53 67 54 87 55 50 56
REMARK SMILES IDX 51 57 66 59 88 60 53 61 36 62 37 63 46 64 38 65 39 66 45 67
REMARK SMILES IDX 47 68 40 69 41 70 42 71 43 72 44 73 70 74 71 75 80 76 72 77
REMARK SMILES IDX 73 78 79 79 81 80 74 81 75 82 76 83 77 84 78 85 54 86 55 87
REMARK SMILES IDX 64 88 56 89 57 90 63 91 65 92 58 93 59 94 60 95 61 96 62 97
REMARK H PARENT 8 11 8 12 86 47 52 58
REMARK Flexibility Score: inf
ROOT
ATOM      1  C   UNL A   1      38.142  30.870  36.206  1.00  0.00     0.188 C 
ENDROOT
BRANCH   1   2
ATOM      2  O   UNL A   1      37.520  31.670  35.206  1.00  0.00    -0.376 OA
BRANCH   2   3
ATOM      3  C   UNL A   1      37.842  31.473  33.837  1.00  0.00     0.202 C 
BRANCH   3   4
ATOM      4  C   UNL A   1      37.868  30.024  33.339  1.00  0.00     0.261 C 
BRANCH   4   5
ATOM      5  O   UNL A   1      38.941  29.710  32.422  1.00  0.00    -0.459 OA
BRANCH   5   6
ATOM      6  C   UNL A   1      38.563  29.388  31.153  1.00  0.00     0.367 C 
ATOM      7  O   UNL A   1      38.246  28.256  30.801  1.00  0.00    -0.245 OA
BRANCH   6   8
ATOM      8  C   UNL A   1      38.694  30.570  30.148  1.00  0.00     0.191 C 
ATOM      9  C   UNL A   1      39.012  29.843  28.806  1.00  0.00     0.092 C 
BRANCH   8  10
ATOM     10  N   UNL A   1      37.353  31.183  29.883  1.00  0.00    -0.330 N 
ATOM     11  H   UNL A   1      37.052  30.852  28.966  1.00  0.00     0.347 HD
ATOM     12  H   UNL A   1      36.795  30.893  30.687  1.00  0.00     0.347 HD
BRANCH  10  13
ATOM     13  C   UNL A   1      37.211  32.646  29.876  1.00  0.00     0.183 C 
ATOM     14  C   UNL A   1      35.286  32.879  28.123  1.00  0.00    -0.006 C 
ATOM     15  C   UNL A   1      34.356  33.376  29.233  1.00  0.00     0.004 C 
ATOM     16  C   UNL A   1      36.739  33.190  28.511  1.00  0.00     0.068 C 
ATOM     17  C   UNL A   1      34.723  32.799  30.596  1.00  0.00     0.006 C 
ATOM     18  C   UNL A   1      36.186  33.077  30.960  1.00  0.00     0.065 C 
BRANCH  14  19
ATOM     19  C   UNL A   1      35.112  31.394  27.752  1.00  0.00     0.000 C 
ATOM     20  C   UNL A   1      33.671  30.989  27.501  1.00  0.00     0.004 C 
ENDBRANCH  14  19
ENDBRANCH  10  13
ENDBRANCH   8  10
BRANCH   8  21
ATOM     21  C   UNL A   1      39.870  31.570  30.325  1.00  0.00     0.077 C 
ATOM     22  C   UNL A   1      41.311  31.168  30.051  1.00  0.00     0.011 C 
ENDBRANCH   8  21
ENDBRANCH   6   8
ENDBRANCH   5   6
ENDBRANCH   4   5
ENDBRANCH   3   4
ENDBRANCH   2   3
ENDBRANCH   1   2
BRANCH   1  23
ATOM     23  C   UNL A   1      37.748  31.083  37.666  1.00  0.00     0.188 C 
BRANCH  23  24
ATOM     24  O   UNL A   1      36.967  32.252  37.868  1.00  0.00    -0.376 OA
BRANCH  24  25
ATOM     25  C   UNL A   1      36.853  32.660  39.225  1.00  0.00     0.202 C 
BRANCH  25  26
ATOM     26  C   UNL A   1      38.097  33.464  39.608  1.00  0.00     0.261 C 
BRANCH  26  27
ATOM     27  O   UNL A   1      38.455  34.441  38.612  1.00  0.00    -0.460 OA
BRANCH  27  28
ATOM     28  C   UNL A   1      39.699  34.957  38.751  1.00  0.00     0.338 C 
ATOM     29  O   UNL A   1      40.178  35.443  39.759  1.00  0.00    -0.246 OA
BRANCH  28  30
ATOM     30  C   UNL A   1      40.483  34.632  37.545  1.00  0.00     0.060 A 
ATOM     31  C   UNL A   1      39.791  34.111  36.448  1.00  0.00     0.016 A 
ATOM     32  C   UNL A   1      41.869  34.779  37.503  1.00  0.00     0.016 A 
ATOM     33  C   UNL A   1      40.485  33.704  35.310  1.00  0.00     0.010 A 
ATOM     34  C   UNL A   1      42.568  34.353  36.366  1.00  0.00     0.010 A 
ATOM     35  C   UNL A   1      41.882  33.791  35.273  1.00  0.00    -0.014 A 
BRANCH  35  36
ATOM     36  C   UNL A   1      42.624  33.105  34.186  1.00  0.00     0.031 A 
ATOM     37  C   UNL A   1      42.869  33.857  32.907  1.00  0.00     0.074 A 
ATOM     38  C   UNL A   1      43.133  31.869  34.340  1.00  0.00     0.049 A 
ATOM     39  N   UNL A   1      43.385  33.440  31.781  1.00  0.00    -0.248 NA
ATOM     40  C   UNL A   1      42.486  35.279  32.904  1.00  0.00     0.031 C 
ATOM     41  C   UNL A   1      43.068  31.069  35.563  1.00  0.00     0.029 A 
ATOM     42  N   UNL A   1      43.810  31.069  33.452  1.00  0.00    -0.354 N 
ATOM     43  C   UNL A   1      43.366  34.536  30.928  1.00  0.00     0.074 A 
ATOM     44  C   UNL A   1      42.789  35.638  31.666  1.00  0.00     0.031 C 
ATOM     45  C   UNL A   1      43.677  29.890  35.344  1.00  0.00     0.029 A 
ATOM     46  C   UNL A   1      44.127  29.829  33.953  1.00  0.00     0.049 A 
ATOM     47  H   UNL A   1      44.047  31.357  32.541  1.00  0.00     0.167 HD
ATOM     48  C   UNL A   1      43.783  34.616  29.643  1.00  0.00     0.037 A 
ATOM     49  C   UNL A   1      44.681  28.757  33.348  1.00  0.00     0.037 A 
ATOM     50  C   UNL A   1      44.359  33.522  28.908  1.00  0.00     0.049 A 
ATOM     51  C   UNL A   1      45.049  28.838  31.885  1.00  0.00     0.074 A 
ATOM     52  C   UNL A   1      44.767  33.493  27.587  1.00  0.00     0.029 A 
ATOM     53  N   UNL A   1      44.611  32.264  29.434  1.00  0.00    -0.354 N 
ATOM     54  N   UNL A   1      44.964  29.860  31.066  1.00  0.00    -0.248 NA
ATOM     55  C   UNL A   1      45.573  27.615  31.261  1.00  0.00     0.031 C 
ATOM     56  C   UNL A   1      45.234  32.204  27.303  1.00  0.00     0.029 A 
ATOM     57  C   UNL A   1      45.159  31.447  28.460  1.00  0.00     0.049 A 
ATOM     58  H   UNL A   1      44.429  31.993  30.362  1.00  0.00     0.167 HD
ATOM     59  C   UNL A   1      45.443  29.407  29.839  1.00  0.00     0.074 A 
ATOM     60  C   UNL A   1      45.828  28.025  30.026  1.00  0.00     0.031 C 
ATOM     61  C   UNL A   1      45.552  30.075  28.663  1.00  0.00     0.037 A 
BRANCH  48  62
ATOM     62  C   UNL A   1      43.571  35.923  28.936  1.00  0.00     0.058 A 
ATOM     63  C   UNL A   1      44.566  36.912  28.889  1.00  0.00     0.135 A 
ATOM     64  C   UNL A   1      42.349  36.187  28.298  1.00  0.00     0.135 A 
ATOM     65  F   UNL A   1      45.742  36.717  29.506  1.00  0.00    -0.206 F 
ATOM     66  C   UNL A   1      44.346  38.131  28.256  1.00  0.00     0.059 A 
ATOM     67  C   UNL A   1      42.115  37.390  27.639  1.00  0.00     0.059 A 
ATOM     68  F   UNL A   1      41.364  35.277  28.321  1.00  0.00    -0.206 F 
ATOM     69  C   UNL A   1      43.114  38.362  27.638  1.00  0.00     0.060 A 
BRANCH  69  70
ATOM     70  S   UNL A   1      42.834  39.954  26.835  1.00  0.00     0.124 S 
ATOM     71  O   UNL A   1      41.482  39.780  26.311  1.00  0.00    -0.237 OA
ATOM     72  O   UNL A   1      42.967  40.893  27.944  1.00  0.00    -0.237 OA
ATOM     73  O   UNL A   1      43.892  40.018  25.831  1.00  0.00    -0.744 OA
ENDBRANCH  69  70
ENDBRANCH  48  62
BRANCH  49  74
ATOM     74  C   UNL A   1      44.880  27.487  34.098  1.00  0.00     0.058 A 
ATOM     75  C   UNL A   1      43.837  26.560  34.248  1.00  0.00     0.135 A 
ATOM     76  C   UNL A   1      46.106  27.195  34.717  1.00  0.00     0.135 A 
ATOM     77  F   UNL A   1      42.639  26.803  33.693  1.00  0.00    -0.206 F 
ATOM     78  C   UNL A   1      43.995  25.399  35.000  1.00  0.00     0.059 A 
ATOM     79  C   UNL A   1      46.297  26.027  35.450  1.00  0.00     0.059 A 
ATOM     80  F   UNL A   1      47.135  28.047  34.605  1.00  0.00    -0.206 F 
ATOM     81  C   UNL A   1      45.230  25.142  35.598  1.00  0.00     0.060 A 
BRANCH  81  82
ATOM     82  S   UNL A   1      45.438  23.620  36.548  1.00  0.00     0.124 S 
ATOM     83  O   UNL A   1      44.554  22.706  35.834  1.00  0.00    -0.237 OA
ATOM     84  O   UNL A   1      46.868  23.362  36.410  1.00  0.00    -0.237 OA
ATOM     85  O   UNL A   1      45.004  24.001  37.888  1.00  0.00    -0.744 OA
ENDBRANCH  81  82
ENDBRANCH  49  74
BRANCH  61  86
ATOM     86  C   UNL A   1      46.147  29.340  27.493  1.00  0.00     0.058 A 
ATOM     87  C   UNL A   1      47.530  29.323  27.257  1.00  0.00     0.135 A 
ATOM     88  C   UNL A   1      45.326  28.592  26.632  1.00  0.00     0.135 A 
ATOM     89  F   UNL A   1      48.359  30.024  28.046  1.00  0.00    -0.206 F 
ATOM     90  C   UNL A   1      48.078  28.605  26.197  1.00  0.00     0.059 A 
ATOM     91  C   UNL A   1      45.854  27.848  25.582  1.00  0.00     0.059 A 
ATOM     92  F   UNL A   1      43.996  28.564  26.822  1.00  0.00    -0.206 F 
ATOM     93  C   UNL A   1      47.230  27.870  25.365  1.00  0.00     0.060 A 
BRANCH  93  94
ATOM     94  S   UNL A   1      47.954  26.910  24.017  1.00  0.00     0.124 S 
ATOM     95  O   UNL A   1      49.339  26.779  24.460  1.00  0.00    -0.237 OA
ATOM     96  O   UNL A   1      47.162  25.683  24.042  1.00  0.00    -0.237 OA
ATOM     97  O   UNL A   1      47.746  27.757  22.847  1.00  0.00    -0.744 OA
ENDBRANCH  93  94
ENDBRANCH  61  86
ENDBRANCH  35  36
ENDBRANCH  28  30
ENDBRANCH  27  28
ENDBRANCH  26  27
ENDBRANCH  25  26
ENDBRANCH  24  25
ENDBRANCH  23  24
ENDBRANCH   1  23
TORSDOF 24
ENDMDL
