MODEL 1
REMARK VINA RESULT:     -10.1      0.000      0.000
REMARK SMILES Cc1cc(F)cc(N[C@H](C(=O)OCCOCCOCCOC(=O)c2ccc(-c3c4nc(c(-c5c(F)cc(S(=O)(=O)[O-])cc5F)c5ccc([nH]5)c(-c5c(F)cc(S(=O)(=O)[O-])cc5F)c5nc(c(-c6c(F)cc(S(=O)(=O)[O-])cc6F)c6ccc3[nH]6)C=C5)C=C4)cc2)c2cc(C)cc(C)c2)c1
REMARK SMILES IDX 17 1 16 2 15 3 14 4 13 5 12 6 10 7 11 8 9 9 8 10 7 12 1 13
REMARK SMILES IDX 2 14 3 15 98 16 4 17 5 18 6 19 90 20 91 21 97 22 92 23 95 24
REMARK SMILES IDX 93 25 94 26 96 27 18 28 19 29 20 30 21 31 22 32 23 33 24 34
REMARK SMILES IDX 25 35 89 36 26 37 88 38 27 39 28 40 29 41 82 42 30 43 87 44
REMARK SMILES IDX 81 45 83 46 31 47 86 48 80 49 79 50 32 52 66 53 45 54 65 55
REMARK SMILES IDX 46 56 49 57 64 58 84 59 47 60 48 61 63 63 85 64 50 65 33 66
REMARK SMILES IDX 34 67 43 68 35 69 36 70 42 71 44 72 37 73 38 74 39 75 40 76
REMARK SMILES IDX 41 77 67 78 68 79 77 80 69 81 70 82 76 83 78 84 71 85 72 86
REMARK SMILES IDX 73 87 74 88 75 89 51 90 52 91 61 92 53 93 54 94 60 95 62 96
REMARK SMILES IDX 55 97 56 98 57 99 58 100 59 101
REMARK H PARENT 8 11 83 51 49 62
REMARK Flexibility Score: inf
ROOT
ATOM      1  C   UNL A   1      30.994  28.880  24.079  1.00  0.00     0.188 C 
ENDROOT
BRANCH   1   2
ATOM      2  C   UNL A   1      29.684  28.390  23.421  1.00  0.00     0.188 C 
BRANCH   2   3
ATOM      3  O   UNL A   1      29.199  27.159  23.926  1.00  0.00    -0.376 OA
BRANCH   3   4
ATOM      4  C   UNL A   1      30.174  26.228  24.379  1.00  0.00     0.202 C 
BRANCH   4   5
ATOM      5  C   UNL A   1      29.976  25.681  25.803  1.00  0.00     0.261 C 
BRANCH   5   6
ATOM      6  O   UNL A   1      31.166  25.611  26.605  1.00  0.00    -0.461 OA
BRANCH   6   7
ATOM      7  C   UNL A   1      31.740  24.375  26.720  1.00  0.00     0.333 C 
ATOM      8  O   UNL A   1      31.177  23.436  27.267  1.00  0.00    -0.249 OA
BRANCH   7   9
ATOM      9  C   UNL A   1      33.087  24.328  25.948  1.00  0.00     0.221 C 
BRANCH   9  10
ATOM     10  N   UNL A   1      34.132  23.587  26.703  1.00  0.00    -0.369 N 
ATOM     11  H   UNL A   1      33.927  23.374  27.642  1.00  0.00     0.161 HD
BRANCH  10  12
ATOM     12  C   UNL A   1      35.364  23.163  26.230  1.00  0.00     0.038 A 
ATOM     13  C   UNL A   1      36.988  19.912  24.982  1.00  0.00     0.044 C 
ATOM     14  C   UNL A   1      36.796  21.339  25.398  1.00  0.00    -0.046 A 
ATOM     15  C   UNL A   1      37.895  22.197  25.365  1.00  0.00     0.042 A 
ATOM     16  C   UNL A   1      35.548  21.822  25.851  1.00  0.00     0.029 A 
ATOM     17  C   UNL A   1      37.730  23.511  25.746  1.00  0.00     0.125 A 
ATOM     18  F   UNL A   1      38.774  24.349  25.727  1.00  0.00    -0.207 F 
ATOM     19  C   UNL A   1      36.488  23.981  26.149  1.00  0.00     0.065 A 
ENDBRANCH  10  12
ENDBRANCH   9  10
BRANCH   9  20
ATOM     20  C   UNL A   1      33.004  23.901  24.486  1.00  0.00    -0.014 A 
ATOM     21  C   UNL A   1      33.258  24.817  23.459  1.00  0.00     0.010 A 
ATOM     22  C   UNL A   1      32.593  22.610  24.114  1.00  0.00     0.010 A 
ATOM     23  C   UNL A   1      32.887  24.575  22.143  1.00  0.00    -0.051 A 
ATOM     24  C   UNL A   1      32.384  22.287  22.762  1.00  0.00    -0.051 A 
ATOM     25  C   UNL A   1      32.793  25.747  21.215  1.00  0.00     0.044 C 
ATOM     26  C   UNL A   1      32.467  23.297  21.792  1.00  0.00     0.006 A 
ATOM     27  C   UNL A   1      32.027  20.895  22.331  1.00  0.00     0.044 C 
ENDBRANCH   9  20
ENDBRANCH   7   9
ENDBRANCH   6   7
ENDBRANCH   5   6
ENDBRANCH   4   5
ENDBRANCH   3   4
ENDBRANCH   2   3
ENDBRANCH   1   2
BRANCH   1  28
ATOM     28  O   UNL A   1      30.975  29.922  25.044  1.00  0.00    -0.376 OA
BRANCH  28  29
ATOM     29  C   UNL A   1      32.199  30.381  25.595  1.00  0.00     0.202 C 
BRANCH  29  30
ATOM     30  C   UNL A   1      32.508  30.200  27.094  1.00  0.00     0.261 C 
BRANCH  30  31
ATOM     31  O   UNL A   1      33.821  29.725  27.435  1.00  0.00    -0.460 OA
BRANCH  31  32
ATOM     32  C   UNL A   1      34.606  30.599  28.118  1.00  0.00     0.338 C 
ATOM     33  O   UNL A   1      34.255  31.639  28.642  1.00  0.00    -0.246 OA
BRANCH  32  34
ATOM     34  C   UNL A   1      35.958  30.023  28.305  1.00  0.00     0.060 A 
ATOM     35  C   UNL A   1      36.349  29.649  29.599  1.00  0.00     0.016 A 
ATOM     36  C   UNL A   1      36.856  29.917  27.243  1.00  0.00     0.016 A 
ATOM     37  C   UNL A   1      37.645  29.194  29.840  1.00  0.00     0.010 A 
ATOM     38  C   UNL A   1      38.166  29.486  27.492  1.00  0.00     0.010 A 
ATOM     39  C   UNL A   1      38.577  29.154  28.797  1.00  0.00    -0.014 A 
BRANCH  39  40
ATOM     40  C   UNL A   1      40.017  28.949  29.107  1.00  0.00     0.031 A 
ATOM     41  C   UNL A   1      40.648  27.627  28.754  1.00  0.00     0.074 A 
ATOM     42  C   UNL A   1      40.761  29.923  29.662  1.00  0.00     0.049 A 
ATOM     43  N   UNL A   1      41.867  27.204  28.965  1.00  0.00    -0.248 NA
ATOM     44  C   UNL A   1      39.783  26.650  28.072  1.00  0.00     0.031 C 
ATOM     45  C   UNL A   1      40.283  31.259  30.008  1.00  0.00     0.029 A 
ATOM     46  N   UNL A   1      42.081  29.930  30.039  1.00  0.00    -0.354 N 
ATOM     47  C   UNL A   1      41.914  25.912  28.453  1.00  0.00     0.074 A 
ATOM     48  C   UNL A   1      40.593  25.608  27.949  1.00  0.00     0.031 C 
ATOM     49  C   UNL A   1      41.292  31.953  30.562  1.00  0.00     0.029 A 
ATOM     50  C   UNL A   1      42.478  31.101  30.641  1.00  0.00     0.049 A 
ATOM     51  H   UNL A   1      42.688  29.168  29.894  1.00  0.00     0.167 HD
ATOM     52  C   UNL A   1      42.965  25.059  28.400  1.00  0.00     0.037 A 
ATOM     53  C   UNL A   1      43.654  31.439  31.208  1.00  0.00     0.037 A 
ATOM     54  C   UNL A   1      44.278  25.364  28.906  1.00  0.00     0.049 A 
ATOM     55  C   UNL A   1      44.792  30.446  31.200  1.00  0.00     0.074 A 
ATOM     56  C   UNL A   1      45.413  24.571  28.886  1.00  0.00     0.029 A 
ATOM     57  N   UNL A   1      44.633  26.552  29.527  1.00  0.00    -0.354 N 
ATOM     58  N   UNL A   1      44.829  29.235  30.696  1.00  0.00    -0.248 NA
ATOM     59  C   UNL A   1      46.050  30.869  31.832  1.00  0.00     0.031 C 
ATOM     60  C   UNL A   1      46.436  25.256  29.548  1.00  0.00     0.029 A 
ATOM     61  C   UNL A   1      45.962  26.504  29.918  1.00  0.00     0.049 A 
ATOM     62  H   UNL A   1      44.029  27.317  29.670  1.00  0.00     0.167 HD
ATOM     63  C   UNL A   1      46.123  28.769  30.915  1.00  0.00     0.074 A 
ATOM     64  C   UNL A   1      46.838  29.829  31.592  1.00  0.00     0.031 C 
ATOM     65  C   UNL A   1      46.669  27.573  30.580  1.00  0.00     0.037 A 
BRANCH  52  66
ATOM     66  C   UNL A   1      42.729  23.697  27.801  1.00  0.00     0.058 A 
ATOM     67  C   UNL A   1      42.661  23.499  26.413  1.00  0.00     0.135 A 
ATOM     68  C   UNL A   1      42.603  22.569  28.629  1.00  0.00     0.135 A 
ATOM     69  F   UNL A   1      42.757  24.543  25.574  1.00  0.00    -0.206 F 
ATOM     70  C   UNL A   1      42.450  22.236  25.868  1.00  0.00     0.059 A 
ATOM     71  C   UNL A   1      42.422  21.293  28.104  1.00  0.00     0.059 A 
ATOM     72  F   UNL A   1      42.658  22.700  29.964  1.00  0.00    -0.206 F 
ATOM     73  C   UNL A   1      42.333  21.138  26.723  1.00  0.00     0.060 A 
BRANCH  73  74
ATOM     74  S   UNL A   1      42.065  19.506  25.999  1.00  0.00     0.124 S 
ATOM     75  O   UNL A   1      42.890  19.582  24.796  1.00  0.00    -0.237 OA
ATOM     76  O   UNL A   1      42.556  18.617  27.048  1.00  0.00    -0.237 OA
ATOM     77  O   UNL A   1      40.625  19.466  25.769  1.00  0.00    -0.744 OA
ENDBRANCH  73  74
ENDBRANCH  52  66
BRANCH  53  78
ATOM     78  C   UNL A   1      43.821  32.775  31.843  1.00  0.00     0.058 A 
ATOM     79  C   UNL A   1      44.224  33.891  31.095  1.00  0.00     0.135 A 
ATOM     80  C   UNL A   1      43.591  32.961  33.216  1.00  0.00     0.135 A 
ATOM     81  F   UNL A   1      44.471  33.765  29.781  1.00  0.00    -0.206 F 
ATOM     82  C   UNL A   1      44.407  35.138  31.684  1.00  0.00     0.059 A 
ATOM     83  C   UNL A   1      43.739  34.204  33.823  1.00  0.00     0.059 A 
ATOM     84  F   UNL A   1      43.198  31.928  33.978  1.00  0.00    -0.206 F 
ATOM     85  C   UNL A   1      44.159  35.286  33.049  1.00  0.00     0.060 A 
BRANCH  85  86
ATOM     86  S   UNL A   1      44.359  36.919  33.794  1.00  0.00     0.124 S 
ATOM     87  O   UNL A   1      45.434  37.482  32.986  1.00  0.00    -0.237 OA
ATOM     88  O   UNL A   1      43.037  37.507  33.598  1.00  0.00    -0.237 OA
ATOM     89  O   UNL A   1      44.702  36.617  35.181  1.00  0.00    -0.744 OA
ENDBRANCH  85  86
ENDBRANCH  53  78
BRANCH  65  90
ATOM     90  C   UNL A   1      48.130  27.359  30.883  1.00  0.00     0.058 A 
ATOM     91  C   UNL A   1      49.146  27.807  30.024  1.00  0.00     0.135 A 
ATOM     92  C   UNL A   1      48.518  26.744  32.087  1.00  0.00     0.135 A 
ATOM     93  F   UNL A   1      48.834  28.398  28.859  1.00  0.00    -0.206 F 
ATOM     94  C   UNL A   1      50.492  27.628  30.332  1.00  0.00     0.059 A 
ATOM     95  C   UNL A   1      49.856  26.585  32.430  1.00  0.00     0.059 A 
ATOM     96  F   UNL A   1      47.590  26.309  32.953  1.00  0.00    -0.206 F 
ATOM     97  C   UNL A   1      50.837  27.018  31.540  1.00  0.00     0.060 A 
BRANCH  97  98
ATOM     98  S   UNL A   1      52.586  26.819  31.941  1.00  0.00     0.124 S 
ATOM     99  O   UNL A   1      52.721  25.366  31.960  1.00  0.00    -0.237 OA
ATOM    100  O   UNL A   1      53.241  27.503  30.830  1.00  0.00    -0.237 OA
ATOM    101  O   UNL A   1      52.715  27.478  33.238  1.00  0.00    -0.744 OA
ENDBRANCH  97  98
ENDBRANCH  65  90
ENDBRANCH  39  40
ENDBRANCH  32  34
ENDBRANCH  31  32
ENDBRANCH  30  31
ENDBRANCH  29  30
ENDBRANCH  28  29
ENDBRANCH   1  28
TORSDOF 23
ENDMDL
MODEL 2
REMARK VINA RESULT:     -10.1      2.917      8.618
REMARK SMILES Cc1cc(F)cc(N[C@H](C(=O)OCCOCCOCCOC(=O)c2ccc(-c3c4nc(c(-c5c(F)cc(S(=O)(=O)[O-])cc5F)c5ccc([nH]5)c(-c5c(F)cc(S(=O)(=O)[O-])cc5F)c5nc(c(-c6c(F)cc(S(=O)(=O)[O-])cc6F)c6ccc3[nH]6)C=C5)C=C4)cc2)c2cc(C)cc(C)c2)c1
REMARK SMILES IDX 17 1 16 2 15 3 14 4 13 5 12 6 10 7 11 8 9 9 8 10 7 12 1 13
REMARK SMILES IDX 2 14 3 15 98 16 4 17 5 18 6 19 90 20 91 21 97 22 92 23 95 24
REMARK SMILES IDX 93 25 94 26 96 27 18 28 19 29 20 30 21 31 22 32 23 33 24 34
REMARK SMILES IDX 25 35 89 36 26 37 88 38 27 39 28 40 29 41 82 42 30 43 87 44
REMARK SMILES IDX 81 45 83 46 31 47 86 48 80 49 79 50 32 52 66 53 45 54 65 55
REMARK SMILES IDX 46 56 49 57 64 58 84 59 47 60 48 61 63 63 85 64 50 65 33 66
REMARK SMILES IDX 34 67 43 68 35 69 36 70 42 71 44 72 37 73 38 74 39 75 40 76
REMARK SMILES IDX 41 77 67 78 68 79 77 80 69 81 70 82 76 83 78 84 71 85 72 86
REMARK SMILES IDX 73 87 74 88 75 89 51 90 52 91 61 92 53 93 54 94 60 95 62 96
REMARK SMILES IDX 55 97 56 98 57 99 58 100 59 101
REMARK H PARENT 8 11 83 51 49 62
REMARK Flexibility Score: inf
ROOT
ATOM      1  C   UNL A   1      32.187  29.352  26.039  1.00  0.00     0.188 C 
ENDROOT
BRANCH   1   2
ATOM      2  C   UNL A   1      31.272  29.505  24.803  1.00  0.00     0.188 C 
BRANCH   2   3
ATOM      3  O   UNL A   1      30.925  28.283  24.175  1.00  0.00    -0.376 OA
BRANCH   3   4
ATOM      4  C   UNL A   1      31.511  28.032  22.904  1.00  0.00     0.202 C 
BRANCH   4   5
ATOM      5  C   UNL A   1      32.937  27.455  22.919  1.00  0.00     0.261 C 
BRANCH   5   6
ATOM      6  O   UNL A   1      33.021  26.023  22.838  1.00  0.00    -0.461 OA
BRANCH   6   7
ATOM      7  C   UNL A   1      33.829  25.417  23.759  1.00  0.00     0.333 C 
ATOM      8  O   UNL A   1      34.151  25.957  24.809  1.00  0.00    -0.249 OA
BRANCH   7   9
ATOM      9  C   UNL A   1      34.127  23.951  23.339  1.00  0.00     0.221 C 
BRANCH   9  10
ATOM     10  N   UNL A   1      35.582  23.720  23.135  1.00  0.00    -0.369 N 
ATOM     11  H   UNL A   1      35.952  23.994  22.265  1.00  0.00     0.161 HD
BRANCH  10  12
ATOM     12  C   UNL A   1      36.473  23.158  24.036  1.00  0.00     0.038 A 
ATOM     13  C   UNL A   1      37.905  19.690  24.862  1.00  0.00     0.044 C 
ATOM     14  C   UNL A   1      37.612  21.158  24.915  1.00  0.00    -0.046 A 
ATOM     15  C   UNL A   1      38.194  21.918  25.929  1.00  0.00     0.042 A 
ATOM     16  C   UNL A   1      36.739  21.778  23.994  1.00  0.00     0.029 A 
ATOM     17  C   UNL A   1      37.930  23.269  25.989  1.00  0.00     0.125 A 
ATOM     18  F   UNL A   1      38.475  24.014  26.958  1.00  0.00    -0.207 F 
ATOM     19  C   UNL A   1      37.105  23.872  25.051  1.00  0.00     0.065 A 
ENDBRANCH  10  12
ENDBRANCH   9  10
BRANCH   9  20
ATOM     20  C   UNL A   1      33.472  22.867  24.190  1.00  0.00    -0.014 A 
ATOM     21  C   UNL A   1      33.199  23.092  25.543  1.00  0.00     0.010 A 
ATOM     22  C   UNL A   1      33.198  21.588  23.677  1.00  0.00     0.010 A 
ATOM     23  C   UNL A   1      32.912  22.055  26.422  1.00  0.00    -0.051 A 
ATOM     24  C   UNL A   1      32.730  20.566  24.519  1.00  0.00    -0.051 A 
ATOM     25  C   UNL A   1      33.066  22.317  27.889  1.00  0.00     0.044 C 
ATOM     26  C   UNL A   1      32.658  20.791  25.902  1.00  0.00     0.006 A 
ATOM     27  C   UNL A   1      32.349  19.217  23.984  1.00  0.00     0.044 C 
ENDBRANCH   9  20
ENDBRANCH   7   9
ENDBRANCH   6   7
ENDBRANCH   5   6
ENDBRANCH   4   5
ENDBRANCH   3   4
ENDBRANCH   2   3
ENDBRANCH   1   2
BRANCH   1  28
ATOM     28  O   UNL A   1      33.480  29.939  26.060  1.00  0.00    -0.376 OA
BRANCH  28  29
ATOM     29  C   UNL A   1      34.217  29.952  27.273  1.00  0.00     0.202 C 
BRANCH  29  30
ATOM     30  C   UNL A   1      34.643  31.283  27.924  1.00  0.00     0.261 C 
BRANCH  30  31
ATOM     31  O   UNL A   1      36.054  31.541  28.013  1.00  0.00    -0.460 OA
BRANCH  31  32
ATOM     32  C   UNL A   1      36.635  31.241  29.204  1.00  0.00     0.338 C 
ATOM     33  O   UNL A   1      36.178  31.447  30.312  1.00  0.00    -0.246 OA
BRANCH  32  34
ATOM     34  C   UNL A   1      37.863  30.442  28.980  1.00  0.00     0.060 A 
ATOM     35  C   UNL A   1      38.794  30.345  30.025  1.00  0.00     0.016 A 
ATOM     36  C   UNL A   1      38.132  29.855  27.744  1.00  0.00     0.016 A 
ATOM     37  C   UNL A   1      40.007  29.686  29.829  1.00  0.00     0.010 A 
ATOM     38  C   UNL A   1      39.364  29.217  27.541  1.00  0.00     0.010 A 
ATOM     39  C   UNL A   1      40.321  29.159  28.571  1.00  0.00    -0.014 A 
BRANCH  39  40
ATOM     40  C   UNL A   1      41.713  28.719  28.286  1.00  0.00     0.031 A 
ATOM     41  C   UNL A   1      42.811  29.751  28.305  1.00  0.00     0.074 A 
ATOM     42  C   UNL A   1      42.005  27.428  28.045  1.00  0.00     0.049 A 
ATOM     43  N   UNL A   1      44.085  29.613  28.047  1.00  0.00    -0.248 NA
ATOM     44  C   UNL A   1      42.414  31.123  28.662  1.00  0.00     0.031 C 
ATOM     45  C   UNL A   1      41.043  26.329  28.044  1.00  0.00     0.029 A 
ATOM     46  N   UNL A   1      43.203  26.827  27.745  1.00  0.00    -0.354 N 
ATOM     47  C   UNL A   1      44.641  30.879  28.200  1.00  0.00     0.074 A 
ATOM     48  C   UNL A   1      43.561  31.777  28.543  1.00  0.00     0.031 C 
ATOM     49  C   UNL A   1      41.686  25.188  27.741  1.00  0.00     0.029 A 
ATOM     50  C   UNL A   1      43.098  25.479  27.496  1.00  0.00     0.049 A 
ATOM     51  H   UNL A   1      44.058  27.315  27.712  1.00  0.00     0.167 HD
ATOM     52  C   UNL A   1      45.936  31.257  28.074  1.00  0.00     0.037 A 
ATOM     53  C   UNL A   1      44.028  24.589  27.094  1.00  0.00     0.037 A 
ATOM     54  C   UNL A   1      47.009  30.360  27.730  1.00  0.00     0.049 A 
ATOM     55  C   UNL A   1      45.453  25.046  26.892  1.00  0.00     0.074 A 
ATOM     56  C   UNL A   1      48.357  30.644  27.592  1.00  0.00     0.029 A 
ATOM     57  N   UNL A   1      46.858  29.007  27.463  1.00  0.00    -0.354 N 
ATOM     58  N   UNL A   1      45.969  26.242  27.058  1.00  0.00    -0.248 NA
ATOM     59  C   UNL A   1      46.423  24.033  26.455  1.00  0.00     0.031 C 
ATOM     60  C   UNL A   1      49.010  29.477  27.185  1.00  0.00     0.029 A 
ATOM     61  C   UNL A   1      48.083  28.449  27.137  1.00  0.00     0.049 A 
ATOM     62  H   UNL A   1      46.004  28.516  27.500  1.00  0.00     0.167 HD
ATOM     63  C   UNL A   1      47.328  26.113  26.784  1.00  0.00     0.074 A 
ATOM     64  C   UNL A   1      47.555  24.724  26.447  1.00  0.00     0.031 C 
ATOM     65  C   UNL A   1      48.300  27.059  26.817  1.00  0.00     0.037 A 
BRANCH  52  66
ATOM     66  C   UNL A   1      46.261  32.714  28.280  1.00  0.00     0.058 A 
ATOM     67  C   UNL A   1      46.095  33.662  27.258  1.00  0.00     0.135 A 
ATOM     68  C   UNL A   1      46.711  33.171  29.529  1.00  0.00     0.135 A 
ATOM     69  F   UNL A   1      45.684  33.279  26.038  1.00  0.00    -0.206 F 
ATOM     70  C   UNL A   1      46.391  35.007  27.459  1.00  0.00     0.059 A 
ATOM     71  C   UNL A   1      46.983  34.516  29.761  1.00  0.00     0.059 A 
ATOM     72  F   UNL A   1      46.889  32.308  30.542  1.00  0.00    -0.206 F 
ATOM     73  C   UNL A   1      46.833  35.424  28.716  1.00  0.00     0.060 A 
BRANCH  73  74
ATOM     74  S   UNL A   1      47.206  37.173  28.961  1.00  0.00     0.124 S 
ATOM     75  O   UNL A   1      46.261  37.805  28.045  1.00  0.00    -0.237 OA
ATOM     76  O   UNL A   1      46.926  37.354  30.383  1.00  0.00    -0.237 OA
ATOM     77  O   UNL A   1      48.611  37.279  28.583  1.00  0.00    -0.744 OA
ENDBRANCH  73  74
ENDBRANCH  52  66
BRANCH  53  78
ATOM     78  C   UNL A   1      43.647  23.172  26.845  1.00  0.00     0.058 A 
ATOM     79  C   UNL A   1      43.307  22.313  27.900  1.00  0.00     0.135 A 
ATOM     80  C   UNL A   1      43.625  22.643  25.543  1.00  0.00     0.135 A 
ATOM     81  F   UNL A   1      43.326  22.763  29.164  1.00  0.00    -0.206 F 
ATOM     82  C   UNL A   1      42.974  20.980  27.680  1.00  0.00     0.059 A 
ATOM     83  C   UNL A   1      43.267  21.322  25.294  1.00  0.00     0.059 A 
ATOM     84  F   UNL A   1      43.935  23.423  24.495  1.00  0.00    -0.206 F 
ATOM     85  C   UNL A   1      42.954  20.494  26.371  1.00  0.00     0.060 A 
BRANCH  85  86
ATOM     86  S   UNL A   1      42.478  18.774  26.093  1.00  0.00     0.124 S 
ATOM     87  O   UNL A   1      42.737  18.182  27.400  1.00  0.00    -0.237 OA
ATOM     88  O   UNL A   1      41.073  18.903  25.718  1.00  0.00    -0.237 OA
ATOM     89  O   UNL A   1      43.370  18.347  25.019  1.00  0.00    -0.744 OA
ENDBRANCH  85  86
ENDBRANCH  53  78
BRANCH  65  90
ATOM     90  C   UNL A   1      49.715  26.621  26.537  1.00  0.00     0.058 A 
ATOM     91  C   UNL A   1      50.555  26.117  27.542  1.00  0.00     0.135 A 
ATOM     92  C   UNL A   1      50.217  26.655  25.224  1.00  0.00     0.135 A 
ATOM     93  F   UNL A   1      50.129  26.064  28.814  1.00  0.00    -0.206 F 
ATOM     94  C   UNL A   1      51.850  25.688  27.262  1.00  0.00     0.059 A 
ATOM     95  C   UNL A   1      51.496  26.202  24.916  1.00  0.00     0.059 A 
ATOM     96  F   UNL A   1      49.454  27.115  24.220  1.00  0.00    -0.206 F 
ATOM     97  C   UNL A   1      52.310  25.733  25.945  1.00  0.00     0.060 A 
BRANCH  97  98
ATOM     98  S   UNL A   1      53.981  25.147  25.591  1.00  0.00     0.124 S 
ATOM     99  O   UNL A   1      53.712  23.891  24.896  1.00  0.00    -0.237 OA
ATOM    100  O   UNL A   1      54.522  26.224  24.769  1.00  0.00    -0.237 OA
ATOM    101  O   UNL A   1      54.583  25.014  26.915  1.00  0.00    -0.744 OA
ENDBRANCH  97  98
ENDBRANCH  65  90
ENDBRANCH  39  40
ENDBRANCH  32  34
ENDBRANCH  31  32
ENDBRANCH  30  31
ENDBRANCH  29  30
ENDBRANCH  28  29
ENDBRANCH   1  28
TORSDOF 23
ENDMDL
MODEL 3
REMARK VINA RESULT:     -10.0      2.392      8.023
REMARK SMILES Cc1cc(F)cc(N[C@H](C(=O)OCCOCCOCCOC(=O)c2ccc(-c3c4nc(c(-c5c(F)cc(S(=O)(=O)[O-])cc5F)c5ccc([nH]5)c(-c5c(F)cc(S(=O)(=O)[O-])cc5F)c5nc(c(-c6c(F)cc(S(=O)(=O)[O-])cc6F)c6ccc3[nH]6)C=C5)C=C4)cc2)c2cc(C)cc(C)c2)c1
REMARK SMILES IDX 17 1 16 2 15 3 14 4 13 5 12 6 10 7 11 8 9 9 8 10 7 12 1 13
REMARK SMILES IDX 2 14 3 15 98 16 4 17 5 18 6 19 90 20 91 21 97 22 92 23 95 24
REMARK SMILES IDX 93 25 94 26 96 27 18 28 19 29 20 30 21 31 22 32 23 33 24 34
REMARK SMILES IDX 25 35 89 36 26 37 88 38 27 39 28 40 29 41 82 42 30 43 87 44
REMARK SMILES IDX 81 45 83 46 31 47 86 48 80 49 79 50 32 52 66 53 45 54 65 55
REMARK SMILES IDX 46 56 49 57 64 58 84 59 47 60 48 61 63 63 85 64 50 65 33 66
REMARK SMILES IDX 34 67 43 68 35 69 36 70 42 71 44 72 37 73 38 74 39 75 40 76
REMARK SMILES IDX 41 77 67 78 68 79 77 80 69 81 70 82 76 83 78 84 71 85 72 86
REMARK SMILES IDX 73 87 74 88 75 89 51 90 52 91 61 92 53 93 54 94 60 95 62 96
REMARK SMILES IDX 55 97 56 98 57 99 58 100 59 101
REMARK H PARENT 8 11 83 51 49 62
REMARK Flexibility Score: inf
ROOT
ATOM      1  C   UNL A   1      30.636  28.769  23.578  1.00  0.00     0.188 C 
ENDROOT
BRANCH   1   2
ATOM      2  C   UNL A   1      29.216  28.294  23.197  1.00  0.00     0.188 C 
BRANCH   2   3
ATOM      3  O   UNL A   1      28.905  26.978  23.620  1.00  0.00    -0.376 OA
BRANCH   3   4
ATOM      4  C   UNL A   1      29.987  26.193  24.105  1.00  0.00     0.202 C 
BRANCH   4   5
ATOM      5  C   UNL A   1      29.857  25.681  25.549  1.00  0.00     0.261 C 
BRANCH   5   6
ATOM      6  O   UNL A   1      31.021  25.860  26.372  1.00  0.00    -0.461 OA
BRANCH   6   7
ATOM      7  C   UNL A   1      31.692  24.720  26.718  1.00  0.00     0.333 C 
ATOM      8  O   UNL A   1      31.129  23.747  27.203  1.00  0.00    -0.249 OA
BRANCH   7   9
ATOM      9  C   UNL A   1      33.178  24.809  26.275  1.00  0.00     0.221 C 
BRANCH   9  10
ATOM     10  N   UNL A   1      33.996  23.715  26.863  1.00  0.00    -0.369 N 
ATOM     11  H   UNL A   1      34.004  23.652  27.845  1.00  0.00     0.161 HD
BRANCH  10  12
ATOM     12  C   UNL A   1      34.750  22.775  26.178  1.00  0.00     0.038 A 
ATOM     13  C   UNL A   1      34.272  19.281  24.652  1.00  0.00     0.044 C 
ATOM     14  C   UNL A   1      34.902  20.564  25.100  1.00  0.00    -0.046 A 
ATOM     15  C   UNL A   1      36.267  20.750  24.879  1.00  0.00     0.042 A 
ATOM     16  C   UNL A   1      34.163  21.565  25.768  1.00  0.00     0.029 A 
ATOM     17  C   UNL A   1      36.857  21.926  25.288  1.00  0.00     0.125 A 
ATOM     18  F   UNL A   1      38.167  22.121  25.089  1.00  0.00    -0.207 F 
ATOM     19  C   UNL A   1      36.108  22.918  25.904  1.00  0.00     0.065 A 
ENDBRANCH  10  12
ENDBRANCH   9  10
BRANCH   9  20
ATOM     20  C   UNL A   1      33.419  24.984  24.778  1.00  0.00    -0.014 A 
ATOM     21  C   UNL A   1      33.871  26.205  24.268  1.00  0.00     0.010 A 
ATOM     22  C   UNL A   1      33.120  23.967  23.857  1.00  0.00     0.010 A 
ATOM     23  C   UNL A   1      33.796  26.515  22.916  1.00  0.00    -0.051 A 
ATOM     24  C   UNL A   1      33.214  24.204  22.475  1.00  0.00    -0.051 A 
ATOM     25  C   UNL A   1      33.883  27.957  22.521  1.00  0.00     0.044 C 
ATOM     26  C   UNL A   1      33.485  25.503  22.016  1.00  0.00     0.006 A 
ATOM     27  C   UNL A   1      32.983  23.114  21.471  1.00  0.00     0.044 C 
ENDBRANCH   9  20
ENDBRANCH   7   9
ENDBRANCH   6   7
ENDBRANCH   5   6
ENDBRANCH   4   5
ENDBRANCH   3   4
ENDBRANCH   2   3
ENDBRANCH   1   2
BRANCH   1  28
ATOM     28  O   UNL A   1      30.842  29.612  24.703  1.00  0.00    -0.376 OA
BRANCH  28  29
ATOM     29  C   UNL A   1      32.085  29.570  25.385  1.00  0.00     0.202 C 
BRANCH  29  30
ATOM     30  C   UNL A   1      32.359  30.498  26.585  1.00  0.00     0.261 C 
BRANCH  30  31
ATOM     31  O   UNL A   1      33.415  30.109  27.479  1.00  0.00    -0.460 OA
BRANCH  31  32
ATOM     32  C   UNL A   1      34.355  31.057  27.730  1.00  0.00     0.338 C 
ATOM     33  O   UNL A   1      34.185  32.261  27.773  1.00  0.00    -0.246 OA
BRANCH  32  34
ATOM     34  C   UNL A   1      35.627  30.413  28.133  1.00  0.00     0.060 A 
ATOM     35  C   UNL A   1      35.632  29.611  29.284  1.00  0.00     0.016 A 
ATOM     36  C   UNL A   1      36.812  30.647  27.436  1.00  0.00     0.016 A 
ATOM     37  C   UNL A   1      36.825  29.064  29.757  1.00  0.00     0.010 A 
ATOM     38  C   UNL A   1      38.014  30.119  27.928  1.00  0.00     0.010 A 
ATOM     39  C   UNL A   1      38.032  29.353  29.109  1.00  0.00    -0.014 A 
BRANCH  39  40
ATOM     40  C   UNL A   1      39.319  29.014  29.771  1.00  0.00     0.031 A 
ATOM     41  C   UNL A   1      39.728  29.796  30.993  1.00  0.00     0.074 A 
ATOM     42  C   UNL A   1      40.098  28.014  29.320  1.00  0.00     0.049 A 
ATOM     43  N   UNL A   1      40.819  29.709  31.708  1.00  0.00    -0.248 NA
ATOM     44  C   UNL A   1      38.777  30.814  31.467  1.00  0.00     0.031 C 
ATOM     45  C   UNL A   1      39.793  27.154  28.179  1.00  0.00     0.029 A 
ATOM     46  N   UNL A   1      41.314  27.560  29.768  1.00  0.00    -0.354 N 
ATOM     47  C   UNL A   1      40.691  30.665  32.710  1.00  0.00     0.074 A 
ATOM     48  C   UNL A   1      39.431  31.341  32.491  1.00  0.00     0.031 C 
ATOM     49  C   UNL A   1      40.804  26.285  28.005  1.00  0.00     0.029 A 
ATOM     50  C   UNL A   1      41.842  26.547  29.003  1.00  0.00     0.049 A 
ATOM     51  H   UNL A   1      41.766  27.924  30.564  1.00  0.00     0.167 HD
ATOM     52  C   UNL A   1      41.542  30.949  33.725  1.00  0.00     0.037 A 
ATOM     53  C   UNL A   1      43.034  25.920  29.083  1.00  0.00     0.037 A 
ATOM     54  C   UNL A   1      42.797  30.276  33.938  1.00  0.00     0.049 A 
ATOM     55  C   UNL A   1      43.998  26.300  30.181  1.00  0.00     0.074 A 
ATOM     56  C   UNL A   1      43.723  30.481  34.946  1.00  0.00     0.029 A 
ATOM     57  N   UNL A   1      43.306  29.271  33.128  1.00  0.00    -0.354 N 
ATOM     58  N   UNL A   1      43.856  27.193  31.133  1.00  0.00    -0.248 NA
ATOM     59  C   UNL A   1      45.280  25.583  30.220  1.00  0.00     0.031 C 
ATOM     60  C   UNL A   1      44.818  29.643  34.711  1.00  0.00     0.029 A 
ATOM     61  C   UNL A   1      44.545  28.865  33.598  1.00  0.00     0.049 A 
ATOM     62  H   UNL A   1      42.854  28.902  32.334  1.00  0.00     0.167 HD
ATOM     63  C   UNL A   1      45.013  27.115  31.904  1.00  0.00     0.074 A 
ATOM     64  C   UNL A   1      45.840  26.087  31.312  1.00  0.00     0.031 C 
ATOM     65  C   UNL A   1      45.354  27.828  33.008  1.00  0.00     0.037 A 
BRANCH  52  66
ATOM     66  C   UNL A   1      41.159  32.060  34.668  1.00  0.00     0.058 A 
ATOM     67  C   UNL A   1      40.403  31.822  35.827  1.00  0.00     0.135 A 
ATOM     68  C   UNL A   1      41.585  33.376  34.424  1.00  0.00     0.135 A 
ATOM     69  F   UNL A   1      39.954  30.586  36.101  1.00  0.00    -0.206 F 
ATOM     70  C   UNL A   1      40.060  32.853  36.695  1.00  0.00     0.059 A 
ATOM     71  C   UNL A   1      41.279  34.416  35.296  1.00  0.00     0.059 A 
ATOM     72  F   UNL A   1      42.308  33.662  33.330  1.00  0.00    -0.206 F 
ATOM     73  C   UNL A   1      40.504  34.148  36.422  1.00  0.00     0.060 A 
BRANCH  73  74
ATOM     74  S   UNL A   1      40.055  35.472  37.563  1.00  0.00     0.124 S 
ATOM     75  O   UNL A   1      38.809  34.961  38.128  1.00  0.00    -0.237 OA
ATOM     76  O   UNL A   1      41.197  35.500  38.472  1.00  0.00    -0.237 OA
ATOM     77  O   UNL A   1      39.918  36.638  36.696  1.00  0.00    -0.744 OA
ENDBRANCH  73  74
ENDBRANCH  52  66
BRANCH  53  78
ATOM     78  C   UNL A   1      43.394  24.870  28.091  1.00  0.00     0.058 A 
ATOM     79  C   UNL A   1      44.008  25.199  26.873  1.00  0.00     0.135 A 
ATOM     80  C   UNL A   1      43.122  23.514  28.337  1.00  0.00     0.135 A 
ATOM     81  F   UNL A   1      44.276  26.482  26.582  1.00  0.00    -0.206 F 
ATOM     82  C   UNL A   1      44.325  24.228  25.929  1.00  0.00     0.059 A 
ATOM     83  C   UNL A   1      43.456  22.521  27.421  1.00  0.00     0.059 A 
ATOM     84  F   UNL A   1      42.541  23.143  29.489  1.00  0.00    -0.206 F 
ATOM     85  C   UNL A   1      44.048  22.890  26.214  1.00  0.00     0.060 A 
BRANCH  85  86
ATOM     86  S   UNL A   1      44.504  21.633  24.999  1.00  0.00     0.124 S 
ATOM     87  O   UNL A   1      45.846  21.273  25.438  1.00  0.00    -0.237 OA
ATOM     88  O   UNL A   1      43.472  20.622  25.204  1.00  0.00    -0.237 OA
ATOM     89  O   UNL A   1      44.426  22.349  23.729  1.00  0.00    -0.744 OA
ENDBRANCH  85  86
ENDBRANCH  53  78
BRANCH  65  90
ATOM     90  C   UNL A   1      46.654  27.485  33.690  1.00  0.00     0.058 A 
ATOM     91  C   UNL A   1      47.856  28.143  33.383  1.00  0.00     0.135 A 
ATOM     92  C   UNL A   1      46.682  26.519  34.711  1.00  0.00     0.135 A 
ATOM     93  F   UNL A   1      47.890  29.072  32.414  1.00  0.00    -0.206 F 
ATOM     94  C   UNL A   1      49.043  27.836  34.043  1.00  0.00     0.059 A 
ATOM     95  C   UNL A   1      47.849  26.220  35.406  1.00  0.00     0.059 A 
ATOM     96  F   UNL A   1      45.560  25.869  35.057  1.00  0.00    -0.206 F 
ATOM     97  C   UNL A   1      49.029  26.874  35.055  1.00  0.00     0.060 A 
BRANCH  97  98
ATOM     98  S   UNL A   1      50.569  26.507  35.923  1.00  0.00     0.124 S 
ATOM     99  O   UNL A   1      50.721  25.079  35.662  1.00  0.00    -0.237 OA
ATOM    100  O   UNL A   1      51.523  27.380  35.248  1.00  0.00    -0.237 OA
ATOM    101  O   UNL A   1      50.273  26.863  37.307  1.00  0.00    -0.744 OA
ENDBRANCH  97  98
ENDBRANCH  65  90
ENDBRANCH  39  40
ENDBRANCH  32  34
ENDBRANCH  31  32
ENDBRANCH  30  31
ENDBRANCH  29  30
ENDBRANCH  28  29
ENDBRANCH   1  28
TORSDOF 23
ENDMDL
