MODEL 1
REMARK VINA RESULT:     -11.7      0.000      0.000
REMARK SMILES O=C(OCCOCCOCCOC(=O)c1nnn(-c2cccc(C(F)(F)F)c2)c1[C@@H]1COc2ccccc2O1)c1ccc(-c2c3nc(c(-c4c(F)cc(S(=O)(=O)[O-])cc4F)c4ccc([nH]4)c(-c4c(F)cc(S(=O)(=O)[O-])cc4F)c4nc(c(-c5c(F)cc(S(=O)(=O)[O-])cc5F)c5ccc2[nH]5)C=C4)C=C3)cc1
REMARK SMILES IDX 7 1 6 2 5 3 4 4 3 5 2 6 1 7 40 8 41 9 105 10 42 11 104 12
REMARK SMILES IDX 43 13 44 14 45 15 98 16 46 17 103 18 97 19 99 20 47 21
REMARK SMILES IDX 102 22 96 23 95 24 48 26 82 27 61 28 81 29 62 30 65 31 80 32
REMARK SMILES IDX 100 33 63 34 64 35 79 37 101 38 66 39 49 40 50 41 59 42
REMARK SMILES IDX 51 43 52 44 58 45 60 46 53 47 54 48 55 49 56 50 57 51 83 52
REMARK SMILES IDX 84 53 93 54 85 55 86 56 92 57 94 58 87 59 88 60 89 61 90 62
REMARK SMILES IDX 91 63 67 64 68 65 77 66 69 67 70 68 76 69 78 70 71 71 72 72
REMARK SMILES IDX 73 73 74 74 75 75 8 76 9 77 10 78 11 79 12 80 13 81 14 82
REMARK SMILES IDX 15 83 16 84 29 85 17 86 18 87 30 88 31 89 39 90 32 91 38 92
REMARK SMILES IDX 33 93 37 94 34 95 36 96 35 97 19 98 20 99 28 100 21 101
REMARK SMILES IDX 23 102 22 103 24 104 25 105 26 106 27 107
REMARK H PARENT 99 25 65 36
REMARK Flexibility Score: inf
ROOT
ATOM      1  C   UNL A   1      39.950  21.455  26.606  1.00  0.00     0.188 C 
ENDROOT
BRANCH   1   2
ATOM      2  O   UNL A   1      41.154  20.918  26.075  1.00  0.00    -0.376 OA
BRANCH   2   3
ATOM      3  C   UNL A   1      41.278  19.502  26.135  1.00  0.00     0.202 C 
BRANCH   3   4
ATOM      4  C   UNL A   1      42.710  18.971  26.036  1.00  0.00     0.261 C 
BRANCH   4   5
ATOM      5  O   UNL A   1      43.313  19.047  24.734  1.00  0.00    -0.460 OA
BRANCH   5   6
ATOM      6  C   UNL A   1      44.318  19.792  24.242  1.00  0.00     0.338 C 
ATOM      7  O   UNL A   1      45.098  19.278  23.441  1.00  0.00    -0.246 OA
BRANCH   6   8
ATOM      8  C   UNL A   1      44.639  21.153  24.730  1.00  0.00     0.060 A 
ATOM      9  C   UNL A   1      45.639  21.453  25.655  1.00  0.00     0.016 A 
ATOM     10  C   UNL A   1      43.762  22.172  24.303  1.00  0.00     0.016 A 
ATOM     11  C   UNL A   1      45.681  22.712  26.235  1.00  0.00     0.010 A 
ATOM     12  C   UNL A   1      43.797  23.427  24.886  1.00  0.00     0.010 A 
ATOM     13  C   UNL A   1      44.711  23.662  25.907  1.00  0.00    -0.014 A 
BRANCH  13  14
ATOM     14  C   UNL A   1      44.664  24.874  26.709  1.00  0.00     0.031 A 
ATOM     15  C   UNL A   1      45.807  25.802  26.531  1.00  0.00     0.074 A 
ATOM     16  C   UNL A   1      43.613  25.149  27.508  1.00  0.00     0.049 A 
ATOM     17  N   UNL A   1      46.700  26.155  27.398  1.00  0.00    -0.248 NA
ATOM     18  C   UNL A   1      46.062  26.302  25.172  1.00  0.00     0.031 C 
ATOM     19  C   UNL A   1      42.325  24.447  27.552  1.00  0.00     0.029 A 
ATOM     20  N   UNL A   1      43.427  26.186  28.369  1.00  0.00    -0.354 N 
ATOM     21  C   UNL A   1      47.483  27.113  26.759  1.00  0.00     0.074 A 
ATOM     22  C   UNL A   1      47.173  27.013  25.357  1.00  0.00     0.031 C 
ATOM     23  C   UNL A   1      41.427  25.214  28.206  1.00  0.00     0.029 A 
ATOM     24  C   UNL A   1      42.099  26.393  28.724  1.00  0.00     0.049 A 
ATOM     25  H   UNL A   1      44.165  26.741  28.710  1.00  0.00     0.167 HD
ATOM     26  C   UNL A   1      48.117  28.093  27.462  1.00  0.00     0.037 A 
ATOM     27  C   UNL A   1      41.576  27.500  29.311  1.00  0.00     0.037 A 
ATOM     28  C   UNL A   1      48.278  27.723  28.848  1.00  0.00     0.049 A 
ATOM     29  C   UNL A   1      42.697  28.229  29.963  1.00  0.00     0.074 A 
ATOM     30  C   UNL A   1      48.862  26.660  29.513  1.00  0.00     0.029 A 
ATOM     31  N   UNL A   1      47.497  28.357  29.783  1.00  0.00    -0.354 N 
ATOM     32  N   UNL A   1      43.361  27.781  30.994  1.00  0.00    -0.248 NA
ATOM     33  C   UNL A   1      43.366  29.275  29.203  1.00  0.00     0.031 C 
ATOM     34  C   UNL A   1      48.038  26.435  30.655  1.00  0.00     0.029 A 
ATOM     35  C   UNL A   1      47.031  27.400  30.645  1.00  0.00     0.049 A 
ATOM     36  H   UNL A   1      47.306  29.322  29.826  1.00  0.00     0.167 HD
ATOM     37  C   UNL A   1      44.674  28.170  30.768  1.00  0.00     0.074 A 
ATOM     38  C   UNL A   1      44.596  29.174  29.712  1.00  0.00     0.031 C 
ATOM     39  C   UNL A   1      45.721  27.440  31.257  1.00  0.00     0.037 A 
BRANCH  26  40
ATOM     40  C   UNL A   1      48.202  29.540  27.000  1.00  0.00     0.058 A 
ATOM     41  C   UNL A   1      49.438  30.216  27.105  1.00  0.00     0.135 A 
ATOM     42  C   UNL A   1      47.080  30.372  26.780  1.00  0.00     0.135 A 
ATOM     43  F   UNL A   1      50.579  29.530  27.276  1.00  0.00    -0.206 F 
ATOM     44  C   UNL A   1      49.529  31.608  27.144  1.00  0.00     0.059 A 
ATOM     45  C   UNL A   1      47.157  31.759  26.762  1.00  0.00     0.059 A 
ATOM     46  F   UNL A   1      45.835  29.899  26.665  1.00  0.00    -0.206 F 
ATOM     47  C   UNL A   1      48.374  32.368  27.008  1.00  0.00     0.060 A 
BRANCH  47  48
ATOM     48  S   UNL A   1      48.451  34.151  27.236  1.00  0.00     0.124 S 
ATOM     49  O   UNL A   1      49.632  34.278  28.080  1.00  0.00    -0.237 OA
ATOM     50  O   UNL A   1      48.587  34.624  25.863  1.00  0.00    -0.237 OA
ATOM     51  O   UNL A   1      47.175  34.460  27.876  1.00  0.00    -0.744 OA
ENDBRANCH  47  48
ENDBRANCH  26  40
BRANCH  27  52
ATOM     52  C   UNL A   1      40.251  28.121  29.042  1.00  0.00     0.058 A 
ATOM     53  C   UNL A   1      39.262  28.194  30.040  1.00  0.00     0.135 A 
ATOM     54  C   UNL A   1      40.012  28.890  27.884  1.00  0.00     0.135 A 
ATOM     55  F   UNL A   1      39.412  27.518  31.189  1.00  0.00    -0.206 F 
ATOM     56  C   UNL A   1      38.131  29.010  29.914  1.00  0.00     0.059 A 
ATOM     57  C   UNL A   1      38.886  29.693  27.726  1.00  0.00     0.059 A 
ATOM     58  F   UNL A   1      40.918  28.963  26.897  1.00  0.00    -0.206 F 
ATOM     59  C   UNL A   1      37.960  29.769  28.757  1.00  0.00     0.060 A 
BRANCH  59  60
ATOM     60  S   UNL A   1      36.595  30.950  28.652  1.00  0.00     0.124 S 
ATOM     61  O   UNL A   1      35.968  30.574  27.390  1.00  0.00    -0.237 OA
ATOM     62  O   UNL A   1      35.832  30.649  29.859  1.00  0.00    -0.237 OA
ATOM     63  O   UNL A   1      37.267  32.248  28.652  1.00  0.00    -0.744 OA
ENDBRANCH  59  60
ENDBRANCH  27  52
BRANCH  39  64
ATOM     64  C   UNL A   1      45.445  26.426  32.332  1.00  0.00     0.058 A 
ATOM     65  C   UNL A   1      45.393  26.720  33.706  1.00  0.00     0.135 A 
ATOM     66  C   UNL A   1      45.072  25.131  31.939  1.00  0.00     0.135 A 
ATOM     67  F   UNL A   1      45.624  27.962  34.155  1.00  0.00    -0.206 F 
ATOM     68  C   UNL A   1      45.030  25.757  34.649  1.00  0.00     0.059 A 
ATOM     69  C   UNL A   1      44.676  24.164  32.859  1.00  0.00     0.059 A 
ATOM     70  F   UNL A   1      45.036  24.808  30.635  1.00  0.00    -0.206 F 
ATOM     71  C   UNL A   1      44.670  24.481  34.215  1.00  0.00     0.060 A 
BRANCH  71  72
ATOM     72  S   UNL A   1      44.114  23.265  35.429  1.00  0.00     0.124 S 
ATOM     73  O   UNL A   1      44.907  23.616  36.602  1.00  0.00    -0.237 OA
ATOM     74  O   UNL A   1      42.684  23.543  35.524  1.00  0.00    -0.237 OA
ATOM     75  O   UNL A   1      44.449  21.985  34.808  1.00  0.00    -0.744 OA
ENDBRANCH  71  72
ENDBRANCH  39  64
ENDBRANCH  13  14
ENDBRANCH   6   8
ENDBRANCH   5   6
ENDBRANCH   4   5
ENDBRANCH   3   4
ENDBRANCH   2   3
ENDBRANCH   1   2
BRANCH   1  76
ATOM     76  C   UNL A   1      38.749  21.549  25.636  1.00  0.00     0.188 C 
BRANCH  76  77
ATOM     77  O   UNL A   1      37.575  22.311  25.895  1.00  0.00    -0.376 OA
BRANCH  77  78
ATOM     78  C   UNL A   1      37.276  23.470  25.147  1.00  0.00     0.202 C 
BRANCH  78  79
ATOM     79  C   UNL A   1      36.375  23.233  23.933  1.00  0.00     0.261 C 
BRANCH  79  80
ATOM     80  O   UNL A   1      35.816  21.914  23.856  1.00  0.00    -0.458 OA
BRANCH  80  81
ATOM     81  C   UNL A   1      34.542  21.776  24.325  1.00  0.00     0.361 C 
ATOM     82  O   UNL A   1      34.167  20.869  25.061  1.00  0.00    -0.244 OA
BRANCH  81  83
ATOM     83  C   UNL A   1      33.660  22.837  23.857  1.00  0.00     0.198 A 
ATOM     84  N   UNL A   1      33.034  22.761  22.639  1.00  0.00    -0.122 NA
ATOM     85  C   UNL A   1      33.268  24.011  24.493  1.00  0.00     0.123 A 
ATOM     86  N   UNL A   1      32.282  23.840  22.489  1.00  0.00    -0.061 NA
ATOM     87  N   UNL A   1      32.543  24.680  23.517  1.00  0.00    -0.213 N 
BRANCH  85  88
ATOM     88  C   UNL A   1      33.456  24.477  25.907  1.00  0.00     0.262 C 
ATOM     89  C   UNL A   1      32.185  24.371  26.758  1.00  0.00     0.281 C 
ATOM     90  O   UNL A   1      34.078  25.766  25.939  1.00  0.00    -0.477 OA
ATOM     91  O   UNL A   1      31.255  25.415  26.466  1.00  0.00    -0.485 OA
ATOM     92  C   UNL A   1      33.255  26.782  26.351  1.00  0.00     0.162 A 
ATOM     93  C   UNL A   1      31.884  26.627  26.565  1.00  0.00     0.161 A 
ATOM     94  C   UNL A   1      33.837  28.043  26.474  1.00  0.00     0.050 A 
ATOM     95  C   UNL A   1      31.081  27.735  26.825  1.00  0.00     0.050 A 
ATOM     96  C   UNL A   1      33.040  29.150  26.766  1.00  0.00     0.004 A 
ATOM     97  C   UNL A   1      31.661  28.999  26.925  1.00  0.00     0.004 A 
ENDBRANCH  85  88
BRANCH  87  98
ATOM     98  C   UNL A   1      32.530  26.061  23.242  1.00  0.00     0.067 A 
ATOM     99  C   UNL A   1      33.718  26.725  22.939  1.00  0.00     0.028 A 
ATOM    100  C   UNL A   1      31.311  26.747  23.320  1.00  0.00     0.041 A 
ATOM    101  C   UNL A   1      33.663  28.082  22.616  1.00  0.00     0.003 A 
ATOM    102  C   UNL A   1      31.264  28.119  23.048  1.00  0.00     0.058 A 
ATOM    103  C   UNL A   1      32.447  28.772  22.663  1.00  0.00     0.013 A 
BRANCH 102 104
ATOM    104  C   UNL A   1      29.960  28.869  23.134  1.00  0.00     0.416 C 
ATOM    105  F   UNL A   1      29.981  29.870  24.059  1.00  0.00    -0.166 F 
ATOM    106  F   UNL A   1      29.615  29.457  21.955  1.00  0.00    -0.166 F 
ATOM    107  F   UNL A   1      28.903  28.077  23.475  1.00  0.00    -0.166 F 
ENDBRANCH 102 104
ENDBRANCH  87  98
ENDBRANCH  81  83
ENDBRANCH  80  81
ENDBRANCH  79  80
ENDBRANCH  78  79
ENDBRANCH  77  78
ENDBRANCH  76  77
ENDBRANCH   1  76
TORSDOF 23
ENDMDL
MODEL 2
REMARK VINA RESULT:     -11.6      3.691     10.009
REMARK SMILES O=C(OCCOCCOCCOC(=O)c1nnn(-c2cccc(C(F)(F)F)c2)c1[C@@H]1COc2ccccc2O1)c1ccc(-c2c3nc(c(-c4c(F)cc(S(=O)(=O)[O-])cc4F)c4ccc([nH]4)c(-c4c(F)cc(S(=O)(=O)[O-])cc4F)c4nc(c(-c5c(F)cc(S(=O)(=O)[O-])cc5F)c5ccc2[nH]5)C=C4)C=C3)cc1
REMARK SMILES IDX 7 1 6 2 5 3 4 4 3 5 2 6 1 7 40 8 41 9 105 10 42 11 104 12
REMARK SMILES IDX 43 13 44 14 45 15 98 16 46 17 103 18 97 19 99 20 47 21
REMARK SMILES IDX 102 22 96 23 95 24 48 26 82 27 61 28 81 29 62 30 65 31 80 32
REMARK SMILES IDX 100 33 63 34 64 35 79 37 101 38 66 39 49 40 50 41 59 42
REMARK SMILES IDX 51 43 52 44 58 45 60 46 53 47 54 48 55 49 56 50 57 51 83 52
REMARK SMILES IDX 84 53 93 54 85 55 86 56 92 57 94 58 87 59 88 60 89 61 90 62
REMARK SMILES IDX 91 63 67 64 68 65 77 66 69 67 70 68 76 69 78 70 71 71 72 72
REMARK SMILES IDX 73 73 74 74 75 75 8 76 9 77 10 78 11 79 12 80 13 81 14 82
REMARK SMILES IDX 15 83 16 84 29 85 17 86 18 87 30 88 31 89 39 90 32 91 38 92
REMARK SMILES IDX 33 93 37 94 34 95 36 96 35 97 19 98 20 99 28 100 21 101
REMARK SMILES IDX 23 102 22 103 24 104 25 105 26 106 27 107
REMARK H PARENT 99 25 65 36
REMARK Flexibility Score: inf
ROOT
ATOM      1  C   UNL A   1      34.437  34.637  27.719  1.00  0.00     0.188 C 
ENDROOT
BRANCH   1   2
ATOM      2  O   UNL A   1      34.536  35.668  28.694  1.00  0.00    -0.376 OA
BRANCH   2   3
ATOM      3  C   UNL A   1      33.302  36.224  29.132  1.00  0.00     0.202 C 
BRANCH   3   4
ATOM      4  C   UNL A   1      33.018  36.074  30.629  1.00  0.00     0.261 C 
BRANCH   4   5
ATOM      5  O   UNL A   1      33.280  34.775  31.184  1.00  0.00    -0.460 OA
BRANCH   5   6
ATOM      6  C   UNL A   1      34.269  34.307  31.966  1.00  0.00     0.338 C 
ATOM      7  O   UNL A   1      34.370  34.738  33.114  1.00  0.00    -0.246 OA
BRANCH   6   8
ATOM      8  C   UNL A   1      35.345  33.415  31.476  1.00  0.00     0.060 A 
ATOM      9  C   UNL A   1      35.270  32.023  31.437  1.00  0.00     0.016 A 
ATOM     10  C   UNL A   1      36.563  34.052  31.159  1.00  0.00     0.016 A 
ATOM     11  C   UNL A   1      36.419  31.280  31.211  1.00  0.00     0.010 A 
ATOM     12  C   UNL A   1      37.713  33.313  30.940  1.00  0.00     0.010 A 
ATOM     13  C   UNL A   1      37.645  31.929  31.045  1.00  0.00    -0.014 A 
BRANCH  13  14
ATOM     14  C   UNL A   1      38.843  31.104  31.041  1.00  0.00     0.031 A 
ATOM     15  C   UNL A   1      39.528  30.966  32.349  1.00  0.00     0.074 A 
ATOM     16  C   UNL A   1      39.252  30.463  29.927  1.00  0.00     0.049 A 
ATOM     17  N   UNL A   1      40.710  31.371  32.685  1.00  0.00    -0.248 NA
ATOM     18  C   UNL A   1      38.742  30.422  33.465  1.00  0.00     0.031 C 
ATOM     19  C   UNL A   1      38.512  30.310  28.670  1.00  0.00     0.029 A 
ATOM     20  N   UNL A   1      40.369  29.712  29.720  1.00  0.00    -0.354 N 
ATOM     21  C   UNL A   1      40.907  30.909  33.984  1.00  0.00     0.074 A 
ATOM     22  C   UNL A   1      39.611  30.517  34.471  1.00  0.00     0.031 C 
ATOM     23  C   UNL A   1      39.085  29.330  27.937  1.00  0.00     0.029 A 
ATOM     24  C   UNL A   1      40.288  28.875  28.613  1.00  0.00     0.049 A 
ATOM     25  H   UNL A   1      41.161  29.756  30.302  1.00  0.00     0.167 HD
ATOM     26  C   UNL A   1      42.156  30.631  34.455  1.00  0.00     0.037 A 
ATOM     27  C   UNL A   1      41.095  27.822  28.329  1.00  0.00     0.037 A 
ATOM     28  C   UNL A   1      43.169  31.312  33.685  1.00  0.00     0.049 A 
ATOM     29  C   UNL A   1      42.355  28.007  29.095  1.00  0.00     0.074 A 
ATOM     30  C   UNL A   1      43.423  32.631  33.356  1.00  0.00     0.029 A 
ATOM     31  N   UNL A   1      43.950  30.565  32.837  1.00  0.00    -0.354 N 
ATOM     32  N   UNL A   1      43.221  28.957  28.864  1.00  0.00    -0.248 NA
ATOM     33  C   UNL A   1      42.455  27.386  30.408  1.00  0.00     0.031 C 
ATOM     34  C   UNL A   1      43.960  32.591  32.035  1.00  0.00     0.029 A 
ATOM     35  C   UNL A   1      44.047  31.251  31.656  1.00  0.00     0.049 A 
ATOM     36  H   UNL A   1      44.365  29.696  33.042  1.00  0.00     0.167 HD
ATOM     37  C   UNL A   1      43.677  29.337  30.119  1.00  0.00     0.074 A 
ATOM     38  C   UNL A   1      43.254  28.266  31.016  1.00  0.00     0.031 C 
ATOM     39  C   UNL A   1      44.104  30.612  30.359  1.00  0.00     0.037 A 
BRANCH  26  40
ATOM     40  C   UNL A   1      42.478  29.424  35.323  1.00  0.00     0.058 A 
ATOM     41  C   UNL A   1      43.352  29.591  36.420  1.00  0.00     0.135 A 
ATOM     42  C   UNL A   1      42.244  28.084  34.940  1.00  0.00     0.135 A 
ATOM     43  F   UNL A   1      43.622  30.815  36.900  1.00  0.00    -0.206 F 
ATOM     44  C   UNL A   1      44.054  28.525  36.987  1.00  0.00     0.059 A 
ATOM     45  C   UNL A   1      42.892  27.004  35.526  1.00  0.00     0.059 A 
ATOM     46  F   UNL A   1      41.451  27.747  33.918  1.00  0.00    -0.206 F 
ATOM     47  C   UNL A   1      43.841  27.239  36.504  1.00  0.00     0.060 A 
BRANCH  47  48
ATOM     48  S   UNL A   1      44.866  25.885  37.099  1.00  0.00     0.124 S 
ATOM     49  O   UNL A   1      46.172  26.269  36.577  1.00  0.00    -0.237 OA
ATOM     50  O   UNL A   1      44.694  25.990  38.543  1.00  0.00    -0.237 OA
ATOM     51  O   UNL A   1      44.255  24.710  36.483  1.00  0.00    -0.744 OA
ENDBRANCH  47  48
ENDBRANCH  26  40
BRANCH  27  52
ATOM     52  C   UNL A   1      40.699  26.523  27.719  1.00  0.00     0.058 A 
ATOM     53  C   UNL A   1      41.425  25.967  26.650  1.00  0.00     0.135 A 
ATOM     54  C   UNL A   1      39.760  25.670  28.334  1.00  0.00     0.135 A 
ATOM     55  F   UNL A   1      42.359  26.693  26.018  1.00  0.00    -0.206 F 
ATOM     56  C   UNL A   1      41.258  24.636  26.246  1.00  0.00     0.059 A 
ATOM     57  C   UNL A   1      39.561  24.350  27.938  1.00  0.00     0.059 A 
ATOM     58  F   UNL A   1      39.063  26.061  29.412  1.00  0.00    -0.206 F 
ATOM     59  C   UNL A   1      40.333  23.830  26.908  1.00  0.00     0.060 A 
BRANCH  59  60
ATOM     60  S   UNL A   1      40.228  22.070  26.508  1.00  0.00     0.124 S 
ATOM     61  O   UNL A   1      41.341  21.904  25.581  1.00  0.00    -0.237 OA
ATOM     62  O   UNL A   1      40.388  21.446  27.818  1.00  0.00    -0.237 OA
ATOM     63  O   UNL A   1      38.899  21.934  25.917  1.00  0.00    -0.744 OA
ENDBRANCH  59  60
ENDBRANCH  27  52
BRANCH  39  64
ATOM     64  C   UNL A   1      44.414  31.497  29.183  1.00  0.00     0.058 A 
ATOM     65  C   UNL A   1      43.567  32.517  28.713  1.00  0.00     0.135 A 
ATOM     66  C   UNL A   1      45.688  31.403  28.604  1.00  0.00     0.135 A 
ATOM     67  F   UNL A   1      42.379  32.748  29.289  1.00  0.00    -0.206 F 
ATOM     68  C   UNL A   1      43.955  33.374  27.683  1.00  0.00     0.059 A 
ATOM     69  C   UNL A   1      46.108  32.268  27.597  1.00  0.00     0.059 A 
ATOM     70  F   UNL A   1      46.568  30.493  29.056  1.00  0.00    -0.206 F 
ATOM     71  C   UNL A   1      45.231  33.243  27.132  1.00  0.00     0.060 A 
BRANCH  71  72
ATOM     72  S   UNL A   1      45.762  34.411  25.861  1.00  0.00     0.124 S 
ATOM     73  O   UNL A   1      45.404  35.695  26.453  1.00  0.00    -0.237 OA
ATOM     74  O   UNL A   1      47.193  34.137  25.757  1.00  0.00    -0.237 OA
ATOM     75  O   UNL A   1      44.978  34.022  24.691  1.00  0.00    -0.744 OA
ENDBRANCH  71  72
ENDBRANCH  39  64
ENDBRANCH  13  14
ENDBRANCH   6   8
ENDBRANCH   5   6
ENDBRANCH   4   5
ENDBRANCH   3   4
ENDBRANCH   2   3
ENDBRANCH   1   2
BRANCH   1  76
ATOM     76  C   UNL A   1      33.437  33.497  28.021  1.00  0.00     0.188 C 
BRANCH  76  77
ATOM     77  O   UNL A   1      32.092  33.475  27.556  1.00  0.00    -0.376 OA
BRANCH  77  78
ATOM     78  C   UNL A   1      31.683  32.580  26.543  1.00  0.00     0.202 C 
BRANCH  78  79
ATOM     79  C   UNL A   1      31.859  31.100  26.890  1.00  0.00     0.261 C 
BRANCH  79  80
ATOM     80  O   UNL A   1      33.113  30.538  26.483  1.00  0.00    -0.458 OA
BRANCH  80  81
ATOM     81  C   UNL A   1      33.513  29.418  27.153  1.00  0.00     0.361 C 
ATOM     82  O   UNL A   1      34.481  29.366  27.905  1.00  0.00    -0.244 OA
BRANCH  81  83
ATOM     83  C   UNL A   1      32.654  28.273  26.881  1.00  0.00     0.198 A 
ATOM     84  N   UNL A   1      31.547  28.011  27.649  1.00  0.00    -0.122 NA
ATOM     85  C   UNL A   1      32.733  27.324  25.866  1.00  0.00     0.123 A 
ATOM     86  N   UNL A   1      30.946  26.936  27.162  1.00  0.00    -0.061 NA
ATOM     87  N   UNL A   1      31.739  26.414  26.197  1.00  0.00    -0.213 N 
BRANCH  85  88
ATOM     88  C   UNL A   1      33.585  27.268  24.632  1.00  0.00     0.262 C 
ATOM     89  C   UNL A   1      32.799  27.506  23.337  1.00  0.00     0.281 C 
ATOM     90  O   UNL A   1      34.389  26.083  24.623  1.00  0.00    -0.477 OA
ATOM     91  O   UNL A   1      32.045  26.357  22.950  1.00  0.00    -0.485 OA
ATOM     92  C   UNL A   1      34.022  25.158  23.680  1.00  0.00     0.162 A 
ATOM     93  C   UNL A   1      32.868  25.265  22.901  1.00  0.00     0.161 A 
ATOM     94  C   UNL A   1      34.822  24.021  23.580  1.00  0.00     0.050 A 
ATOM     95  C   UNL A   1      32.471  24.212  22.080  1.00  0.00     0.050 A 
ATOM     96  C   UNL A   1      34.444  22.978  22.734  1.00  0.00     0.004 A 
ATOM     97  C   UNL A   1      33.261  23.066  21.998  1.00  0.00     0.004 A 
ENDBRANCH  85  88
BRANCH  87  98
ATOM     98  C   UNL A   1      31.775  25.011  26.081  1.00  0.00     0.067 A 
ATOM     99  C   UNL A   1      30.745  24.338  25.425  1.00  0.00     0.028 A 
ATOM    100  C   UNL A   1      32.839  24.317  26.671  1.00  0.00     0.041 A 
ATOM    101  C   UNL A   1      30.837  22.953  25.278  1.00  0.00     0.003 A 
ATOM    102  C   UNL A   1      32.905  22.923  26.569  1.00  0.00     0.058 A 
ATOM    103  C   UNL A   1      31.911  22.252  25.838  1.00  0.00     0.013 A 
BRANCH 102 104
ATOM    104  C   UNL A   1      34.043  22.166  27.203  1.00  0.00     0.416 C 
ATOM    105  F   UNL A   1      34.647  22.857  28.210  1.00  0.00    -0.166 F 
ATOM    106  F   UNL A   1      33.644  20.983  27.750  1.00  0.00    -0.166 F 
ATOM    107  F   UNL A   1      35.039  21.851  26.326  1.00  0.00    -0.166 F 
ENDBRANCH 102 104
ENDBRANCH  87  98
ENDBRANCH  81  83
ENDBRANCH  80  81
ENDBRANCH  79  80
ENDBRANCH  78  79
ENDBRANCH  77  78
ENDBRANCH  76  77
ENDBRANCH   1  76
TORSDOF 23
ENDMDL
MODEL 3
REMARK VINA RESULT:     -10.9      3.153      9.438
REMARK SMILES O=C(OCCOCCOCCOC(=O)c1nnn(-c2cccc(C(F)(F)F)c2)c1[C@@H]1COc2ccccc2O1)c1ccc(-c2c3nc(c(-c4c(F)cc(S(=O)(=O)[O-])cc4F)c4ccc([nH]4)c(-c4c(F)cc(S(=O)(=O)[O-])cc4F)c4nc(c(-c5c(F)cc(S(=O)(=O)[O-])cc5F)c5ccc2[nH]5)C=C4)C=C3)cc1
REMARK SMILES IDX 7 1 6 2 5 3 4 4 3 5 2 6 1 7 40 8 41 9 105 10 42 11 104 12
REMARK SMILES IDX 43 13 44 14 45 15 98 16 46 17 103 18 97 19 99 20 47 21
REMARK SMILES IDX 102 22 96 23 95 24 48 26 82 27 61 28 81 29 62 30 65 31 80 32
REMARK SMILES IDX 100 33 63 34 64 35 79 37 101 38 66 39 49 40 50 41 59 42
REMARK SMILES IDX 51 43 52 44 58 45 60 46 53 47 54 48 55 49 56 50 57 51 83 52
REMARK SMILES IDX 84 53 93 54 85 55 86 56 92 57 94 58 87 59 88 60 89 61 90 62
REMARK SMILES IDX 91 63 67 64 68 65 77 66 69 67 70 68 76 69 78 70 71 71 72 72
REMARK SMILES IDX 73 73 74 74 75 75 8 76 9 77 10 78 11 79 12 80 13 81 14 82
REMARK SMILES IDX 15 83 16 84 29 85 17 86 18 87 30 88 31 89 39 90 32 91 38 92
REMARK SMILES IDX 33 93 37 94 34 95 36 96 35 97 19 98 20 99 28 100 21 101
REMARK SMILES IDX 23 102 22 103 24 104 25 105 26 106 27 107
REMARK H PARENT 99 25 65 36
REMARK Flexibility Score: inf
ROOT
ATOM      1  C   UNL A   1      32.109  29.020  24.581  1.00  0.00     0.188 C 
ENDROOT
BRANCH   1   2
ATOM      2  O   UNL A   1      31.715  29.018  25.947  1.00  0.00    -0.376 OA
BRANCH   2   3
ATOM      3  C   UNL A   1      32.680  28.524  26.867  1.00  0.00     0.202 C 
BRANCH   3   4
ATOM      4  C   UNL A   1      34.014  29.276  26.876  1.00  0.00     0.261 C 
BRANCH   4   5
ATOM      5  O   UNL A   1      34.027  30.509  27.613  1.00  0.00    -0.460 OA
BRANCH   5   6
ATOM      6  C   UNL A   1      35.014  31.364  27.931  1.00  0.00     0.338 C 
ATOM      7  O   UNL A   1      34.945  32.525  27.528  1.00  0.00    -0.246 OA
BRANCH   6   8
ATOM      8  C   UNL A   1      36.266  30.951  28.608  1.00  0.00     0.060 A 
ATOM      9  C   UNL A   1      37.332  31.801  28.899  1.00  0.00     0.016 A 
ATOM     10  C   UNL A   1      36.402  29.565  28.837  1.00  0.00     0.016 A 
ATOM     11  C   UNL A   1      38.550  31.265  29.291  1.00  0.00     0.010 A 
ATOM     12  C   UNL A   1      37.617  29.027  29.221  1.00  0.00     0.010 A 
ATOM     13  C   UNL A   1      38.705  29.879  29.370  1.00  0.00    -0.014 A 
BRANCH  13  14
ATOM     14  C   UNL A   1      40.054  29.367  29.559  1.00  0.00     0.031 A 
ATOM     15  C   UNL A   1      40.526  29.312  30.964  1.00  0.00     0.074 A 
ATOM     16  C   UNL A   1      40.788  28.919  28.520  1.00  0.00     0.049 A 
ATOM     17  N   UNL A   1      41.498  29.966  31.513  1.00  0.00    -0.248 NA
ATOM     18  C   UNL A   1      39.726  28.523  31.911  1.00  0.00     0.031 C 
ATOM     19  C   UNL A   1      40.328  28.676  27.149  1.00  0.00     0.029 A 
ATOM     20  N   UNL A   1      42.074  28.473  28.496  1.00  0.00    -0.354 N 
ATOM     21  C   UNL A   1      41.586  29.480  32.815  1.00  0.00     0.074 A 
ATOM     22  C   UNL A   1      40.365  28.757  33.056  1.00  0.00     0.031 C 
ATOM     23  C   UNL A   1      41.239  27.913  26.506  1.00  0.00     0.029 A 
ATOM     24  C   UNL A   1      42.388  27.717  27.373  1.00  0.00     0.049 A 
ATOM     25  H   UNL A   1      42.724  28.668  29.210  1.00  0.00     0.167 HD
ATOM     26  C   UNL A   1      42.768  29.480  33.493  1.00  0.00     0.037 A 
ATOM     27  C   UNL A   1      43.467  26.909  27.211  1.00  0.00     0.037 A 
ATOM     28  C   UNL A   1      43.694  30.434  32.930  1.00  0.00     0.049 A 
ATOM     29  C   UNL A   1      44.497  27.341  28.193  1.00  0.00     0.074 A 
ATOM     30  C   UNL A   1      43.664  31.794  32.681  1.00  0.00     0.029 A 
ATOM     31  N   UNL A   1      44.766  29.954  32.217  1.00  0.00    -0.354 N 
ATOM     32  N   UNL A   1      45.126  28.484  28.141  1.00  0.00    -0.248 NA
ATOM     33  C   UNL A   1      44.529  26.676  29.488  1.00  0.00     0.031 C 
ATOM     34  C   UNL A   1      44.405  31.971  31.477  1.00  0.00     0.029 A 
ATOM     35  C   UNL A   1      44.883  30.719  31.087  1.00  0.00     0.049 A 
ATOM     36  H   UNL A   1      45.343  29.198  32.471  1.00  0.00     0.167 HD
ATOM     37  C   UNL A   1      45.259  28.878  29.465  1.00  0.00     0.074 A 
ATOM     38  C   UNL A   1      44.973  27.680  30.247  1.00  0.00     0.031 C 
ATOM     39  C   UNL A   1      45.310  30.201  29.806  1.00  0.00     0.037 A 
BRANCH  26  40
ATOM     40  C   UNL A   1      43.232  28.331  34.376  1.00  0.00     0.058 A 
ATOM     41  C   UNL A   1      43.702  28.620  35.676  1.00  0.00     0.135 A 
ATOM     42  C   UNL A   1      43.543  27.037  33.899  1.00  0.00     0.135 A 
ATOM     43  F   UNL A   1      43.437  29.803  36.252  1.00  0.00    -0.206 F 
ATOM     44  C   UNL A   1      44.542  27.754  36.378  1.00  0.00     0.059 A 
ATOM     45  C   UNL A   1      44.334  26.139  34.604  1.00  0.00     0.059 A 
ATOM     46  F   UNL A   1      43.182  26.602  32.687  1.00  0.00    -0.206 F 
ATOM     47  C   UNL A   1      44.881  26.530  35.813  1.00  0.00     0.060 A 
BRANCH  47  48
ATOM     48  S   UNL A   1      46.101  25.485  36.622  1.00  0.00     0.124 S 
ATOM     49  O   UNL A   1      47.183  26.436  36.848  1.00  0.00    -0.237 OA
ATOM     50  O   UNL A   1      45.378  25.040  37.808  1.00  0.00    -0.237 OA
ATOM     51  O   UNL A   1      46.363  24.449  35.627  1.00  0.00    -0.744 OA
ENDBRANCH  47  48
ENDBRANCH  26  40
BRANCH  27  52
ATOM     52  C   UNL A   1      43.513  25.597  26.511  1.00  0.00     0.058 A 
ATOM     53  C   UNL A   1      44.312  25.405  25.370  1.00  0.00     0.135 A 
ATOM     54  C   UNL A   1      42.977  24.427  27.091  1.00  0.00     0.135 A 
ATOM     55  F   UNL A   1      44.886  26.455  24.764  1.00  0.00    -0.206 F 
ATOM     56  C   UNL A   1      44.597  24.131  24.863  1.00  0.00     0.059 A 
ATOM     57  C   UNL A   1      43.229  23.152  26.593  1.00  0.00     0.059 A 
ATOM     58  F   UNL A   1      42.263  24.475  28.225  1.00  0.00    -0.206 F 
ATOM     59  C   UNL A   1      44.062  23.007  25.492  1.00  0.00     0.060 A 
BRANCH  59  60
ATOM     60  S   UNL A   1      44.555  21.355  24.950  1.00  0.00     0.124 S 
ATOM     61  O   UNL A   1      45.821  21.173  25.651  1.00  0.00    -0.237 OA
ATOM     62  O   UNL A   1      43.443  20.532  25.417  1.00  0.00    -0.237 OA
ATOM     63  O   UNL A   1      44.659  21.489  23.499  1.00  0.00    -0.744 OA
ENDBRANCH  59  60
ENDBRANCH  27  52
BRANCH  39  64
ATOM     64  C   UNL A   1      45.581  31.209  28.725  1.00  0.00     0.058 A 
ATOM     65  C   UNL A   1      44.610  31.696  27.832  1.00  0.00     0.135 A 
ATOM     66  C   UNL A   1      46.846  31.817  28.691  1.00  0.00     0.135 A 
ATOM     67  F   UNL A   1      43.346  31.249  27.876  1.00  0.00    -0.206 F 
ATOM     68  C   UNL A   1      44.898  32.709  26.917  1.00  0.00     0.059 A 
ATOM     69  C   UNL A   1      47.145  32.852  27.808  1.00  0.00     0.059 A 
ATOM     70  F   UNL A   1      47.796  31.444  29.564  1.00  0.00    -0.206 F 
ATOM     71  C   UNL A   1      46.169  33.284  26.914  1.00  0.00     0.060 A 
BRANCH  71  72
ATOM     72  S   UNL A   1      46.510  34.655  25.790  1.00  0.00     0.124 S 
ATOM     73  O   UNL A   1      46.308  35.816  26.650  1.00  0.00    -0.237 OA
ATOM     74  O   UNL A   1      47.889  34.398  25.385  1.00  0.00    -0.237 OA
ATOM     75  O   UNL A   1      45.519  34.482  24.730  1.00  0.00    -0.744 OA
ENDBRANCH  71  72
ENDBRANCH  39  64
ENDBRANCH  13  14
ENDBRANCH   6   8
ENDBRANCH   5   6
ENDBRANCH   4   5
ENDBRANCH   3   4
ENDBRANCH   2   3
ENDBRANCH   1   2
BRANCH   1  76
ATOM     76  C   UNL A   1      31.631  27.825  23.723  1.00  0.00     0.188 C 
BRANCH  76  77
ATOM     77  O   UNL A   1      32.484  26.780  23.269  1.00  0.00    -0.376 OA
BRANCH  77  78
ATOM     78  C   UNL A   1      32.867  25.725  24.125  1.00  0.00     0.202 C 
BRANCH  78  79
ATOM     79  C   UNL A   1      31.723  25.120  24.943  1.00  0.00     0.261 C 
BRANCH  79  80
ATOM     80  O   UNL A   1      31.417  23.758  24.620  1.00  0.00    -0.458 OA
BRANCH  80  81
ATOM     81  C   UNL A   1      31.355  22.892  25.674  1.00  0.00     0.361 C 
ATOM     82  O   UNL A   1      30.315  22.450  26.152  1.00  0.00    -0.244 OA
BRANCH  81  83
ATOM     83  C   UNL A   1      32.676  22.537  26.177  1.00  0.00     0.198 A 
ATOM     84  N   UNL A   1      33.093  22.923  27.426  1.00  0.00    -0.122 NA
ATOM     85  C   UNL A   1      33.676  21.773  25.584  1.00  0.00     0.123 A 
ATOM     86  N   UNL A   1      34.310  22.442  27.626  1.00  0.00    -0.061 NA
ATOM     87  N   UNL A   1      34.741  21.895  26.466  1.00  0.00    -0.213 N 
BRANCH  85  88
ATOM     88  C   UNL A   1      33.665  20.920  24.349  1.00  0.00     0.262 C 
ATOM     89  C   UNL A   1      32.269  20.413  23.971  1.00  0.00     0.281 C 
ATOM     90  O   UNL A   1      34.661  19.894  24.432  1.00  0.00    -0.477 OA
ATOM     91  O   UNL A   1      31.848  19.332  24.803  1.00  0.00    -0.485 OA
ATOM     92  C   UNL A   1      34.158  18.628  24.580  1.00  0.00     0.162 A 
ATOM     93  C   UNL A   1      32.806  18.355  24.803  1.00  0.00     0.161 A 
ATOM     94  C   UNL A   1      35.085  17.587  24.587  1.00  0.00     0.050 A 
ATOM     95  C   UNL A   1      32.389  17.061  25.106  1.00  0.00     0.050 A 
ATOM     96  C   UNL A   1      34.665  16.284  24.859  1.00  0.00     0.004 A 
ATOM     97  C   UNL A   1      33.321  16.024  25.135  1.00  0.00     0.004 A 
ENDBRANCH  85  88
BRANCH  87  98
ATOM     98  C   UNL A   1      36.109  22.026  26.160  1.00  0.00     0.067 A 
ATOM     99  C   UNL A   1      36.762  21.027  25.438  1.00  0.00     0.028 A 
ATOM    100  C   UNL A   1      36.797  23.152  26.630  1.00  0.00     0.041 A 
ATOM    101  C   UNL A   1      38.104  21.211  25.103  1.00  0.00     0.003 A 
ATOM    102  C   UNL A   1      38.156  23.312  26.339  1.00  0.00     0.058 A 
ATOM    103  C   UNL A   1      38.794  22.347  25.542  1.00  0.00     0.013 A 
BRANCH 102 104
ATOM    104  C   UNL A   1      38.906  24.517  26.843  1.00  0.00     0.416 C 
ATOM    105  F   UNL A   1      39.934  24.885  26.027  1.00  0.00    -0.166 F 
ATOM    106  F   UNL A   1      38.112  25.618  26.962  1.00  0.00    -0.166 F 
ATOM    107  F   UNL A   1      39.465  24.330  28.073  1.00  0.00    -0.166 F 
ENDBRANCH 102 104
ENDBRANCH  87  98
ENDBRANCH  81  83
ENDBRANCH  80  81
ENDBRANCH  79  80
ENDBRANCH  78  79
ENDBRANCH  77  78
ENDBRANCH  76  77
ENDBRANCH   1  76
TORSDOF 23
ENDMDL
