MODEL 1
REMARK VINA RESULT:     -10.2      0.000      0.000
REMARK SMILES O=C1C[C@H](C(=O)OCCOCCOCCOC(=O)c2ccc(-c3c4nc(c(-c5c(F)cc(S(=O)(=O)[O-])cc5F)c5ccc([nH]5)c(-c5c(F)cc(S(=O)(=O)[O-])cc5F)c5nc(c(-c6c(F)cc(S(=O)(=O)[O-])cc6F)c6ccc3[nH]6)C=C5)C=C4)cc2)c2c(nc(Nc3ccc(Oc4ccccc4)cc3)[nH]c2=O)N1
REMARK SMILES IDX 11 1 10 2 9 3 8 4 7 5 5 6 6 7 4 8 1 9 2 10 3 11 106 12 86 13
REMARK SMILES IDX 85 15 87 16 104 17 88 18 103 19 105 20 89 22 90 24 91 25
REMARK SMILES IDX 102 26 92 27 101 28 93 29 94 30 95 31 96 32 100 33 97 34
REMARK SMILES IDX 99 35 98 36 12 37 13 38 14 39 15 40 16 41 17 42 18 43 19 44
REMARK SMILES IDX 20 45 84 46 21 47 83 48 22 49 23 50 24 51 77 52 25 53 82 54
REMARK SMILES IDX 76 55 78 56 26 57 81 58 75 59 74 60 27 62 61 63 40 64 60 65
REMARK SMILES IDX 41 66 44 67 59 68 79 69 42 70 43 71 58 73 80 74 45 75 28 76
REMARK SMILES IDX 29 77 38 78 30 79 31 80 37 81 39 82 32 83 33 84 34 85 35 86
REMARK SMILES IDX 36 87 62 88 63 89 72 90 64 91 65 92 71 93 73 94 66 95 67 96
REMARK SMILES IDX 68 97 69 98 70 99 46 100 47 101 56 102 48 103 49 104 55 105
REMARK SMILES IDX 57 106 50 107 51 108 52 109 53 110 54 111
REMARK H PARENT 106 14 103 21 89 23 78 61 44 72
REMARK Flexibility Score: inf
ROOT
ATOM      1  C   UNL A   1      43.773  26.998  27.697  1.00  0.00     0.188 C 
ENDROOT
BRANCH   1   2
ATOM      2  O   UNL A   1      44.818  26.258  27.083  1.00  0.00    -0.376 OA
BRANCH   2   3
ATOM      3  C   UNL A   1      45.369  25.113  27.706  1.00  0.00     0.202 C 
BRANCH   3   4
ATOM      4  C   UNL A   1      46.583  24.405  27.080  1.00  0.00     0.261 C 
BRANCH   4   5
ATOM      5  O   UNL A   1      46.390  23.102  26.494  1.00  0.00    -0.463 OA
BRANCH   5   6
ATOM      6  C   UNL A   1      46.206  23.099  25.144  1.00  0.00     0.314 C 
ATOM      7  O   UNL A   1      46.588  24.008  24.417  1.00  0.00    -0.252 OA
BRANCH   6   8
ATOM      8  C   UNL A   1      45.440  21.877  24.611  1.00  0.00     0.148 C 
ATOM      9  O   UNL A   1      45.624  18.189  24.779  1.00  0.00    -0.275 OA
ATOM     10  C   UNL A   1      45.243  19.335  25.000  1.00  0.00     0.226 C 
ATOM     11  C   UNL A   1      46.145  20.530  24.843  1.00  0.00     0.121 C 
ATOM     12  N   UNL A   1      44.021  19.590  25.534  1.00  0.00    -0.310 N 
ATOM     13  C   UNL A   1      43.462  20.819  25.674  1.00  0.00     0.146 A 
ATOM     14  H   UNL A   1      43.495  18.819  25.848  1.00  0.00     0.171 HD
ATOM     15  C   UNL A   1      44.065  21.907  25.193  1.00  0.00     0.075 A 
ATOM     16  N   UNL A   1      42.253  20.802  26.274  1.00  0.00    -0.196 NA
ATOM     17  C   UNL A   1      43.249  23.133  25.195  1.00  0.00     0.258 A 
ATOM     18  C   UNL A   1      41.615  21.920  26.428  1.00  0.00     0.209 A 
ATOM     19  N   UNL A   1      42.119  23.089  25.948  1.00  0.00    -0.292 N 
ATOM     20  O   UNL A   1      43.510  24.119  24.523  1.00  0.00    -0.269 OA
ATOM     21  H   UNL A   1      41.651  23.930  26.154  1.00  0.00     0.173 HD
BRANCH  18  22
ATOM     22  N   UNL A   1      40.387  21.989  27.029  1.00  0.00    -0.326 N 
ATOM     23  H   UNL A   1      40.300  21.795  27.990  1.00  0.00     0.170 HD
BRANCH  22  24
ATOM     24  C   UNL A   1      39.249  22.333  26.281  1.00  0.00     0.041 A 
ATOM     25  C   UNL A   1      38.601  21.360  25.515  1.00  0.00     0.030 A 
ATOM     26  C   UNL A   1      38.625  23.570  26.483  1.00  0.00     0.030 A 
ATOM     27  C   UNL A   1      37.346  21.623  24.959  1.00  0.00     0.049 A 
ATOM     28  C   UNL A   1      37.375  23.830  25.940  1.00  0.00     0.049 A 
ATOM     29  C   UNL A   1      36.736  22.862  25.159  1.00  0.00     0.127 A 
BRANCH  29  30
ATOM     30  O   UNL A   1      35.488  23.026  24.588  1.00  0.00    -0.457 OA
BRANCH  30  31
ATOM     31  C   UNL A   1      34.448  23.269  25.453  1.00  0.00     0.127 A 
ATOM     32  C   UNL A   1      33.555  24.293  25.144  1.00  0.00     0.047 A 
ATOM     33  C   UNL A   1      34.265  22.474  26.588  1.00  0.00     0.047 A 
ATOM     34  C   UNL A   1      32.426  24.476  25.941  1.00  0.00     0.004 A 
ATOM     35  C   UNL A   1      33.129  22.653  27.373  1.00  0.00     0.004 A 
ATOM     36  C   UNL A   1      32.207  23.647  27.044  1.00  0.00     0.000 A 
ENDBRANCH  30  31
ENDBRANCH  29  30
ENDBRANCH  22  24
ENDBRANCH  18  22
ENDBRANCH   6   8
ENDBRANCH   5   6
ENDBRANCH   4   5
ENDBRANCH   3   4
ENDBRANCH   2   3
ENDBRANCH   1   2
BRANCH   1  37
ATOM     37  C   UNL A   1      42.427  27.179  26.981  1.00  0.00     0.188 C 
BRANCH  37  38
ATOM     38  O   UNL A   1      41.288  27.127  27.795  1.00  0.00    -0.376 OA
BRANCH  38  39
ATOM     39  C   UNL A   1      40.112  27.793  27.392  1.00  0.00     0.202 C 
BRANCH  39  40
ATOM     40  C   UNL A   1      38.915  28.066  28.323  1.00  0.00     0.261 C 
BRANCH  40  41
ATOM     41  O   UNL A   1      38.378  29.394  28.384  1.00  0.00    -0.460 OA
BRANCH  41  42
ATOM     42  C   UNL A   1      38.047  29.878  29.611  1.00  0.00     0.338 C 
ATOM     43  O   UNL A   1      37.260  29.396  30.392  1.00  0.00    -0.246 OA
BRANCH  42  44
ATOM     44  C   UNL A   1      38.980  30.991  29.921  1.00  0.00     0.060 A 
ATOM     45  C   UNL A   1      40.327  30.708  30.197  1.00  0.00     0.016 A 
ATOM     46  C   UNL A   1      38.520  32.307  29.947  1.00  0.00     0.016 A 
ATOM     47  C   UNL A   1      41.214  31.741  30.513  1.00  0.00     0.010 A 
ATOM     48  C   UNL A   1      39.399  33.336  30.307  1.00  0.00     0.010 A 
ATOM     49  C   UNL A   1      40.741  33.054  30.621  1.00  0.00    -0.014 A 
BRANCH  49  50
ATOM     50  C   UNL A   1      41.559  34.088  31.304  1.00  0.00     0.031 A 
ATOM     51  C   UNL A   1      41.529  34.121  32.809  1.00  0.00     0.074 A 
ATOM     52  C   UNL A   1      42.298  34.984  30.625  1.00  0.00     0.049 A 
ATOM     53  N   UNL A   1      42.057  34.985  33.634  1.00  0.00    -0.248 NA
ATOM     54  C   UNL A   1      40.800  33.025  33.471  1.00  0.00     0.031 C 
ATOM     55  C   UNL A   1      42.468  35.019  29.174  1.00  0.00     0.029 A 
ATOM     56  N   UNL A   1      43.037  36.051  31.077  1.00  0.00    -0.354 N 
ATOM     57  C   UNL A   1      41.725  34.540  34.908  1.00  0.00     0.074 A 
ATOM     58  C   UNL A   1      40.928  33.345  34.749  1.00  0.00     0.031 C 
ATOM     59  C   UNL A   1      43.245  36.071  28.853  1.00  0.00     0.029 A 
ATOM     60  C   UNL A   1      43.596  36.802  30.070  1.00  0.00     0.049 A 
ATOM     61  H   UNL A   1      43.155  36.257  32.032  1.00  0.00     0.167 HD
ATOM     62  C   UNL A   1      42.059  35.077  36.105  1.00  0.00     0.037 A 
ATOM     63  C   UNL A   1      44.286  37.962  30.128  1.00  0.00     0.037 A 
ATOM     64  C   UNL A   1      42.832  36.279  36.263  1.00  0.00     0.049 A 
ATOM     65  C   UNL A   1      44.549  38.603  31.469  1.00  0.00     0.074 A 
ATOM     66  C   UNL A   1      43.213  36.908  37.434  1.00  0.00     0.029 A 
ATOM     67  N   UNL A   1      43.336  37.039  35.218  1.00  0.00    -0.354 N 
ATOM     68  N   UNL A   1      44.230  38.176  32.668  1.00  0.00    -0.248 NA
ATOM     69  C   UNL A   1      45.265  39.888  31.465  1.00  0.00     0.031 C 
ATOM     70  C   UNL A   1      43.900  38.078  37.098  1.00  0.00     0.029 A 
ATOM     71  C   UNL A   1      44.001  38.147  35.717  1.00  0.00     0.049 A 
ATOM     72  H   UNL A   1      43.236  36.824  34.263  1.00  0.00     0.167 HD
ATOM     73  C   UNL A   1      44.727  39.126  33.559  1.00  0.00     0.074 A 
ATOM     74  C   UNL A   1      45.381  40.142  32.761  1.00  0.00     0.031 C 
ATOM     75  C   UNL A   1      44.650  39.153  34.913  1.00  0.00     0.037 A 
BRANCH  62  76
ATOM     76  C   UNL A   1      41.567  34.378  37.342  1.00  0.00     0.058 A 
ATOM     77  C   UNL A   1      42.387  33.495  38.062  1.00  0.00     0.135 A 
ATOM     78  C   UNL A   1      40.277  34.628  37.839  1.00  0.00     0.135 A 
ATOM     79  F   UNL A   1      43.619  33.200  37.619  1.00  0.00    -0.206 F 
ATOM     80  C   UNL A   1      41.941  32.875  39.225  1.00  0.00     0.059 A 
ATOM     81  C   UNL A   1      39.821  34.042  39.015  1.00  0.00     0.059 A 
ATOM     82  F   UNL A   1      39.450  35.457  37.182  1.00  0.00    -0.206 F 
ATOM     83  C   UNL A   1      40.659  33.161  39.697  1.00  0.00     0.060 A 
BRANCH  83  84
ATOM     84  S   UNL A   1      40.109  32.368  41.222  1.00  0.00     0.124 S 
ATOM     85  O   UNL A   1      38.792  31.870  40.836  1.00  0.00    -0.237 OA
ATOM     86  O   UNL A   1      41.135  31.351  41.429  1.00  0.00    -0.237 OA
ATOM     87  O   UNL A   1      40.105  33.458  42.192  1.00  0.00    -0.744 OA
ENDBRANCH  83  84
ENDBRANCH  62  76
BRANCH  63  88
ATOM     88  C   UNL A   1      44.773  38.604  28.875  1.00  0.00     0.058 A 
ATOM     89  C   UNL A   1      43.950  39.472  28.143  1.00  0.00     0.135 A 
ATOM     90  C   UNL A   1      46.063  38.360  28.378  1.00  0.00     0.135 A 
ATOM     91  F   UNL A   1      42.699  39.721  28.561  1.00  0.00    -0.206 F 
ATOM     92  C   UNL A   1      44.382  40.071  26.964  1.00  0.00     0.059 A 
ATOM     93  C   UNL A   1      46.530  38.968  27.216  1.00  0.00     0.059 A 
ATOM     94  F   UNL A   1      46.893  37.536  29.037  1.00  0.00    -0.206 F 
ATOM     95  C   UNL A   1      45.679  39.820  26.513  1.00  0.00     0.060 A 
BRANCH  95  96
ATOM     96  S   UNL A   1      46.246  40.648  25.010  1.00  0.00     0.124 S 
ATOM     97  O   UNL A   1      47.223  41.591  25.542  1.00  0.00    -0.237 OA
ATOM     98  O   UNL A   1      46.788  39.536  24.237  1.00  0.00    -0.237 OA
ATOM     99  O   UNL A   1      45.026  41.243  24.472  1.00  0.00    -0.744 OA
ENDBRANCH  95  96
ENDBRANCH  63  88
BRANCH  75 100
ATOM    100  C   UNL A   1      45.303  40.303  35.634  1.00  0.00     0.058 A 
ATOM    101  C   UNL A   1      44.643  41.527  35.825  1.00  0.00     0.135 A 
ATOM    102  C   UNL A   1      46.581  40.155  36.203  1.00  0.00     0.135 A 
ATOM    103  F   UNL A   1      43.423  41.724  35.303  1.00  0.00    -0.206 F 
ATOM    104  C   UNL A   1      45.233  42.569  36.534  1.00  0.00     0.059 A 
ATOM    105  C   UNL A   1      47.177  41.173  36.943  1.00  0.00     0.059 A 
ATOM    106  F   UNL A   1      47.253  39.001  36.065  1.00  0.00    -0.206 F 
ATOM    107  C   UNL A   1      46.499  42.381  37.093  1.00  0.00     0.060 A 
BRANCH 107 108
ATOM    108  S   UNL A   1      47.236  43.734  38.034  1.00  0.00     0.124 S 
ATOM    109  O   UNL A   1      48.439  43.101  38.567  1.00  0.00    -0.237 OA
ATOM    110  O   UNL A   1      47.456  44.745  37.004  1.00  0.00    -0.237 OA
ATOM    111  O   UNL A   1      46.211  44.063  39.020  1.00  0.00    -0.744 OA
ENDBRANCH 107 108
ENDBRANCH  75 100
ENDBRANCH  49  50
ENDBRANCH  42  44
ENDBRANCH  41  42
ENDBRANCH  40  41
ENDBRANCH  39  40
ENDBRANCH  38  39
ENDBRANCH  37  38
ENDBRANCH   1  37
TORSDOF 24
ENDMDL
MODEL 2
REMARK VINA RESULT:      -9.7      8.172     15.445
REMARK SMILES O=C1C[C@H](C(=O)OCCOCCOCCOC(=O)c2ccc(-c3c4nc(c(-c5c(F)cc(S(=O)(=O)[O-])cc5F)c5ccc([nH]5)c(-c5c(F)cc(S(=O)(=O)[O-])cc5F)c5nc(c(-c6c(F)cc(S(=O)(=O)[O-])cc6F)c6ccc3[nH]6)C=C5)C=C4)cc2)c2c(nc(Nc3ccc(Oc4ccccc4)cc3)[nH]c2=O)N1
REMARK SMILES IDX 11 1 10 2 9 3 8 4 7 5 5 6 6 7 4 8 1 9 2 10 3 11 106 12 86 13
REMARK SMILES IDX 85 15 87 16 104 17 88 18 103 19 105 20 89 22 90 24 91 25
REMARK SMILES IDX 102 26 92 27 101 28 93 29 94 30 95 31 96 32 100 33 97 34
REMARK SMILES IDX 99 35 98 36 12 37 13 38 14 39 15 40 16 41 17 42 18 43 19 44
REMARK SMILES IDX 20 45 84 46 21 47 83 48 22 49 23 50 24 51 77 52 25 53 82 54
REMARK SMILES IDX 76 55 78 56 26 57 81 58 75 59 74 60 27 62 61 63 40 64 60 65
REMARK SMILES IDX 41 66 44 67 59 68 79 69 42 70 43 71 58 73 80 74 45 75 28 76
REMARK SMILES IDX 29 77 38 78 30 79 31 80 37 81 39 82 32 83 33 84 34 85 35 86
REMARK SMILES IDX 36 87 62 88 63 89 72 90 64 91 65 92 71 93 73 94 66 95 67 96
REMARK SMILES IDX 68 97 69 98 70 99 46 100 47 101 56 102 48 103 49 104 55 105
REMARK SMILES IDX 57 106 50 107 51 108 52 109 53 110 54 111
REMARK H PARENT 106 14 103 21 89 23 78 61 44 72
REMARK Flexibility Score: inf
ROOT
ATOM      1  C   UNL A   1      38.848  30.755  29.384  1.00  0.00     0.188 C 
ENDROOT
BRANCH   1   2
ATOM      2  O   UNL A   1      38.379  32.090  29.503  1.00  0.00    -0.376 OA
BRANCH   2   3
ATOM      3  C   UNL A   1      39.030  33.022  30.346  1.00  0.00     0.202 C 
BRANCH   3   4
ATOM      4  C   UNL A   1      38.265  33.664  31.517  1.00  0.00     0.261 C 
BRANCH   4   5
ATOM      5  O   UNL A   1      37.018  34.331  31.239  1.00  0.00    -0.463 OA
BRANCH   5   6
ATOM      6  C   UNL A   1      36.037  34.126  32.162  1.00  0.00     0.314 C 
ATOM      7  O   UNL A   1      36.269  33.935  33.350  1.00  0.00    -0.252 OA
BRANCH   6   8
ATOM      8  C   UNL A   1      34.614  34.110  31.582  1.00  0.00     0.148 C 
ATOM      9  O   UNL A   1      32.230  36.453  30.001  1.00  0.00    -0.275 OA
ATOM     10  C   UNL A   1      33.054  35.550  30.116  1.00  0.00     0.226 C 
ATOM     11  C   UNL A   1      34.045  35.500  31.248  1.00  0.00     0.121 C 
ATOM     12  N   UNL A   1      33.219  34.608  29.151  1.00  0.00    -0.310 N 
ATOM     13  C   UNL A   1      33.994  33.498  29.257  1.00  0.00     0.146 A 
ATOM     14  H   UNL A   1      32.736  34.740  28.304  1.00  0.00     0.171 HD
ATOM     15  C   UNL A   1      34.608  33.196  30.402  1.00  0.00     0.075 A 
ATOM     16  N   UNL A   1      34.017  32.743  28.138  1.00  0.00    -0.196 NA
ATOM     17  C   UNL A   1      35.214  31.854  30.455  1.00  0.00     0.258 A 
ATOM     18  C   UNL A   1      34.702  31.642  28.142  1.00  0.00     0.209 A 
ATOM     19  N   UNL A   1      35.344  31.216  29.263  1.00  0.00    -0.292 N 
ATOM     20  O   UNL A   1      35.531  31.298  31.496  1.00  0.00    -0.269 OA
ATOM     21  H   UNL A   1      35.921  30.421  29.209  1.00  0.00     0.173 HD
BRANCH  18  22
ATOM     22  N   UNL A   1      34.780  30.822  27.048  1.00  0.00    -0.326 N 
ATOM     23  H   UNL A   1      35.512  30.936  26.401  1.00  0.00     0.170 HD
BRANCH  22  24
ATOM     24  C   UNL A   1      33.818  29.819  26.844  1.00  0.00     0.041 A 
ATOM     25  C   UNL A   1      34.224  28.527  26.497  1.00  0.00     0.030 A 
ATOM     26  C   UNL A   1      32.486  30.039  27.214  1.00  0.00     0.030 A 
ATOM     27  C   UNL A   1      33.309  27.471  26.523  1.00  0.00     0.049 A 
ATOM     28  C   UNL A   1      31.577  28.990  27.249  1.00  0.00     0.049 A 
ATOM     29  C   UNL A   1      31.981  27.702  26.886  1.00  0.00     0.127 A 
BRANCH  29  30
ATOM     30  O   UNL A   1      31.152  26.596  26.900  1.00  0.00    -0.457 OA
BRANCH  30  31
ATOM     31  C   UNL A   1      30.916  25.996  25.687  1.00  0.00     0.127 A 
ATOM     32  C   UNL A   1      30.490  26.793  24.626  1.00  0.00     0.047 A 
ATOM     33  C   UNL A   1      31.145  24.628  25.512  1.00  0.00     0.047 A 
ATOM     34  C   UNL A   1      30.362  26.227  23.358  1.00  0.00     0.004 A 
ATOM     35  C   UNL A   1      31.029  24.072  24.241  1.00  0.00     0.004 A 
ATOM     36  C   UNL A   1      30.646  24.873  23.164  1.00  0.00     0.000 A 
ENDBRANCH  30  31
ENDBRANCH  29  30
ENDBRANCH  22  24
ENDBRANCH  18  22
ENDBRANCH   6   8
ENDBRANCH   5   6
ENDBRANCH   4   5
ENDBRANCH   3   4
ENDBRANCH   2   3
ENDBRANCH   1   2
BRANCH   1  37
ATOM     37  C   UNL A   1      38.703  29.775  30.557  1.00  0.00     0.188 C 
BRANCH  37  38
ATOM     38  O   UNL A   1      38.940  28.426  30.262  1.00  0.00    -0.376 OA
BRANCH  38  39
ATOM     39  C   UNL A   1      38.596  27.920  28.990  1.00  0.00     0.202 C 
BRANCH  39  40
ATOM     40  C   UNL A   1      39.244  26.675  28.355  1.00  0.00     0.261 C 
BRANCH  40  41
ATOM     41  O   UNL A   1      40.642  26.710  28.039  1.00  0.00    -0.460 OA
BRANCH  41  42
ATOM     42  C   UNL A   1      41.260  25.522  27.806  1.00  0.00     0.338 C 
ATOM     43  O   UNL A   1      41.053  24.765  26.885  1.00  0.00    -0.246 OA
BRANCH  42  44
ATOM     44  C   UNL A   1      42.390  25.409  28.762  1.00  0.00     0.060 A 
ATOM     45  C   UNL A   1      42.843  26.555  29.436  1.00  0.00     0.016 A 
ATOM     46  C   UNL A   1      43.005  24.177  28.983  1.00  0.00     0.016 A 
ATOM     47  C   UNL A   1      43.920  26.471  30.322  1.00  0.00     0.010 A 
ATOM     48  C   UNL A   1      44.112  24.104  29.836  1.00  0.00     0.010 A 
ATOM     49  C   UNL A   1      44.593  25.255  30.486  1.00  0.00    -0.014 A 
BRANCH  49  50
ATOM     50  C   UNL A   1      45.937  25.225  31.117  1.00  0.00     0.031 A 
ATOM     51  C   UNL A   1      47.087  25.804  30.337  1.00  0.00     0.074 A 
ATOM     52  C   UNL A   1      46.148  24.692  32.334  1.00  0.00     0.049 A 
ATOM     53  N   UNL A   1      48.365  25.798  30.609  1.00  0.00    -0.248 NA
ATOM     54  C   UNL A   1      46.744  26.482  29.074  1.00  0.00     0.031 C 
ATOM     55  C   UNL A   1      45.114  24.161  33.219  1.00  0.00     0.029 A 
ATOM     56  N   UNL A   1      47.318  24.499  33.028  1.00  0.00    -0.354 N 
ATOM     57  C   UNL A   1      48.977  26.468  29.557  1.00  0.00     0.074 A 
ATOM     58  C   UNL A   1      47.936  26.844  28.627  1.00  0.00     0.031 C 
ATOM     59  C   UNL A   1      45.700  23.682  34.333  1.00  0.00     0.029 A 
ATOM     60  C   UNL A   1      47.150  23.839  34.223  1.00  0.00     0.049 A 
ATOM     61  H   UNL A   1      48.195  24.805  32.701  1.00  0.00     0.167 HD
ATOM     62  C   UNL A   1      50.290  26.750  29.382  1.00  0.00     0.037 A 
ATOM     63  C   UNL A   1      48.066  23.389  35.107  1.00  0.00     0.037 A 
ATOM     64  C   UNL A   1      51.327  26.356  30.296  1.00  0.00     0.049 A 
ATOM     65  C   UNL A   1      49.533  23.615  34.835  1.00  0.00     0.074 A 
ATOM     66  C   UNL A   1      52.688  26.585  30.201  1.00  0.00     0.029 A 
ATOM     67  N   UNL A   1      51.122  25.643  31.469  1.00  0.00    -0.354 N 
ATOM     68  N   UNL A   1      50.103  24.248  33.836  1.00  0.00    -0.248 NA
ATOM     69  C   UNL A   1      50.485  23.062  35.811  1.00  0.00     0.031 C 
ATOM     70  C   UNL A   1      53.312  25.964  31.287  1.00  0.00     0.029 A 
ATOM     71  C   UNL A   1      52.335  25.399  32.092  1.00  0.00     0.049 A 
ATOM     72  H   UNL A   1      50.245  25.353  31.807  1.00  0.00     0.167 HD
ATOM     73  C   UNL A   1      51.475  24.190  34.077  1.00  0.00     0.074 A 
ATOM     74  C   UNL A   1      51.648  23.473  35.323  1.00  0.00     0.031 C 
ATOM     75  C   UNL A   1      52.496  24.686  33.335  1.00  0.00     0.037 A 
BRANCH  62  76
ATOM     76  C   UNL A   1      50.680  27.503  28.141  1.00  0.00     0.058 A 
ATOM     77  C   UNL A   1      50.799  28.902  28.137  1.00  0.00     0.135 A 
ATOM     78  C   UNL A   1      50.983  26.816  26.954  1.00  0.00     0.135 A 
ATOM     79  F   UNL A   1      50.497  29.611  29.237  1.00  0.00    -0.206 F 
ATOM     80  C   UNL A   1      51.193  29.594  26.997  1.00  0.00     0.059 A 
ATOM     81  C   UNL A   1      51.406  27.485  25.810  1.00  0.00     0.059 A 
ATOM     82  F   UNL A   1      50.875  25.479  26.902  1.00  0.00    -0.206 F 
ATOM     83  C   UNL A   1      51.501  28.875  25.840  1.00  0.00     0.060 A 
BRANCH  83  84
ATOM     84  S   UNL A   1      52.038  29.789  24.379  1.00  0.00     0.124 S 
ATOM     85  O   UNL A   1      53.474  29.527  24.381  1.00  0.00    -0.237 OA
ATOM     86  O   UNL A   1      51.276  29.144  23.315  1.00  0.00    -0.237 OA
ATOM     87  O   UNL A   1      51.654  31.165  24.677  1.00  0.00    -0.744 OA
ENDBRANCH  83  84
ENDBRANCH  62  76
BRANCH  63  88
ATOM     88  C   UNL A   1      47.627  22.668  36.334  1.00  0.00     0.058 A 
ATOM     89  C   UNL A   1      47.397  23.358  37.534  1.00  0.00     0.135 A 
ATOM     90  C   UNL A   1      47.436  21.277  36.339  1.00  0.00     0.135 A 
ATOM     91  F   UNL A   1      47.589  24.686  37.590  1.00  0.00    -0.206 F 
ATOM     92  C   UNL A   1      47.000  22.700  38.693  1.00  0.00     0.059 A 
ATOM     93  C   UNL A   1      47.012  20.598  37.479  1.00  0.00     0.059 A 
ATOM     94  F   UNL A   1      47.643  20.565  35.220  1.00  0.00    -0.206 F 
ATOM     95  C   UNL A   1      46.801  21.319  38.653  1.00  0.00     0.060 A 
BRANCH  95  96
ATOM     96  S   UNL A   1      46.231  20.486  40.152  1.00  0.00     0.124 S 
ATOM     97  O   UNL A   1      45.653  19.262  39.610  1.00  0.00    -0.237 OA
ATOM     98  O   UNL A   1      47.474  20.327  40.901  1.00  0.00    -0.237 OA
ATOM     99  O   UNL A   1      45.278  21.433  40.723  1.00  0.00    -0.744 OA
ENDBRANCH  95  96
ENDBRANCH  63  88
BRANCH  75 100
ATOM    100  C   UNL A   1      53.899  24.496  33.849  1.00  0.00     0.058 A 
ATOM    101  C   UNL A   1      54.698  23.417  33.440  1.00  0.00     0.135 A 
ATOM    102  C   UNL A   1      54.477  25.446  34.709  1.00  0.00     0.135 A 
ATOM    103  F   UNL A   1      54.197  22.479  32.621  1.00  0.00    -0.206 F 
ATOM    104  C   UNL A   1      56.010  23.273  33.881  1.00  0.00     0.059 A 
ATOM    105  C   UNL A   1      55.798  25.340  35.138  1.00  0.00     0.059 A 
ATOM    106  F   UNL A   1      53.766  26.508  35.121  1.00  0.00    -0.206 F 
ATOM    107  C   UNL A   1      56.552  24.243  34.728  1.00  0.00     0.060 A 
BRANCH 107 108
ATOM    108  S   UNL A   1      58.266  24.056  35.266  1.00  0.00     0.124 S 
ATOM    109  O   UNL A   1      58.119  23.160  36.410  1.00  0.00    -0.237 OA
ATOM    110  O   UNL A   1      58.901  23.478  34.086  1.00  0.00    -0.237 OA
ATOM    111  O   UNL A   1      58.674  25.420  35.587  1.00  0.00    -0.744 OA
ENDBRANCH 107 108
ENDBRANCH  75 100
ENDBRANCH  49  50
ENDBRANCH  42  44
ENDBRANCH  41  42
ENDBRANCH  40  41
ENDBRANCH  39  40
ENDBRANCH  38  39
ENDBRANCH  37  38
ENDBRANCH   1  37
TORSDOF 24
ENDMDL
MODEL 3
REMARK VINA RESULT:      -9.5      9.647     14.855
REMARK SMILES O=C1C[C@H](C(=O)OCCOCCOCCOC(=O)c2ccc(-c3c4nc(c(-c5c(F)cc(S(=O)(=O)[O-])cc5F)c5ccc([nH]5)c(-c5c(F)cc(S(=O)(=O)[O-])cc5F)c5nc(c(-c6c(F)cc(S(=O)(=O)[O-])cc6F)c6ccc3[nH]6)C=C5)C=C4)cc2)c2c(nc(Nc3ccc(Oc4ccccc4)cc3)[nH]c2=O)N1
REMARK SMILES IDX 11 1 10 2 9 3 8 4 7 5 5 6 6 7 4 8 1 9 2 10 3 11 106 12 86 13
REMARK SMILES IDX 85 15 87 16 104 17 88 18 103 19 105 20 89 22 90 24 91 25
REMARK SMILES IDX 102 26 92 27 101 28 93 29 94 30 95 31 96 32 100 33 97 34
REMARK SMILES IDX 99 35 98 36 12 37 13 38 14 39 15 40 16 41 17 42 18 43 19 44
REMARK SMILES IDX 20 45 84 46 21 47 83 48 22 49 23 50 24 51 77 52 25 53 82 54
REMARK SMILES IDX 76 55 78 56 26 57 81 58 75 59 74 60 27 62 61 63 40 64 60 65
REMARK SMILES IDX 41 66 44 67 59 68 79 69 42 70 43 71 58 73 80 74 45 75 28 76
REMARK SMILES IDX 29 77 38 78 30 79 31 80 37 81 39 82 32 83 33 84 34 85 35 86
REMARK SMILES IDX 36 87 62 88 63 89 72 90 64 91 65 92 71 93 73 94 66 95 67 96
REMARK SMILES IDX 68 97 69 98 70 99 46 100 47 101 56 102 48 103 49 104 55 105
REMARK SMILES IDX 57 106 50 107 51 108 52 109 53 110 54 111
REMARK H PARENT 106 14 103 21 89 23 78 61 44 72
REMARK Flexibility Score: inf
ROOT
ATOM      1  C   UNL A   1      36.132  30.291  27.912  1.00  0.00     0.188 C 
ENDROOT
BRANCH   1   2
ATOM      2  O   UNL A   1      35.476  31.550  27.860  1.00  0.00    -0.376 OA
BRANCH   2   3
ATOM      3  C   UNL A   1      34.077  31.639  27.668  1.00  0.00     0.202 C 
BRANCH   3   4
ATOM      4  C   UNL A   1      33.255  30.365  27.405  1.00  0.00     0.261 C 
BRANCH   4   5
ATOM      5  O   UNL A   1      33.355  29.739  26.111  1.00  0.00    -0.463 OA
BRANCH   5   6
ATOM      6  C   UNL A   1      32.186  29.669  25.413  1.00  0.00     0.314 C 
ATOM      7  O   UNL A   1      31.223  30.387  25.652  1.00  0.00    -0.252 OA
BRANCH   6   8
ATOM      8  C   UNL A   1      32.161  28.582  24.326  1.00  0.00     0.148 C 
ATOM      9  O   UNL A   1      33.921  27.750  21.184  1.00  0.00    -0.275 OA
ATOM     10  C   UNL A   1      33.588  27.705  22.365  1.00  0.00     0.226 C 
ATOM     11  C   UNL A   1      33.019  28.896  23.089  1.00  0.00     0.121 C 
ATOM     12  N   UNL A   1      33.838  26.615  23.136  1.00  0.00    -0.310 N 
ATOM     13  C   UNL A   1      33.378  26.419  24.398  1.00  0.00     0.146 A 
ATOM     14  H   UNL A   1      34.401  25.907  22.747  1.00  0.00     0.171 HD
ATOM     15  C   UNL A   1      32.536  27.285  24.964  1.00  0.00     0.075 A 
ATOM     16  N   UNL A   1      33.806  25.270  24.960  1.00  0.00    -0.196 NA
ATOM     17  C   UNL A   1      31.930  26.837  26.229  1.00  0.00     0.258 A 
ATOM     18  C   UNL A   1      33.400  24.969  26.154  1.00  0.00     0.209 A 
ATOM     19  N   UNL A   1      32.514  25.761  26.816  1.00  0.00    -0.292 N 
ATOM     20  O   UNL A   1      30.926  27.341  26.713  1.00  0.00    -0.269 OA
ATOM     21  H   UNL A   1      32.290  25.547  27.751  1.00  0.00     0.173 HD
BRANCH  18  22
ATOM     22  N   UNL A   1      33.790  23.823  26.796  1.00  0.00    -0.326 N 
ATOM     23  H   UNL A   1      34.160  23.874  27.706  1.00  0.00     0.170 HD
BRANCH  22  24
ATOM     24  C   UNL A   1      33.665  22.577  26.161  1.00  0.00     0.041 A 
ATOM     25  C   UNL A   1      32.405  21.987  26.028  1.00  0.00     0.030 A 
ATOM     26  C   UNL A   1      34.748  22.038  25.456  1.00  0.00     0.030 A 
ATOM     27  C   UNL A   1      32.232  20.875  25.200  1.00  0.00     0.049 A 
ATOM     28  C   UNL A   1      34.577  20.939  24.625  1.00  0.00     0.049 A 
ATOM     29  C   UNL A   1      33.319  20.340  24.507  1.00  0.00     0.127 A 
BRANCH  29  30
ATOM     30  O   UNL A   1      33.050  19.252  23.698  1.00  0.00    -0.457 OA
BRANCH  30  31
ATOM     31  C   UNL A   1      33.298  18.013  24.241  1.00  0.00     0.127 A 
ATOM     32  C   UNL A   1      34.576  17.475  24.104  1.00  0.00     0.047 A 
ATOM     33  C   UNL A   1      32.305  17.336  24.953  1.00  0.00     0.047 A 
ATOM     34  C   UNL A   1      34.883  16.278  24.749  1.00  0.00     0.004 A 
ATOM     35  C   UNL A   1      32.621  16.149  25.607  1.00  0.00     0.004 A 
ATOM     36  C   UNL A   1      33.911  15.625  25.512  1.00  0.00     0.000 A 
ENDBRANCH  30  31
ENDBRANCH  29  30
ENDBRANCH  22  24
ENDBRANCH  18  22
ENDBRANCH   6   8
ENDBRANCH   5   6
ENDBRANCH   4   5
ENDBRANCH   3   4
ENDBRANCH   2   3
ENDBRANCH   1   2
BRANCH   1  37
ATOM     37  C   UNL A   1      36.908  29.871  29.169  1.00  0.00     0.188 C 
BRANCH  37  38
ATOM     38  O   UNL A   1      38.291  30.090  29.137  1.00  0.00    -0.376 OA
BRANCH  38  39
ATOM     39  C   UNL A   1      39.172  28.988  29.170  1.00  0.00     0.202 C 
BRANCH  39  40
ATOM     40  C   UNL A   1      39.576  28.171  27.928  1.00  0.00     0.261 C 
BRANCH  40  41
ATOM     41  O   UNL A   1      40.969  28.012  27.631  1.00  0.00    -0.460 OA
BRANCH  41  42
ATOM     42  C   UNL A   1      41.417  26.750  27.394  1.00  0.00     0.338 C 
ATOM     43  O   UNL A   1      41.068  26.012  26.501  1.00  0.00    -0.246 OA
BRANCH  42  44
ATOM     44  C   UNL A   1      42.571  26.507  28.296  1.00  0.00     0.060 A 
ATOM     45  C   UNL A   1      43.011  27.533  29.149  1.00  0.00     0.016 A 
ATOM     46  C   UNL A   1      43.220  25.273  28.291  1.00  0.00     0.016 A 
ATOM     47  C   UNL A   1      44.110  27.329  29.988  1.00  0.00     0.010 A 
ATOM     48  C   UNL A   1      44.347  25.085  29.100  1.00  0.00     0.010 A 
ATOM     49  C   UNL A   1      44.815  26.121  29.928  1.00  0.00    -0.014 A 
BRANCH  49  50
ATOM     50  C   UNL A   1      46.174  26.021  30.520  1.00  0.00     0.031 A 
ATOM     51  C   UNL A   1      47.336  26.479  29.681  1.00  0.00     0.074 A 
ATOM     52  C   UNL A   1      46.385  25.529  31.754  1.00  0.00     0.049 A 
ATOM     53  N   UNL A   1      48.619  26.392  29.915  1.00  0.00    -0.248 NA
ATOM     54  C   UNL A   1      47.002  27.123  28.398  1.00  0.00     0.031 C 
ATOM     55  C   UNL A   1      45.345  25.116  32.693  1.00  0.00     0.029 A 
ATOM     56  N   UNL A   1      47.561  25.282  32.422  1.00  0.00    -0.354 N 
ATOM     57  C   UNL A   1      49.243  26.968  28.815  1.00  0.00     0.074 A 
ATOM     58  C   UNL A   1      48.202  27.377  27.899  1.00  0.00     0.031 C 
ATOM     59  C   UNL A   1      45.931  24.645  33.810  1.00  0.00     0.029 A 
ATOM     60  C   UNL A   1      47.384  24.690  33.651  1.00  0.00     0.049 A 
ATOM     61  H   UNL A   1      48.446  25.509  32.055  1.00  0.00     0.167 HD
ATOM     62  C   UNL A   1      50.566  27.144  28.589  1.00  0.00     0.037 A 
ATOM     63  C   UNL A   1      48.294  24.215  34.528  1.00  0.00     0.037 A 
ATOM     64  C   UNL A   1      51.602  26.717  29.490  1.00  0.00     0.049 A 
ATOM     65  C   UNL A   1      49.765  24.320  34.203  1.00  0.00     0.074 A 
ATOM     66  C   UNL A   1      52.971  26.841  29.344  1.00  0.00     0.029 A 
ATOM     67  N   UNL A   1      51.384  26.074  30.700  1.00  0.00    -0.354 N 
ATOM     68  N   UNL A   1      50.345  24.864  33.159  1.00  0.00    -0.248 NA
ATOM     69  C   UNL A   1      50.706  23.743  35.175  1.00  0.00     0.031 C 
ATOM     70  C   UNL A   1      53.584  26.225  30.439  1.00  0.00     0.029 A 
ATOM     71  C   UNL A   1      52.596  25.770  31.298  1.00  0.00     0.049 A 
ATOM     72  H   UNL A   1      50.500  25.865  31.077  1.00  0.00     0.167 HD
ATOM     73  C   UNL A   1      51.716  24.717  33.362  1.00  0.00     0.074 A 
ATOM     74  C   UNL A   1      51.878  24.046  34.635  1.00  0.00     0.031 C 
ATOM     75  C   UNL A   1      52.746  25.103  32.568  1.00  0.00     0.037 A 
BRANCH  62  76
ATOM     76  C   UNL A   1      50.969  27.811  27.303  1.00  0.00     0.058 A 
ATOM     77  C   UNL A   1      51.284  27.065  26.156  1.00  0.00     0.135 A 
ATOM     78  C   UNL A   1      50.996  29.211  27.203  1.00  0.00     0.135 A 
ATOM     79  F   UNL A   1      51.299  25.723  26.203  1.00  0.00    -0.206 F 
ATOM     80  C   UNL A   1      51.624  27.685  24.958  1.00  0.00     0.059 A 
ATOM     81  C   UNL A   1      51.306  29.852  26.008  1.00  0.00     0.059 A 
ATOM     82  F   UNL A   1      50.713  29.970  28.273  1.00  0.00    -0.206 F 
ATOM     83  C   UNL A   1      51.625  29.079  24.893  1.00  0.00     0.060 A 
BRANCH  83  84
ATOM     84  S   UNL A   1      52.042  29.864  23.322  1.00  0.00     0.124 S 
ATOM     85  O   UNL A   1      51.070  29.250  22.421  1.00  0.00    -0.237 OA
ATOM     86  O   UNL A   1      51.829  31.277  23.616  1.00  0.00    -0.237 OA
ATOM     87  O   UNL A   1      53.431  29.474  23.102  1.00  0.00    -0.744 OA
ENDBRANCH  83  84
ENDBRANCH  62  76
BRANCH  63  88
ATOM     88  C   UNL A   1      47.845  23.583  35.800  1.00  0.00     0.058 A 
ATOM     89  C   UNL A   1      47.547  22.214  35.860  1.00  0.00     0.135 A 
ATOM     90  C   UNL A   1      47.698  24.332  36.979  1.00  0.00     0.135 A 
ATOM     91  F   UNL A   1      47.649  21.457  34.756  1.00  0.00    -0.206 F 
ATOM     92  C   UNL A   1      47.114  21.609  37.036  1.00  0.00     0.059 A 
ATOM     93  C   UNL A   1      47.293  23.745  38.175  1.00  0.00     0.059 A 
ATOM     94  F   UNL A   1      47.967  25.646  36.979  1.00  0.00    -0.206 F 
ATOM     95  C   UNL A   1      46.999  22.382  38.192  1.00  0.00     0.060 A 
BRANCH  95  96
ATOM     96  S   UNL A   1      46.489  21.572  39.725  1.00  0.00     0.124 S 
ATOM     97  O   UNL A   1      45.796  20.392  39.220  1.00  0.00    -0.237 OA
ATOM     98  O   UNL A   1      47.771  21.328  40.379  1.00  0.00    -0.237 OA
ATOM     99  O   UNL A   1      45.643  22.571  40.370  1.00  0.00    -0.744 OA
ENDBRANCH  95  96
ENDBRANCH  63  88
BRANCH  75 100
ATOM    100  C   UNL A   1      54.148  24.835  33.049  1.00  0.00     0.058 A 
ATOM    101  C   UNL A   1      54.805  23.625  32.776  1.00  0.00     0.135 A 
ATOM    102  C   UNL A   1      54.870  25.829  33.733  1.00  0.00     0.135 A 
ATOM    103  F   UNL A   1      54.163  22.639  32.128  1.00  0.00    -0.206 F 
ATOM    104  C   UNL A   1      56.117  23.401  33.182  1.00  0.00     0.059 A 
ATOM    105  C   UNL A   1      56.193  25.639  34.121  1.00  0.00     0.059 A 
ATOM    106  F   UNL A   1      54.297  27.012  34.008  1.00  0.00    -0.206 F 
ATOM    107  C   UNL A   1      56.804  24.416  33.851  1.00  0.00     0.060 A 
BRANCH 107 108
ATOM    108  S   UNL A   1      58.516  24.119  34.343  1.00  0.00     0.124 S 
ATOM    109  O   UNL A   1      59.249  24.640  33.193  1.00  0.00    -0.237 OA
ATOM    110  O   UNL A   1      58.625  24.901  35.571  1.00  0.00    -0.237 OA
ATOM    111  O   UNL A   1      58.575  22.671  34.521  1.00  0.00    -0.744 OA
ENDBRANCH 107 108
ENDBRANCH  75 100
ENDBRANCH  49  50
ENDBRANCH  42  44
ENDBRANCH  41  42
ENDBRANCH  40  41
ENDBRANCH  39  40
ENDBRANCH  38  39
ENDBRANCH  37  38
ENDBRANCH   1  37
TORSDOF 24
ENDMDL
