MODEL 1
REMARK VINA RESULT:      -9.9      0.000      0.000
REMARK SMILES COc1cc(/C=N/NC(=O)c2cccnc2)ccc1OCC(=O)OCCOCCOCCOC(=O)c1ccc(-c2c3nc(c(-c4c(F)cc(S(=O)(=O)[O-])cc4F)c4ccc([nH]4)c(-c4c(F)cc(S(=O)(=O)[O-])cc4F)c4nc(c(-c5c(F)cc(S(=O)(=O)[O-])cc5F)c5ccc2[nH]5)C=C4)C=C3)cc1
REMARK SMILES IDX 28 1 27 2 26 3 25 4 24 5 22 6 23 7 21 8 20 9 19 10 3 11 4 12
REMARK SMILES IDX 5 13 18 14 17 15 2 16 1 17 6 18 7 19 8 20 9 21 10 23 11 24
REMARK SMILES IDX 12 25 16 26 13 27 15 28 14 29 29 30 30 31 31 32 32 33 33 34
REMARK SMILES IDX 34 35 35 36 36 37 37 38 101 39 38 40 100 41 39 42 40 43
REMARK SMILES IDX 41 44 94 45 42 46 99 47 93 48 95 49 43 50 98 51 92 52 91 53
REMARK SMILES IDX 44 55 78 56 57 57 77 58 58 59 61 60 76 61 96 62 59 63 60 64
REMARK SMILES IDX 75 66 97 67 62 68 45 69 46 70 55 71 47 72 48 73 54 74 56 75
REMARK SMILES IDX 49 76 50 77 51 78 52 79 53 80 79 81 80 82 89 83 81 84 82 85
REMARK SMILES IDX 88 86 90 87 83 88 84 89 85 90 86 91 87 92 63 93 64 94 73 95
REMARK SMILES IDX 65 96 66 97 72 98 74 99 67 100 68 101 69 102 70 103 71 104
REMARK H PARENT 8 22 95 54 61 65
REMARK Flexibility Score: inf
ROOT
ATOM      1  C   UNL A   1      40.539  20.710  26.081  1.00  0.00     0.188 C 
ENDROOT
BRANCH   1   2
ATOM      2  O   UNL A   1      39.645  21.510  26.847  1.00  0.00    -0.376 OA
BRANCH   2   3
ATOM      3  C   UNL A   1      38.826  22.426  26.131  1.00  0.00     0.202 C 
BRANCH   3   4
ATOM      4  C   UNL A   1      37.834  21.771  25.172  1.00  0.00     0.261 C 
BRANCH   4   5
ATOM      5  O   UNL A   1      36.823  21.005  25.865  1.00  0.00    -0.461 OA
BRANCH   5   6
ATOM      6  C   UNL A   1      35.543  21.472  25.783  1.00  0.00     0.344 C 
ATOM      7  O   UNL A   1      34.768  21.539  26.730  1.00  0.00    -0.248 OA
BRANCH   6   8
ATOM      8  C   UNL A   1      35.129  21.781  24.342  1.00  0.00     0.352 C 
BRANCH   8   9
ATOM      9  O   UNL A   1      33.803  21.534  23.917  1.00  0.00    -0.478 OA
BRANCH   9  10
ATOM     10  C   UNL A   1      32.901  22.549  23.757  1.00  0.00     0.162 A 
ATOM     11  C   UNL A   1      31.831  22.926  24.581  1.00  0.00     0.161 A 
ATOM     12  C   UNL A   1      31.065  24.065  24.262  1.00  0.00     0.060 A 
ATOM     13  C   UNL A   1      31.417  24.860  23.165  1.00  0.00    -0.002 A 
ATOM     14  C   UNL A   1      33.151  23.290  22.594  1.00  0.00     0.051 A 
ATOM     15  C   UNL A   1      32.433  24.447  22.305  1.00  0.00     0.014 A 
BRANCH  11  16
ATOM     16  O   UNL A   1      31.485  22.129  25.635  1.00  0.00    -0.493 OA
ATOM     17  C   UNL A   1      30.374  22.593  26.400  1.00  0.00     0.278 C 
ENDBRANCH  11  16
BRANCH  13  18
ATOM     18  C   UNL A   1      30.866  26.211  22.931  1.00  0.00     0.141 C 
ATOM     19  N   UNL A   1      30.247  26.910  23.829  1.00  0.00    -0.180 NA
BRANCH  19  20
ATOM     20  N   UNL A   1      29.860  28.178  23.460  1.00  0.00    -0.243 N 
ATOM     21  C   UNL A   1      30.308  29.419  23.880  1.00  0.00     0.272 C 
ATOM     22  H   UNL A   1      29.145  28.208  22.785  1.00  0.00     0.194 HD
ATOM     23  O   UNL A   1      29.701  30.442  23.573  1.00  0.00    -0.267 OA
BRANCH  21  24
ATOM     24  C   UNL A   1      31.515  29.535  24.711  1.00  0.00     0.059 A 
ATOM     25  C   UNL A   1      32.717  28.903  24.397  1.00  0.00     0.017 A 
ATOM     26  C   UNL A   1      31.436  30.268  25.888  1.00  0.00     0.124 A 
ATOM     27  C   UNL A   1      33.770  28.969  25.305  1.00  0.00     0.021 A 
ATOM     28  N   UNL A   1      32.443  30.338  26.794  1.00  0.00    -0.264 NA
ATOM     29  C   UNL A   1      33.584  29.685  26.479  1.00  0.00     0.111 A 
ENDBRANCH  21  24
ENDBRANCH  19  20
ENDBRANCH  13  18
ENDBRANCH   9  10
ENDBRANCH   8   9
ENDBRANCH   6   8
ENDBRANCH   5   6
ENDBRANCH   4   5
ENDBRANCH   3   4
ENDBRANCH   2   3
ENDBRANCH   1   2
BRANCH   1  30
ATOM     30  C   UNL A   1      42.036  21.019  26.223  1.00  0.00     0.188 C 
BRANCH  30  31
ATOM     31  O   UNL A   1      42.591  21.993  25.344  1.00  0.00    -0.376 OA
BRANCH  31  32
ATOM     32  C   UNL A   1      43.042  23.206  25.942  1.00  0.00     0.202 C 
BRANCH  32  33
ATOM     33  C   UNL A   1      42.971  24.407  25.007  1.00  0.00     0.261 C 
BRANCH  33  34
ATOM     34  O   UNL A   1      43.461  25.587  25.670  1.00  0.00    -0.460 OA
BRANCH  34  35
ATOM     35  C   UNL A   1      42.495  26.512  25.880  1.00  0.00     0.338 C 
ATOM     36  O   UNL A   1      41.788  27.009  25.020  1.00  0.00    -0.246 OA
BRANCH  35  37
ATOM     37  C   UNL A   1      42.391  26.865  27.315  1.00  0.00     0.060 A 
ATOM     38  C   UNL A   1      41.553  26.169  28.189  1.00  0.00     0.016 A 
ATOM     39  C   UNL A   1      43.026  28.029  27.748  1.00  0.00     0.016 A 
ATOM     40  C   UNL A   1      41.259  26.704  29.451  1.00  0.00     0.010 A 
ATOM     41  C   UNL A   1      42.781  28.522  29.033  1.00  0.00     0.010 A 
ATOM     42  C   UNL A   1      41.851  27.899  29.881  1.00  0.00    -0.014 A 
BRANCH  42  43
ATOM     43  C   UNL A   1      41.441  28.586  31.143  1.00  0.00     0.031 A 
ATOM     44  C   UNL A   1      40.241  29.501  31.127  1.00  0.00     0.074 A 
ATOM     45  C   UNL A   1      42.114  28.436  32.300  1.00  0.00     0.049 A 
ATOM     46  N   UNL A   1      39.911  30.474  31.934  1.00  0.00    -0.248 NA
ATOM     47  C   UNL A   1      39.288  29.293  30.028  1.00  0.00     0.031 C 
ATOM     48  C   UNL A   1      43.228  27.519  32.531  1.00  0.00     0.029 A 
ATOM     49  N   UNL A   1      41.959  29.085  33.502  1.00  0.00    -0.354 N 
ATOM     50  C   UNL A   1      38.766  31.049  31.387  1.00  0.00     0.074 A 
ATOM     51  C   UNL A   1      38.449  30.304  30.188  1.00  0.00     0.031 C 
ATOM     52  C   UNL A   1      43.657  27.662  33.798  1.00  0.00     0.029 A 
ATOM     53  C   UNL A   1      42.913  28.748  34.433  1.00  0.00     0.049 A 
ATOM     54  H   UNL A   1      41.235  29.728  33.680  1.00  0.00     0.167 HD
ATOM     55  C   UNL A   1      38.047  32.102  31.844  1.00  0.00     0.037 A 
ATOM     56  C   UNL A   1      43.205  29.295  35.629  1.00  0.00     0.037 A 
ATOM     57  C   UNL A   1      38.309  32.771  33.091  1.00  0.00     0.049 A 
ATOM     58  C   UNL A   1      42.427  30.492  36.110  1.00  0.00     0.074 A 
ATOM     59  C   UNL A   1      37.645  33.851  33.648  1.00  0.00     0.029 A 
ATOM     60  N   UNL A   1      39.293  32.399  33.992  1.00  0.00    -0.354 N 
ATOM     61  N   UNL A   1      41.432  31.119  35.530  1.00  0.00    -0.248 NA
ATOM     62  C   UNL A   1      42.834  31.074  37.398  1.00  0.00     0.031 C 
ATOM     63  C   UNL A   1      38.244  34.145  34.879  1.00  0.00     0.029 A 
ATOM     64  C   UNL A   1      39.257  33.226  35.101  1.00  0.00     0.049 A 
ATOM     65  H   UNL A   1      39.926  31.656  33.862  1.00  0.00     0.167 HD
ATOM     66  C   UNL A   1      41.087  32.160  36.388  1.00  0.00     0.074 A 
ATOM     67  C   UNL A   1      41.968  32.069  37.533  1.00  0.00     0.031 C 
ATOM     68  C   UNL A   1      40.131  33.111  36.239  1.00  0.00     0.037 A 
BRANCH  55  69
ATOM     69  C   UNL A   1      36.932  32.625  30.981  1.00  0.00     0.058 A 
ATOM     70  C   UNL A   1      35.587  32.311  31.219  1.00  0.00     0.135 A 
ATOM     71  C   UNL A   1      37.222  33.506  29.924  1.00  0.00     0.135 A 
ATOM     72  F   UNL A   1      35.256  31.459  32.202  1.00  0.00    -0.206 F 
ATOM     73  C   UNL A   1      34.568  32.841  30.434  1.00  0.00     0.059 A 
ATOM     74  C   UNL A   1      36.218  34.065  29.140  1.00  0.00     0.059 A 
ATOM     75  F   UNL A   1      38.494  33.838  29.652  1.00  0.00    -0.206 F 
ATOM     76  C   UNL A   1      34.892  33.719  29.397  1.00  0.00     0.060 A 
BRANCH  76  77
ATOM     77  S   UNL A   1      33.559  34.429  28.409  1.00  0.00     0.124 S 
ATOM     78  O   UNL A   1      32.688  34.977  29.444  1.00  0.00    -0.237 OA
ATOM     79  O   UNL A   1      34.263  35.410  27.590  1.00  0.00    -0.237 OA
ATOM     80  O   UNL A   1      33.024  33.280  27.683  1.00  0.00    -0.744 OA
ENDBRANCH  76  77
ENDBRANCH  55  69
BRANCH  56  81
ATOM     81  C   UNL A   1      44.339  28.762  36.430  1.00  0.00     0.058 A 
ATOM     82  C   UNL A   1      45.607  29.357  36.375  1.00  0.00     0.135 A 
ATOM     83  C   UNL A   1      44.175  27.647  37.268  1.00  0.00     0.135 A 
ATOM     84  F   UNL A   1      45.815  30.415  35.576  1.00  0.00    -0.206 F 
ATOM     85  C   UNL A   1      46.676  28.863  37.113  1.00  0.00     0.059 A 
ATOM     86  C   UNL A   1      45.221  27.152  38.038  1.00  0.00     0.059 A 
ATOM     87  F   UNL A   1      42.979  27.046  37.363  1.00  0.00    -0.206 F 
ATOM     88  C   UNL A   1      46.471  27.761  37.945  1.00  0.00     0.060 A 
BRANCH  88  89
ATOM     89  S   UNL A   1      47.847  27.157  38.949  1.00  0.00     0.124 S 
ATOM     90  O   UNL A   1      47.267  25.963  39.550  1.00  0.00    -0.237 OA
ATOM     91  O   UNL A   1      48.884  26.929  37.948  1.00  0.00    -0.237 OA
ATOM     92  O   UNL A   1      48.103  28.267  39.862  1.00  0.00    -0.744 OA
ENDBRANCH  88  89
ENDBRANCH  56  81
BRANCH  68  93
ATOM     93  C   UNL A   1      39.960  34.101  37.354  1.00  0.00     0.058 A 
ATOM     94  C   UNL A   1      39.044  33.885  38.395  1.00  0.00     0.135 A 
ATOM     95  C   UNL A   1      40.753  35.257  37.405  1.00  0.00     0.135 A 
ATOM     96  F   UNL A   1      38.259  32.796  38.388  1.00  0.00    -0.206 F 
ATOM     97  C   UNL A   1      38.908  34.793  39.440  1.00  0.00     0.059 A 
ATOM     98  C   UNL A   1      40.648  36.168  38.451  1.00  0.00     0.059 A 
ATOM     99  F   UNL A   1      41.651  35.505  36.438  1.00  0.00    -0.206 F 
ATOM    100  C   UNL A   1      39.713  35.933  39.458  1.00  0.00     0.060 A 
BRANCH 100 101
ATOM    101  S   UNL A   1      39.546  37.094  40.832  1.00  0.00     0.124 S 
ATOM    102  O   UNL A   1      40.855  37.738  40.833  1.00  0.00    -0.237 OA
ATOM    103  O   UNL A   1      38.428  37.930  40.404  1.00  0.00    -0.237 OA
ATOM    104  O   UNL A   1      39.270  36.228  41.975  1.00  0.00    -0.744 OA
ENDBRANCH 100 101
ENDBRANCH  68  93
ENDBRANCH  42  43
ENDBRANCH  35  37
ENDBRANCH  34  35
ENDBRANCH  33  34
ENDBRANCH  32  33
ENDBRANCH  31  32
ENDBRANCH  30  31
ENDBRANCH   1  30
TORSDOF 26
ENDMDL
MODEL 2
REMARK VINA RESULT:      -8.9      5.988     10.794
REMARK SMILES COc1cc(/C=N/NC(=O)c2cccnc2)ccc1OCC(=O)OCCOCCOCCOC(=O)c1ccc(-c2c3nc(c(-c4c(F)cc(S(=O)(=O)[O-])cc4F)c4ccc([nH]4)c(-c4c(F)cc(S(=O)(=O)[O-])cc4F)c4nc(c(-c5c(F)cc(S(=O)(=O)[O-])cc5F)c5ccc2[nH]5)C=C4)C=C3)cc1
REMARK SMILES IDX 28 1 27 2 26 3 25 4 24 5 22 6 23 7 21 8 20 9 19 10 3 11 4 12
REMARK SMILES IDX 5 13 18 14 17 15 2 16 1 17 6 18 7 19 8 20 9 21 10 23 11 24
REMARK SMILES IDX 12 25 16 26 13 27 15 28 14 29 29 30 30 31 31 32 32 33 33 34
REMARK SMILES IDX 34 35 35 36 36 37 37 38 101 39 38 40 100 41 39 42 40 43
REMARK SMILES IDX 41 44 94 45 42 46 99 47 93 48 95 49 43 50 98 51 92 52 91 53
REMARK SMILES IDX 44 55 78 56 57 57 77 58 58 59 61 60 76 61 96 62 59 63 60 64
REMARK SMILES IDX 75 66 97 67 62 68 45 69 46 70 55 71 47 72 48 73 54 74 56 75
REMARK SMILES IDX 49 76 50 77 51 78 52 79 53 80 79 81 80 82 89 83 81 84 82 85
REMARK SMILES IDX 88 86 90 87 83 88 84 89 85 90 86 91 87 92 63 93 64 94 73 95
REMARK SMILES IDX 65 96 66 97 72 98 74 99 67 100 68 101 69 102 70 103 71 104
REMARK H PARENT 8 22 95 54 61 65
REMARK Flexibility Score: inf
ROOT
ATOM      1  C   UNL A   1      32.657  30.761  26.938  1.00  0.00     0.188 C 
ENDROOT
BRANCH   1   2
ATOM      2  O   UNL A   1      32.478  29.503  26.298  1.00  0.00    -0.376 OA
BRANCH   2   3
ATOM      3  C   UNL A   1      32.692  28.341  27.089  1.00  0.00     0.202 C 
BRANCH   3   4
ATOM      4  C   UNL A   1      32.295  27.032  26.410  1.00  0.00     0.261 C 
BRANCH   4   5
ATOM      5  O   UNL A   1      30.912  26.685  26.649  1.00  0.00    -0.461 OA
BRANCH   5   6
ATOM      6  C   UNL A   1      30.531  25.423  26.298  1.00  0.00     0.344 C 
ATOM      7  O   UNL A   1      29.497  24.882  26.671  1.00  0.00    -0.248 OA
BRANCH   6   8
ATOM      8  C   UNL A   1      31.609  24.695  25.489  1.00  0.00     0.352 C 
BRANCH   8   9
ATOM      9  O   UNL A   1      31.734  23.290  25.578  1.00  0.00    -0.478 OA
BRANCH   9  10
ATOM     10  C   UNL A   1      32.921  22.659  25.331  1.00  0.00     0.162 A 
ATOM     11  C   UNL A   1      33.595  22.478  24.114  1.00  0.00     0.161 A 
ATOM     12  C   UNL A   1      34.859  21.856  24.096  1.00  0.00     0.060 A 
ATOM     13  C   UNL A   1      35.473  21.485  25.298  1.00  0.00    -0.002 A 
ATOM     14  C   UNL A   1      33.502  22.161  26.505  1.00  0.00     0.051 A 
ATOM     15  C   UNL A   1      34.775  21.597  26.499  1.00  0.00     0.014 A 
BRANCH  11  16
ATOM     16  O   UNL A   1      32.974  22.824  22.947  1.00  0.00    -0.493 OA
ATOM     17  C   UNL A   1      33.424  24.048  22.368  1.00  0.00     0.278 C 
ENDBRANCH  11  16
BRANCH  13  18
ATOM     18  C   UNL A   1      36.898  21.106  25.399  1.00  0.00     0.141 C 
ATOM     19  N   UNL A   1      37.848  21.926  25.722  1.00  0.00    -0.180 NA
BRANCH  19  20
ATOM     20  N   UNL A   1      39.110  21.388  25.837  1.00  0.00    -0.243 N 
ATOM     21  C   UNL A   1      40.293  21.946  26.289  1.00  0.00     0.272 C 
ATOM     22  H   UNL A   1      39.183  20.450  25.549  1.00  0.00     0.194 HD
ATOM     23  O   UNL A   1      41.362  21.361  26.134  1.00  0.00    -0.267 OA
BRANCH  21  24
ATOM     24  C   UNL A   1      40.294  23.256  26.956  1.00  0.00     0.059 A 
ATOM     25  C   UNL A   1      41.441  23.827  27.506  1.00  0.00     0.017 A 
ATOM     26  C   UNL A   1      39.087  23.931  27.086  1.00  0.00     0.124 A 
ATOM     27  C   UNL A   1      41.325  25.013  28.225  1.00  0.00     0.021 A 
ATOM     28  N   UNL A   1      38.946  25.081  27.791  1.00  0.00    -0.264 NA
ATOM     29  C   UNL A   1      40.069  25.591  28.343  1.00  0.00     0.111 A 
ENDBRANCH  21  24
ENDBRANCH  19  20
ENDBRANCH  13  18
ENDBRANCH   9  10
ENDBRANCH   8   9
ENDBRANCH   6   8
ENDBRANCH   5   6
ENDBRANCH   4   5
ENDBRANCH   3   4
ENDBRANCH   2   3
ENDBRANCH   1   2
BRANCH   1  30
ATOM     30  C   UNL A   1      34.021  31.013  27.597  1.00  0.00     0.188 C 
BRANCH  30  31
ATOM     31  O   UNL A   1      34.480  32.360  27.659  1.00  0.00    -0.376 OA
BRANCH  31  32
ATOM     32  C   UNL A   1      33.655  33.281  28.367  1.00  0.00     0.202 C 
BRANCH  32  33
ATOM     33  C   UNL A   1      34.137  33.561  29.786  1.00  0.00     0.261 C 
BRANCH  33  34
ATOM     34  O   UNL A   1      34.404  32.327  30.477  1.00  0.00    -0.460 OA
BRANCH  34  35
ATOM     35  C   UNL A   1      35.317  32.466  31.467  1.00  0.00     0.338 C 
ATOM     36  O   UNL A   1      35.082  32.842  32.603  1.00  0.00    -0.246 OA
BRANCH  35  37
ATOM     37  C   UNL A   1      36.675  32.102  31.002  1.00  0.00     0.060 A 
ATOM     38  C   UNL A   1      37.496  31.233  31.726  1.00  0.00     0.016 A 
ATOM     39  C   UNL A   1      37.192  32.782  29.900  1.00  0.00     0.016 A 
ATOM     40  C   UNL A   1      38.861  31.142  31.418  1.00  0.00     0.010 A 
ATOM     41  C   UNL A   1      38.539  32.635  29.556  1.00  0.00     0.010 A 
ATOM     42  C   UNL A   1      39.406  31.859  30.343  1.00  0.00    -0.014 A 
BRANCH  42  43
ATOM     43  C   UNL A   1      40.876  31.918  30.084  1.00  0.00     0.031 A 
ATOM     44  C   UNL A   1      41.633  33.178  30.427  1.00  0.00     0.074 A 
ATOM     45  C   UNL A   1      41.556  30.893  29.537  1.00  0.00     0.049 A 
ATOM     46  N   UNL A   1      42.775  33.625  29.976  1.00  0.00    -0.248 NA
ATOM     47  C   UNL A   1      40.995  34.065  31.409  1.00  0.00     0.031 C 
ATOM     48  C   UNL A   1      41.017  29.569  29.237  1.00  0.00     0.029 A 
ATOM     49  N   UNL A   1      42.862  30.827  29.113  1.00  0.00    -0.354 N 
ATOM     50  C   UNL A   1      42.943  34.883  30.549  1.00  0.00     0.074 A 
ATOM     51  C   UNL A   1      41.793  35.121  31.395  1.00  0.00     0.031 C 
ATOM     52  C   UNL A   1      41.983  28.818  28.680  1.00  0.00     0.029 A 
ATOM     53  C   UNL A   1      43.177  29.641  28.493  1.00  0.00     0.049 A 
ATOM     54  H   UNL A   1      43.510  31.557  29.242  1.00  0.00     0.167 HD
ATOM     55  C   UNL A   1      43.963  35.760  30.384  1.00  0.00     0.037 A 
ATOM     56  C   UNL A   1      44.269  29.279  27.791  1.00  0.00     0.037 A 
ATOM     57  C   UNL A   1      45.150  35.473  29.623  1.00  0.00     0.049 A 
ATOM     58  C   UNL A   1      45.380  30.274  27.578  1.00  0.00     0.074 A 
ATOM     59  C   UNL A   1      46.243  36.290  29.387  1.00  0.00     0.029 A 
ATOM     60  N   UNL A   1      45.416  34.262  29.005  1.00  0.00    -0.354 N 
ATOM     61  N   UNL A   1      45.478  31.509  28.007  1.00  0.00    -0.248 NA
ATOM     62  C   UNL A   1      46.517  29.832  26.756  1.00  0.00     0.031 C 
ATOM     63  C   UNL A   1      47.161  35.577  28.607  1.00  0.00     0.029 A 
ATOM     64  C   UNL A   1      46.654  34.307  28.389  1.00  0.00     0.049 A 
ATOM     65  H   UNL A   1      44.812  33.484  29.004  1.00  0.00     0.167 HD
ATOM     66  C   UNL A   1      46.691  31.986  27.519  1.00  0.00     0.074 A 
ATOM     67  C   UNL A   1      47.299  30.903  26.776  1.00  0.00     0.031 C 
ATOM     68  C   UNL A   1      47.250  33.213  27.666  1.00  0.00     0.037 A 
BRANCH  55  69
ATOM     69  C   UNL A   1      43.830  37.124  31.002  1.00  0.00     0.058 A 
ATOM     70  C   UNL A   1      44.103  37.365  32.356  1.00  0.00     0.135 A 
ATOM     71  C   UNL A   1      43.473  38.222  30.201  1.00  0.00     0.135 A 
ATOM     72  F   UNL A   1      44.429  36.349  33.171  1.00  0.00    -0.206 F 
ATOM     73  C   UNL A   1      44.016  38.644  32.898  1.00  0.00     0.059 A 
ATOM     74  C   UNL A   1      43.401  39.512  30.716  1.00  0.00     0.059 A 
ATOM     75  F   UNL A   1      43.199  38.046  28.899  1.00  0.00    -0.206 F 
ATOM     76  C   UNL A   1      43.666  39.712  32.069  1.00  0.00     0.060 A 
BRANCH  76  77
ATOM     77  S   UNL A   1      43.592  41.373  32.775  1.00  0.00     0.124 S 
ATOM     78  O   UNL A   1      43.612  42.202  31.574  1.00  0.00    -0.237 OA
ATOM     79  O   UNL A   1      42.329  41.347  33.506  1.00  0.00    -0.237 OA
ATOM     80  O   UNL A   1      44.791  41.443  33.606  1.00  0.00    -0.744 OA
ENDBRANCH  76  77
ENDBRANCH  55  69
BRANCH  56  81
ATOM     81  C   UNL A   1      44.337  27.929  27.172  1.00  0.00     0.058 A 
ATOM     82  C   UNL A   1      43.642  27.639  25.990  1.00  0.00     0.135 A 
ATOM     83  C   UNL A   1      45.101  26.902  27.750  1.00  0.00     0.135 A 
ATOM     84  F   UNL A   1      42.886  28.584  25.409  1.00  0.00    -0.206 F 
ATOM     85  C   UNL A   1      43.693  26.379  25.406  1.00  0.00     0.059 A 
ATOM     86  C   UNL A   1      45.191  25.643  27.170  1.00  0.00     0.059 A 
ATOM     87  F   UNL A   1      45.792  27.131  28.878  1.00  0.00    -0.206 F 
ATOM     88  C   UNL A   1      44.473  25.387  26.003  1.00  0.00     0.060 A 
BRANCH  88  89
ATOM     89  S   UNL A   1      44.584  23.768  25.210  1.00  0.00     0.124 S 
ATOM     90  O   UNL A   1      44.877  22.905  26.348  1.00  0.00    -0.237 OA
ATOM     91  O   UNL A   1      43.258  23.620  24.620  1.00  0.00    -0.237 OA
ATOM     92  O   UNL A   1      45.672  23.942  24.251  1.00  0.00    -0.744 OA
ENDBRANCH  88  89
ENDBRANCH  56  81
BRANCH  68  93
ATOM     93  C   UNL A   1      48.600  33.438  27.049  1.00  0.00     0.058 A 
ATOM     94  C   UNL A   1      48.748  34.136  25.841  1.00  0.00     0.135 A 
ATOM     95  C   UNL A   1      49.761  32.992  27.698  1.00  0.00     0.135 A 
ATOM     96  F   UNL A   1      47.667  34.579  25.179  1.00  0.00    -0.206 F 
ATOM     97  C   UNL A   1      50.004  34.365  25.286  1.00  0.00     0.059 A 
ATOM     98  C   UNL A   1      51.027  33.228  27.172  1.00  0.00     0.059 A 
ATOM     99  F   UNL A   1      49.672  32.328  28.862  1.00  0.00    -0.206 F 
ATOM    100  C   UNL A   1      51.137  33.905  25.959  1.00  0.00     0.060 A 
BRANCH 100 101
ATOM    101  S   UNL A   1      52.764  34.230  25.243  1.00  0.00     0.124 S 
ATOM    102  O   UNL A   1      52.654  33.561  23.951  1.00  0.00    -0.237 OA
ATOM    103  O   UNL A   1      52.804  35.689  25.201  1.00  0.00    -0.237 OA
ATOM    104  O   UNL A   1      53.682  33.612  26.196  1.00  0.00    -0.744 OA
ENDBRANCH 100 101
ENDBRANCH  68  93
ENDBRANCH  42  43
ENDBRANCH  35  37
ENDBRANCH  34  35
ENDBRANCH  33  34
ENDBRANCH  32  33
ENDBRANCH  31  32
ENDBRANCH  30  31
ENDBRANCH   1  30
TORSDOF 26
ENDMDL
MODEL 3
REMARK VINA RESULT:      -8.7      6.343     11.432
REMARK SMILES COc1cc(/C=N/NC(=O)c2cccnc2)ccc1OCC(=O)OCCOCCOCCOC(=O)c1ccc(-c2c3nc(c(-c4c(F)cc(S(=O)(=O)[O-])cc4F)c4ccc([nH]4)c(-c4c(F)cc(S(=O)(=O)[O-])cc4F)c4nc(c(-c5c(F)cc(S(=O)(=O)[O-])cc5F)c5ccc2[nH]5)C=C4)C=C3)cc1
REMARK SMILES IDX 28 1 27 2 26 3 25 4 24 5 22 6 23 7 21 8 20 9 19 10 3 11 4 12
REMARK SMILES IDX 5 13 18 14 17 15 2 16 1 17 6 18 7 19 8 20 9 21 10 23 11 24
REMARK SMILES IDX 12 25 16 26 13 27 15 28 14 29 29 30 30 31 31 32 32 33 33 34
REMARK SMILES IDX 34 35 35 36 36 37 37 38 101 39 38 40 100 41 39 42 40 43
REMARK SMILES IDX 41 44 94 45 42 46 99 47 93 48 95 49 43 50 98 51 92 52 91 53
REMARK SMILES IDX 44 55 78 56 57 57 77 58 58 59 61 60 76 61 96 62 59 63 60 64
REMARK SMILES IDX 75 66 97 67 62 68 45 69 46 70 55 71 47 72 48 73 54 74 56 75
REMARK SMILES IDX 49 76 50 77 51 78 52 79 53 80 79 81 80 82 89 83 81 84 82 85
REMARK SMILES IDX 88 86 90 87 83 88 84 89 85 90 86 91 87 92 63 93 64 94 73 95
REMARK SMILES IDX 65 96 66 97 72 98 74 99 67 100 68 101 69 102 70 103 71 104
REMARK H PARENT 8 22 95 54 61 65
REMARK Flexibility Score: inf
ROOT
ATOM      1  C   UNL A   1      34.988  27.476  26.425  1.00  0.00     0.188 C 
ENDROOT
BRANCH   1   2
ATOM      2  O   UNL A   1      34.041  26.677  25.726  1.00  0.00    -0.376 OA
BRANCH   2   3
ATOM      3  C   UNL A   1      34.155  25.267  25.872  1.00  0.00     0.202 C 
BRANCH   3   4
ATOM      4  C   UNL A   1      35.572  24.726  25.693  1.00  0.00     0.261 C 
BRANCH   4   5
ATOM      5  O   UNL A   1      35.692  23.348  26.114  1.00  0.00    -0.461 OA
BRANCH   5   6
ATOM      6  C   UNL A   1      36.799  22.675  25.685  1.00  0.00     0.344 C 
ATOM      7  O   UNL A   1      37.946  22.937  26.027  1.00  0.00    -0.248 OA
BRANCH   6   8
ATOM      8  C   UNL A   1      36.465  21.633  24.613  1.00  0.00     0.352 C 
BRANCH   8   9
ATOM      9  O   UNL A   1      35.153  21.117  24.511  1.00  0.00    -0.478 OA
BRANCH   9  10
ATOM     10  C   UNL A   1      34.116  21.882  24.056  1.00  0.00     0.162 A 
ATOM     11  C   UNL A   1      32.783  21.921  24.488  1.00  0.00     0.161 A 
ATOM     12  C   UNL A   1      31.887  22.851  23.924  1.00  0.00     0.060 A 
ATOM     13  C   UNL A   1      32.345  23.783  22.985  1.00  0.00    -0.002 A 
ATOM     14  C   UNL A   1      34.516  22.741  23.022  1.00  0.00     0.051 A 
ATOM     15  C   UNL A   1      33.649  23.698  22.501  1.00  0.00     0.014 A 
BRANCH  11  16
ATOM     16  O   UNL A   1      32.344  20.992  25.388  1.00  0.00    -0.493 OA
ATOM     17  C   UNL A   1      32.325  19.649  24.905  1.00  0.00     0.278 C 
ENDBRANCH  11  16
BRANCH  13  18
ATOM     18  C   UNL A   1      31.564  24.966  22.567  1.00  0.00     0.141 C 
ATOM     19  N   UNL A   1      32.079  26.131  22.332  1.00  0.00    -0.180 NA
BRANCH  19  20
ATOM     20  N   UNL A   1      31.215  27.104  21.884  1.00  0.00    -0.243 N 
ATOM     21  C   UNL A   1      30.492  28.061  22.575  1.00  0.00     0.272 C 
ATOM     22  H   UNL A   1      31.091  27.124  20.908  1.00  0.00     0.194 HD
ATOM     23  O   UNL A   1      29.623  28.720  22.011  1.00  0.00    -0.267 OA
BRANCH  21  24
ATOM     24  C   UNL A   1      30.744  28.299  24.004  1.00  0.00     0.059 A 
ATOM     25  C   UNL A   1      31.218  29.512  24.500  1.00  0.00     0.017 A 
ATOM     26  C   UNL A   1      30.547  27.249  24.892  1.00  0.00     0.124 A 
ATOM     27  C   UNL A   1      31.544  29.608  25.850  1.00  0.00     0.021 A 
ATOM     28  N   UNL A   1      30.866  27.313  26.208  1.00  0.00    -0.264 NA
ATOM     29  C   UNL A   1      31.358  28.491  26.652  1.00  0.00     0.111 A 
ENDBRANCH  21  24
ENDBRANCH  19  20
ENDBRANCH  13  18
ENDBRANCH   9  10
ENDBRANCH   8   9
ENDBRANCH   6   8
ENDBRANCH   5   6
ENDBRANCH   4   5
ENDBRANCH   3   4
ENDBRANCH   2   3
ENDBRANCH   1   2
BRANCH   1  30
ATOM     30  C   UNL A   1      34.644  28.963  26.596  1.00  0.00     0.188 C 
BRANCH  30  31
ATOM     31  O   UNL A   1      35.047  29.594  27.808  1.00  0.00    -0.376 OA
BRANCH  31  32
ATOM     32  C   UNL A   1      35.047  31.019  27.813  1.00  0.00     0.202 C 
BRANCH  32  33
ATOM     33  C   UNL A   1      35.309  31.621  29.189  1.00  0.00     0.261 C 
BRANCH  33  34
ATOM     34  O   UNL A   1      36.702  31.952  29.333  1.00  0.00    -0.460 OA
BRANCH  34  35
ATOM     35  C   UNL A   1      37.281  31.340  30.393  1.00  0.00     0.338 C 
ATOM     36  O   UNL A   1      36.860  31.351  31.537  1.00  0.00    -0.246 OA
BRANCH  35  37
ATOM     37  C   UNL A   1      38.523  30.637  29.996  1.00  0.00     0.060 A 
ATOM     38  C   UNL A   1      39.645  30.594  30.827  1.00  0.00     0.016 A 
ATOM     39  C   UNL A   1      38.612  30.155  28.691  1.00  0.00     0.016 A 
ATOM     40  C   UNL A   1      40.882  30.181  30.310  1.00  0.00     0.010 A 
ATOM     41  C   UNL A   1      39.832  29.681  28.201  1.00  0.00     0.010 A 
ATOM     42  C   UNL A   1      40.997  29.741  28.984  1.00  0.00    -0.014 A 
BRANCH  42  43
ATOM     43  C   UNL A   1      42.318  29.451  28.348  1.00  0.00     0.031 A 
ATOM     44  C   UNL A   1      42.614  28.048  27.876  1.00  0.00     0.074 A 
ATOM     45  C   UNL A   1      43.268  30.391  28.194  1.00  0.00     0.049 A 
ATOM     46  N   UNL A   1      43.759  27.457  27.657  1.00  0.00    -0.248 NA
ATOM     47  C   UNL A   1      41.447  27.190  27.636  1.00  0.00     0.031 C 
ATOM     48  C   UNL A   1      43.124  31.814  28.492  1.00  0.00     0.029 A 
ATOM     49  N   UNL A   1      44.567  30.271  27.760  1.00  0.00    -0.354 N 
ATOM     50  C   UNL A   1      43.449  26.135  27.343  1.00  0.00     0.074 A 
ATOM     51  C   UNL A   1      42.008  26.017  27.384  1.00  0.00     0.031 C 
ATOM     52  C   UNL A   1      44.287  32.437  28.232  1.00  0.00     0.029 A 
ATOM     53  C   UNL A   1      45.283  31.441  27.844  1.00  0.00     0.049 A 
ATOM     54  H   UNL A   1      44.948  29.428  27.420  1.00  0.00     0.167 HD
ATOM     55  C   UNL A   1      44.290  25.115  27.049  1.00  0.00     0.037 A 
ATOM     56  C   UNL A   1      46.602  31.677  27.698  1.00  0.00     0.037 A 
ATOM     57  C   UNL A   1      45.715  25.266  26.910  1.00  0.00     0.049 A 
ATOM     58  C   UNL A   1      47.537  30.529  27.412  1.00  0.00     0.074 A 
ATOM     59  C   UNL A   1      46.661  24.299  26.618  1.00  0.00     0.029 A 
ATOM     60  N   UNL A   1      46.393  26.470  27.016  1.00  0.00    -0.354 N 
ATOM     61  N   UNL A   1      47.259  29.258  27.249  1.00  0.00    -0.248 NA
ATOM     62  C   UNL A   1      48.969  30.848  27.321  1.00  0.00     0.031 C 
ATOM     63  C   UNL A   1      47.917  24.917  26.568  1.00  0.00     0.029 A 
ATOM     64  C   UNL A   1      47.745  26.273  26.795  1.00  0.00     0.049 A 
ATOM     65  H   UNL A   1      45.975  27.338  27.219  1.00  0.00     0.167 HD
ATOM     66  C   UNL A   1      48.479  28.629  27.023  1.00  0.00     0.074 A 
ATOM     67  C   UNL A   1      49.495  29.660  27.055  1.00  0.00     0.031 C 
ATOM     68  C   UNL A   1      48.739  27.314  26.815  1.00  0.00     0.037 A 
BRANCH  55  69
ATOM     69  C   UNL A   1      43.706  23.739  26.895  1.00  0.00     0.058 A 
ATOM     70  C   UNL A   1      43.392  22.928  27.995  1.00  0.00     0.135 A 
ATOM     71  C   UNL A   1      43.404  23.248  25.613  1.00  0.00     0.135 A 
ATOM     72  F   UNL A   1      43.678  23.339  29.241  1.00  0.00    -0.206 F 
ATOM     73  C   UNL A   1      42.811  21.674  27.830  1.00  0.00     0.059 A 
ATOM     74  C   UNL A   1      42.803  22.007  25.426  1.00  0.00     0.059 A 
ATOM     75  F   UNL A   1      43.686  23.983  24.525  1.00  0.00    -0.206 F 
ATOM     76  C   UNL A   1      42.519  21.223  26.542  1.00  0.00     0.060 A 
BRANCH  76  77
ATOM     77  S   UNL A   1      41.731  19.610  26.343  1.00  0.00     0.124 S 
ATOM     78  O   UNL A   1      42.406  19.100  25.153  1.00  0.00    -0.237 OA
ATOM     79  O   UNL A   1      42.067  18.940  27.595  1.00  0.00    -0.237 OA
ATOM     80  O   UNL A   1      40.320  19.939  26.171  1.00  0.00    -0.744 OA
ENDBRANCH  76  77
ENDBRANCH  55  69
BRANCH  56  81
ATOM     81  C   UNL A   1      47.136  33.051  27.894  1.00  0.00     0.058 A 
ATOM     82  C   UNL A   1      47.089  33.999  26.862  1.00  0.00     0.135 A 
ATOM     83  C   UNL A   1      47.701  33.443  29.118  1.00  0.00     0.135 A 
ATOM     84  F   UNL A   1      46.572  33.665  25.670  1.00  0.00    -0.206 F 
ATOM     85  C   UNL A   1      47.591  35.284  27.032  1.00  0.00     0.059 A 
ATOM     86  C   UNL A   1      48.184  34.730  29.321  1.00  0.00     0.059 A 
ATOM     87  F   UNL A   1      47.762  32.575  30.140  1.00  0.00    -0.206 F 
ATOM     88  C   UNL A   1      48.135  35.641  28.267  1.00  0.00     0.060 A 
BRANCH  88  89
ATOM     89  S   UNL A   1      48.733  37.329  28.504  1.00  0.00     0.124 S 
ATOM     90  O   UNL A   1      47.499  38.033  28.829  1.00  0.00    -0.237 OA
ATOM     91  O   UNL A   1      49.686  37.170  29.598  1.00  0.00    -0.237 OA
ATOM     92  O   UNL A   1      49.327  37.654  27.210  1.00  0.00    -0.744 OA
ENDBRANCH  88  89
ENDBRANCH  56  81
BRANCH  68  93
ATOM     93  C   UNL A   1      50.166  26.920  26.565  1.00  0.00     0.058 A 
ATOM     94  C   UNL A   1      51.018  26.539  27.612  1.00  0.00     0.135 A 
ATOM     95  C   UNL A   1      50.672  26.879  25.257  1.00  0.00     0.135 A 
ATOM     96  F   UNL A   1      50.582  26.566  28.881  1.00  0.00    -0.206 F 
ATOM     97  C   UNL A   1      52.332  26.149  27.372  1.00  0.00     0.059 A 
ATOM     98  C   UNL A   1      51.976  26.473  24.991  1.00  0.00     0.059 A 
ATOM     99  F   UNL A   1      49.893  27.225  24.219  1.00  0.00    -0.206 F 
ATOM    100  C   UNL A   1      52.803  26.122  26.058  1.00  0.00     0.060 A 
BRANCH 100 101
ATOM    101  S   UNL A   1      54.502  25.591  25.754  1.00  0.00     0.124 S 
ATOM    102  O   UNL A   1      54.406  24.154  25.985  1.00  0.00    -0.237 OA
ATOM    103  O   UNL A   1      54.716  25.997  24.368  1.00  0.00    -0.237 OA
ATOM    104  O   UNL A   1      55.272  26.337  26.744  1.00  0.00    -0.744 OA
ENDBRANCH 100 101
ENDBRANCH  68  93
ENDBRANCH  42  43
ENDBRANCH  35  37
ENDBRANCH  34  35
ENDBRANCH  33  34
ENDBRANCH  32  33
ENDBRANCH  31  32
ENDBRANCH  30  31
ENDBRANCH   1  30
TORSDOF 26
ENDMDL
