MODEL 1
REMARK VINA RESULT:     -11.0      0.000      0.000
REMARK SMILES CSCC[C@H](NC(=O)Nc1cccc(-c2nc3ccccc3o2)c1)C(=O)OCCOCCOCCOC(=O)c1ccc(-c2c3nc(c(-c4c(F)cc(S(=O)(=O)[O-])cc4F)c4ccc([nH]4)c(-c4c(F)cc(S(=O)(=O)[O-])cc4F)c4nc(c(-c5c(F)cc(S(=O)(=O)[O-])cc5F)c5ccc2[nH]5)C=C4)C=C3)cc1
REMARK SMILES IDX 31 1 30 2 29 3 28 4 27 5 25 6 26 7 5 8 4 9 3 10 2 11 1 12
REMARK SMILES IDX 6 13 7 14 8 16 9 17 10 19 11 20 24 21 12 22 14 23 13 24
REMARK SMILES IDX 15 25 16 26 23 27 17 28 22 29 18 30 21 31 19 32 20 33 32 34
REMARK SMILES IDX 33 35 34 36 35 37 36 38 37 39 38 40 39 41 40 42 104 43 41 44
REMARK SMILES IDX 103 45 42 46 43 47 44 48 97 49 45 50 102 51 96 52 98 53
REMARK SMILES IDX 46 54 101 55 95 56 94 57 47 59 81 60 60 61 80 62 61 63 64 64
REMARK SMILES IDX 79 65 99 66 62 67 63 68 78 70 100 71 65 72 48 73 49 74 58 75
REMARK SMILES IDX 50 76 51 77 57 78 59 79 52 80 53 81 54 82 55 83 56 84 82 85
REMARK SMILES IDX 83 86 92 87 84 88 85 89 91 90 93 91 86 92 87 93 88 94 89 95
REMARK SMILES IDX 90 96 66 97 67 98 76 99 68 100 69 101 75 102 77 103 70 104
REMARK SMILES IDX 71 105 72 106 73 107 74 108
REMARK H PARENT 6 15 9 18 98 58 64 69
REMARK Flexibility Score: inf
ROOT
ATOM      1  C   UNL A   1      38.658  23.487  26.627  1.00  0.00     0.188 C 
ENDROOT
BRANCH   1   2
ATOM      2  O   UNL A   1      37.273  23.611  26.332  1.00  0.00    -0.376 OA
BRANCH   2   3
ATOM      3  C   UNL A   1      36.925  23.356  24.974  1.00  0.00     0.202 C 
BRANCH   3   4
ATOM      4  C   UNL A   1      35.545  23.904  24.584  1.00  0.00     0.261 C 
BRANCH   4   5
ATOM      5  O   UNL A   1      35.054  24.914  25.487  1.00  0.00    -0.462 OA
BRANCH   5   6
ATOM      6  C   UNL A   1      33.830  24.658  26.014  1.00  0.00     0.328 C 
ATOM      7  O   UNL A   1      33.573  23.627  26.627  1.00  0.00    -0.250 OA
BRANCH   6   8
ATOM      8  C   UNL A   1      32.832  25.821  25.819  1.00  0.00     0.194 C 
BRANCH   8   9
ATOM      9  C   UNL A   1      33.441  27.137  26.313  1.00  0.00     0.048 C 
BRANCH   9  10
ATOM     10  C   UNL A   1      32.607  27.968  27.296  1.00  0.00     0.072 C 
BRANCH  10  11
ATOM     11  S   UNL A   1      32.086  29.608  26.696  1.00  0.00    -0.165 SA
ATOM     12  C   UNL A   1      33.502  30.636  27.180  1.00  0.00     0.085 C 
ENDBRANCH  10  11
ENDBRANCH   9  10
ENDBRANCH   8   9
BRANCH   8  13
ATOM     13  N   UNL A   1      31.521  25.580  26.462  1.00  0.00    -0.324 N 
ATOM     14  C   UNL A   1      30.305  25.258  25.955  1.00  0.00     0.319 C 
ATOM     15  H   UNL A   1      31.534  25.669  27.443  1.00  0.00     0.166 HD
ATOM     16  O   UNL A   1      29.309  25.455  26.651  1.00  0.00    -0.248 OA
ATOM     17  N   UNL A   1      30.156  24.857  24.667  1.00  0.00    -0.308 N 
ATOM     18  H   UNL A   1      29.334  25.169  24.225  1.00  0.00     0.171 HD
BRANCH  17  19
ATOM     19  C   UNL A   1      30.998  24.067  23.875  1.00  0.00     0.043 A 
ATOM     20  C   UNL A   1      31.752  24.675  22.874  1.00  0.00     0.026 A 
ATOM     21  C   UNL A   1      31.111  22.695  24.084  1.00  0.00     0.040 A 
ATOM     22  C   UNL A   1      32.719  23.933  22.190  1.00  0.00     0.003 A 
ATOM     23  C   UNL A   1      32.109  21.948  23.441  1.00  0.00     0.039 A 
ATOM     24  C   UNL A   1      32.918  22.581  22.493  1.00  0.00     0.014 A 
BRANCH  23  25
ATOM     25  C   UNL A   1      32.300  20.571  23.872  1.00  0.00     0.227 A 
ATOM     26  N   UNL A   1      32.269  20.102  25.106  1.00  0.00    -0.209 NA
ATOM     27  O   UNL A   1      32.734  19.671  22.928  1.00  0.00    -0.436 OA
ATOM     28  C   UNL A   1      32.622  18.788  24.963  1.00  0.00     0.110 A 
ATOM     29  C   UNL A   1      32.942  18.525  23.643  1.00  0.00     0.155 A 
ATOM     30  C   UNL A   1      32.700  17.757  25.905  1.00  0.00     0.032 A 
ATOM     31  C   UNL A   1      33.396  17.297  23.180  1.00  0.00     0.049 A 
ATOM     32  C   UNL A   1      33.128  16.497  25.477  1.00  0.00     0.003 A 
ATOM     33  C   UNL A   1      33.483  16.278  24.141  1.00  0.00     0.004 A 
ENDBRANCH  23  25
ENDBRANCH  17  19
ENDBRANCH   8  13
ENDBRANCH   6   8
ENDBRANCH   5   6
ENDBRANCH   4   5
ENDBRANCH   3   4
ENDBRANCH   2   3
ENDBRANCH   1   2
BRANCH   1  34
ATOM     34  C   UNL A   1      39.308  22.144  26.265  1.00  0.00     0.188 C 
BRANCH  34  35
ATOM     35  O   UNL A   1      40.638  21.836  26.653  1.00  0.00    -0.376 OA
BRANCH  35  36
ATOM     36  C   UNL A   1      41.719  22.256  25.836  1.00  0.00     0.202 C 
BRANCH  36  37
ATOM     37  C   UNL A   1      42.350  23.643  26.025  1.00  0.00     0.261 C 
BRANCH  37  38
ATOM     38  O   UNL A   1      41.444  24.752  26.015  1.00  0.00    -0.460 OA
BRANCH  38  39
ATOM     39  C   UNL A   1      42.044  25.966  25.929  1.00  0.00     0.338 C 
ATOM     40  O   UNL A   1      42.456  26.516  24.924  1.00  0.00    -0.246 OA
BRANCH  39  41
ATOM     41  C   UNL A   1      41.998  26.619  27.252  1.00  0.00     0.060 A 
ATOM     42  C   UNL A   1      40.950  26.285  28.120  1.00  0.00     0.016 A 
ATOM     43  C   UNL A   1      42.941  27.583  27.615  1.00  0.00     0.016 A 
ATOM     44  C   UNL A   1      40.823  26.935  29.347  1.00  0.00     0.010 A 
ATOM     45  C   UNL A   1      42.801  28.249  28.837  1.00  0.00     0.010 A 
ATOM     46  C   UNL A   1      41.720  27.953  29.693  1.00  0.00    -0.014 A 
BRANCH  46  47
ATOM     47  C   UNL A   1      41.380  28.879  30.803  1.00  0.00     0.031 A 
ATOM     48  C   UNL A   1      42.183  28.771  32.069  1.00  0.00     0.074 A 
ATOM     49  C   UNL A   1      40.413  29.808  30.695  1.00  0.00     0.049 A 
ATOM     50  N   UNL A   1      42.066  29.437  33.185  1.00  0.00    -0.248 NA
ATOM     51  C   UNL A   1      43.262  27.766  32.075  1.00  0.00     0.031 C 
ATOM     52  C   UNL A   1      39.599  30.038  29.510  1.00  0.00     0.029 A 
ATOM     53  N   UNL A   1      39.942  30.727  31.600  1.00  0.00    -0.354 N 
ATOM     54  C   UNL A   1      43.052  28.937  34.024  1.00  0.00     0.074 A 
ATOM     55  C   UNL A   1      43.724  27.874  33.309  1.00  0.00     0.031 C 
ATOM     56  C   UNL A   1      38.700  31.005  29.762  1.00  0.00     0.029 A 
ATOM     57  C   UNL A   1      38.880  31.468  31.135  1.00  0.00     0.049 A 
ATOM     58  H   UNL A   1      40.328  30.844  32.498  1.00  0.00     0.167 HD
ATOM     59  C   UNL A   1      43.389  29.344  35.269  1.00  0.00     0.037 A 
ATOM     60  C   UNL A   1      38.138  32.410  31.750  1.00  0.00     0.037 A 
ATOM     61  C   UNL A   1      42.730  30.411  35.970  1.00  0.00     0.049 A 
ATOM     62  C   UNL A   1      38.509  32.824  33.151  1.00  0.00     0.074 A 
ATOM     63  C   UNL A   1      42.995  30.907  37.233  1.00  0.00     0.029 A 
ATOM     64  N   UNL A   1      41.671  31.150  35.462  1.00  0.00    -0.354 N 
ATOM     65  N   UNL A   1      39.463  32.358  33.923  1.00  0.00    -0.248 NA
ATOM     66  C   UNL A   1      37.726  33.910  33.753  1.00  0.00     0.031 C 
ATOM     67  C   UNL A   1      42.080  31.931  37.500  1.00  0.00     0.029 A 
ATOM     68  C   UNL A   1      41.270  32.097  36.386  1.00  0.00     0.049 A 
ATOM     69  H   UNL A   1      41.266  31.019  34.574  1.00  0.00     0.167 HD
ATOM     70  C   UNL A   1      39.426  33.127  35.080  1.00  0.00     0.074 A 
ATOM     71  C   UNL A   1      38.353  34.086  34.908  1.00  0.00     0.031 C 
ATOM     72  C   UNL A   1      40.215  33.058  36.181  1.00  0.00     0.037 A 
BRANCH  59  73
ATOM     73  C   UNL A   1      44.519  28.616  35.937  1.00  0.00     0.058 A 
ATOM     74  C   UNL A   1      44.288  27.508  36.770  1.00  0.00     0.135 A 
ATOM     75  C   UNL A   1      45.843  29.044  35.764  1.00  0.00     0.135 A 
ATOM     76  F   UNL A   1      43.035  27.079  36.991  1.00  0.00    -0.206 F 
ATOM     77  C   UNL A   1      45.329  26.870  37.434  1.00  0.00     0.059 A 
ATOM     78  C   UNL A   1      46.904  28.403  36.398  1.00  0.00     0.059 A 
ATOM     79  F   UNL A   1      46.117  30.104  34.987  1.00  0.00    -0.206 F 
ATOM     80  C   UNL A   1      46.634  27.329  37.245  1.00  0.00     0.060 A 
BRANCH  80  81
ATOM     81  S   UNL A   1      47.976  26.498  38.118  1.00  0.00     0.124 S 
ATOM     82  O   UNL A   1      47.409  26.355  39.455  1.00  0.00    -0.237 OA
ATOM     83  O   UNL A   1      48.128  25.261  37.359  1.00  0.00    -0.237 OA
ATOM     84  O   UNL A   1      49.087  27.438  38.005  1.00  0.00    -0.744 OA
ENDBRANCH  80  81
ENDBRANCH  59  73
BRANCH  60  85
ATOM     85  C   UNL A   1      36.991  33.047  31.050  1.00  0.00     0.058 A 
ATOM     86  C   UNL A   1      35.667  32.704  31.358  1.00  0.00     0.135 A 
ATOM     87  C   UNL A   1      37.199  33.995  30.034  1.00  0.00     0.135 A 
ATOM     88  F   UNL A   1      35.415  31.799  32.317  1.00  0.00    -0.206 F 
ATOM     89  C   UNL A   1      34.589  33.250  30.667  1.00  0.00     0.059 A 
ATOM     90  C   UNL A   1      36.136  34.572  29.343  1.00  0.00     0.059 A 
ATOM     91  F   UNL A   1      38.444  34.369  29.708  1.00  0.00    -0.206 F 
ATOM     92  C   UNL A   1      34.835  34.182  29.656  1.00  0.00     0.060 A 
BRANCH  92  93
ATOM     93  S   UNL A   1      33.430  34.901  28.778  1.00  0.00     0.124 S 
ATOM     94  O   UNL A   1      33.141  33.868  27.789  1.00  0.00    -0.237 OA
ATOM     95  O   UNL A   1      32.447  35.056  29.846  1.00  0.00    -0.237 OA
ATOM     96  O   UNL A   1      33.970  36.150  28.249  1.00  0.00    -0.744 OA
ENDBRANCH  92  93
ENDBRANCH  60  85
BRANCH  72  97
ATOM     97  C   UNL A   1      39.993  34.087  37.252  1.00  0.00     0.058 A 
ATOM     98  C   UNL A   1      40.634  35.334  37.228  1.00  0.00     0.135 A 
ATOM     99  C   UNL A   1      39.100  33.826  38.303  1.00  0.00     0.135 A 
ATOM    100  F   UNL A   1      41.500  35.632  36.245  1.00  0.00    -0.206 F 
ATOM    101  C   UNL A   1      40.424  36.276  38.230  1.00  0.00     0.059 A 
ATOM    102  C   UNL A   1      38.855  34.762  39.301  1.00  0.00     0.059 A 
ATOM    103  F   UNL A   1      38.452  32.652  38.363  1.00  0.00    -0.206 F 
ATOM    104  C   UNL A   1      39.535  35.977  39.265  1.00  0.00     0.060 A 
BRANCH 104 105
ATOM    105  S   UNL A   1      39.260  37.207  40.559  1.00  0.00     0.124 S 
ATOM    106  O   UNL A   1      40.594  37.779  40.707  1.00  0.00    -0.237 OA
ATOM    107  O   UNL A   1      38.260  38.082  39.953  1.00  0.00    -0.237 OA
ATOM    108  O   UNL A   1      38.786  36.411  41.687  1.00  0.00    -0.744 OA
ENDBRANCH 104 105
ENDBRANCH  72  97
ENDBRANCH  46  47
ENDBRANCH  39  41
ENDBRANCH  38  39
ENDBRANCH  37  38
ENDBRANCH  36  37
ENDBRANCH  35  36
ENDBRANCH  34  35
ENDBRANCH   1  34
TORSDOF 26
ENDMDL
MODEL 2
REMARK VINA RESULT:     -10.3      6.015     10.454
REMARK SMILES CSCC[C@H](NC(=O)Nc1cccc(-c2nc3ccccc3o2)c1)C(=O)OCCOCCOCCOC(=O)c1ccc(-c2c3nc(c(-c4c(F)cc(S(=O)(=O)[O-])cc4F)c4ccc([nH]4)c(-c4c(F)cc(S(=O)(=O)[O-])cc4F)c4nc(c(-c5c(F)cc(S(=O)(=O)[O-])cc5F)c5ccc2[nH]5)C=C4)C=C3)cc1
REMARK SMILES IDX 31 1 30 2 29 3 28 4 27 5 25 6 26 7 5 8 4 9 3 10 2 11 1 12
REMARK SMILES IDX 6 13 7 14 8 16 9 17 10 19 11 20 24 21 12 22 14 23 13 24
REMARK SMILES IDX 15 25 16 26 23 27 17 28 22 29 18 30 21 31 19 32 20 33 32 34
REMARK SMILES IDX 33 35 34 36 35 37 36 38 37 39 38 40 39 41 40 42 104 43 41 44
REMARK SMILES IDX 103 45 42 46 43 47 44 48 97 49 45 50 102 51 96 52 98 53
REMARK SMILES IDX 46 54 101 55 95 56 94 57 47 59 81 60 60 61 80 62 61 63 64 64
REMARK SMILES IDX 79 65 99 66 62 67 63 68 78 70 100 71 65 72 48 73 49 74 58 75
REMARK SMILES IDX 50 76 51 77 57 78 59 79 52 80 53 81 54 82 55 83 56 84 82 85
REMARK SMILES IDX 83 86 92 87 84 88 85 89 91 90 93 91 86 92 87 93 88 94 89 95
REMARK SMILES IDX 90 96 66 97 67 98 76 99 68 100 69 101 75 102 77 103 70 104
REMARK SMILES IDX 71 105 72 106 73 107 74 108
REMARK H PARENT 6 15 9 18 98 58 64 69
REMARK Flexibility Score: inf
ROOT
ATOM      1  C   UNL A   1      36.637  23.014  23.506  1.00  0.00     0.188 C 
ENDROOT
BRANCH   1   2
ATOM      2  O   UNL A   1      35.578  23.615  22.773  1.00  0.00    -0.376 OA
BRANCH   2   3
ATOM      3  C   UNL A   1      34.326  22.941  22.865  1.00  0.00     0.202 C 
BRANCH   3   4
ATOM      4  C   UNL A   1      33.199  23.634  22.086  1.00  0.00     0.261 C 
BRANCH   4   5
ATOM      5  O   UNL A   1      33.047  25.028  22.418  1.00  0.00    -0.462 OA
BRANCH   5   6
ATOM      6  C   UNL A   1      31.781  25.400  22.738  1.00  0.00     0.328 C 
ATOM      7  O   UNL A   1      30.790  24.827  22.300  1.00  0.00    -0.250 OA
BRANCH   6   8
ATOM      8  C   UNL A   1      31.732  26.563  23.755  1.00  0.00     0.194 C 
BRANCH   8   9
ATOM      9  C   UNL A   1      31.114  27.809  23.112  1.00  0.00     0.048 C 
BRANCH   9  10
ATOM     10  C   UNL A   1      30.888  29.024  24.020  1.00  0.00     0.072 C 
BRANCH  10  11
ATOM     11  S   UNL A   1      29.601  30.190  23.467  1.00  0.00    -0.165 SA
ATOM     12  C   UNL A   1      28.406  29.067  22.687  1.00  0.00     0.085 C 
ENDBRANCH  10  11
ENDBRANCH   9  10
ENDBRANCH   8   9
BRANCH   8  13
ATOM     13  N   UNL A   1      33.052  26.881  24.342  1.00  0.00    -0.324 N 
ATOM     14  C   UNL A   1      33.518  26.822  25.615  1.00  0.00     0.319 C 
ATOM     15  H   UNL A   1      33.718  27.193  23.687  1.00  0.00     0.166 HD
ATOM     16  O   UNL A   1      34.530  27.465  25.898  1.00  0.00    -0.248 OA
ATOM     17  N   UNL A   1      32.828  26.189  26.596  1.00  0.00    -0.308 N 
ATOM     18  H   UNL A   1      32.874  26.615  27.483  1.00  0.00     0.171 HD
BRANCH  17  19
ATOM     19  C   UNL A   1      32.058  25.020  26.536  1.00  0.00     0.043 A 
ATOM     20  C   UNL A   1      30.673  25.116  26.648  1.00  0.00     0.026 A 
ATOM     21  C   UNL A   1      32.649  23.774  26.344  1.00  0.00     0.040 A 
ATOM     22  C   UNL A   1      29.882  23.986  26.421  1.00  0.00     0.003 A 
ATOM     23  C   UNL A   1      31.870  22.642  26.066  1.00  0.00     0.039 A 
ATOM     24  C   UNL A   1      30.477  22.759  26.101  1.00  0.00     0.014 A 
BRANCH  23  25
ATOM     25  C   UNL A   1      32.565  21.428  25.666  1.00  0.00     0.227 A 
ATOM     26  N   UNL A   1      33.869  21.215  25.651  1.00  0.00    -0.209 NA
ATOM     27  O   UNL A   1      31.816  20.441  25.072  1.00  0.00    -0.436 OA
ATOM     28  C   UNL A   1      33.988  19.974  25.088  1.00  0.00     0.110 A 
ATOM     29  C   UNL A   1      32.744  19.509  24.699  1.00  0.00     0.155 A 
ATOM     30  C   UNL A   1      35.116  19.177  24.868  1.00  0.00     0.032 A 
ATOM     31  C   UNL A   1      32.532  18.303  24.044  1.00  0.00     0.049 A 
ATOM     32  C   UNL A   1      34.945  17.943  24.234  1.00  0.00     0.003 A 
ATOM     33  C   UNL A   1      33.676  17.523  23.817  1.00  0.00     0.004 A 
ENDBRANCH  23  25
ENDBRANCH  17  19
ENDBRANCH   8  13
ENDBRANCH   6   8
ENDBRANCH   5   6
ENDBRANCH   4   5
ENDBRANCH   3   4
ENDBRANCH   2   3
ENDBRANCH   1   2
BRANCH   1  34
ATOM     34  C   UNL A   1      36.903  23.592  24.903  1.00  0.00     0.188 C 
BRANCH  34  35
ATOM     35  O   UNL A   1      37.323  22.766  25.979  1.00  0.00    -0.376 OA
BRANCH  35  36
ATOM     36  C   UNL A   1      38.696  22.437  26.111  1.00  0.00     0.202 C 
BRANCH  36  37
ATOM     37  C   UNL A   1      39.190  21.012  25.825  1.00  0.00     0.261 C 
BRANCH  37  38
ATOM     38  O   UNL A   1      40.050  20.435  26.814  1.00  0.00    -0.460 OA
BRANCH  38  39
ATOM     39  C   UNL A   1      41.269  20.061  26.349  1.00  0.00     0.338 C 
ATOM     40  O   UNL A   1      41.552  19.029  25.768  1.00  0.00    -0.246 OA
BRANCH  39  41
ATOM     41  C   UNL A   1      42.213  21.182  26.522  1.00  0.00     0.060 A 
ATOM     42  C   UNL A   1      42.445  21.659  27.819  1.00  0.00     0.016 A 
ATOM     43  C   UNL A   1      42.823  21.789  25.422  1.00  0.00     0.016 A 
ATOM     44  C   UNL A   1      43.268  22.766  28.020  1.00  0.00     0.010 A 
ATOM     45  C   UNL A   1      43.632  22.912  25.624  1.00  0.00     0.010 A 
ATOM     46  C   UNL A   1      43.829  23.428  26.921  1.00  0.00    -0.014 A 
BRANCH  46  47
ATOM     47  C   UNL A   1      44.389  24.792  27.099  1.00  0.00     0.031 A 
ATOM     48  C   UNL A   1      43.438  25.888  27.490  1.00  0.00     0.074 A 
ATOM     49  C   UNL A   1      45.700  25.058  26.950  1.00  0.00     0.049 A 
ATOM     50  N   UNL A   1      43.669  27.159  27.677  1.00  0.00    -0.248 NA
ATOM     51  C   UNL A   1      42.032  25.493  27.691  1.00  0.00     0.031 C 
ATOM     52  C   UNL A   1      46.721  24.075  26.616  1.00  0.00     0.029 A 
ATOM     53  N   UNL A   1      46.396  26.236  27.049  1.00  0.00    -0.354 N 
ATOM     54  C   UNL A   1      42.443  27.716  28.017  1.00  0.00     0.074 A 
ATOM     55  C   UNL A   1      41.460  26.656  27.958  1.00  0.00     0.031 C 
ATOM     56  C   UNL A   1      47.912  24.687  26.498  1.00  0.00     0.029 A 
ATOM     57  C   UNL A   1      47.735  26.114  26.753  1.00  0.00     0.049 A 
ATOM     58  H   UNL A   1      45.977  27.089  27.306  1.00  0.00     0.167 HD
ATOM     59  C   UNL A   1      42.164  28.990  28.375  1.00  0.00     0.037 A 
ATOM     60  C   UNL A   1      48.703  27.049  26.696  1.00  0.00     0.037 A 
ATOM     61  C   UNL A   1      43.145  30.036  28.446  1.00  0.00     0.049 A 
ATOM     62  C   UNL A   1      48.362  28.470  27.064  1.00  0.00     0.074 A 
ATOM     63  C   UNL A   1      42.969  31.361  28.802  1.00  0.00     0.029 A 
ATOM     64  N   UNL A   1      44.492  29.873  28.158  1.00  0.00    -0.354 N 
ATOM     65  N   UNL A   1      47.201  28.975  27.409  1.00  0.00    -0.248 NA
ATOM     66  C   UNL A   1      49.465  29.440  27.065  1.00  0.00     0.031 C 
ATOM     67  C   UNL A   1      44.207  32.006  28.705  1.00  0.00     0.029 A 
ATOM     68  C   UNL A   1      45.160  31.072  28.326  1.00  0.00     0.049 A 
ATOM     69  H   UNL A   1      44.911  29.027  27.876  1.00  0.00     0.167 HD
ATOM     70  C   UNL A   1      47.444  30.310  27.716  1.00  0.00     0.074 A 
ATOM     71  C   UNL A   1      48.861  30.532  27.513  1.00  0.00     0.031 C 
ATOM     72  C   UNL A   1      46.577  31.262  28.142  1.00  0.00     0.037 A 
BRANCH  59  73
ATOM     73  C   UNL A   1      40.733  29.302  28.704  1.00  0.00     0.058 A 
ATOM     74  C   UNL A   1      40.295  29.422  30.034  1.00  0.00     0.135 A 
ATOM     75  C   UNL A   1      39.785  29.461  27.683  1.00  0.00     0.135 A 
ATOM     76  F   UNL A   1      41.159  29.250  31.048  1.00  0.00    -0.206 F 
ATOM     77  C   UNL A   1      38.959  29.655  30.340  1.00  0.00     0.059 A 
ATOM     78  C   UNL A   1      38.447  29.720  27.966  1.00  0.00     0.059 A 
ATOM     79  F   UNL A   1      40.150  29.346  26.396  1.00  0.00    -0.206 F 
ATOM     80  C   UNL A   1      38.042  29.798  29.297  1.00  0.00     0.060 A 
BRANCH  80  81
ATOM     81  S   UNL A   1      36.309  30.092  29.706  1.00  0.00     0.124 S 
ATOM     82  O   UNL A   1      36.189  29.393  30.982  1.00  0.00    -0.237 OA
ATOM     83  O   UNL A   1      36.244  31.549  29.773  1.00  0.00    -0.237 OA
ATOM     84  O   UNL A   1      35.591  29.487  28.589  1.00  0.00    -0.744 OA
ENDBRANCH  80  81
ENDBRANCH  59  73
BRANCH  60  85
ATOM     85  C   UNL A   1      50.089  26.680  26.300  1.00  0.00     0.058 A 
ATOM     86  C   UNL A   1      51.050  26.325  27.258  1.00  0.00     0.135 A 
ATOM     87  C   UNL A   1      50.488  26.702  24.954  1.00  0.00     0.135 A 
ATOM     88  F   UNL A   1      50.721  26.295  28.558  1.00  0.00    -0.206 F 
ATOM     89  C   UNL A   1      52.365  26.036  26.903  1.00  0.00     0.059 A 
ATOM     90  C   UNL A   1      51.792  26.395  24.571  1.00  0.00     0.059 A 
ATOM     91  F   UNL A   1      49.606  27.022  23.996  1.00  0.00    -0.206 F 
ATOM     92  C   UNL A   1      52.728  26.078  25.555  1.00  0.00     0.060 A 
BRANCH  92  93
ATOM     93  S   UNL A   1      54.430  25.682  25.101  1.00  0.00     0.124 S 
ATOM     94  O   UNL A   1      54.398  24.225  25.078  1.00  0.00    -0.237 OA
ATOM     95  O   UNL A   1      54.563  26.340  23.806  1.00  0.00    -0.237 OA
ATOM     96  O   UNL A   1      55.212  26.280  26.181  1.00  0.00    -0.744 OA
ENDBRANCH  92  93
ENDBRANCH  60  85
BRANCH  72  97
ATOM     97  C   UNL A   1      47.148  32.610  28.480  1.00  0.00     0.058 A 
ATOM     98  C   UNL A   1      47.253  33.633  27.527  1.00  0.00     0.135 A 
ATOM     99  C   UNL A   1      47.570  32.884  29.790  1.00  0.00     0.135 A 
ATOM    100  F   UNL A   1      46.866  33.419  26.259  1.00  0.00    -0.206 F 
ATOM    101  C   UNL A   1      47.790  34.874  27.852  1.00  0.00     0.059 A 
ATOM    102  C   UNL A   1      48.087  34.126  30.145  1.00  0.00     0.059 A 
ATOM    103  F   UNL A   1      47.478  31.942  30.742  1.00  0.00    -0.206 F 
ATOM    104  C   UNL A   1      48.209  35.108  29.164  1.00  0.00     0.060 A 
BRANCH 104 105
ATOM    105  S   UNL A   1      48.897  36.724  29.583  1.00  0.00     0.124 S 
ATOM    106  O   UNL A   1      47.903  37.623  29.008  1.00  0.00    -0.237 OA
ATOM    107  O   UNL A   1      48.942  36.679  31.042  1.00  0.00    -0.237 OA
ATOM    108  O   UNL A   1      50.199  36.718  28.923  1.00  0.00    -0.744 OA
ENDBRANCH 104 105
ENDBRANCH  72  97
ENDBRANCH  46  47
ENDBRANCH  39  41
ENDBRANCH  38  39
ENDBRANCH  37  38
ENDBRANCH  36  37
ENDBRANCH  35  36
ENDBRANCH  34  35
ENDBRANCH   1  34
TORSDOF 26
ENDMDL
MODEL 3
REMARK VINA RESULT:      -9.8      6.109      9.388
REMARK SMILES CSCC[C@H](NC(=O)Nc1cccc(-c2nc3ccccc3o2)c1)C(=O)OCCOCCOCCOC(=O)c1ccc(-c2c3nc(c(-c4c(F)cc(S(=O)(=O)[O-])cc4F)c4ccc([nH]4)c(-c4c(F)cc(S(=O)(=O)[O-])cc4F)c4nc(c(-c5c(F)cc(S(=O)(=O)[O-])cc5F)c5ccc2[nH]5)C=C4)C=C3)cc1
REMARK SMILES IDX 31 1 30 2 29 3 28 4 27 5 25 6 26 7 5 8 4 9 3 10 2 11 1 12
REMARK SMILES IDX 6 13 7 14 8 16 9 17 10 19 11 20 24 21 12 22 14 23 13 24
REMARK SMILES IDX 15 25 16 26 23 27 17 28 22 29 18 30 21 31 19 32 20 33 32 34
REMARK SMILES IDX 33 35 34 36 35 37 36 38 37 39 38 40 39 41 40 42 104 43 41 44
REMARK SMILES IDX 103 45 42 46 43 47 44 48 97 49 45 50 102 51 96 52 98 53
REMARK SMILES IDX 46 54 101 55 95 56 94 57 47 59 81 60 60 61 80 62 61 63 64 64
REMARK SMILES IDX 79 65 99 66 62 67 63 68 78 70 100 71 65 72 48 73 49 74 58 75
REMARK SMILES IDX 50 76 51 77 57 78 59 79 52 80 53 81 54 82 55 83 56 84 82 85
REMARK SMILES IDX 83 86 92 87 84 88 85 89 91 90 93 91 86 92 87 93 88 94 89 95
REMARK SMILES IDX 90 96 66 97 67 98 76 99 68 100 69 101 75 102 77 103 70 104
REMARK SMILES IDX 71 105 72 106 73 107 74 108
REMARK H PARENT 6 15 9 18 98 58 64 69
REMARK Flexibility Score: inf
ROOT
ATOM      1  C   UNL A   1      37.322  22.545  24.746  1.00  0.00     0.188 C 
ENDROOT
BRANCH   1   2
ATOM      2  O   UNL A   1      35.976  22.604  25.201  1.00  0.00    -0.376 OA
BRANCH   2   3
ATOM      3  C   UNL A   1      35.739  21.969  26.454  1.00  0.00     0.202 C 
BRANCH   3   4
ATOM      4  C   UNL A   1      34.629  22.638  27.278  1.00  0.00     0.261 C 
BRANCH   4   5
ATOM      5  O   UNL A   1      33.779  23.502  26.497  1.00  0.00    -0.462 OA
BRANCH   5   6
ATOM      6  C   UNL A   1      32.509  23.052  26.336  1.00  0.00     0.328 C 
ATOM      7  O   UNL A   1      31.670  23.097  27.228  1.00  0.00    -0.250 OA
BRANCH   6   8
ATOM      8  C   UNL A   1      32.223  22.550  24.902  1.00  0.00     0.194 C 
BRANCH   8   9
ATOM      9  C   UNL A   1      31.910  21.050  24.913  1.00  0.00     0.048 C 
BRANCH   9  10
ATOM     10  C   UNL A   1      32.940  20.127  25.574  1.00  0.00     0.072 C 
BRANCH  10  11
ATOM     11  S   UNL A   1      33.194  18.518  24.757  1.00  0.00    -0.165 SA
ATOM     12  C   UNL A   1      32.263  18.745  23.215  1.00  0.00     0.085 C 
ENDBRANCH  10  11
ENDBRANCH   9  10
ENDBRANCH   8   9
BRANCH   8  13
ATOM     13  N   UNL A   1      33.317  22.847  23.951  1.00  0.00    -0.324 N 
ATOM     14  C   UNL A   1      33.416  23.731  22.927  1.00  0.00     0.319 C 
ATOM     15  H   UNL A   1      34.125  22.301  24.087  1.00  0.00     0.166 HD
ATOM     16  O   UNL A   1      34.285  23.545  22.075  1.00  0.00    -0.248 OA
ATOM     17  N   UNL A   1      32.506  24.722  22.754  1.00  0.00    -0.308 N 
ATOM     18  H   UNL A   1      32.290  24.933  21.816  1.00  0.00     0.171 HD
BRANCH  17  19
ATOM     19  C   UNL A   1      31.828  25.489  23.709  1.00  0.00     0.043 A 
ATOM     20  C   UNL A   1      30.536  25.123  24.078  1.00  0.00     0.026 A 
ATOM     21  C   UNL A   1      32.429  26.593  24.310  1.00  0.00     0.040 A 
ATOM     22  C   UNL A   1      29.912  25.772  25.147  1.00  0.00     0.003 A 
ATOM     23  C   UNL A   1      31.838  27.222  25.415  1.00  0.00     0.039 A 
ATOM     24  C   UNL A   1      30.572  26.799  25.833  1.00  0.00     0.014 A 
BRANCH  23  25
ATOM     25  C   UNL A   1      32.624  28.225  26.118  1.00  0.00     0.227 A 
ATOM     26  N   UNL A   1      32.332  29.502  26.289  1.00  0.00    -0.209 NA
ATOM     27  O   UNL A   1      33.892  27.870  26.508  1.00  0.00    -0.436 OA
ATOM     28  C   UNL A   1      33.443  30.009  26.906  1.00  0.00     0.110 A 
ATOM     29  C   UNL A   1      34.414  29.029  27.011  1.00  0.00     0.155 A 
ATOM     30  C   UNL A   1      33.705  31.290  27.401  1.00  0.00     0.032 A 
ATOM     31  C   UNL A   1      35.681  29.241  27.539  1.00  0.00     0.049 A 
ATOM     32  C   UNL A   1      34.960  31.540  27.964  1.00  0.00     0.003 A 
ATOM     33  C   UNL A   1      35.933  30.536  28.017  1.00  0.00     0.004 A 
ENDBRANCH  23  25
ENDBRANCH  17  19
ENDBRANCH   8  13
ENDBRANCH   6   8
ENDBRANCH   5   6
ENDBRANCH   4   5
ENDBRANCH   3   4
ENDBRANCH   2   3
ENDBRANCH   1   2
BRANCH   1  34
ATOM     34  C   UNL A   1      38.380  22.224  25.812  1.00  0.00     0.188 C 
BRANCH  34  35
ATOM     35  O   UNL A   1      39.019  20.958  25.863  1.00  0.00    -0.376 OA
BRANCH  35  36
ATOM     36  C   UNL A   1      40.352  20.868  26.338  1.00  0.00     0.202 C 
BRANCH  36  37
ATOM     37  C   UNL A   1      41.165  19.579  26.149  1.00  0.00     0.261 C 
BRANCH  37  38
ATOM     38  O   UNL A   1      42.564  19.670  26.441  1.00  0.00    -0.460 OA
BRANCH  38  39
ATOM     39  C   UNL A   1      43.340  19.992  25.375  1.00  0.00     0.338 C 
ATOM     40  O   UNL A   1      43.441  19.383  24.326  1.00  0.00    -0.246 OA
BRANCH  39  41
ATOM     41  C   UNL A   1      43.959  21.310  25.613  1.00  0.00     0.060 A 
ATOM     42  C   UNL A   1      44.660  21.508  26.809  1.00  0.00     0.016 A 
ATOM     43  C   UNL A   1      43.810  22.354  24.697  1.00  0.00     0.016 A 
ATOM     44  C   UNL A   1      45.193  22.760  27.110  1.00  0.00     0.010 A 
ATOM     45  C   UNL A   1      44.328  23.615  25.009  1.00  0.00     0.010 A 
ATOM     46  C   UNL A   1      44.991  23.833  26.234  1.00  0.00    -0.014 A 
BRANCH  46  47
ATOM     47  C   UNL A   1      45.230  25.219  26.711  1.00  0.00     0.031 A 
ATOM     48  C   UNL A   1      46.557  25.846  26.386  1.00  0.00     0.074 A 
ATOM     49  C   UNL A   1      44.300  25.920  27.384  1.00  0.00     0.049 A 
ATOM     50  N   UNL A   1      47.020  27.022  26.711  1.00  0.00    -0.248 NA
ATOM     51  C   UNL A   1      47.491  25.026  25.593  1.00  0.00     0.031 C 
ATOM     52  C   UNL A   1      42.968  25.438  27.719  1.00  0.00     0.029 A 
ATOM     53  N   UNL A   1      44.337  27.184  27.919  1.00  0.00    -0.354 N 
ATOM     54  C   UNL A   1      48.294  27.087  26.162  1.00  0.00     0.074 A 
ATOM     55  C   UNL A   1      48.554  25.812  25.531  1.00  0.00     0.031 C 
ATOM     56  C   UNL A   1      42.318  26.373  28.435  1.00  0.00     0.029 A 
ATOM     57  C   UNL A   1      43.195  27.527  28.606  1.00  0.00     0.049 A 
ATOM     58  H   UNL A   1      45.108  27.787  27.820  1.00  0.00     0.167 HD
ATOM     59  C   UNL A   1      49.161  28.125  26.158  1.00  0.00     0.037 A 
ATOM     60  C   UNL A   1      42.897  28.646  29.295  1.00  0.00     0.037 A 
ATOM     61  C   UNL A   1      48.894  29.395  26.774  1.00  0.00     0.049 A 
ATOM     62  C   UNL A   1      43.892  29.777  29.308  1.00  0.00     0.074 A 
ATOM     63  C   UNL A   1      49.701  30.516  26.824  1.00  0.00     0.029 A 
ATOM     64  N   UNL A   1      47.722  29.714  27.445  1.00  0.00    -0.354 N 
ATOM     65  N   UNL A   1      45.084  29.832  28.761  1.00  0.00    -0.248 NA
ATOM     66  C   UNL A   1      43.492  31.008  30.003  1.00  0.00     0.031 C 
ATOM     67  C   UNL A   1      49.028  31.506  27.548  1.00  0.00     0.029 A 
ATOM     68  C   UNL A   1      47.784  31.013  27.915  1.00  0.00     0.049 A 
ATOM     69  H   UNL A   1      46.958  29.104  27.568  1.00  0.00     0.167 HD
ATOM     70  C   UNL A   1      45.555  31.118  29.004  1.00  0.00     0.074 A 
ATOM     71  C   UNL A   1      44.520  31.806  29.749  1.00  0.00     0.031 C 
ATOM     72  C   UNL A   1      46.730  31.684  28.632  1.00  0.00     0.037 A 
BRANCH  59  73
ATOM     73  C   UNL A   1      50.476  27.906  25.470  1.00  0.00     0.058 A 
ATOM     74  C   UNL A   1      50.586  27.936  24.069  1.00  0.00     0.135 A 
ATOM     75  C   UNL A   1      51.635  27.641  26.214  1.00  0.00     0.135 A 
ATOM     76  F   UNL A   1      49.499  28.157  23.311  1.00  0.00    -0.206 F 
ATOM     77  C   UNL A   1      51.793  27.677  23.430  1.00  0.00     0.059 A 
ATOM     78  C   UNL A   1      52.859  27.405  25.596  1.00  0.00     0.059 A 
ATOM     79  F   UNL A   1      51.582  27.591  27.555  1.00  0.00    -0.206 F 
ATOM     80  C   UNL A   1      52.924  27.407  24.203  1.00  0.00     0.060 A 
BRANCH  80  81
ATOM     81  S   UNL A   1      54.482  27.065  23.363  1.00  0.00     0.124 S 
ATOM     82  O   UNL A   1      55.070  28.398  23.285  1.00  0.00    -0.237 OA
ATOM     83  O   UNL A   1      55.137  26.135  24.279  1.00  0.00    -0.237 OA
ATOM     84  O   UNL A   1      54.061  26.489  22.089  1.00  0.00    -0.744 OA
ENDBRANCH  80  81
ENDBRANCH  59  73
BRANCH  60  85
ATOM     85  C   UNL A   1      41.597  28.771  30.008  1.00  0.00     0.058 A 
ATOM     86  C   UNL A   1      40.435  29.184  29.339  1.00  0.00     0.135 A 
ATOM     87  C   UNL A   1      41.497  28.507  31.384  1.00  0.00     0.135 A 
ATOM     88  F   UNL A   1      40.479  29.455  28.026  1.00  0.00    -0.206 F 
ATOM     89  C   UNL A   1      39.228  29.361  30.010  1.00  0.00     0.059 A 
ATOM     90  C   UNL A   1      40.296  28.655  32.073  1.00  0.00     0.059 A 
ATOM     91  F   UNL A   1      42.574  28.096  32.070  1.00  0.00    -0.206 F 
ATOM     92  C   UNL A   1      39.170  29.098  31.380  1.00  0.00     0.060 A 
BRANCH  92  93
ATOM     93  S   UNL A   1      37.596  29.312  32.239  1.00  0.00     0.124 S 
ATOM     94  O   UNL A   1      36.651  29.302  31.129  1.00  0.00    -0.237 OA
ATOM     95  O   UNL A   1      37.565  28.147  33.117  1.00  0.00    -0.237 OA
ATOM     96  O   UNL A   1      37.758  30.594  32.920  1.00  0.00    -0.744 OA
ENDBRANCH  92  93
ENDBRANCH  60  85
BRANCH  72  97
ATOM     97  C   UNL A   1      46.929  33.135  28.966  1.00  0.00     0.058 A 
ATOM     98  C   UNL A   1      47.393  33.551  30.223  1.00  0.00     0.135 A 
ATOM     99  C   UNL A   1      46.678  34.119  27.997  1.00  0.00     0.135 A 
ATOM    100  F   UNL A   1      47.645  32.649  31.184  1.00  0.00    -0.206 F 
ATOM    101  C   UNL A   1      47.567  34.899  30.520  1.00  0.00     0.059 A 
ATOM    102  C   UNL A   1      46.870  35.470  28.264  1.00  0.00     0.059 A 
ATOM    103  F   UNL A   1      46.246  33.771  26.775  1.00  0.00    -0.206 F 
ATOM    104  C   UNL A   1      47.297  35.851  29.535  1.00  0.00     0.060 A 
BRANCH 104 105
ATOM    105  S   UNL A   1      47.534  37.598  29.924  1.00  0.00     0.124 S 
ATOM    106  O   UNL A   1      46.167  38.101  29.851  1.00  0.00    -0.237 OA
ATOM    107  O   UNL A   1      48.119  37.547  31.261  1.00  0.00    -0.237 OA
ATOM    108  O   UNL A   1      48.433  38.061  28.871  1.00  0.00    -0.744 OA
ENDBRANCH 104 105
ENDBRANCH  72  97
ENDBRANCH  46  47
ENDBRANCH  39  41
ENDBRANCH  38  39
ENDBRANCH  37  38
ENDBRANCH  36  37
ENDBRANCH  35  36
ENDBRANCH  34  35
ENDBRANCH   1  34
TORSDOF 26
ENDMDL
