MODEL 1
REMARK VINA RESULT:     -11.0      0.000      0.000
REMARK SMILES Cc1cccc([C@@H](CCC[C@@H]2CCCO2)C(=O)OCCOCCOCCOC(=O)c2ccc(-c3c4nc(c(-c5c(F)cc(S(=O)(=O)[O-])cc5F)c5ccc([nH]5)c(-c5c(F)cc(S(=O)(=O)[O-])cc5F)c5nc(c(-c6c(F)cc(S(=O)(=O)[O-])cc6F)c6ccc3[nH]6)C=C5)C=C4)cc2)c1
REMARK SMILES IDX 22 1 21 2 20 3 19 4 18 5 16 6 17 7 7 8 6 9 1 10 2 11 3 12
REMARK SMILES IDX 96 13 4 14 5 15 8 16 9 17 10 18 11 19 12 20 15 21 13 22
REMARK SMILES IDX 14 23 23 24 24 25 25 26 26 27 27 28 28 29 29 30 30 31 31 32
REMARK SMILES IDX 95 33 32 34 94 35 33 36 34 37 35 38 88 39 36 40 93 41 87 42
REMARK SMILES IDX 89 43 37 44 92 45 86 46 85 47 38 49 72 50 51 51 71 52 52 53
REMARK SMILES IDX 55 54 70 55 90 56 53 57 54 58 69 60 91 61 56 62 39 63 40 64
REMARK SMILES IDX 49 65 41 66 42 67 48 68 50 69 43 70 44 71 45 72 46 73 47 74
REMARK SMILES IDX 73 75 74 76 83 77 75 78 76 79 82 80 84 81 77 82 78 83 79 84
REMARK SMILES IDX 80 85 81 86 57 87 58 88 67 89 59 90 60 91 66 92 68 93 61 94
REMARK SMILES IDX 62 95 63 96 64 97 65 98
REMARK H PARENT 89 48 55 59
REMARK Flexibility Score: inf
ROOT
ATOM      1  C   UNL A   1      33.556  28.422  26.528  1.00  0.00     0.188 C 
ENDROOT
BRANCH   1   2
ATOM      2  O   UNL A   1      32.560  27.591  27.150  1.00  0.00    -0.376 OA
BRANCH   2   3
ATOM      3  C   UNL A   1      31.908  26.587  26.351  1.00  0.00     0.202 C 
BRANCH   3   4
ATOM      4  C   UNL A   1      32.398  26.323  24.866  1.00  0.00     0.261 C 
BRANCH   4   5
ATOM      5  O   UNL A   1      32.660  25.201  23.890  1.00  0.00    -0.463 OA
BRANCH   5   6
ATOM      6  C   UNL A   1      32.371  23.870  24.343  1.00  0.00     0.313 C 
ATOM      7  O   UNL A   1      31.341  23.619  24.972  1.00  0.00    -0.252 OA
BRANCH   6   8
ATOM      8  C   UNL A   1      33.390  22.639  24.109  1.00  0.00     0.129 C 
BRANCH   8   9
ATOM      9  C   UNL A   1      34.845  22.636  24.618  1.00  0.00    -0.034 A 
ATOM     10  C   UNL A   1      37.609  20.047  24.840  1.00  0.00     0.044 C 
ATOM     11  C   UNL A   1      36.883  21.346  24.979  1.00  0.00    -0.051 A 
ATOM     12  C   UNL A   1      37.559  22.485  25.423  1.00  0.00     0.003 A 
ATOM     13  C   UNL A   1      35.543  21.430  24.575  1.00  0.00     0.008 A 
ATOM     14  C   UNL A   1      36.886  23.691  25.516  1.00  0.00     0.001 A 
ATOM     15  C   UNL A   1      35.541  23.757  25.140  1.00  0.00     0.004 A 
ENDBRANCH   8   9
BRANCH   8  16
ATOM     16  C   UNL A   1      32.791  21.175  24.226  1.00  0.00     0.020 C 
BRANCH  16  17
ATOM     17  C   UNL A   1      32.360  20.315  23.013  1.00  0.00     0.004 C 
BRANCH  17  18
ATOM     18  C   UNL A   1      32.354  18.793  23.135  1.00  0.00     0.032 C 
BRANCH  18  19
ATOM     19  C   UNL A   1      33.272  18.127  24.136  1.00  0.00     0.118 C 
ATOM     20  C   UNL A   1      34.269  17.122  23.599  1.00  0.00     0.034 C 
ATOM     21  O   UNL A   1      32.558  17.497  25.195  1.00  0.00    -0.378 OA
ATOM     22  C   UNL A   1      34.614  16.369  24.860  1.00  0.00     0.031 C 
ATOM     23  C   UNL A   1      33.312  16.365  25.630  1.00  0.00     0.160 C 
ENDBRANCH  18  19
ENDBRANCH  17  18
ENDBRANCH  16  17
ENDBRANCH   8  16
ENDBRANCH   6   8
ENDBRANCH   5   6
ENDBRANCH   4   5
ENDBRANCH   3   4
ENDBRANCH   2   3
ENDBRANCH   1   2
BRANCH   1  24
ATOM     24  C   UNL A   1      33.119  29.906  26.499  1.00  0.00     0.188 C 
BRANCH  24  25
ATOM     25  O   UNL A   1      33.380  30.667  27.670  1.00  0.00    -0.376 OA
BRANCH  25  26
ATOM     26  C   UNL A   1      33.529  32.074  27.465  1.00  0.00     0.202 C 
BRANCH  26  27
ATOM     27  C   UNL A   1      33.932  33.006  28.652  1.00  0.00     0.261 C 
BRANCH  27  28
ATOM     28  O   UNL A   1      35.268  32.746  29.176  1.00  0.00    -0.460 OA
BRANCH  28  29
ATOM     29  C   UNL A   1      35.385  31.854  30.212  1.00  0.00     0.338 C 
ATOM     30  O   UNL A   1      34.893  32.037  31.317  1.00  0.00    -0.246 OA
BRANCH  29  31
ATOM     31  C   UNL A   1      36.150  30.598  29.845  1.00  0.00     0.060 A 
ATOM     32  C   UNL A   1      36.563  29.780  30.853  1.00  0.00     0.016 A 
ATOM     33  C   UNL A   1      36.614  30.207  28.578  1.00  0.00     0.016 A 
ATOM     34  C   UNL A   1      37.620  28.860  30.579  1.00  0.00     0.010 A 
ATOM     35  C   UNL A   1      37.769  29.323  28.402  1.00  0.00     0.010 A 
ATOM     36  C   UNL A   1      38.441  28.744  29.480  1.00  0.00    -0.014 A 
BRANCH  36  37
ATOM     37  C   UNL A   1      39.959  28.254  29.585  1.00  0.00     0.031 A 
ATOM     38  C   UNL A   1      40.470  27.072  28.825  1.00  0.00     0.074 A 
ATOM     39  C   UNL A   1      41.049  28.664  30.363  1.00  0.00     0.049 A 
ATOM     40  N   UNL A   1      41.606  26.500  29.108  1.00  0.00    -0.248 NA
ATOM     41  C   UNL A   1      39.744  26.397  27.767  1.00  0.00     0.031 C 
ATOM     42  C   UNL A   1      42.413  28.958  29.846  1.00  0.00     0.029 A 
ATOM     43  N   UNL A   1      41.267  28.939  31.710  1.00  0.00    -0.354 N 
ATOM     44  C   UNL A   1      41.828  25.477  28.244  1.00  0.00     0.074 A 
ATOM     45  C   UNL A   1      40.642  25.473  27.399  1.00  0.00     0.031 C 
ATOM     46  C   UNL A   1      43.210  29.453  30.819  1.00  0.00     0.029 A 
ATOM     47  C   UNL A   1      42.462  29.571  32.056  1.00  0.00     0.049 A 
ATOM     48  H   UNL A   1      40.602  28.695  32.395  1.00  0.00     0.167 HD
ATOM     49  C   UNL A   1      42.979  24.743  28.308  1.00  0.00     0.037 A 
ATOM     50  C   UNL A   1      42.950  29.772  33.323  1.00  0.00     0.037 A 
ATOM     51  C   UNL A   1      44.000  25.257  29.237  1.00  0.00     0.049 A 
ATOM     52  C   UNL A   1      43.624  28.497  33.730  1.00  0.00     0.074 A 
ATOM     53  C   UNL A   1      44.934  26.278  29.145  1.00  0.00     0.029 A 
ATOM     54  N   UNL A   1      44.089  24.809  30.546  1.00  0.00    -0.354 N 
ATOM     55  N   UNL A   1      44.312  27.766  32.892  1.00  0.00    -0.248 NA
ATOM     56  C   UNL A   1      43.504  27.899  35.054  1.00  0.00     0.031 C 
ATOM     57  C   UNL A   1      45.519  26.484  30.430  1.00  0.00     0.029 A 
ATOM     58  C   UNL A   1      44.961  25.583  31.324  1.00  0.00     0.049 A 
ATOM     59  H   UNL A   1      43.594  24.032  30.892  1.00  0.00     0.167 HD
ATOM     60  C   UNL A   1      44.549  26.545  33.482  1.00  0.00     0.074 A 
ATOM     61  C   UNL A   1      44.060  26.697  34.845  1.00  0.00     0.031 C 
ATOM     62  C   UNL A   1      45.010  25.448  32.797  1.00  0.00     0.037 A 
BRANCH  49  63
ATOM     63  C   UNL A   1      43.220  23.664  27.287  1.00  0.00     0.058 A 
ATOM     64  C   UNL A   1      42.813  22.339  27.513  1.00  0.00     0.135 A 
ATOM     65  C   UNL A   1      43.953  23.883  26.103  1.00  0.00     0.135 A 
ATOM     66  F   UNL A   1      42.001  22.028  28.534  1.00  0.00    -0.206 F 
ATOM     67  C   UNL A   1      43.265  21.282  26.722  1.00  0.00     0.059 A 
ATOM     68  C   UNL A   1      44.481  22.842  25.344  1.00  0.00     0.059 A 
ATOM     69  F   UNL A   1      44.208  25.130  25.671  1.00  0.00    -0.206 F 
ATOM     70  C   UNL A   1      44.157  21.537  25.683  1.00  0.00     0.060 A 
BRANCH  70  71
ATOM     71  S   UNL A   1      44.953  20.151  24.847  1.00  0.00     0.124 S 
ATOM     72  O   UNL A   1      46.364  20.379  25.145  1.00  0.00    -0.237 OA
ATOM     73  O   UNL A   1      44.338  19.006  25.507  1.00  0.00    -0.237 OA
ATOM     74  O   UNL A   1      44.583  20.346  23.448  1.00  0.00    -0.744 OA
ENDBRANCH  70  71
ENDBRANCH  49  63
BRANCH  50  75
ATOM     75  C   UNL A   1      42.208  30.766  34.215  1.00  0.00     0.058 A 
ATOM     76  C   UNL A   1      42.782  32.059  34.298  1.00  0.00     0.135 A 
ATOM     77  C   UNL A   1      40.871  30.690  34.666  1.00  0.00     0.135 A 
ATOM     78  F   UNL A   1      44.079  32.227  33.991  1.00  0.00    -0.206 F 
ATOM     79  C   UNL A   1      42.035  33.219  34.564  1.00  0.00     0.059 A 
ATOM     80  C   UNL A   1      40.083  31.848  34.875  1.00  0.00     0.059 A 
ATOM     81  F   UNL A   1      40.237  29.515  34.759  1.00  0.00    -0.206 F 
ATOM     82  C   UNL A   1      40.661  33.115  34.760  1.00  0.00     0.060 A 
BRANCH  82  83
ATOM     83  S   UNL A   1      39.598  34.591  34.520  1.00  0.00     0.124 S 
ATOM     84  O   UNL A   1      38.542  34.379  35.506  1.00  0.00    -0.237 OA
ATOM     85  O   UNL A   1      40.502  35.703  34.803  1.00  0.00    -0.237 OA
ATOM     86  O   UNL A   1      39.203  34.467  33.122  1.00  0.00    -0.744 OA
ENDBRANCH  82  83
ENDBRANCH  50  75
BRANCH  62  87
ATOM     87  C   UNL A   1      45.358  24.152  33.526  1.00  0.00     0.058 A 
ATOM     88  C   UNL A   1      44.472  23.054  33.621  1.00  0.00     0.135 A 
ATOM     89  C   UNL A   1      46.597  23.956  34.169  1.00  0.00     0.135 A 
ATOM     90  F   UNL A   1      43.185  23.164  33.254  1.00  0.00    -0.206 F 
ATOM     91  C   UNL A   1      44.864  21.798  34.094  1.00  0.00     0.059 A 
ATOM     92  C   UNL A   1      46.991  22.729  34.709  1.00  0.00     0.059 A 
ATOM     93  F   UNL A   1      47.508  24.933  34.251  1.00  0.00    -0.206 F 
ATOM     94  C   UNL A   1      46.145  21.637  34.602  1.00  0.00     0.060 A 
BRANCH  94  95
ATOM     95  S   UNL A   1      46.704  19.990  35.070  1.00  0.00     0.124 S 
ATOM     96  O   UNL A   1      47.430  20.246  36.310  1.00  0.00    -0.237 OA
ATOM     97  O   UNL A   1      45.435  19.282  35.213  1.00  0.00    -0.237 OA
ATOM     98  O   UNL A   1      47.527  19.576  33.939  1.00  0.00    -0.744 OA
ENDBRANCH  94  95
ENDBRANCH  62  87
ENDBRANCH  36  37
ENDBRANCH  29  31
ENDBRANCH  28  29
ENDBRANCH  27  28
ENDBRANCH  26  27
ENDBRANCH  25  26
ENDBRANCH  24  25
ENDBRANCH   1  24
TORSDOF 25
ENDMDL
MODEL 2
REMARK VINA RESULT:     -10.9      4.389     11.398
REMARK SMILES Cc1cccc([C@@H](CCC[C@@H]2CCCO2)C(=O)OCCOCCOCCOC(=O)c2ccc(-c3c4nc(c(-c5c(F)cc(S(=O)(=O)[O-])cc5F)c5ccc([nH]5)c(-c5c(F)cc(S(=O)(=O)[O-])cc5F)c5nc(c(-c6c(F)cc(S(=O)(=O)[O-])cc6F)c6ccc3[nH]6)C=C5)C=C4)cc2)c1
REMARK SMILES IDX 22 1 21 2 20 3 19 4 18 5 16 6 17 7 7 8 6 9 1 10 2 11 3 12
REMARK SMILES IDX 96 13 4 14 5 15 8 16 9 17 10 18 11 19 12 20 15 21 13 22
REMARK SMILES IDX 14 23 23 24 24 25 25 26 26 27 27 28 28 29 29 30 30 31 31 32
REMARK SMILES IDX 95 33 32 34 94 35 33 36 34 37 35 38 88 39 36 40 93 41 87 42
REMARK SMILES IDX 89 43 37 44 92 45 86 46 85 47 38 49 72 50 51 51 71 52 52 53
REMARK SMILES IDX 55 54 70 55 90 56 53 57 54 58 69 60 91 61 56 62 39 63 40 64
REMARK SMILES IDX 49 65 41 66 42 67 48 68 50 69 43 70 44 71 45 72 46 73 47 74
REMARK SMILES IDX 73 75 74 76 83 77 75 78 76 79 82 80 84 81 77 82 78 83 79 84
REMARK SMILES IDX 80 85 81 86 57 87 58 88 67 89 59 90 60 91 66 92 68 93 61 94
REMARK SMILES IDX 62 95 63 96 64 97 65 98
REMARK H PARENT 89 48 55 59
REMARK Flexibility Score: inf
ROOT
ATOM      1  C   UNL A   1      35.650  20.901  24.719  1.00  0.00     0.188 C 
ENDROOT
BRANCH   1   2
ATOM      2  O   UNL A   1      34.406  21.623  24.748  1.00  0.00    -0.376 OA
BRANCH   2   3
ATOM      3  C   UNL A   1      34.339  22.844  25.509  1.00  0.00     0.202 C 
BRANCH   3   4
ATOM      4  C   UNL A   1      33.383  22.933  26.770  1.00  0.00     0.261 C 
BRANCH   4   5
ATOM      5  O   UNL A   1      32.019  23.430  27.186  1.00  0.00    -0.463 OA
BRANCH   5   6
ATOM      6  C   UNL A   1      31.212  24.033  26.163  1.00  0.00     0.313 C 
ATOM      7  O   UNL A   1      30.810  23.380  25.199  1.00  0.00    -0.252 OA
BRANCH   6   8
ATOM      8  C   UNL A   1      30.828  25.602  26.181  1.00  0.00     0.129 C 
BRANCH   8   9
ATOM      9  C   UNL A   1      31.877  26.731  26.206  1.00  0.00    -0.034 A 
ATOM     10  C   UNL A   1      31.762  30.499  26.624  1.00  0.00     0.044 C 
ATOM     11  C   UNL A   1      32.304  29.123  26.407  1.00  0.00    -0.051 A 
ATOM     12  C   UNL A   1      33.684  28.909  26.368  1.00  0.00     0.003 A 
ATOM     13  C   UNL A   1      31.416  28.040  26.335  1.00  0.00     0.008 A 
ATOM     14  C   UNL A   1      34.176  27.626  26.202  1.00  0.00     0.001 A 
ATOM     15  C   UNL A   1      33.282  26.556  26.099  1.00  0.00     0.004 A 
ENDBRANCH   8   9
BRANCH   8  16
ATOM     16  C   UNL A   1      29.595  26.052  25.291  1.00  0.00     0.020 C 
BRANCH  16  17
ATOM     17  C   UNL A   1      29.686  26.362  23.777  1.00  0.00     0.004 C 
BRANCH  17  18
ATOM     18  C   UNL A   1      30.892  25.873  22.980  1.00  0.00     0.032 C 
BRANCH  18  19
ATOM     19  C   UNL A   1      31.851  26.884  22.392  1.00  0.00     0.118 C 
ATOM     20  C   UNL A   1      33.319  26.722  22.723  1.00  0.00     0.034 C 
ATOM     21  O   UNL A   1      31.487  28.226  22.704  1.00  0.00    -0.378 OA
ATOM     22  C   UNL A   1      33.833  28.104  22.399  1.00  0.00     0.031 C 
ATOM     23  C   UNL A   1      32.681  29.004  22.788  1.00  0.00     0.160 C 
ENDBRANCH  18  19
ENDBRANCH  17  18
ENDBRANCH  16  17
ENDBRANCH   8  16
ENDBRANCH   6   8
ENDBRANCH   5   6
ENDBRANCH   4   5
ENDBRANCH   3   4
ENDBRANCH   2   3
ENDBRANCH   1   2
BRANCH   1  24
ATOM     24  C   UNL A   1      36.724  21.585  25.598  1.00  0.00     0.188 C 
BRANCH  24  25
ATOM     25  O   UNL A   1      38.020  21.002  25.583  1.00  0.00    -0.376 OA
BRANCH  25  26
ATOM     26  C   UNL A   1      39.100  21.907  25.821  1.00  0.00     0.202 C 
BRANCH  26  27
ATOM     27  C   UNL A   1      40.486  21.371  26.305  1.00  0.00     0.261 C 
BRANCH  27  28
ATOM     28  O   UNL A   1      41.570  22.336  26.170  1.00  0.00    -0.460 OA
BRANCH  28  29
ATOM     29  C   UNL A   1      41.853  23.133  27.251  1.00  0.00     0.338 C 
ATOM     30  O   UNL A   1      42.622  22.806  28.144  1.00  0.00    -0.246 OA
BRANCH  29  31
ATOM     31  C   UNL A   1      41.155  24.478  27.211  1.00  0.00     0.060 A 
ATOM     32  C   UNL A   1      41.848  25.547  26.729  1.00  0.00     0.016 A 
ATOM     33  C   UNL A   1      39.894  24.813  27.730  1.00  0.00     0.016 A 
ATOM     34  C   UNL A   1      41.389  26.854  27.075  1.00  0.00     0.010 A 
ATOM     35  C   UNL A   1      39.550  26.177  28.140  1.00  0.00     0.010 A 
ATOM     36  C   UNL A   1      40.422  27.254  27.969  1.00  0.00    -0.014 A 
BRANCH  36  37
ATOM     37  C   UNL A   1      40.519  28.621  28.792  1.00  0.00     0.031 A 
ATOM     38  C   UNL A   1      39.343  29.524  28.981  1.00  0.00     0.074 A 
ATOM     39  C   UNL A   1      41.582  29.305  29.395  1.00  0.00     0.049 A 
ATOM     40  N   UNL A   1      39.467  30.752  29.397  1.00  0.00    -0.248 NA
ATOM     41  C   UNL A   1      37.974  29.172  28.654  1.00  0.00     0.031 C 
ATOM     42  C   UNL A   1      41.583  29.839  30.784  1.00  0.00     0.029 A 
ATOM     43  N   UNL A   1      42.866  29.687  29.017  1.00  0.00    -0.354 N 
ATOM     44  C   UNL A   1      38.240  31.323  29.502  1.00  0.00     0.074 A 
ATOM     45  C   UNL A   1      37.331  30.278  29.054  1.00  0.00     0.031 C 
ATOM     46  C   UNL A   1      42.796  30.334  31.118  1.00  0.00     0.029 A 
ATOM     47  C   UNL A   1      43.722  30.152  30.016  1.00  0.00     0.049 A 
ATOM     48  H   UNL A   1      43.160  29.632  28.079  1.00  0.00     0.167 HD
ATOM     49  C   UNL A   1      38.099  32.603  29.961  1.00  0.00     0.037 A 
ATOM     50  C   UNL A   1      44.951  30.738  29.841  1.00  0.00     0.037 A 
ATOM     51  C   UNL A   1      39.330  33.218  30.489  1.00  0.00     0.049 A 
ATOM     52  C   UNL A   1      44.698  32.181  29.527  1.00  0.00     0.074 A 
ATOM     53  C   UNL A   1      39.999  33.107  31.699  1.00  0.00     0.029 A 
ATOM     54  N   UNL A   1      40.156  33.998  29.694  1.00  0.00    -0.354 N 
ATOM     55  N   UNL A   1      43.742  32.868  30.096  1.00  0.00    -0.248 NA
ATOM     56  C   UNL A   1      45.414  32.930  28.501  1.00  0.00     0.031 C 
ATOM     57  C   UNL A   1      41.263  33.759  31.586  1.00  0.00     0.029 A 
ATOM     58  C   UNL A   1      41.380  34.289  30.312  1.00  0.00     0.049 A 
ATOM     59  H   UNL A   1      39.911  34.311  28.794  1.00  0.00     0.167 HD
ATOM     60  C   UNL A   1      43.585  34.044  29.399  1.00  0.00     0.074 A 
ATOM     61  C   UNL A   1      44.681  34.050  28.441  1.00  0.00     0.031 C 
ATOM     62  C   UNL A   1      42.506  34.880  29.555  1.00  0.00     0.037 A 
BRANCH  49  63
ATOM     63  C   UNL A   1      36.718  33.175  30.130  1.00  0.00     0.058 A 
ATOM     64  C   UNL A   1      35.959  33.596  29.026  1.00  0.00     0.135 A 
ATOM     65  C   UNL A   1      36.144  33.423  31.394  1.00  0.00     0.135 A 
ATOM     66  F   UNL A   1      36.336  33.299  27.774  1.00  0.00    -0.206 F 
ATOM     67  C   UNL A   1      34.811  34.375  29.172  1.00  0.00     0.059 A 
ATOM     68  C   UNL A   1      35.047  34.263  31.569  1.00  0.00     0.059 A 
ATOM     69  F   UNL A   1      36.665  32.879  32.507  1.00  0.00    -0.206 F 
ATOM     70  C   UNL A   1      34.404  34.763  30.446  1.00  0.00     0.060 A 
BRANCH  70  71
ATOM     71  S   UNL A   1      33.095  35.993  30.615  1.00  0.00     0.124 S 
ATOM     72  O   UNL A   1      32.675  36.190  29.231  1.00  0.00    -0.237 OA
ATOM     73  O   UNL A   1      32.144  35.304  31.479  1.00  0.00    -0.237 OA
ATOM     74  O   UNL A   1      33.781  37.133  31.216  1.00  0.00    -0.744 OA
ENDBRANCH  70  71
ENDBRANCH  49  63
BRANCH  50  75
ATOM     75  C   UNL A   1      46.087  29.852  29.329  1.00  0.00     0.058 A 
ATOM     76  C   UNL A   1      46.932  29.305  30.327  1.00  0.00     0.135 A 
ATOM     77  C   UNL A   1      46.192  29.226  28.067  1.00  0.00     0.135 A 
ATOM     78  F   UNL A   1      46.988  29.887  31.537  1.00  0.00    -0.206 F 
ATOM     79  C   UNL A   1      47.631  28.097  30.168  1.00  0.00     0.059 A 
ATOM     80  C   UNL A   1      46.836  27.976  27.901  1.00  0.00     0.059 A 
ATOM     81  F   UNL A   1      45.546  29.709  26.999  1.00  0.00    -0.206 F 
ATOM     82  C   UNL A   1      47.502  27.386  28.979  1.00  0.00     0.060 A 
BRANCH  82  83
ATOM     83  S   UNL A   1      47.890  25.593  28.948  1.00  0.00     0.124 S 
ATOM     84  O   UNL A   1      48.618  25.452  27.691  1.00  0.00    -0.237 OA
ATOM     85  O   UNL A   1      48.687  25.404  30.158  1.00  0.00    -0.237 OA
ATOM     86  O   UNL A   1      46.564  24.987  28.992  1.00  0.00    -0.744 OA
ENDBRANCH  82  83
ENDBRANCH  50  75
BRANCH  62  87
ATOM     87  C   UNL A   1      42.441  36.225  28.834  1.00  0.00     0.058 A 
ATOM     88  C   UNL A   1      41.826  36.399  27.572  1.00  0.00     0.135 A 
ATOM     89  C   UNL A   1      42.999  37.400  29.375  1.00  0.00     0.135 A 
ATOM     90  F   UNL A   1      41.445  35.345  26.832  1.00  0.00    -0.206 F 
ATOM     91  C   UNL A   1      41.574  37.656  27.015  1.00  0.00     0.059 A 
ATOM     92  C   UNL A   1      42.819  38.663  28.806  1.00  0.00     0.059 A 
ATOM     93  F   UNL A   1      43.697  37.384  30.517  1.00  0.00    -0.206 F 
ATOM     94  C   UNL A   1      42.044  38.789  27.663  1.00  0.00     0.060 A 
BRANCH  94  95
ATOM     95  S   UNL A   1      41.592  40.414  27.033  1.00  0.00     0.124 S 
ATOM     96  O   UNL A   1      40.813  40.083  25.844  1.00  0.00    -0.237 OA
ATOM     97  O   UNL A   1      40.835  40.962  28.155  1.00  0.00    -0.237 OA
ATOM     98  O   UNL A   1      42.880  41.051  26.778  1.00  0.00    -0.744 OA
ENDBRANCH  94  95
ENDBRANCH  62  87
ENDBRANCH  36  37
ENDBRANCH  29  31
ENDBRANCH  28  29
ENDBRANCH  27  28
ENDBRANCH  26  27
ENDBRANCH  25  26
ENDBRANCH  24  25
ENDBRANCH   1  24
TORSDOF 25
ENDMDL
MODEL 3
REMARK VINA RESULT:     -10.6      4.517     11.495
REMARK SMILES Cc1cccc([C@@H](CCC[C@@H]2CCCO2)C(=O)OCCOCCOCCOC(=O)c2ccc(-c3c4nc(c(-c5c(F)cc(S(=O)(=O)[O-])cc5F)c5ccc([nH]5)c(-c5c(F)cc(S(=O)(=O)[O-])cc5F)c5nc(c(-c6c(F)cc(S(=O)(=O)[O-])cc6F)c6ccc3[nH]6)C=C5)C=C4)cc2)c1
REMARK SMILES IDX 22 1 21 2 20 3 19 4 18 5 16 6 17 7 7 8 6 9 1 10 2 11 3 12
REMARK SMILES IDX 96 13 4 14 5 15 8 16 9 17 10 18 11 19 12 20 15 21 13 22
REMARK SMILES IDX 14 23 23 24 24 25 25 26 26 27 27 28 28 29 29 30 30 31 31 32
REMARK SMILES IDX 95 33 32 34 94 35 33 36 34 37 35 38 88 39 36 40 93 41 87 42
REMARK SMILES IDX 89 43 37 44 92 45 86 46 85 47 38 49 72 50 51 51 71 52 52 53
REMARK SMILES IDX 55 54 70 55 90 56 53 57 54 58 69 60 91 61 56 62 39 63 40 64
REMARK SMILES IDX 49 65 41 66 42 67 48 68 50 69 43 70 44 71 45 72 46 73 47 74
REMARK SMILES IDX 73 75 74 76 83 77 75 78 76 79 82 80 84 81 77 82 78 83 79 84
REMARK SMILES IDX 80 85 81 86 57 87 58 88 67 89 59 90 60 91 66 92 68 93 61 94
REMARK SMILES IDX 62 95 63 96 64 97 65 98
REMARK H PARENT 89 48 55 59
REMARK Flexibility Score: inf
ROOT
ATOM      1  C   UNL A   1      34.008  20.333  24.961  1.00  0.00     0.188 C 
ENDROOT
BRANCH   1   2
ATOM      2  O   UNL A   1      33.306  20.867  26.098  1.00  0.00    -0.376 OA
BRANCH   2   3
ATOM      3  C   UNL A   1      33.051  22.283  26.142  1.00  0.00     0.202 C 
BRANCH   3   4
ATOM      4  C   UNL A   1      32.028  22.932  25.120  1.00  0.00     0.261 C 
BRANCH   4   5
ATOM      5  O   UNL A   1      31.538  24.274  24.628  1.00  0.00    -0.463 OA
BRANCH   5   6
ATOM      6  C   UNL A   1      31.494  25.336  25.591  1.00  0.00     0.313 C 
ATOM      7  O   UNL A   1      31.486  25.103  26.802  1.00  0.00    -0.252 OA
BRANCH   6   8
ATOM      8  C   UNL A   1      31.397  26.890  25.157  1.00  0.00     0.129 C 
BRANCH   8   9
ATOM      9  C   UNL A   1      32.152  28.020  25.884  1.00  0.00    -0.034 A 
ATOM     10  C   UNL A   1      31.505  31.701  26.530  1.00  0.00     0.044 C 
ATOM     11  C   UNL A   1      32.188  30.372  26.525  1.00  0.00    -0.051 A 
ATOM     12  C   UNL A   1      33.365  30.185  27.255  1.00  0.00     0.003 A 
ATOM     13  C   UNL A   1      31.590  29.295  25.856  1.00  0.00     0.008 A 
ATOM     14  C   UNL A   1      33.971  28.940  27.272  1.00  0.00     0.001 A 
ATOM     15  C   UNL A   1      33.383  27.881  26.576  1.00  0.00     0.004 A 
ENDBRANCH   8   9
BRANCH   8  16
ATOM     16  C   UNL A   1      31.354  27.202  23.603  1.00  0.00     0.020 C 
BRANCH  16  17
ATOM     17  C   UNL A   1      30.050  27.327  22.779  1.00  0.00     0.004 C 
BRANCH  17  18
ATOM     18  C   UNL A   1      29.055  28.437  23.109  1.00  0.00     0.032 C 
BRANCH  18  19
ATOM     19  C   UNL A   1      29.314  29.839  22.603  1.00  0.00     0.118 C 
ATOM     20  C   UNL A   1      28.862  30.986  23.480  1.00  0.00     0.034 C 
ATOM     21  O   UNL A   1      28.777  30.056  21.302  1.00  0.00    -0.378 OA
ATOM     22  C   UNL A   1      28.838  32.113  22.475  1.00  0.00     0.031 C 
ATOM     23  C   UNL A   1      28.403  31.430  21.197  1.00  0.00     0.160 C 
ENDBRANCH  18  19
ENDBRANCH  17  18
ENDBRANCH  16  17
ENDBRANCH   8  16
ENDBRANCH   6   8
ENDBRANCH   5   6
ENDBRANCH   4   5
ENDBRANCH   3   4
ENDBRANCH   2   3
ENDBRANCH   1   2
BRANCH   1  24
ATOM     24  C   UNL A   1      35.454  20.880  24.878  1.00  0.00     0.188 C 
BRANCH  24  25
ATOM     25  O   UNL A   1      35.689  21.906  23.925  1.00  0.00    -0.376 OA
BRANCH  25  26
ATOM     26  C   UNL A   1      36.341  23.073  24.431  1.00  0.00     0.202 C 
BRANCH  26  27
ATOM     27  C   UNL A   1      36.685  23.189  25.951  1.00  0.00     0.261 C 
BRANCH  27  28
ATOM     28  O   UNL A   1      37.818  24.061  26.232  1.00  0.00    -0.460 OA
BRANCH  28  29
ATOM     29  C   UNL A   1      39.047  23.476  26.403  1.00  0.00     0.338 C 
ATOM     30  O   UNL A   1      39.248  22.278  26.263  1.00  0.00    -0.246 OA
BRANCH  29  31
ATOM     31  C   UNL A   1      40.146  24.464  26.743  1.00  0.00     0.060 A 
ATOM     32  C   UNL A   1      40.630  24.472  28.016  1.00  0.00     0.016 A 
ATOM     33  C   UNL A   1      40.666  25.490  25.937  1.00  0.00     0.016 A 
ATOM     34  C   UNL A   1      41.323  25.638  28.462  1.00  0.00     0.010 A 
ATOM     35  C   UNL A   1      41.282  26.695  26.498  1.00  0.00     0.010 A 
ATOM     36  C   UNL A   1      41.468  26.873  27.871  1.00  0.00    -0.014 A 
BRANCH  36  37
ATOM     37  C   UNL A   1      41.569  28.228  28.713  1.00  0.00     0.031 A 
ATOM     38  C   UNL A   1      40.367  29.053  29.045  1.00  0.00     0.074 A 
ATOM     39  C   UNL A   1      42.647  28.964  29.220  1.00  0.00     0.049 A 
ATOM     40  N   UNL A   1      40.461  30.278  29.477  1.00  0.00    -0.248 NA
ATOM     41  C   UNL A   1      38.996  28.623  28.853  1.00  0.00     0.031 C 
ATOM     42  C   UNL A   1      42.761  29.472  30.614  1.00  0.00     0.029 A 
ATOM     43  N   UNL A   1      43.859  29.432  28.722  1.00  0.00    -0.354 N 
ATOM     44  C   UNL A   1      39.221  30.771  29.722  1.00  0.00     0.074 A 
ATOM     45  C   UNL A   1      38.333  29.680  29.344  1.00  0.00     0.031 C 
ATOM     46  C   UNL A   1      43.971  30.034  30.834  1.00  0.00     0.029 A 
ATOM     47  C   UNL A   1      44.787  29.930  29.638  1.00  0.00     0.049 A 
ATOM     48  H   UNL A   1      44.056  29.413  27.757  1.00  0.00     0.167 HD
ATOM     49  C   UNL A   1      39.053  32.030  30.225  1.00  0.00     0.037 A 
ATOM     50  C   UNL A   1      45.953  30.593  29.351  1.00  0.00     0.037 A 
ATOM     51  C   UNL A   1      40.293  32.710  30.639  1.00  0.00     0.049 A 
ATOM     52  C   UNL A   1      45.583  32.024  29.101  1.00  0.00     0.074 A 
ATOM     53  C   UNL A   1      41.091  32.618  31.769  1.00  0.00     0.029 A 
ATOM     54  N   UNL A   1      40.984  33.554  29.782  1.00  0.00    -0.354 N 
ATOM     55  N   UNL A   1      44.653  32.640  29.783  1.00  0.00    -0.248 NA
ATOM     56  C   UNL A   1      46.143  32.834  28.026  1.00  0.00     0.031 C 
ATOM     57  C   UNL A   1      42.295  33.348  31.543  1.00  0.00     0.029 A 
ATOM     58  C   UNL A   1      42.247  33.908  30.277  1.00  0.00     0.049 A 
ATOM     59  H   UNL A   1      40.628  33.868  28.921  1.00  0.00     0.167 HD
ATOM     60  C   UNL A   1      44.355  33.817  29.136  1.00  0.00     0.074 A 
ATOM     61  C   UNL A   1      45.342  33.908  28.070  1.00  0.00     0.031 C 
ATOM     62  C   UNL A   1      43.251  34.581  29.423  1.00  0.00     0.037 A 
BRANCH  49  63
ATOM     63  C   UNL A   1      37.666  32.513  30.551  1.00  0.00     0.058 A 
ATOM     64  C   UNL A   1      36.991  33.418  29.715  1.00  0.00     0.135 A 
ATOM     65  C   UNL A   1      37.003  32.180  31.750  1.00  0.00     0.135 A 
ATOM     66  F   UNL A   1      37.456  33.710  28.492  1.00  0.00    -0.206 F 
ATOM     67  C   UNL A   1      35.838  34.087  30.129  1.00  0.00     0.059 A 
ATOM     68  C   UNL A   1      35.900  32.888  32.220  1.00  0.00     0.059 A 
ATOM     69  F   UNL A   1      37.440  31.170  32.521  1.00  0.00    -0.206 F 
ATOM     70  C   UNL A   1      35.342  33.868  31.411  1.00  0.00     0.060 A 
BRANCH  70  71
ATOM     71  S   UNL A   1      34.029  34.933  32.041  1.00  0.00     0.124 S 
ATOM     72  O   UNL A   1      33.385  34.077  33.032  1.00  0.00    -0.237 OA
ATOM     73  O   UNL A   1      34.784  36.063  32.568  1.00  0.00    -0.237 OA
ATOM     74  O   UNL A   1      33.224  35.210  30.855  1.00  0.00    -0.744 OA
ENDBRANCH  70  71
ENDBRANCH  49  63
BRANCH  50  75
ATOM     75  C   UNL A   1      47.080  29.790  28.703  1.00  0.00     0.058 A 
ATOM     76  C   UNL A   1      47.634  28.760  29.503  1.00  0.00     0.135 A 
ATOM     77  C   UNL A   1      47.391  29.693  27.328  1.00  0.00     0.135 A 
ATOM     78  F   UNL A   1      47.488  28.809  30.838  1.00  0.00    -0.206 F 
ATOM     79  C   UNL A   1      48.230  27.604  28.970  1.00  0.00     0.059 A 
ATOM     80  C   UNL A   1      47.929  28.511  26.762  1.00  0.00     0.059 A 
ATOM     81  F   UNL A   1      47.037  30.656  26.469  1.00  0.00    -0.206 F 
ATOM     82  C   UNL A   1      48.289  27.443  27.589  1.00  0.00     0.060 A 
BRANCH  82  83
ATOM     83  S   UNL A   1      48.497  25.764  26.881  1.00  0.00     0.124 S 
ATOM     84  O   UNL A   1      49.839  25.401  27.326  1.00  0.00    -0.237 OA
ATOM     85  O   UNL A   1      47.408  25.006  27.493  1.00  0.00    -0.237 OA
ATOM     86  O   UNL A   1      48.340  26.007  25.451  1.00  0.00    -0.744 OA
ENDBRANCH  82  83
ENDBRANCH  50  75
BRANCH  62  87
ATOM     87  C   UNL A   1      43.030  35.933  28.747  1.00  0.00     0.058 A 
ATOM     88  C   UNL A   1      42.483  36.071  27.450  1.00  0.00     0.135 A 
ATOM     89  C   UNL A   1      43.365  37.153  29.368  1.00  0.00     0.135 A 
ATOM     90  F   UNL A   1      42.318  35.007  26.647  1.00  0.00    -0.206 F 
ATOM     91  C   UNL A   1      42.081  37.301  26.920  1.00  0.00     0.059 A 
ATOM     92  C   UNL A   1      43.035  38.400  28.832  1.00  0.00     0.059 A 
ATOM     93  F   UNL A   1      43.979  37.189  30.557  1.00  0.00    -0.206 F 
ATOM     94  C   UNL A   1      42.328  38.461  27.640  1.00  0.00     0.060 A 
BRANCH  94  95
ATOM     95  S   UNL A   1      41.678  40.027  27.035  1.00  0.00     0.124 S 
ATOM     96  O   UNL A   1      41.094  40.610  28.239  1.00  0.00    -0.237 OA
ATOM     97  O   UNL A   1      42.891  40.673  26.541  1.00  0.00    -0.237 OA
ATOM     98  O   UNL A   1      40.722  39.625  26.009  1.00  0.00    -0.744 OA
ENDBRANCH  94  95
ENDBRANCH  62  87
ENDBRANCH  36  37
ENDBRANCH  29  31
ENDBRANCH  28  29
ENDBRANCH  27  28
ENDBRANCH  26  27
ENDBRANCH  25  26
ENDBRANCH  24  25
ENDBRANCH   1  24
TORSDOF 25
ENDMDL
