MODEL 1
REMARK VINA RESULT:     -10.6      0.000      0.000
REMARK SMILES O=C(OCCOCCOCCOC(=O)c1ccc(-n2cc(CSc3nc4ccccc4c(=O)n3-c3ccc(Cl)cc3)nn2)cc1)c1ccc(-c2c3nc(c(-c4c(F)cc(S(=O)(=O)[O-])cc4F)c4ccc([nH]4)c(-c4c(F)cc(S(=O)(=O)[O-])cc4F)c4nc(c(-c5c(F)cc(S(=O)(=O)[O-])cc5F)c5ccc2[nH]5)C=C4)C=C3)cc1
REMARK SMILES IDX 8 1 7 2 6 3 5 4 4 5 3 6 2 7 1 8 46 9 47 10 111 11 48 12
REMARK SMILES IDX 110 13 49 14 50 15 51 16 104 17 52 18 109 19 103 20 105 21
REMARK SMILES IDX 53 22 108 23 102 24 101 25 54 27 88 28 67 29 87 30 68 31
REMARK SMILES IDX 71 32 86 33 106 34 69 35 70 36 85 38 107 39 72 40 55 41
REMARK SMILES IDX 56 42 65 43 57 44 58 45 64 46 66 47 59 48 60 49 61 50 62 51
REMARK SMILES IDX 63 52 89 53 90 54 99 55 91 56 92 57 98 58 100 59 93 60 94 61
REMARK SMILES IDX 95 62 96 63 97 64 73 65 74 66 83 67 75 68 76 69 82 70 84 71
REMARK SMILES IDX 77 72 78 73 79 74 80 75 81 76 9 77 10 78 11 79 12 80 13 81
REMARK SMILES IDX 14 82 15 83 16 84 45 85 17 86 44 87 18 88 19 89 20 90 43 91
REMARK SMILES IDX 21 92 42 93 22 94 23 95 24 96 25 97 34 98 26 99 32 100
REMARK SMILES IDX 27 101 31 102 33 103 28 104 30 105 29 106 35 107 36 108
REMARK SMILES IDX 41 109 37 110 40 111 38 112 39 113
REMARK H PARENT 105 26 71 37
REMARK Flexibility Score: inf
ROOT
ATOM      1  C   UNL A   1      34.907  22.577  26.298  1.00  0.00     0.188 C 
ENDROOT
BRANCH   1   2
ATOM      2  C   UNL A   1      36.148  23.125  25.555  1.00  0.00     0.188 C 
BRANCH   2   3
ATOM      3  O   UNL A   1      37.317  22.374  25.819  1.00  0.00    -0.376 OA
BRANCH   3   4
ATOM      4  C   UNL A   1      38.521  23.057  26.102  1.00  0.00     0.202 C 
BRANCH   4   5
ATOM      5  C   UNL A   1      39.650  22.291  26.799  1.00  0.00     0.261 C 
BRANCH   5   6
ATOM      6  O   UNL A   1      40.649  21.722  25.939  1.00  0.00    -0.460 OA
BRANCH   6   7
ATOM      7  C   UNL A   1      41.984  21.862  25.851  1.00  0.00     0.338 C 
ATOM      8  O   UNL A   1      42.655  20.854  25.623  1.00  0.00    -0.246 OA
BRANCH   7   9
ATOM      9  C   UNL A   1      42.722  23.121  26.150  1.00  0.00     0.060 A 
ATOM     10  C   UNL A   1      42.778  24.254  25.342  1.00  0.00     0.016 A 
ATOM     11  C   UNL A   1      43.467  23.114  27.351  1.00  0.00     0.016 A 
ATOM     12  C   UNL A   1      43.658  25.287  25.656  1.00  0.00     0.010 A 
ATOM     13  C   UNL A   1      44.333  24.152  27.676  1.00  0.00     0.010 A 
ATOM     14  C   UNL A   1      44.475  25.208  26.789  1.00  0.00    -0.014 A 
BRANCH  14  15
ATOM     15  C   UNL A   1      45.474  26.255  26.971  1.00  0.00     0.031 A 
ATOM     16  C   UNL A   1      46.829  25.976  26.430  1.00  0.00     0.074 A 
ATOM     17  C   UNL A   1      45.224  27.425  27.592  1.00  0.00     0.049 A 
ATOM     18  N   UNL A   1      47.911  25.731  27.094  1.00  0.00    -0.248 NA
ATOM     19  C   UNL A   1      46.978  25.871  24.973  1.00  0.00     0.031 C 
ATOM     20  C   UNL A   1      43.928  28.004  27.952  1.00  0.00     0.029 A 
ATOM     21  N   UNL A   1      46.111  28.391  27.968  1.00  0.00    -0.354 N 
ATOM     22  C   UNL A   1      48.930  25.644  26.148  1.00  0.00     0.074 A 
ATOM     23  C   UNL A   1      48.281  25.601  24.862  1.00  0.00     0.031 C 
ATOM     24  C   UNL A   1      44.102  29.298  28.303  1.00  0.00     0.029 A 
ATOM     25  C   UNL A   1      45.525  29.595  28.329  1.00  0.00     0.049 A 
ATOM     26  H   UNL A   1      47.085  28.245  27.981  1.00  0.00     0.167 HD
ATOM     27  C   UNL A   1      50.241  25.808  26.484  1.00  0.00     0.037 A 
ATOM     28  C   UNL A   1      46.163  30.765  28.576  1.00  0.00     0.037 A 
ATOM     29  C   UNL A   1      50.451  25.682  27.903  1.00  0.00     0.049 A 
ATOM     30  C   UNL A   1      47.569  30.450  28.934  1.00  0.00     0.074 A 
ATOM     31  C   UNL A   1      50.211  24.692  28.838  1.00  0.00     0.029 A 
ATOM     32  N   UNL A   1      50.699  26.821  28.629  1.00  0.00    -0.354 N 
ATOM     33  N   UNL A   1      47.932  29.863  30.041  1.00  0.00    -0.248 NA
ATOM     34  C   UNL A   1      48.561  30.432  27.869  1.00  0.00     0.031 C 
ATOM     35  C   UNL A   1      49.839  25.385  30.027  1.00  0.00     0.029 A 
ATOM     36  C   UNL A   1      49.917  26.752  29.755  1.00  0.00     0.049 A 
ATOM     37  H   UNL A   1      51.318  27.547  28.389  1.00  0.00     0.167 HD
ATOM     38  C   UNL A   1      48.994  29.048  29.680  1.00  0.00     0.074 A 
ATOM     39  C   UNL A   1      49.404  29.522  28.362  1.00  0.00     0.031 C 
ATOM     40  C   UNL A   1      49.269  27.895  30.358  1.00  0.00     0.037 A 
BRANCH  27  41
ATOM     41  C   UNL A   1      51.285  26.403  25.569  1.00  0.00     0.058 A 
ATOM     42  C   UNL A   1      51.058  27.661  24.974  1.00  0.00     0.135 A 
ATOM     43  C   UNL A   1      52.362  25.662  25.037  1.00  0.00     0.135 A 
ATOM     44  F   UNL A   1      50.051  28.445  25.393  1.00  0.00    -0.206 F 
ATOM     45  C   UNL A   1      51.798  28.115  23.880  1.00  0.00     0.059 A 
ATOM     46  C   UNL A   1      53.148  26.119  23.985  1.00  0.00     0.059 A 
ATOM     47  F   UNL A   1      52.633  24.414  25.442  1.00  0.00    -0.206 F 
ATOM     48  C   UNL A   1      52.829  27.324  23.382  1.00  0.00     0.060 A 
BRANCH  48  49
ATOM     49  S   UNL A   1      53.701  27.842  21.893  1.00  0.00     0.124 S 
ATOM     50  O   UNL A   1      54.427  26.625  21.546  1.00  0.00    -0.237 OA
ATOM     51  O   UNL A   1      52.601  28.204  21.004  1.00  0.00    -0.237 OA
ATOM     52  O   UNL A   1      54.520  28.958  22.354  1.00  0.00    -0.744 OA
ENDBRANCH  48  49
ENDBRANCH  27  41
BRANCH  28  53
ATOM     53  C   UNL A   1      45.713  32.139  28.232  1.00  0.00     0.058 A 
ATOM     54  C   UNL A   1      45.626  32.563  26.894  1.00  0.00     0.135 A 
ATOM     55  C   UNL A   1      45.086  32.963  29.187  1.00  0.00     0.135 A 
ATOM     56  F   UNL A   1      46.176  31.828  25.916  1.00  0.00    -0.206 F 
ATOM     57  C   UNL A   1      44.912  33.705  26.520  1.00  0.00     0.059 A 
ATOM     58  C   UNL A   1      44.381  34.114  28.841  1.00  0.00     0.059 A 
ATOM     59  F   UNL A   1      45.054  32.624  30.485  1.00  0.00    -0.206 F 
ATOM     60  C   UNL A   1      44.273  34.463  27.501  1.00  0.00     0.060 A 
BRANCH  60  61
ATOM     61  S   UNL A   1      43.191  35.824  27.009  1.00  0.00     0.124 S 
ATOM     62  O   UNL A   1      44.118  36.951  26.980  1.00  0.00    -0.237 OA
ATOM     63  O   UNL A   1      42.694  35.371  25.715  1.00  0.00    -0.237 OA
ATOM     64  O   UNL A   1      42.193  35.865  28.075  1.00  0.00    -0.744 OA
ENDBRANCH  60  61
ENDBRANCH  28  53
BRANCH  40  65
ATOM     65  C   UNL A   1      48.652  27.694  31.717  1.00  0.00     0.058 A 
ATOM     66  C   UNL A   1      49.228  28.119  32.927  1.00  0.00     0.135 A 
ATOM     67  C   UNL A   1      47.357  27.154  31.780  1.00  0.00     0.135 A 
ATOM     68  F   UNL A   1      50.411  28.751  32.946  1.00  0.00    -0.206 F 
ATOM     69  C   UNL A   1      48.568  27.961  34.148  1.00  0.00     0.059 A 
ATOM     70  C   UNL A   1      46.667  27.021  32.981  1.00  0.00     0.059 A 
ATOM     71  F   UNL A   1      46.723  26.789  30.652  1.00  0.00    -0.206 F 
ATOM     72  C   UNL A   1      47.288  27.409  34.166  1.00  0.00     0.060 A 
BRANCH  72  73
ATOM     73  S   UNL A   1      46.410  27.270  35.738  1.00  0.00     0.124 S 
ATOM     74  O   UNL A   1      45.439  28.354  35.645  1.00  0.00    -0.237 OA
ATOM     75  O   UNL A   1      45.861  25.918  35.678  1.00  0.00    -0.237 OA
ATOM     76  O   UNL A   1      47.463  27.458  36.734  1.00  0.00    -0.744 OA
ENDBRANCH  72  73
ENDBRANCH  40  65
ENDBRANCH  14  15
ENDBRANCH   7   9
ENDBRANCH   6   7
ENDBRANCH   5   6
ENDBRANCH   4   5
ENDBRANCH   3   4
ENDBRANCH   2   3
ENDBRANCH   1   2
BRANCH   1  77
ATOM     77  O   UNL A   1      33.590  22.859  25.828  1.00  0.00    -0.376 OA
BRANCH  77  78
ATOM     78  C   UNL A   1      32.560  23.183  26.746  1.00  0.00     0.202 C 
BRANCH  78  79
ATOM     79  C   UNL A   1      31.160  23.440  26.181  1.00  0.00     0.261 C 
BRANCH  79  80
ATOM     80  O   UNL A   1      30.511  24.614  26.698  1.00  0.00    -0.460 OA
BRANCH  80  81
ATOM     81  C   UNL A   1      30.451  25.676  25.873  1.00  0.00     0.338 C 
ATOM     82  O   UNL A   1      29.602  25.903  25.000  1.00  0.00    -0.246 OA
BRANCH  81  83
ATOM     83  C   UNL A   1      31.497  26.647  26.222  1.00  0.00     0.060 A 
ATOM     84  C   UNL A   1      31.255  27.541  27.276  1.00  0.00     0.018 A 
ATOM     85  C   UNL A   1      32.685  26.723  25.485  1.00  0.00     0.018 A 
ATOM     86  C   UNL A   1      32.194  28.518  27.594  1.00  0.00     0.029 A 
ATOM     87  C   UNL A   1      33.636  27.699  25.806  1.00  0.00     0.029 A 
ATOM     88  C   UNL A   1      33.377  28.593  26.856  1.00  0.00     0.066 A 
BRANCH  88  89
ATOM     89  N   UNL A   1      34.200  29.719  27.036  1.00  0.00    -0.220 N 
ATOM     90  C   UNL A   1      35.545  29.642  27.328  1.00  0.00     0.141 A 
ATOM     91  N   UNL A   1      33.743  30.949  27.316  1.00  0.00    -0.062 NA
ATOM     92  C   UNL A   1      35.889  30.872  27.831  1.00  0.00     0.093 A 
ATOM     93  N   UNL A   1      34.776  31.683  27.712  1.00  0.00    -0.134 NA
BRANCH  92  94
ATOM     94  C   UNL A   1      36.988  31.354  28.710  1.00  0.00     0.138 C 
BRANCH  94  95
ATOM     95  S   UNL A   1      37.358  33.024  29.212  1.00  0.00    -0.081 SA
BRANCH  95  96
ATOM     96  C   UNL A   1      36.431  33.611  30.555  1.00  0.00     0.176 A 
ATOM     97  N   UNL A   1      35.335  34.187  30.156  1.00  0.00    -0.223 NA
ATOM     98  N   UNL A   1      36.745  33.488  31.902  1.00  0.00    -0.255 N 
ATOM     99  C   UNL A   1      34.515  34.808  31.099  1.00  0.00     0.079 A 
ATOM    100  C   UNL A   1      36.335  34.588  32.674  1.00  0.00     0.266 A 
ATOM    101  C   UNL A   1      33.207  35.175  30.786  1.00  0.00     0.029 A 
ATOM    102  C   UNL A   1      35.032  35.167  32.332  1.00  0.00     0.066 A 
ATOM    103  O   UNL A   1      36.981  35.122  33.574  1.00  0.00    -0.268 OA
ATOM    104  C   UNL A   1      32.459  35.947  31.683  1.00  0.00     0.002 A 
ATOM    105  C   UNL A   1      34.321  35.983  33.217  1.00  0.00     0.016 A 
ATOM    106  C   UNL A   1      33.027  36.378  32.883  1.00  0.00     0.001 A 
BRANCH  98 107
ATOM    107  C   UNL A   1      37.513  32.433  32.550  1.00  0.00     0.051 A 
ATOM    108  C   UNL A   1      38.890  32.615  32.805  1.00  0.00     0.028 A 
ATOM    109  C   UNL A   1      36.987  31.197  32.945  1.00  0.00     0.028 A 
ATOM    110  C   UNL A   1      39.727  31.566  33.202  1.00  0.00     0.022 A 
ATOM    111  C   UNL A   1      37.821  30.125  33.305  1.00  0.00     0.022 A 
ATOM    112  C   UNL A   1      39.194  30.305  33.393  1.00  0.00     0.041 A 
ATOM    113  Cl  UNL A   1      40.222  28.978  33.751  1.00  0.00    -0.084 Cl
ENDBRANCH  98 107
ENDBRANCH  95  96
ENDBRANCH  94  95
ENDBRANCH  92  94
ENDBRANCH  88  89
ENDBRANCH  81  83
ENDBRANCH  80  81
ENDBRANCH  79  80
ENDBRANCH  78  79
ENDBRANCH  77  78
ENDBRANCH   1  77
TORSDOF 25
ENDMDL
MODEL 2
REMARK VINA RESULT:     -10.0      1.790      2.604
REMARK SMILES O=C(OCCOCCOCCOC(=O)c1ccc(-n2cc(CSc3nc4ccccc4c(=O)n3-c3ccc(Cl)cc3)nn2)cc1)c1ccc(-c2c3nc(c(-c4c(F)cc(S(=O)(=O)[O-])cc4F)c4ccc([nH]4)c(-c4c(F)cc(S(=O)(=O)[O-])cc4F)c4nc(c(-c5c(F)cc(S(=O)(=O)[O-])cc5F)c5ccc2[nH]5)C=C4)C=C3)cc1
REMARK SMILES IDX 8 1 7 2 6 3 5 4 4 5 3 6 2 7 1 8 46 9 47 10 111 11 48 12
REMARK SMILES IDX 110 13 49 14 50 15 51 16 104 17 52 18 109 19 103 20 105 21
REMARK SMILES IDX 53 22 108 23 102 24 101 25 54 27 88 28 67 29 87 30 68 31
REMARK SMILES IDX 71 32 86 33 106 34 69 35 70 36 85 38 107 39 72 40 55 41
REMARK SMILES IDX 56 42 65 43 57 44 58 45 64 46 66 47 59 48 60 49 61 50 62 51
REMARK SMILES IDX 63 52 89 53 90 54 99 55 91 56 92 57 98 58 100 59 93 60 94 61
REMARK SMILES IDX 95 62 96 63 97 64 73 65 74 66 83 67 75 68 76 69 82 70 84 71
REMARK SMILES IDX 77 72 78 73 79 74 80 75 81 76 9 77 10 78 11 79 12 80 13 81
REMARK SMILES IDX 14 82 15 83 16 84 45 85 17 86 44 87 18 88 19 89 20 90 43 91
REMARK SMILES IDX 21 92 42 93 22 94 23 95 24 96 25 97 34 98 26 99 32 100
REMARK SMILES IDX 27 101 31 102 33 103 28 104 30 105 29 106 35 107 36 108
REMARK SMILES IDX 41 109 37 110 40 111 38 112 39 113
REMARK H PARENT 105 26 71 37
REMARK Flexibility Score: inf
ROOT
ATOM      1  C   UNL A   1      35.212  23.121  25.664  1.00  0.00     0.188 C 
ENDROOT
BRANCH   1   2
ATOM      2  C   UNL A   1      36.703  23.315  25.300  1.00  0.00     0.188 C 
BRANCH   2   3
ATOM      3  O   UNL A   1      37.522  23.500  26.439  1.00  0.00    -0.376 OA
BRANCH   3   4
ATOM      4  C   UNL A   1      38.925  23.537  26.276  1.00  0.00     0.202 C 
BRANCH   4   5
ATOM      5  C   UNL A   1      39.783  22.581  27.112  1.00  0.00     0.261 C 
BRANCH   5   6
ATOM      6  O   UNL A   1      40.460  21.545  26.385  1.00  0.00    -0.460 OA
BRANCH   6   7
ATOM      7  C   UNL A   1      41.736  21.366  25.999  1.00  0.00     0.338 C 
ATOM      8  O   UNL A   1      42.060  20.254  25.580  1.00  0.00    -0.246 OA
BRANCH   7   9
ATOM      9  C   UNL A   1      42.820  22.373  26.175  1.00  0.00     0.060 A 
ATOM     10  C   UNL A   1      43.718  22.438  27.238  1.00  0.00     0.016 A 
ATOM     11  C   UNL A   1      42.885  23.371  25.178  1.00  0.00     0.016 A 
ATOM     12  C   UNL A   1      44.556  23.542  27.371  1.00  0.00     0.010 A 
ATOM     13  C   UNL A   1      43.734  24.466  25.298  1.00  0.00     0.010 A 
ATOM     14  C   UNL A   1      44.522  24.580  26.433  1.00  0.00    -0.014 A 
BRANCH  14  15
ATOM     15  C   UNL A   1      45.319  25.768  26.717  1.00  0.00     0.031 A 
ATOM     16  C   UNL A   1      46.746  25.719  26.311  1.00  0.00     0.074 A 
ATOM     17  C   UNL A   1      44.825  26.872  27.314  1.00  0.00     0.049 A 
ATOM     18  N   UNL A   1      47.784  25.636  27.078  1.00  0.00    -0.248 NA
ATOM     19  C   UNL A   1      47.051  25.667  24.876  1.00  0.00     0.031 C 
ATOM     20  C   UNL A   1      43.425  27.231  27.547  1.00  0.00     0.029 A 
ATOM     21  N   UNL A   1      45.507  27.959  27.780  1.00  0.00    -0.354 N 
ATOM     22  C   UNL A   1      48.891  25.730  26.238  1.00  0.00     0.074 A 
ATOM     23  C   UNL A   1      48.385  25.609  24.893  1.00  0.00     0.031 C 
ATOM     24  C   UNL A   1      43.355  28.529  27.918  1.00  0.00     0.029 A 
ATOM     25  C   UNL A   1      44.703  29.047  28.086  1.00  0.00     0.049 A 
ATOM     26  H   UNL A   1      46.485  27.969  27.888  1.00  0.00     0.167 HD
ATOM     27  C   UNL A   1      50.120  26.094  26.701  1.00  0.00     0.037 A 
ATOM     28  C   UNL A   1      45.119  30.299  28.398  1.00  0.00     0.037 A 
ATOM     29  C   UNL A   1      50.209  25.975  28.134  1.00  0.00     0.049 A 
ATOM     30  C   UNL A   1      46.516  30.204  28.892  1.00  0.00     0.074 A 
ATOM     31  C   UNL A   1      50.041  24.942  29.037  1.00  0.00     0.029 A 
ATOM     32  N   UNL A   1      50.201  27.124  28.885  1.00  0.00    -0.354 N 
ATOM     33  N   UNL A   1      46.860  29.661  30.027  1.00  0.00    -0.248 NA
ATOM     34  C   UNL A   1      47.596  30.365  27.930  1.00  0.00     0.031 C 
ATOM     35  C   UNL A   1      49.450  25.544  30.186  1.00  0.00     0.029 A 
ATOM     36  C   UNL A   1      49.335  26.911  29.928  1.00  0.00     0.049 A 
ATOM     37  H   UNL A   1      50.716  27.944  28.709  1.00  0.00     0.167 HD
ATOM     38  C   UNL A   1      48.068  29.032  29.770  1.00  0.00     0.074 A 
ATOM     39  C   UNL A   1      48.522  29.590  28.501  1.00  0.00     0.031 C 
ATOM     40  C   UNL A   1      48.456  27.925  30.468  1.00  0.00     0.037 A 
BRANCH  27  41
ATOM     41  C   UNL A   1      51.139  26.863  25.897  1.00  0.00     0.058 A 
ATOM     42  C   UNL A   1      52.441  26.344  25.736  1.00  0.00     0.135 A 
ATOM     43  C   UNL A   1      50.971  28.214  25.521  1.00  0.00     0.135 A 
ATOM     44  F   UNL A   1      52.717  25.074  26.074  1.00  0.00    -0.206 F 
ATOM     45  C   UNL A   1      53.512  27.131  25.307  1.00  0.00     0.059 A 
ATOM     46  C   UNL A   1      52.011  29.000  25.038  1.00  0.00     0.059 A 
ATOM     47  F   UNL A   1      49.814  28.863  25.707  1.00  0.00    -0.206 F 
ATOM     48  C   UNL A   1      53.288  28.465  24.979  1.00  0.00     0.060 A 
BRANCH  48  49
ATOM     49  S   UNL A   1      54.685  29.518  24.551  1.00  0.00     0.124 S 
ATOM     50  O   UNL A   1      54.255  30.058  23.266  1.00  0.00    -0.237 OA
ATOM     51  O   UNL A   1      54.710  30.462  25.664  1.00  0.00    -0.237 OA
ATOM     52  O   UNL A   1      55.806  28.585  24.503  1.00  0.00    -0.744 OA
ENDBRANCH  48  49
ENDBRANCH  27  41
BRANCH  28  53
ATOM     53  C   UNL A   1      44.491  31.590  28.017  1.00  0.00     0.058 A 
ATOM     54  C   UNL A   1      43.797  32.369  28.960  1.00  0.00     0.135 A 
ATOM     55  C   UNL A   1      44.803  32.223  26.797  1.00  0.00     0.135 A 
ATOM     56  F   UNL A   1      43.478  31.855  30.157  1.00  0.00    -0.206 F 
ATOM     57  C   UNL A   1      43.482  33.712  28.730  1.00  0.00     0.059 A 
ATOM     58  C   UNL A   1      44.487  33.555  26.538  1.00  0.00     0.059 A 
ATOM     59  F   UNL A   1      45.515  31.593  25.850  1.00  0.00    -0.206 F 
ATOM     60  C   UNL A   1      43.853  34.303  27.522  1.00  0.00     0.060 A 
BRANCH  60  61
ATOM     61  S   UNL A   1      43.625  36.081  27.295  1.00  0.00     0.124 S 
ATOM     62  O   UNL A   1      43.346  36.526  28.656  1.00  0.00    -0.237 OA
ATOM     63  O   UNL A   1      44.911  36.489  26.740  1.00  0.00    -0.237 OA
ATOM     64  O   UNL A   1      42.498  36.163  26.369  1.00  0.00    -0.744 OA
ENDBRANCH  60  61
ENDBRANCH  28  53
BRANCH  40  65
ATOM     65  C   UNL A   1      47.751  27.602  31.759  1.00  0.00     0.058 A 
ATOM     66  C   UNL A   1      48.118  28.107  33.018  1.00  0.00     0.135 A 
ATOM     67  C   UNL A   1      46.572  26.842  31.693  1.00  0.00     0.135 A 
ATOM     68  F   UNL A   1      49.163  28.938  33.153  1.00  0.00    -0.206 F 
ATOM     69  C   UNL A   1      47.377  27.822  34.168  1.00  0.00     0.059 A 
ATOM     70  C   UNL A   1      45.798  26.575  32.820  1.00  0.00     0.059 A 
ATOM     71  F   UNL A   1      46.129  26.385  30.510  1.00  0.00    -0.206 F 
ATOM     72  C   UNL A   1      46.219  27.053  34.058  1.00  0.00     0.060 A 
BRANCH  72  73
ATOM     73  S   UNL A   1      45.226  26.742  35.534  1.00  0.00     0.124 S 
ATOM     74  O   UNL A   1      43.995  27.466  35.235  1.00  0.00    -0.237 OA
ATOM     75  O   UNL A   1      45.119  25.286  35.547  1.00  0.00    -0.237 OA
ATOM     76  O   UNL A   1      46.034  27.306  36.614  1.00  0.00    -0.744 OA
ENDBRANCH  72  73
ENDBRANCH  40  65
ENDBRANCH  14  15
ENDBRANCH   7   9
ENDBRANCH   6   7
ENDBRANCH   5   6
ENDBRANCH   4   5
ENDBRANCH   3   4
ENDBRANCH   2   3
ENDBRANCH   1   2
BRANCH   1  77
ATOM     77  O   UNL A   1      34.184  23.710  24.869  1.00  0.00    -0.376 OA
BRANCH  77  78
ATOM     78  C   UNL A   1      33.043  24.278  25.489  1.00  0.00     0.202 C 
BRANCH  78  79
ATOM     79  C   UNL A   1      31.755  24.361  24.664  1.00  0.00     0.261 C 
BRANCH  79  80
ATOM     80  O   UNL A   1      30.634  24.936  25.357  1.00  0.00    -0.460 OA
BRANCH  80  81
ATOM     81  C   UNL A   1      30.176  26.109  24.884  1.00  0.00     0.338 C 
ATOM     82  O   UNL A   1      29.208  26.290  24.132  1.00  0.00    -0.246 OA
BRANCH  81  83
ATOM     83  C   UNL A   1      30.923  27.223  25.485  1.00  0.00     0.060 A 
ATOM     84  C   UNL A   1      31.348  28.269  24.652  1.00  0.00     0.018 A 
ATOM     85  C   UNL A   1      31.258  27.216  26.845  1.00  0.00     0.018 A 
ATOM     86  C   UNL A   1      32.113  29.309  25.171  1.00  0.00     0.029 A 
ATOM     87  C   UNL A   1      32.021  28.264  27.373  1.00  0.00     0.029 A 
ATOM     88  C   UNL A   1      32.448  29.300  26.527  1.00  0.00     0.066 A 
BRANCH  88  89
ATOM     89  N   UNL A   1      33.406  30.224  26.980  1.00  0.00    -0.220 N 
ATOM     90  C   UNL A   1      34.705  29.885  27.292  1.00  0.00     0.141 A 
ATOM     91  N   UNL A   1      33.107  31.418  27.511  1.00  0.00    -0.062 NA
ATOM     92  C   UNL A   1      35.183  30.912  28.068  1.00  0.00     0.093 A 
ATOM     93  N   UNL A   1      34.203  31.887  28.095  1.00  0.00    -0.134 NA
BRANCH  92  94
ATOM     94  C   UNL A   1      36.278  31.024  29.068  1.00  0.00     0.138 C 
BRANCH  94  95
ATOM     95  S   UNL A   1      36.881  32.481  29.897  1.00  0.00    -0.081 SA
BRANCH  95  96
ATOM     96  C   UNL A   1      37.586  32.202  31.457  1.00  0.00     0.176 A 
ATOM     97  N   UNL A   1      36.989  32.904  32.376  1.00  0.00    -0.223 NA
ATOM     98  N   UNL A   1      38.628  31.336  31.759  1.00  0.00    -0.255 N 
ATOM     99  C   UNL A   1      37.491  32.882  33.677  1.00  0.00     0.079 A 
ATOM    100  C   UNL A   1      39.463  31.803  32.787  1.00  0.00     0.266 A 
ATOM    101  C   UNL A   1      36.739  33.364  34.748  1.00  0.00     0.029 A 
ATOM    102  C   UNL A   1      38.795  32.477  33.907  1.00  0.00     0.066 A 
ATOM    103  O   UNL A   1      40.691  31.731  32.813  1.00  0.00    -0.268 OA
ATOM    104  C   UNL A   1      37.321  33.490  36.016  1.00  0.00     0.002 A 
ATOM    105  C   UNL A   1      39.410  32.646  35.151  1.00  0.00     0.016 A 
ATOM    106  C   UNL A   1      38.664  33.163  36.208  1.00  0.00     0.001 A 
BRANCH  98 107
ATOM    107  C   UNL A   1      38.990  30.099  31.080  1.00  0.00     0.051 A 
ATOM    108  C   UNL A   1      39.866  30.130  29.973  1.00  0.00     0.028 A 
ATOM    109  C   UNL A   1      38.513  28.831  31.434  1.00  0.00     0.028 A 
ATOM    110  C   UNL A   1      40.064  29.023  29.139  1.00  0.00     0.022 A 
ATOM    111  C   UNL A   1      38.670  27.723  30.584  1.00  0.00     0.022 A 
ATOM    112  C   UNL A   1      39.414  27.835  29.418  1.00  0.00     0.041 A 
ATOM    113  Cl  UNL A   1      39.538  26.508  28.337  1.00  0.00    -0.084 Cl
ENDBRANCH  98 107
ENDBRANCH  95  96
ENDBRANCH  94  95
ENDBRANCH  92  94
ENDBRANCH  88  89
ENDBRANCH  81  83
ENDBRANCH  80  81
ENDBRANCH  79  80
ENDBRANCH  78  79
ENDBRANCH  77  78
ENDBRANCH   1  77
TORSDOF 25
ENDMDL
MODEL 3
REMARK VINA RESULT:      -9.8      4.200     10.197
REMARK SMILES O=C(OCCOCCOCCOC(=O)c1ccc(-n2cc(CSc3nc4ccccc4c(=O)n3-c3ccc(Cl)cc3)nn2)cc1)c1ccc(-c2c3nc(c(-c4c(F)cc(S(=O)(=O)[O-])cc4F)c4ccc([nH]4)c(-c4c(F)cc(S(=O)(=O)[O-])cc4F)c4nc(c(-c5c(F)cc(S(=O)(=O)[O-])cc5F)c5ccc2[nH]5)C=C4)C=C3)cc1
REMARK SMILES IDX 8 1 7 2 6 3 5 4 4 5 3 6 2 7 1 8 46 9 47 10 111 11 48 12
REMARK SMILES IDX 110 13 49 14 50 15 51 16 104 17 52 18 109 19 103 20 105 21
REMARK SMILES IDX 53 22 108 23 102 24 101 25 54 27 88 28 67 29 87 30 68 31
REMARK SMILES IDX 71 32 86 33 106 34 69 35 70 36 85 38 107 39 72 40 55 41
REMARK SMILES IDX 56 42 65 43 57 44 58 45 64 46 66 47 59 48 60 49 61 50 62 51
REMARK SMILES IDX 63 52 89 53 90 54 99 55 91 56 92 57 98 58 100 59 93 60 94 61
REMARK SMILES IDX 95 62 96 63 97 64 73 65 74 66 83 67 75 68 76 69 82 70 84 71
REMARK SMILES IDX 77 72 78 73 79 74 80 75 81 76 9 77 10 78 11 79 12 80 13 81
REMARK SMILES IDX 14 82 15 83 16 84 45 85 17 86 44 87 18 88 19 89 20 90 43 91
REMARK SMILES IDX 21 92 42 93 22 94 23 95 24 96 25 97 34 98 26 99 32 100
REMARK SMILES IDX 27 101 31 102 33 103 28 104 30 105 29 106 35 107 36 108
REMARK SMILES IDX 41 109 37 110 40 111 38 112 39 113
REMARK H PARENT 105 26 71 37
REMARK Flexibility Score: inf
ROOT
ATOM      1  C   UNL A   1      48.780  25.231  38.420  1.00  0.00     0.188 C 
ENDROOT
BRANCH   1   2
ATOM      2  C   UNL A   1      49.888  24.572  37.566  1.00  0.00     0.188 C 
BRANCH   2   3
ATOM      3  O   UNL A   1      49.517  23.293  37.085  1.00  0.00    -0.376 OA
BRANCH   3   4
ATOM      4  C   UNL A   1      50.516  22.310  36.914  1.00  0.00     0.202 C 
BRANCH   4   5
ATOM      5  C   UNL A   1      50.552  21.526  35.597  1.00  0.00     0.261 C 
BRANCH   5   6
ATOM      6  O   UNL A   1      50.295  22.284  34.406  1.00  0.00    -0.460 OA
BRANCH   6   7
ATOM      7  C   UNL A   1      50.943  23.289  33.790  1.00  0.00     0.338 C 
ATOM      8  O   UNL A   1      52.097  23.533  34.145  1.00  0.00    -0.246 OA
BRANCH   7   9
ATOM      9  C   UNL A   1      50.317  24.221  32.810  1.00  0.00     0.060 A 
ATOM     10  C   UNL A   1      49.024  24.733  32.872  1.00  0.00     0.016 A 
ATOM     11  C   UNL A   1      51.123  24.559  31.699  1.00  0.00     0.016 A 
ATOM     12  C   UNL A   1      48.506  25.443  31.790  1.00  0.00     0.010 A 
ATOM     13  C   UNL A   1      50.615  25.282  30.626  1.00  0.00     0.010 A 
ATOM     14  C   UNL A   1      49.282  25.666  30.648  1.00  0.00    -0.014 A 
BRANCH  14  15
ATOM     15  C   UNL A   1      48.627  26.284  29.501  1.00  0.00     0.031 A 
ATOM     16  C   UNL A   1      47.535  27.245  29.803  1.00  0.00     0.074 A 
ATOM     17  C   UNL A   1      48.962  26.025  28.221  1.00  0.00     0.049 A 
ATOM     18  N   UNL A   1      46.266  27.084  29.616  1.00  0.00    -0.248 NA
ATOM     19  C   UNL A   1      47.892  28.501  30.473  1.00  0.00     0.031 C 
ATOM     20  C   UNL A   1      50.151  25.337  27.714  1.00  0.00     0.029 A 
ATOM     21  N   UNL A   1      48.314  26.406  27.082  1.00  0.00    -0.354 N 
ATOM     22  C   UNL A   1      45.672  28.298  29.952  1.00  0.00     0.074 A 
ATOM     23  C   UNL A   1      46.696  29.081  30.599  1.00  0.00     0.031 C 
ATOM     24  C   UNL A   1      50.240  25.531  26.379  1.00  0.00     0.029 A 
ATOM     25  C   UNL A   1      49.050  26.228  25.920  1.00  0.00     0.049 A 
ATOM     26  H   UNL A   1      47.401  26.776  27.085  1.00  0.00     0.167 HD
ATOM     27  C   UNL A   1      44.433  28.644  29.502  1.00  0.00     0.037 A 
ATOM     28  C   UNL A   1      48.728  26.673  24.681  1.00  0.00     0.037 A 
ATOM     29  C   UNL A   1      43.704  27.504  29.010  1.00  0.00     0.049 A 
ATOM     30  C   UNL A   1      47.260  26.890  24.643  1.00  0.00     0.074 A 
ATOM     31  C   UNL A   1      43.301  26.298  29.553  1.00  0.00     0.029 A 
ATOM     32  N   UNL A   1      43.549  27.365  27.653  1.00  0.00    -0.354 N 
ATOM     33  N   UNL A   1      46.374  25.932  24.675  1.00  0.00    -0.248 NA
ATOM     34  C   UNL A   1      46.753  28.214  24.968  1.00  0.00     0.031 C 
ATOM     35  C   UNL A   1      43.405  25.356  28.488  1.00  0.00     0.029 A 
ATOM     36  C   UNL A   1      43.823  26.054  27.354  1.00  0.00     0.049 A 
ATOM     37  H   UNL A   1      43.291  28.070  27.016  1.00  0.00     0.167 HD
ATOM     38  C   UNL A   1      45.326  26.443  25.425  1.00  0.00     0.074 A 
ATOM     39  C   UNL A   1      45.567  27.880  25.483  1.00  0.00     0.031 C 
ATOM     40  C   UNL A   1      44.511  25.626  26.156  1.00  0.00     0.037 A 
BRANCH  27  41
ATOM     41  C   UNL A   1      44.000  30.060  29.206  1.00  0.00     0.058 A 
ATOM     42  C   UNL A   1      44.734  30.838  28.287  1.00  0.00     0.135 A 
ATOM     43  C   UNL A   1      43.070  30.768  29.997  1.00  0.00     0.135 A 
ATOM     44  F   UNL A   1      45.656  30.270  27.492  1.00  0.00    -0.206 F 
ATOM     45  C   UNL A   1      44.607  32.227  28.214  1.00  0.00     0.059 A 
ATOM     46  C   UNL A   1      42.887  32.143  29.902  1.00  0.00     0.059 A 
ATOM     47  F   UNL A   1      42.372  30.174  30.975  1.00  0.00    -0.206 F 
ATOM     48  C   UNL A   1      43.693  32.871  29.042  1.00  0.00     0.060 A 
BRANCH  48  49
ATOM     49  S   UNL A   1      43.617  34.670  29.047  1.00  0.00     0.124 S 
ATOM     50  O   UNL A   1      43.974  34.970  30.429  1.00  0.00    -0.237 OA
ATOM     51  O   UNL A   1      44.614  35.022  28.040  1.00  0.00    -0.237 OA
ATOM     52  O   UNL A   1      42.234  34.949  28.675  1.00  0.00    -0.744 OA
ENDBRANCH  48  49
ENDBRANCH  27  41
BRANCH  28  53
ATOM     53  C   UNL A   1      49.643  27.201  23.636  1.00  0.00     0.058 A 
ATOM     54  C   UNL A   1      50.738  28.017  23.973  1.00  0.00     0.135 A 
ATOM     55  C   UNL A   1      49.633  26.684  22.326  1.00  0.00     0.135 A 
ATOM     56  F   UNL A   1      50.841  28.535  25.206  1.00  0.00    -0.206 F 
ATOM     57  C   UNL A   1      51.788  28.259  23.081  1.00  0.00     0.059 A 
ATOM     58  C   UNL A   1      50.659  26.923  21.415  1.00  0.00     0.059 A 
ATOM     59  F   UNL A   1      48.668  25.847  21.917  1.00  0.00    -0.206 F 
ATOM     60  C   UNL A   1      51.750  27.687  21.810  1.00  0.00     0.060 A 
BRANCH  60  61
ATOM     61  S   UNL A   1      53.188  27.833  20.725  1.00  0.00     0.124 S 
ATOM     62  O   UNL A   1      52.577  27.755  19.402  1.00  0.00    -0.237 OA
ATOM     63  O   UNL A   1      53.729  29.134  21.104  1.00  0.00    -0.237 OA
ATOM     64  O   UNL A   1      54.012  26.687  21.100  1.00  0.00    -0.744 OA
ENDBRANCH  60  61
ENDBRANCH  28  53
BRANCH  40  65
ATOM     65  C   UNL A   1      44.517  24.149  25.861  1.00  0.00     0.058 A 
ATOM     66  C   UNL A   1      43.658  23.513  24.948  1.00  0.00     0.135 A 
ATOM     67  C   UNL A   1      45.527  23.366  26.442  1.00  0.00     0.135 A 
ATOM     68  F   UNL A   1      42.742  24.210  24.259  1.00  0.00    -0.206 F 
ATOM     69  C   UNL A   1      43.764  22.148  24.670  1.00  0.00     0.059 A 
ATOM     70  C   UNL A   1      45.674  22.012  26.153  1.00  0.00     0.059 A 
ATOM     71  F   UNL A   1      46.422  23.926  27.273  1.00  0.00    -0.206 F 
ATOM     72  C   UNL A   1      44.775  21.405  25.279  1.00  0.00     0.060 A 
BRANCH  72  73
ATOM     73  S   UNL A   1      44.952  19.656  24.867  1.00  0.00     0.124 S 
ATOM     74  O   UNL A   1      44.524  19.624  23.472  1.00  0.00    -0.237 OA
ATOM     75  O   UNL A   1      46.373  19.415  25.100  1.00  0.00    -0.237 OA
ATOM     76  O   UNL A   1      44.056  18.990  25.809  1.00  0.00    -0.744 OA
ENDBRANCH  72  73
ENDBRANCH  40  65
ENDBRANCH  14  15
ENDBRANCH   7   9
ENDBRANCH   6   7
ENDBRANCH   5   6
ENDBRANCH   4   5
ENDBRANCH   3   4
ENDBRANCH   2   3
ENDBRANCH   1   2
BRANCH   1  77
ATOM     77  O   UNL A   1      47.416  25.193  38.003  1.00  0.00    -0.376 OA
BRANCH  77  78
ATOM     78  C   UNL A   1      46.987  25.971  36.898  1.00  0.00     0.202 C 
BRANCH  78  79
ATOM     79  C   UNL A   1      46.277  25.245  35.752  1.00  0.00     0.261 C 
BRANCH  79  80
ATOM     80  O   UNL A   1      45.524  26.101  34.875  1.00  0.00    -0.460 OA
BRANCH  80  81
ATOM     81  C   UNL A   1      44.259  25.724  34.612  1.00  0.00     0.338 C 
ATOM     82  O   UNL A   1      43.851  24.582  34.363  1.00  0.00    -0.246 OA
BRANCH  81  83
ATOM     83  C   UNL A   1      43.348  26.865  34.776  1.00  0.00     0.060 A 
ATOM     84  C   UNL A   1      42.233  26.957  33.928  1.00  0.00     0.018 A 
ATOM     85  C   UNL A   1      43.614  27.872  35.712  1.00  0.00     0.018 A 
ATOM     86  C   UNL A   1      41.383  28.056  34.008  1.00  0.00     0.029 A 
ATOM     87  C   UNL A   1      42.757  28.976  35.801  1.00  0.00     0.029 A 
ATOM     88  C   UNL A   1      41.651  29.060  34.941  1.00  0.00     0.066 A 
BRANCH  88  89
ATOM     89  N   UNL A   1      40.924  30.261  34.850  1.00  0.00    -0.220 N 
ATOM     90  C   UNL A   1      39.786  30.521  35.582  1.00  0.00     0.141 A 
ATOM     91  N   UNL A   1      41.008  31.115  33.820  1.00  0.00    -0.062 NA
ATOM     92  C   UNL A   1      39.154  31.555  34.935  1.00  0.00     0.093 A 
ATOM     93  N   UNL A   1      39.991  31.962  33.913  1.00  0.00    -0.134 NA
BRANCH  92  94
ATOM     94  C   UNL A   1      37.749  32.038  34.895  1.00  0.00     0.138 C 
BRANCH  94  95
ATOM     95  S   UNL A   1      37.152  33.717  34.874  1.00  0.00    -0.081 SA
BRANCH  95  96
ATOM     96  C   UNL A   1      36.228  34.153  33.472  1.00  0.00     0.176 A 
ATOM     97  N   UNL A   1      35.614  35.286  33.646  1.00  0.00    -0.223 NA
ATOM     98  N   UNL A   1      36.138  33.447  32.280  1.00  0.00    -0.255 N 
ATOM     99  C   UNL A   1      34.742  35.742  32.657  1.00  0.00     0.079 A 
ATOM    100  C   UNL A   1      34.877  33.540  31.669  1.00  0.00     0.266 A 
ATOM    101  C   UNL A   1      34.291  37.061  32.646  1.00  0.00     0.029 A 
ATOM    102  C   UNL A   1      34.225  34.853  31.730  1.00  0.00     0.066 A 
ATOM    103  O   UNL A   1      34.265  32.622  31.127  1.00  0.00    -0.268 OA
ATOM    104  C   UNL A   1      33.289  37.455  31.751  1.00  0.00     0.002 A 
ATOM    105  C   UNL A   1      33.186  35.212  30.867  1.00  0.00     0.016 A 
ATOM    106  C   UNL A   1      32.714  36.523  30.885  1.00  0.00     0.001 A 
BRANCH  98 107
ATOM    107  C   UNL A   1      37.138  32.574  31.679  1.00  0.00     0.051 A 
ATOM    108  C   UNL A   1      38.212  33.128  30.947  1.00  0.00     0.028 A 
ATOM    109  C   UNL A   1      37.119  31.176  31.753  1.00  0.00     0.028 A 
ATOM    110  C   UNL A   1      39.062  32.349  30.154  1.00  0.00     0.022 A 
ATOM    111  C   UNL A   1      37.939  30.385  30.931  1.00  0.00     0.022 A 
ATOM    112  C   UNL A   1      38.882  30.979  30.104  1.00  0.00     0.041 A 
ATOM    113  Cl  UNL A   1      39.828  30.022  29.038  1.00  0.00    -0.084 Cl
ENDBRANCH  98 107
ENDBRANCH  95  96
ENDBRANCH  94  95
ENDBRANCH  92  94
ENDBRANCH  88  89
ENDBRANCH  81  83
ENDBRANCH  80  81
ENDBRANCH  79  80
ENDBRANCH  78  79
ENDBRANCH  77  78
ENDBRANCH   1  77
TORSDOF 25
ENDMDL
