MODEL 1
REMARK VINA RESULT:     -10.7      0.000      0.000
REMARK SMILES Cc1ccc(S(=O)(=O)N2C[C@@H](CC(=O)OCCOCCOCCOC(=O)c3ccc(-c4c5nc(c(-c6c(F)cc(S(=O)(=O)[O-])cc6F)c6ccc([nH]6)c(-c6c(F)cc(S(=O)(=O)[O-])cc6F)c6nc(c(-c7c(F)cc(S(=O)(=O)[O-])cc7F)c7ccc4[nH]7)C=C6)C=C5)cc3)c3ccccc32)c(C)c1
REMARK SMILES IDX 19 1 18 2 17 3 16 4 15 5 13 6 14 7 12 8 11 9 9 10 10 11
REMARK SMILES IDX 98 12 93 13 97 14 94 15 96 16 95 17 6 18 7 19 8 20 5 21 1 22
REMARK SMILES IDX 2 23 3 24 101 25 4 26 99 27 100 28 20 29 21 30 22 31 23 32
REMARK SMILES IDX 24 33 25 34 26 35 27 36 28 37 92 38 29 39 91 40 30 41 31 42
REMARK SMILES IDX 32 43 85 44 33 45 90 46 84 47 86 48 34 49 89 50 83 51 82 52
REMARK SMILES IDX 35 54 69 55 48 56 68 57 49 58 52 59 67 60 87 61 50 62 51 63
REMARK SMILES IDX 66 65 88 66 53 67 36 68 37 69 46 70 38 71 39 72 45 73 47 74
REMARK SMILES IDX 40 75 41 76 42 77 43 78 44 79 70 80 71 81 80 82 72 83 73 84
REMARK SMILES IDX 79 85 81 86 74 87 75 88 76 89 77 90 78 91 54 92 55 93 64 94
REMARK SMILES IDX 56 95 57 96 63 97 65 98 58 99 59 100 60 101 61 102 62 103
REMARK H PARENT 86 53 52 64
REMARK Flexibility Score: inf
ROOT
ATOM      1  C   UNL A   1      38.546  19.845  25.106  1.00  0.00     0.188 C 
ENDROOT
BRANCH   1   2
ATOM      2  O   UNL A   1      37.922  21.109  24.907  1.00  0.00    -0.376 OA
BRANCH   2   3
ATOM      3  C   UNL A   1      36.613  21.260  25.454  1.00  0.00     0.202 C 
BRANCH   3   4
ATOM      4  C   UNL A   1      35.576  20.257  24.935  1.00  0.00     0.261 C 
BRANCH   4   5
ATOM      5  O   UNL A   1      34.245  20.528  25.427  1.00  0.00    -0.463 OA
BRANCH   5   6
ATOM      6  C   UNL A   1      33.315  20.801  24.483  1.00  0.00     0.306 C 
ATOM      7  O   UNL A   1      32.471  19.999  24.091  1.00  0.00    -0.252 OA
BRANCH   6   8
ATOM      8  C   UNL A   1      33.348  22.211  23.937  1.00  0.00     0.133 C 
BRANCH   8   9
ATOM      9  C   UNL A   1      32.066  22.974  23.599  1.00  0.00     0.053 C 
ATOM     10  N   UNL A   1      31.580  25.338  23.316  1.00  0.00    -0.265 N 
ATOM     11  C   UNL A   1      32.461  24.270  22.805  1.00  0.00     0.144 C 
ATOM     12  C   UNL A   1      30.970  24.909  24.518  1.00  0.00     0.055 A 
ATOM     13  C   UNL A   1      31.254  23.556  24.733  1.00  0.00    -0.018 A 
ATOM     14  C   UNL A   1      30.165  25.634  25.380  1.00  0.00     0.027 A 
ATOM     15  C   UNL A   1      30.704  22.908  25.831  1.00  0.00     0.006 A 
ATOM     16  C   UNL A   1      29.650  24.990  26.504  1.00  0.00     0.002 A 
ATOM     17  C   UNL A   1      29.914  23.633  26.724  1.00  0.00     0.000 A 
BRANCH  10  18
ATOM     18  S   UNL A   1      31.768  26.931  22.836  1.00  0.00     0.264 S 
ATOM     19  O   UNL A   1      30.457  27.418  22.437  1.00  0.00    -0.201 OA
ATOM     20  O   UNL A   1      32.896  26.994  21.935  1.00  0.00    -0.201 OA
BRANCH  18  21
ATOM     21  C   UNL A   1      32.226  27.911  24.272  1.00  0.00     0.090 A 
ATOM     22  C   UNL A   1      33.641  30.541  27.393  1.00  0.00     0.044 C 
ATOM     23  C   UNL A   1      33.124  29.623  26.325  1.00  0.00    -0.051 A 
ATOM     24  C   UNL A   1      31.958  29.917  25.617  1.00  0.00     0.005 A 
ATOM     25  C   UNL A   1      33.806  28.436  26.037  1.00  0.00     0.008 A 
ATOM     26  C   UNL A   1      31.507  29.067  24.602  1.00  0.00     0.023 A 
ATOM     27  C   UNL A   1      33.372  27.562  25.021  1.00  0.00    -0.030 A 
ATOM     28  C   UNL A   1      34.176  26.303  24.829  1.00  0.00     0.046 C 
ENDBRANCH  18  21
ENDBRANCH  10  18
ENDBRANCH   8   9
ENDBRANCH   6   8
ENDBRANCH   5   6
ENDBRANCH   4   5
ENDBRANCH   3   4
ENDBRANCH   2   3
ENDBRANCH   1   2
BRANCH   1  29
ATOM     29  C   UNL A   1      39.896  19.886  25.819  1.00  0.00     0.188 C 
BRANCH  29  30
ATOM     30  O   UNL A   1      39.989  20.767  26.935  1.00  0.00    -0.376 OA
BRANCH  30  31
ATOM     31  C   UNL A   1      41.331  21.094  27.328  1.00  0.00     0.202 C 
BRANCH  31  32
ATOM     32  C   UNL A   1      42.125  21.989  26.351  1.00  0.00     0.261 C 
BRANCH  32  33
ATOM     33  O   UNL A   1      41.537  23.281  26.091  1.00  0.00    -0.460 OA
BRANCH  33  34
ATOM     34  C   UNL A   1      42.375  24.340  25.995  1.00  0.00     0.338 C 
ATOM     35  O   UNL A   1      43.182  24.540  25.101  1.00  0.00    -0.246 OA
BRANCH  34  36
ATOM     36  C   UNL A   1      41.959  25.362  26.994  1.00  0.00     0.060 A 
ATOM     37  C   UNL A   1      42.588  26.616  26.962  1.00  0.00     0.016 A 
ATOM     38  C   UNL A   1      40.913  25.134  27.895  1.00  0.00     0.016 A 
ATOM     39  C   UNL A   1      42.203  27.623  27.852  1.00  0.00     0.010 A 
ATOM     40  C   UNL A   1      40.538  26.139  28.794  1.00  0.00     0.010 A 
ATOM     41  C   UNL A   1      41.203  27.378  28.801  1.00  0.00    -0.014 A 
BRANCH  41  42
ATOM     42  C   UNL A   1      41.006  28.316  29.935  1.00  0.00     0.031 A 
ATOM     43  C   UNL A   1      41.913  28.177  31.130  1.00  0.00     0.074 A 
ATOM     44  C   UNL A   1      40.065  29.279  29.919  1.00  0.00     0.049 A 
ATOM     45  N   UNL A   1      41.911  28.836  32.259  1.00  0.00    -0.248 NA
ATOM     46  C   UNL A   1      42.963  27.150  31.033  1.00  0.00     0.031 C 
ATOM     47  C   UNL A   1      39.150  29.554  28.814  1.00  0.00     0.029 A 
ATOM     48  N   UNL A   1      39.722  30.203  30.878  1.00  0.00    -0.354 N 
ATOM     49  C   UNL A   1      42.955  28.305  33.007  1.00  0.00     0.074 A 
ATOM     50  C   UNL A   1      43.546  27.246  32.217  1.00  0.00     0.031 C 
ATOM     51  C   UNL A   1      38.342  30.574  29.162  1.00  0.00     0.029 A 
ATOM     52  C   UNL A   1      38.663  31.004  30.524  1.00  0.00     0.049 A 
ATOM     53  H   UNL A   1      40.194  30.284  31.739  1.00  0.00     0.167 HD
ATOM     54  C   UNL A   1      43.392  28.668  34.236  1.00  0.00     0.037 A 
ATOM     55  C   UNL A   1      38.014  31.956  31.226  1.00  0.00     0.037 A 
ATOM     56  C   UNL A   1      42.801  29.711  35.030  1.00  0.00     0.049 A 
ATOM     57  C   UNL A   1      38.461  32.287  32.630  1.00  0.00     0.074 A 
ATOM     58  C   UNL A   1      43.177  30.151  36.286  1.00  0.00     0.029 A 
ATOM     59  N   UNL A   1      41.705  30.470  34.651  1.00  0.00    -0.354 N 
ATOM     60  N   UNL A   1      39.460  31.787  33.319  1.00  0.00    -0.248 NA
ATOM     61  C   UNL A   1      37.692  33.312  33.352  1.00  0.00     0.031 C 
ATOM     62  C   UNL A   1      42.279  31.146  36.687  1.00  0.00     0.029 A 
ATOM     63  C   UNL A   1      41.376  31.361  35.659  1.00  0.00     0.049 A 
ATOM     64  H   UNL A   1      41.231  30.390  33.791  1.00  0.00     0.167 HD
ATOM     65  C   UNL A   1      39.455  32.457  34.541  1.00  0.00     0.074 A 
ATOM     66  C   UNL A   1      38.359  33.401  34.495  1.00  0.00     0.031 C 
ATOM     67  C   UNL A   1      40.287  32.306  35.601  1.00  0.00     0.037 A 
BRANCH  54  68
ATOM     68  C   UNL A   1      44.551  27.900  34.805  1.00  0.00     0.058 A 
ATOM     69  C   UNL A   1      45.872  28.360  34.684  1.00  0.00     0.135 A 
ATOM     70  C   UNL A   1      44.337  26.689  35.483  1.00  0.00     0.135 A 
ATOM     71  F   UNL A   1      46.133  29.501  34.026  1.00  0.00    -0.206 F 
ATOM     72  C   UNL A   1      46.944  27.629  35.185  1.00  0.00     0.059 A 
ATOM     73  C   UNL A   1      45.392  25.955  36.015  1.00  0.00     0.059 A 
ATOM     74  F   UNL A   1      43.094  26.202  35.622  1.00  0.00    -0.206 F 
ATOM     75  C   UNL A   1      46.694  26.426  35.846  1.00  0.00     0.060 A 
BRANCH  75  76
ATOM     76  S   UNL A   1      48.096  25.479  36.476  1.00  0.00     0.124 S 
ATOM     77  O   UNL A   1      49.184  26.443  36.335  1.00  0.00    -0.237 OA
ATOM     78  O   UNL A   1      47.684  25.184  37.844  1.00  0.00    -0.237 OA
ATOM     79  O   UNL A   1      48.158  24.327  35.581  1.00  0.00    -0.744 OA
ENDBRANCH  75  76
ENDBRANCH  54  68
BRANCH  55  80
ATOM     80  C   UNL A   1      36.856  32.670  30.621  1.00  0.00     0.058 A 
ATOM     81  C   UNL A   1      37.046  33.750  29.745  1.00  0.00     0.135 A 
ATOM     82  C   UNL A   1      35.536  32.299  30.918  1.00  0.00     0.135 A 
ATOM     83  F   UNL A   1      38.289  34.158  29.445  1.00  0.00    -0.206 F 
ATOM     84  C   UNL A   1      35.972  34.441  29.192  1.00  0.00     0.059 A 
ATOM     85  C   UNL A   1      34.445  32.957  30.359  1.00  0.00     0.059 A 
ATOM     86  F   UNL A   1      35.298  31.272  31.750  1.00  0.00    -0.206 F 
ATOM     87  C   UNL A   1      34.672  34.032  29.503  1.00  0.00     0.060 A 
BRANCH  87  88
ATOM     88  S   UNL A   1      33.285  34.900  28.737  1.00  0.00     0.124 S 
ATOM     89  O   UNL A   1      32.528  35.335  29.905  1.00  0.00    -0.237 OA
ATOM     90  O   UNL A   1      33.960  35.954  27.985  1.00  0.00    -0.237 OA
ATOM     91  O   UNL A   1      32.653  33.867  27.923  1.00  0.00    -0.744 OA
ENDBRANCH  87  88
ENDBRANCH  55  80
BRANCH  67  92
ATOM     92  C   UNL A   1      40.081  33.204  36.793  1.00  0.00     0.058 A 
ATOM     93  C   UNL A   1      40.788  34.406  36.944  1.00  0.00     0.135 A 
ATOM     94  C   UNL A   1      39.111  32.889  37.759  1.00  0.00     0.135 A 
ATOM     95  F   UNL A   1      41.730  34.754  36.053  1.00  0.00    -0.206 F 
ATOM     96  C   UNL A   1      40.553  35.258  38.021  1.00  0.00     0.059 A 
ATOM     97  C   UNL A   1      38.840  33.737  38.828  1.00  0.00     0.059 A 
ATOM     98  F   UNL A   1      38.397  31.757  37.655  1.00  0.00    -0.206 F 
ATOM     99  C   UNL A   1      39.575  34.916  38.956  1.00  0.00     0.060 A 
BRANCH  99 100
ATOM    100  S   UNL A   1      39.248  36.048  40.325  1.00  0.00     0.124 S 
ATOM    101  O   UNL A   1      40.545  36.088  40.991  1.00  0.00    -0.237 OA
ATOM    102  O   UNL A   1      38.855  37.272  39.632  1.00  0.00    -0.237 OA
ATOM    103  O   UNL A   1      38.180  35.387  41.068  1.00  0.00    -0.744 OA
ENDBRANCH  99 100
ENDBRANCH  67  92
ENDBRANCH  41  42
ENDBRANCH  34  36
ENDBRANCH  33  34
ENDBRANCH  32  33
ENDBRANCH  31  32
ENDBRANCH  30  31
ENDBRANCH  29  30
ENDBRANCH   1  29
TORSDOF 23
ENDMDL
MODEL 2
REMARK VINA RESULT:     -10.6      1.409      2.185
REMARK SMILES Cc1ccc(S(=O)(=O)N2C[C@@H](CC(=O)OCCOCCOCCOC(=O)c3ccc(-c4c5nc(c(-c6c(F)cc(S(=O)(=O)[O-])cc6F)c6ccc([nH]6)c(-c6c(F)cc(S(=O)(=O)[O-])cc6F)c6nc(c(-c7c(F)cc(S(=O)(=O)[O-])cc7F)c7ccc4[nH]7)C=C6)C=C5)cc3)c3ccccc32)c(C)c1
REMARK SMILES IDX 19 1 18 2 17 3 16 4 15 5 13 6 14 7 12 8 11 9 9 10 10 11
REMARK SMILES IDX 98 12 93 13 97 14 94 15 96 16 95 17 6 18 7 19 8 20 5 21 1 22
REMARK SMILES IDX 2 23 3 24 101 25 4 26 99 27 100 28 20 29 21 30 22 31 23 32
REMARK SMILES IDX 24 33 25 34 26 35 27 36 28 37 92 38 29 39 91 40 30 41 31 42
REMARK SMILES IDX 32 43 85 44 33 45 90 46 84 47 86 48 34 49 89 50 83 51 82 52
REMARK SMILES IDX 35 54 69 55 48 56 68 57 49 58 52 59 67 60 87 61 50 62 51 63
REMARK SMILES IDX 66 65 88 66 53 67 36 68 37 69 46 70 38 71 39 72 45 73 47 74
REMARK SMILES IDX 40 75 41 76 42 77 43 78 44 79 70 80 71 81 80 82 72 83 73 84
REMARK SMILES IDX 79 85 81 86 74 87 75 88 76 89 77 90 78 91 54 92 55 93 64 94
REMARK SMILES IDX 56 95 57 96 63 97 65 98 58 99 59 100 60 101 61 102 62 103
REMARK H PARENT 86 53 52 64
REMARK Flexibility Score: inf
ROOT
ATOM      1  C   UNL A   1      36.920  23.343  25.024  1.00  0.00     0.188 C 
ENDROOT
BRANCH   1   2
ATOM      2  O   UNL A   1      35.592  23.474  25.521  1.00  0.00    -0.376 OA
BRANCH   2   3
ATOM      3  C   UNL A   1      35.042  22.327  26.165  1.00  0.00     0.202 C 
BRANCH   3   4
ATOM      4  C   UNL A   1      34.933  21.079  25.283  1.00  0.00     0.261 C 
BRANCH   4   5
ATOM      5  O   UNL A   1      33.884  20.183  25.713  1.00  0.00    -0.463 OA
BRANCH   5   6
ATOM      6  C   UNL A   1      32.944  19.894  24.783  1.00  0.00     0.306 C 
ATOM      7  O   UNL A   1      32.107  19.003  24.901  1.00  0.00    -0.252 OA
BRANCH   6   8
ATOM      8  C   UNL A   1      32.957  20.780  23.559  1.00  0.00     0.133 C 
BRANCH   8   9
ATOM      9  C   UNL A   1      32.061  22.016  23.449  1.00  0.00     0.053 C 
ATOM     10  N   UNL A   1      32.525  24.400  23.528  1.00  0.00    -0.265 N 
ATOM     11  C   UNL A   1      32.899  23.173  22.798  1.00  0.00     0.144 C 
ATOM     12  C   UNL A   1      31.843  24.050  24.716  1.00  0.00     0.055 A 
ATOM     13  C   UNL A   1      31.585  22.675  24.724  1.00  0.00    -0.018 A 
ATOM     14  C   UNL A   1      31.418  24.879  25.740  1.00  0.00     0.027 A 
ATOM     15  C   UNL A   1      30.869  22.119  25.775  1.00  0.00     0.006 A 
ATOM     16  C   UNL A   1      30.737  24.310  26.815  1.00  0.00     0.002 A 
ATOM     17  C   UNL A   1      30.459  22.938  26.828  1.00  0.00     0.000 A 
BRANCH  10  18
ATOM     18  S   UNL A   1      33.301  25.857  23.245  1.00  0.00     0.264 S 
ATOM     19  O   UNL A   1      33.952  25.753  21.949  1.00  0.00    -0.201 OA
ATOM     20  O   UNL A   1      34.048  26.201  24.433  1.00  0.00    -0.201 OA
BRANCH  18  21
ATOM     21  C   UNL A   1      32.056  27.139  23.054  1.00  0.00     0.090 A 
ATOM     22  C   UNL A   1      29.041  30.076  22.080  1.00  0.00     0.044 C 
ATOM     23  C   UNL A   1      30.079  29.057  22.447  1.00  0.00    -0.051 A 
ATOM     24  C   UNL A   1      29.719  27.795  22.924  1.00  0.00     0.005 A 
ATOM     25  C   UNL A   1      31.437  29.372  22.330  1.00  0.00     0.008 A 
ATOM     26  C   UNL A   1      30.698  26.845  23.231  1.00  0.00     0.023 A 
ATOM     27  C   UNL A   1      32.441  28.432  22.634  1.00  0.00    -0.030 A 
ATOM     28  C   UNL A   1      33.866  28.904  22.495  1.00  0.00     0.046 C 
ENDBRANCH  18  21
ENDBRANCH  10  18
ENDBRANCH   8   9
ENDBRANCH   6   8
ENDBRANCH   5   6
ENDBRANCH   4   5
ENDBRANCH   3   4
ENDBRANCH   2   3
ENDBRANCH   1   2
BRANCH   1  29
ATOM     29  C   UNL A   1      37.969  22.935  26.057  1.00  0.00     0.188 C 
BRANCH  29  30
ATOM     30  O   UNL A   1      38.838  21.870  25.679  1.00  0.00    -0.376 OA
BRANCH  30  31
ATOM     31  C   UNL A   1      40.012  21.740  26.496  1.00  0.00     0.202 C 
BRANCH  31  32
ATOM     32  C   UNL A   1      41.148  22.750  26.216  1.00  0.00     0.261 C 
BRANCH  32  33
ATOM     33  O   UNL A   1      40.767  24.139  26.311  1.00  0.00    -0.460 OA
BRANCH  33  34
ATOM     34  C   UNL A   1      41.756  25.062  26.249  1.00  0.00     0.338 C 
ATOM     35  O   UNL A   1      42.463  25.294  25.281  1.00  0.00    -0.246 OA
BRANCH  34  36
ATOM     36  C   UNL A   1      41.654  25.941  27.446  1.00  0.00     0.060 A 
ATOM     37  C   UNL A   1      40.569  25.756  28.315  1.00  0.00     0.016 A 
ATOM     38  C   UNL A   1      42.646  26.876  27.764  1.00  0.00     0.016 A 
ATOM     39  C   UNL A   1      40.451  26.528  29.475  1.00  0.00     0.010 A 
ATOM     40  C   UNL A   1      42.520  27.658  28.918  1.00  0.00     0.010 A 
ATOM     41  C   UNL A   1      41.405  27.512  29.763  1.00  0.00    -0.014 A 
BRANCH  41  42
ATOM     42  C   UNL A   1      41.130  28.533  30.806  1.00  0.00     0.031 A 
ATOM     43  C   UNL A   1      41.971  28.506  32.057  1.00  0.00     0.074 A 
ATOM     44  C   UNL A   1      40.177  29.472  30.662  1.00  0.00     0.049 A 
ATOM     45  N   UNL A   1      41.895  29.252  33.127  1.00  0.00    -0.248 NA
ATOM     46  C   UNL A   1      43.040  27.496  32.099  1.00  0.00     0.031 C 
ATOM     47  C   UNL A   1      39.321  29.641  29.490  1.00  0.00     0.029 A 
ATOM     48  N   UNL A   1      39.766  30.462  31.524  1.00  0.00    -0.354 N 
ATOM     49  C   UNL A   1      42.904  28.802  33.971  1.00  0.00     0.074 A 
ATOM     50  C   UNL A   1      43.555  27.697  33.301  1.00  0.00     0.031 C 
ATOM     51  C   UNL A   1      38.479  30.669  29.711  1.00  0.00     0.029 A 
ATOM     52  C   UNL A   1      38.715  31.211  31.050  1.00  0.00     0.049 A 
ATOM     53  H   UNL A   1      40.187  30.619  32.400  1.00  0.00     0.167 HD
ATOM     54  C   UNL A   1      43.265  29.270  35.189  1.00  0.00     0.037 A 
ATOM     55  C   UNL A   1      38.014  32.202  31.637  1.00  0.00     0.037 A 
ATOM     56  C   UNL A   1      42.615  30.360  35.864  1.00  0.00     0.049 A 
ATOM     57  C   UNL A   1      38.376  32.652  33.033  1.00  0.00     0.074 A 
ATOM     58  C   UNL A   1      42.912  30.905  37.100  1.00  0.00     0.029 A 
ATOM     59  N   UNL A   1      41.530  31.065  35.366  1.00  0.00    -0.354 N 
ATOM     60  N   UNL A   1      39.342  32.227  33.813  1.00  0.00    -0.248 NA
ATOM     61  C   UNL A   1      37.551  33.714  33.628  1.00  0.00     0.031 C 
ATOM     62  C   UNL A   1      41.977  31.910  37.371  1.00  0.00     0.029 A 
ATOM     63  C   UNL A   1      41.130  32.026  36.281  1.00  0.00     0.049 A 
ATOM     64  H   UNL A   1      41.106  30.908  34.491  1.00  0.00     0.167 HD
ATOM     65  C   UNL A   1      39.259  32.991  34.975  1.00  0.00     0.074 A 
ATOM     66  C   UNL A   1      38.151  33.907  34.795  1.00  0.00     0.031 C 
ATOM     67  C   UNL A   1      40.032  32.941  36.088  1.00  0.00     0.037 A 
BRANCH  54  68
ATOM     68  C   UNL A   1      44.402  28.572  35.881  1.00  0.00     0.058 A 
ATOM     69  C   UNL A   1      45.735  28.980  35.704  1.00  0.00     0.135 A 
ATOM     70  C   UNL A   1      44.156  27.484  36.733  1.00  0.00     0.135 A 
ATOM     71  F   UNL A   1      46.026  30.000  34.882  1.00  0.00    -0.206 F 
ATOM     72  C   UNL A   1      46.786  28.310  36.320  1.00  0.00     0.059 A 
ATOM     73  C   UNL A   1      45.190  26.817  37.382  1.00  0.00     0.059 A 
ATOM     74  F   UNL A   1      42.901  27.052  36.933  1.00  0.00    -0.206 F 
ATOM     75  C   UNL A   1      46.504  27.228  37.155  1.00  0.00     0.060 A 
BRANCH  75  76
ATOM     76  S   UNL A   1      47.879  26.358  37.936  1.00  0.00     0.124 S 
ATOM     77  O   UNL A   1      48.313  27.335  38.931  1.00  0.00    -0.237 OA
ATOM     78  O   UNL A   1      47.233  25.161  38.463  1.00  0.00    -0.237 OA
ATOM     79  O   UNL A   1      48.808  26.132  36.833  1.00  0.00    -0.744 OA
ENDBRANCH  75  76
ENDBRANCH  54  68
BRANCH  55  80
ATOM     80  C   UNL A   1      36.880  32.843  30.914  1.00  0.00     0.058 A 
ATOM     81  C   UNL A   1      35.549  32.563  31.260  1.00  0.00     0.135 A 
ATOM     82  C   UNL A   1      37.103  33.735  29.854  1.00  0.00     0.135 A 
ATOM     83  F   UNL A   1      35.282  31.701  32.254  1.00  0.00    -0.206 F 
ATOM     84  C   UNL A   1      34.481  33.137  30.577  1.00  0.00     0.059 A 
ATOM     85  C   UNL A   1      36.053  34.340  29.172  1.00  0.00     0.059 A 
ATOM     86  F   UNL A   1      38.357  34.037  29.483  1.00  0.00    -0.206 F 
ATOM     87  C   UNL A   1      34.744  34.029  29.535  1.00  0.00     0.060 A 
BRANCH  87  88
ATOM     88  S   UNL A   1      33.351  34.811  28.691  1.00  0.00     0.124 S 
ATOM     89  O   UNL A   1      32.462  35.111  29.807  1.00  0.00    -0.237 OA
ATOM     90  O   UNL A   1      33.986  35.961  28.053  1.00  0.00    -0.237 OA
ATOM     91  O   UNL A   1      32.889  33.772  27.776  1.00  0.00    -0.744 OA
ENDBRANCH  87  88
ENDBRANCH  55  80
BRANCH  67  92
ATOM     92  C   UNL A   1      39.745  33.925  37.191  1.00  0.00     0.058 A 
ATOM     93  C   UNL A   1      38.985  33.575  38.317  1.00  0.00     0.135 A 
ATOM     94  C   UNL A   1      40.300  35.216  37.152  1.00  0.00     0.135 A 
ATOM     95  F   UNL A   1      38.428  32.357  38.405  1.00  0.00    -0.206 F 
ATOM     96  C   UNL A   1      38.770  34.475  39.359  1.00  0.00     0.059 A 
ATOM     97  C   UNL A   1      40.121  36.122  38.193  1.00  0.00     0.059 A 
ATOM     98  F   UNL A   1      41.046  35.599  36.104  1.00  0.00    -0.206 F 
ATOM     99  C   UNL A   1      39.345  35.745  39.288  1.00  0.00     0.060 A 
BRANCH  99 100
ATOM    100  S   UNL A   1      39.095  36.889  40.664  1.00  0.00     0.124 S 
ATOM    101  O   UNL A   1      38.301  36.078  41.580  1.00  0.00    -0.237 OA
ATOM    102  O   UNL A   1      40.463  37.170  41.091  1.00  0.00    -0.237 OA
ATOM    103  O   UNL A   1      38.395  38.013  40.050  1.00  0.00    -0.744 OA
ENDBRANCH  99 100
ENDBRANCH  67  92
ENDBRANCH  41  42
ENDBRANCH  34  36
ENDBRANCH  33  34
ENDBRANCH  32  33
ENDBRANCH  31  32
ENDBRANCH  30  31
ENDBRANCH  29  30
ENDBRANCH   1  29
TORSDOF 23
ENDMDL
MODEL 3
REMARK VINA RESULT:     -10.5      2.430      9.418
REMARK SMILES Cc1ccc(S(=O)(=O)N2C[C@@H](CC(=O)OCCOCCOCCOC(=O)c3ccc(-c4c5nc(c(-c6c(F)cc(S(=O)(=O)[O-])cc6F)c6ccc([nH]6)c(-c6c(F)cc(S(=O)(=O)[O-])cc6F)c6nc(c(-c7c(F)cc(S(=O)(=O)[O-])cc7F)c7ccc4[nH]7)C=C6)C=C5)cc3)c3ccccc32)c(C)c1
REMARK SMILES IDX 19 1 18 2 17 3 16 4 15 5 13 6 14 7 12 8 11 9 9 10 10 11
REMARK SMILES IDX 98 12 93 13 97 14 94 15 96 16 95 17 6 18 7 19 8 20 5 21 1 22
REMARK SMILES IDX 2 23 3 24 101 25 4 26 99 27 100 28 20 29 21 30 22 31 23 32
REMARK SMILES IDX 24 33 25 34 26 35 27 36 28 37 92 38 29 39 91 40 30 41 31 42
REMARK SMILES IDX 32 43 85 44 33 45 90 46 84 47 86 48 34 49 89 50 83 51 82 52
REMARK SMILES IDX 35 54 69 55 48 56 68 57 49 58 52 59 67 60 87 61 50 62 51 63
REMARK SMILES IDX 66 65 88 66 53 67 36 68 37 69 46 70 38 71 39 72 45 73 47 74
REMARK SMILES IDX 40 75 41 76 42 77 43 78 44 79 70 80 71 81 80 82 72 83 73 84
REMARK SMILES IDX 79 85 81 86 74 87 75 88 76 89 77 90 78 91 54 92 55 93 64 94
REMARK SMILES IDX 56 95 57 96 63 97 65 98 58 99 59 100 60 101 61 102 62 103
REMARK H PARENT 86 53 52 64
REMARK Flexibility Score: inf
ROOT
ATOM      1  C   UNL A   1      34.819  32.068  28.582  1.00  0.00     0.188 C 
ENDROOT
BRANCH   1   2
ATOM      2  O   UNL A   1      33.854  31.887  27.551  1.00  0.00    -0.376 OA
BRANCH   2   3
ATOM      3  C   UNL A   1      33.524  30.538  27.225  1.00  0.00     0.202 C 
BRANCH   3   4
ATOM      4  C   UNL A   1      32.168  30.353  26.535  1.00  0.00     0.261 C 
BRANCH   4   5
ATOM      5  O   UNL A   1      31.825  28.962  26.345  1.00  0.00    -0.463 OA
BRANCH   5   6
ATOM      6  C   UNL A   1      31.937  28.500  25.078  1.00  0.00     0.306 C 
ATOM      7  O   UNL A   1      33.002  28.362  24.484  1.00  0.00    -0.252 OA
BRANCH   6   8
ATOM      8  C   UNL A   1      30.632  28.115  24.418  1.00  0.00     0.133 C 
BRANCH   8   9
ATOM      9  C   UNL A   1      30.327  26.669  24.018  1.00  0.00     0.053 C 
ATOM     10  N   UNL A   1      31.116  24.527  24.849  1.00  0.00    -0.265 N 
ATOM     11  C   UNL A   1      30.456  25.769  25.297  1.00  0.00     0.144 C 
ATOM     12  C   UNL A   1      31.678  24.730  23.567  1.00  0.00     0.055 A 
ATOM     13  C   UNL A   1      31.271  25.972  23.066  1.00  0.00    -0.018 A 
ATOM     14  C   UNL A   1      32.476  23.871  22.831  1.00  0.00     0.027 A 
ATOM     15  C   UNL A   1      31.660  26.355  21.790  1.00  0.00     0.006 A 
ATOM     16  C   UNL A   1      32.898  24.277  21.567  1.00  0.00     0.002 A 
ATOM     17  C   UNL A   1      32.487  25.510  21.047  1.00  0.00     0.000 A 
BRANCH  10  18
ATOM     18  S   UNL A   1      31.580  23.341  25.936  1.00  0.00     0.264 S 
ATOM     19  O   UNL A   1      30.837  22.136  25.601  1.00  0.00    -0.201 OA
ATOM     20  O   UNL A   1      31.525  23.908  27.264  1.00  0.00    -0.201 OA
BRANCH  18  21
ATOM     21  C   UNL A   1      33.306  22.936  25.640  1.00  0.00     0.090 A 
ATOM     22  C   UNL A   1      37.485  21.857  25.451  1.00  0.00     0.044 C 
ATOM     23  C   UNL A   1      36.030  22.225  25.488  1.00  0.00    -0.051 A 
ATOM     24  C   UNL A   1      35.036  21.275  25.247  1.00  0.00     0.005 A 
ATOM     25  C   UNL A   1      35.653  23.546  25.748  1.00  0.00     0.008 A 
ATOM     26  C   UNL A   1      33.684  21.627  25.316  1.00  0.00     0.023 A 
ATOM     27  C   UNL A   1      34.298  23.926  25.823  1.00  0.00    -0.030 A 
ATOM     28  C   UNL A   1      34.023  25.384  26.081  1.00  0.00     0.046 C 
ENDBRANCH  18  21
ENDBRANCH  10  18
ENDBRANCH   8   9
ENDBRANCH   6   8
ENDBRANCH   5   6
ENDBRANCH   4   5
ENDBRANCH   3   4
ENDBRANCH   2   3
ENDBRANCH   1   2
BRANCH   1  29
ATOM     29  C   UNL A   1      34.462  33.113  29.637  1.00  0.00     0.188 C 
BRANCH  29  30
ATOM     30  O   UNL A   1      34.417  34.465  29.190  1.00  0.00    -0.376 OA
BRANCH  30  31
ATOM     31  C   UNL A   1      33.096  35.020  29.098  1.00  0.00     0.202 C 
BRANCH  31  32
ATOM     32  C   UNL A   1      32.729  36.078  30.162  1.00  0.00     0.261 C 
BRANCH  32  33
ATOM     33  O   UNL A   1      32.255  35.545  31.417  1.00  0.00    -0.460 OA
BRANCH  33  34
ATOM     34  C   UNL A   1      32.895  35.937  32.543  1.00  0.00     0.338 C 
ATOM     35  O   UNL A   1      32.440  36.664  33.413  1.00  0.00    -0.246 OA
BRANCH  34  36
ATOM     36  C   UNL A   1      34.128  35.117  32.695  1.00  0.00     0.060 A 
ATOM     37  C   UNL A   1      33.996  33.805  33.175  1.00  0.00     0.016 A 
ATOM     38  C   UNL A   1      35.384  35.587  32.297  1.00  0.00     0.016 A 
ATOM     39  C   UNL A   1      35.118  32.980  33.295  1.00  0.00     0.010 A 
ATOM     40  C   UNL A   1      36.509  34.765  32.431  1.00  0.00     0.010 A 
ATOM     41  C   UNL A   1      36.388  33.469  32.962  1.00  0.00    -0.014 A 
BRANCH  41  42
ATOM     42  C   UNL A   1      37.605  32.722  33.374  1.00  0.00     0.031 A 
ATOM     43  C   UNL A   1      38.226  33.067  34.702  1.00  0.00     0.074 A 
ATOM     44  C   UNL A   1      38.149  31.755  32.612  1.00  0.00     0.049 A 
ATOM     45  N   UNL A   1      39.311  32.598  35.260  1.00  0.00    -0.248 NA
ATOM     46  C   UNL A   1      37.524  34.081  35.505  1.00  0.00     0.031 C 
ATOM     47  C   UNL A   1      37.629  31.291  31.328  1.00  0.00     0.029 A 
ATOM     48  N   UNL A   1      39.276  30.993  32.814  1.00  0.00    -0.354 N 
ATOM     49  C   UNL A   1      39.423  33.259  36.478  1.00  0.00     0.074 A 
ATOM     50  C   UNL A   1      38.315  34.186  36.560  1.00  0.00     0.031 C 
ATOM     51  C   UNL A   1      38.441  30.328  30.852  1.00  0.00     0.029 A 
ATOM     52  C   UNL A   1      39.554  30.129  31.781  1.00  0.00     0.049 A 
ATOM     53  H   UNL A   1      39.831  31.059  33.624  1.00  0.00     0.167 HD
ATOM     54  C   UNL A   1      40.357  33.106  37.446  1.00  0.00     0.037 A 
ATOM     55  C   UNL A   1      40.597  29.292  31.599  1.00  0.00     0.037 A 
ATOM     56  C   UNL A   1      41.467  32.196  37.365  1.00  0.00     0.049 A 
ATOM     57  C   UNL A   1      41.675  29.199  32.652  1.00  0.00     0.074 A 
ATOM     58  C   UNL A   1      42.463  31.970  38.297  1.00  0.00     0.029 A 
ATOM     59  N   UNL A   1      41.734  31.368  36.285  1.00  0.00    -0.354 N 
ATOM     60  N   UNL A   1      41.761  29.819  33.805  1.00  0.00    -0.248 NA
ATOM     61  C   UNL A   1      42.801  28.292  32.377  1.00  0.00     0.031 C 
ATOM     62  C   UNL A   1      43.360  31.039  37.762  1.00  0.00     0.029 A 
ATOM     63  C   UNL A   1      42.894  30.646  36.518  1.00  0.00     0.049 A 
ATOM     64  H   UNL A   1      41.182  31.302  35.472  1.00  0.00     0.167 HD
ATOM     65  C   UNL A   1      42.930  29.355  34.404  1.00  0.00     0.074 A 
ATOM     66  C   UNL A   1      43.517  28.399  33.488  1.00  0.00     0.031 C 
ATOM     67  C   UNL A   1      43.466  29.688  35.605  1.00  0.00     0.037 A 
BRANCH  54  68
ATOM     68  C   UNL A   1      40.228  33.974  38.666  1.00  0.00     0.058 A 
ATOM     69  C   UNL A   1      40.874  35.217  38.759  1.00  0.00     0.135 A 
ATOM     70  C   UNL A   1      39.445  33.558  39.754  1.00  0.00     0.135 A 
ATOM     71  F   UNL A   1      41.653  35.652  37.755  1.00  0.00    -0.206 F 
ATOM     72  C   UNL A   1      40.777  36.002  39.903  1.00  0.00     0.059 A 
ATOM     73  C   UNL A   1      39.312  34.339  40.898  1.00  0.00     0.059 A 
ATOM     74  F   UNL A   1      38.810  32.376  39.718  1.00  0.00    -0.206 F 
ATOM     75  C   UNL A   1      39.996  35.552  40.969  1.00  0.00     0.060 A 
BRANCH  75  76
ATOM     76  S   UNL A   1      39.892  36.572  42.454  1.00  0.00     0.124 S 
ATOM     77  O   UNL A   1      41.189  36.316  43.074  1.00  0.00    -0.237 OA
ATOM     78  O   UNL A   1      39.707  37.910  41.902  1.00  0.00    -0.237 OA
ATOM     79  O   UNL A   1      38.739  36.024  43.163  1.00  0.00    -0.744 OA
ENDBRANCH  75  76
ENDBRANCH  54  68
BRANCH  55  80
ATOM     80  C   UNL A   1      40.687  28.472  30.359  1.00  0.00     0.058 A 
ATOM     81  C   UNL A   1      41.621  28.774  29.356  1.00  0.00     0.135 A 
ATOM     82  C   UNL A   1      39.832  27.380  30.145  1.00  0.00     0.135 A 
ATOM     83  F   UNL A   1      42.448  29.821  29.505  1.00  0.00    -0.206 F 
ATOM     84  C   UNL A   1      41.699  28.030  28.183  1.00  0.00     0.059 A 
ATOM     85  C   UNL A   1      39.907  26.606  28.991  1.00  0.00     0.059 A 
ATOM     86  F   UNL A   1      38.920  27.048  31.072  1.00  0.00    -0.206 F 
ATOM     87  C   UNL A   1      40.838  26.943  28.011  1.00  0.00     0.060 A 
BRANCH  87  88
ATOM     88  S   UNL A   1      40.985  25.950  26.509  1.00  0.00     0.124 S 
ATOM     89  O   UNL A   1      39.735  25.199  26.530  1.00  0.00    -0.237 OA
ATOM     90  O   UNL A   1      41.097  26.974  25.475  1.00  0.00    -0.237 OA
ATOM     91  O   UNL A   1      42.196  25.170  26.741  1.00  0.00    -0.744 OA
ENDBRANCH  87  88
ENDBRANCH  55  80
BRANCH  67  92
ATOM     92  C   UNL A   1      44.731  28.991  36.030  1.00  0.00     0.058 A 
ATOM     93  C   UNL A   1      44.707  27.771  36.724  1.00  0.00     0.135 A 
ATOM     94  C   UNL A   1      45.985  29.517  35.675  1.00  0.00     0.135 A 
ATOM     95  F   UNL A   1      43.537  27.225  37.091  1.00  0.00    -0.206 F 
ATOM     96  C   UNL A   1      45.882  27.106  37.066  1.00  0.00     0.059 A 
ATOM     97  C   UNL A   1      47.170  28.856  35.983  1.00  0.00     0.059 A 
ATOM     98  F   UNL A   1      46.065  30.674  35.000  1.00  0.00    -0.206 F 
ATOM     99  C   UNL A   1      47.109  27.655  36.688  1.00  0.00     0.060 A 
BRANCH  99 100
ATOM    100  S   UNL A   1      48.623  26.762  37.100  1.00  0.00     0.124 S 
ATOM    101  O   UNL A   1      48.381  25.466  36.475  1.00  0.00    -0.237 OA
ATOM    102  O   UNL A   1      49.653  27.584  36.471  1.00  0.00    -0.237 OA
ATOM    103  O   UNL A   1      48.634  26.763  38.559  1.00  0.00    -0.744 OA
ENDBRANCH  99 100
ENDBRANCH  67  92
ENDBRANCH  41  42
ENDBRANCH  34  36
ENDBRANCH  33  34
ENDBRANCH  32  33
ENDBRANCH  31  32
ENDBRANCH  30  31
ENDBRANCH  29  30
ENDBRANCH   1  29
TORSDOF 23
ENDMDL
