MODEL 1
REMARK VINA RESULT:      -9.3      0.000      0.000
REMARK SMILES C[C@H](C(=O)OCCOCCOCCOC(=O)c1ccc(-c2c3nc(c(-c4c(F)cc(S(=O)(=O)[O-])cc4F)c4ccc([nH]4)c(-c4c(F)cc(S(=O)(=O)[O-])cc4F)c4nc(c(-c5c(F)cc(S(=O)(=O)[O-])cc5F)c5ccc2[nH]5)C=C4)C=C3)cc1)[C@@H](C)[N@@H+](C)C[C@H]1C[C@H](O)C1
REMARK SMILES IDX 9 1 8 2 7 3 6 4 5 5 3 6 4 7 2 8 1 9 83 10 84 11 85 12 86 13
REMARK SMILES IDX 87 15 88 16 92 17 89 18 90 19 91 20 10 22 11 23 12 24 13 25
REMARK SMILES IDX 14 26 15 27 16 28 17 29 18 30 82 31 19 32 81 33 20 34 21 35
REMARK SMILES IDX 22 36 75 37 23 38 80 39 74 40 76 41 24 42 79 43 73 44 72 45
REMARK SMILES IDX 25 47 59 48 38 49 58 50 39 51 42 52 57 53 77 54 40 55 41 56
REMARK SMILES IDX 56 58 78 59 43 60 26 61 27 62 36 63 28 64 29 65 35 66 37 67
REMARK SMILES IDX 30 68 31 69 32 70 33 71 34 72 60 73 61 74 70 75 62 76 63 77
REMARK SMILES IDX 69 78 71 79 64 80 65 81 66 82 67 83 68 84 44 85 45 86 54 87
REMARK SMILES IDX 46 88 47 89 53 90 55 91 48 92 49 93 50 94 51 95 52 96
REMARK H PARENT 85 14 91 21 76 46 42 57
REMARK Flexibility Score: inf
ROOT
ATOM      1  C   UNL A   1      41.309  21.273  27.036  1.00  0.00     0.188 C 
ENDROOT
BRANCH   1   2
ATOM      2  O   UNL A   1      40.334  22.045  26.354  1.00  0.00    -0.376 OA
BRANCH   2   3
ATOM      3  C   UNL A   1      39.149  21.375  25.946  1.00  0.00     0.202 C 
BRANCH   3   4
ATOM      4  C   UNL A   1      37.896  22.222  25.669  1.00  0.00     0.261 C 
BRANCH   4   5
ATOM      5  O   UNL A   1      36.767  21.524  25.106  1.00  0.00    -0.463 OA
BRANCH   5   6
ATOM      6  C   UNL A   1      35.555  21.898  25.589  1.00  0.00     0.314 C 
ATOM      7  O   UNL A   1      35.171  21.606  26.718  1.00  0.00    -0.252 OA
BRANCH   6   8
ATOM      8  C   UNL A   1      34.636  22.577  24.569  1.00  0.00     0.154 C 
ATOM      9  C   UNL A   1      35.522  22.874  23.329  1.00  0.00     0.026 C 
BRANCH   8  10
ATOM     10  C   UNL A   1      33.290  21.971  24.029  1.00  0.00     0.194 C 
ATOM     11  C   UNL A   1      32.954  20.489  24.208  1.00  0.00     0.076 C 
BRANCH  10  12
ATOM     12  N   UNL A   1      32.124  22.838  24.363  1.00  0.00    -0.334 N 
ATOM     13  C   UNL A   1      31.345  22.436  25.528  1.00  0.00     0.332 C 
ATOM     14  H   UNL A   1      31.558  22.599  23.550  1.00  0.00     0.348 HD
BRANCH  12  15
ATOM     15  C   UNL A   1      32.223  24.291  24.184  1.00  0.00     0.265 C 
BRANCH  15  16
ATOM     16  C   UNL A   1      31.815  24.884  22.830  1.00  0.00     0.049 C 
ATOM     17  C   UNL A   1      32.962  24.744  21.781  1.00  0.00     0.041 C 
ATOM     18  C   UNL A   1      31.797  26.393  22.434  1.00  0.00     0.041 C 
ATOM     19  C   UNL A   1      32.443  26.016  21.091  1.00  0.00     0.115 C 
BRANCH  19  20
ATOM     20  O   UNL A   1      31.556  25.830  19.970  1.00  0.00    -0.393 OA
ATOM     21  H   UNL A   1      31.163  24.944  20.012  1.00  0.00     0.210 HD
ENDBRANCH  19  20
ENDBRANCH  15  16
ENDBRANCH  12  15
ENDBRANCH  10  12
ENDBRANCH   8  10
ENDBRANCH   6   8
ENDBRANCH   5   6
ENDBRANCH   4   5
ENDBRANCH   3   4
ENDBRANCH   2   3
ENDBRANCH   1   2
BRANCH   1  22
ATOM     22  C   UNL A   1      42.404  20.610  26.199  1.00  0.00     0.188 C 
BRANCH  22  23
ATOM     23  O   UNL A   1      43.018  21.424  25.208  1.00  0.00    -0.376 OA
BRANCH  23  24
ATOM     24  C   UNL A   1      43.837  22.500  25.681  1.00  0.00     0.202 C 
BRANCH  24  25
ATOM     25  C   UNL A   1      43.712  23.862  24.972  1.00  0.00     0.261 C 
BRANCH  25  26
ATOM     26  O   UNL A   1      43.472  24.988  25.842  1.00  0.00    -0.460 OA
BRANCH  26  27
ATOM     27  C   UNL A   1      42.229  25.537  25.841  1.00  0.00     0.338 C 
ATOM     28  O   UNL A   1      41.318  25.253  25.092  1.00  0.00    -0.246 OA
BRANCH  27  29
ATOM     29  C   UNL A   1      42.085  26.348  27.087  1.00  0.00     0.060 A 
ATOM     30  C   UNL A   1      41.029  26.048  27.962  1.00  0.00     0.016 A 
ATOM     31  C   UNL A   1      43.019  27.326  27.444  1.00  0.00     0.016 A 
ATOM     32  C   UNL A   1      40.881  26.750  29.164  1.00  0.00     0.010 A 
ATOM     33  C   UNL A   1      42.863  28.036  28.641  1.00  0.00     0.010 A 
ATOM     34  C   UNL A   1      41.773  27.780  29.490  1.00  0.00    -0.014 A 
BRANCH  34  35
ATOM     35  C   UNL A   1      41.449  28.730  30.589  1.00  0.00     0.031 A 
ATOM     36  C   UNL A   1      42.275  28.659  31.849  1.00  0.00     0.074 A 
ATOM     37  C   UNL A   1      40.469  29.650  30.486  1.00  0.00     0.049 A 
ATOM     38  N   UNL A   1      42.146  29.320  32.969  1.00  0.00    -0.248 NA
ATOM     39  C   UNL A   1      43.400  27.709  31.837  1.00  0.00     0.031 C 
ATOM     40  C   UNL A   1      39.627  29.866  29.311  1.00  0.00     0.029 A 
ATOM     41  N   UNL A   1      40.014  30.570  31.400  1.00  0.00    -0.354 N 
ATOM     42  C   UNL A   1      43.162  28.859  33.799  1.00  0.00     0.074 A 
ATOM     43  C   UNL A   1      43.880  27.841  33.064  1.00  0.00     0.031 C 
ATOM     44  C   UNL A   1      38.747  30.848  29.582  1.00  0.00     0.029 A 
ATOM     45  C   UNL A   1      38.937  31.305  30.959  1.00  0.00     0.049 A 
ATOM     46  H   UNL A   1      40.421  30.693  32.288  1.00  0.00     0.167 HD
ATOM     47  C   UNL A   1      43.479  29.253  35.055  1.00  0.00     0.037 A 
ATOM     48  C   UNL A   1      38.177  32.219  31.600  1.00  0.00     0.037 A 
ATOM     49  C   UNL A   1      42.769  30.267  35.788  1.00  0.00     0.049 A 
ATOM     50  C   UNL A   1      38.497  32.584  33.031  1.00  0.00     0.074 A 
ATOM     51  C   UNL A   1      43.022  30.739  37.065  1.00  0.00     0.029 A 
ATOM     52  N   UNL A   1      41.666  30.963  35.317  1.00  0.00    -0.354 N 
ATOM     53  N   UNL A   1      39.467  32.148  33.801  1.00  0.00    -0.248 NA
ATOM     54  C   UNL A   1      37.618  33.569  33.682  1.00  0.00     0.031 C 
ATOM     55  C   UNL A   1      42.038  31.679  37.387  1.00  0.00     0.029 A 
ATOM     56  C   UNL A   1      41.211  31.841  36.287  1.00  0.00     0.049 A 
ATOM     57  H   UNL A   1      41.266  30.851  34.425  1.00  0.00     0.167 HD
ATOM     58  C   UNL A   1      39.332  32.828  35.010  1.00  0.00     0.074 A 
ATOM     59  C   UNL A   1      38.195  33.711  34.868  1.00  0.00     0.031 C 
ATOM     60  C   UNL A   1      40.086  32.730  36.134  1.00  0.00     0.037 A 
BRANCH  47  61
ATOM     61  C   UNL A   1      44.628  28.559  35.732  1.00  0.00     0.058 A 
ATOM     62  C   UNL A   1      45.946  29.037  35.633  1.00  0.00     0.135 A 
ATOM     63  C   UNL A   1      44.403  27.418  36.519  1.00  0.00     0.135 A 
ATOM     64  F   UNL A   1      46.220  30.111  34.876  1.00  0.00    -0.206 F 
ATOM     65  C   UNL A   1      47.001  28.392  36.269  1.00  0.00     0.059 A 
ATOM     66  C   UNL A   1      45.440  26.776  37.189  1.00  0.00     0.059 A 
ATOM     67  F   UNL A   1      43.164  26.916  36.643  1.00  0.00    -0.206 F 
ATOM     68  C   UNL A   1      46.737  27.263  37.047  1.00  0.00     0.060 A 
BRANCH  68  69
ATOM     69  S   UNL A   1      48.118  26.444  37.872  1.00  0.00     0.124 S 
ATOM     70  O   UNL A   1      47.979  25.076  37.382  1.00  0.00    -0.237 OA
ATOM     71  O   UNL A   1      49.268  27.184  37.363  1.00  0.00    -0.237 OA
ATOM     72  O   UNL A   1      47.830  26.634  39.290  1.00  0.00    -0.744 OA
ENDBRANCH  68  69
ENDBRANCH  47  61
BRANCH  48  73
ATOM     73  C   UNL A   1      37.012  32.843  30.910  1.00  0.00     0.058 A 
ATOM     74  C   UNL A   1      35.712  32.339  31.070  1.00  0.00     0.135 A 
ATOM     75  C   UNL A   1      37.182  33.940  30.050  1.00  0.00     0.135 A 
ATOM     76  F   UNL A   1      35.498  31.278  31.864  1.00  0.00    -0.206 F 
ATOM     77  C   UNL A   1      34.627  32.886  30.391  1.00  0.00     0.059 A 
ATOM     78  C   UNL A   1      36.108  34.524  29.384  1.00  0.00     0.059 A 
ATOM     79  F   UNL A   1      38.403  34.463  29.860  1.00  0.00    -0.206 F 
ATOM     80  C   UNL A   1      34.835  33.981  29.552  1.00  0.00     0.060 A 
BRANCH  80  81
ATOM     81  S   UNL A   1      33.414  34.709  28.706  1.00  0.00     0.124 S 
ATOM     82  O   UNL A   1      33.001  33.616  27.832  1.00  0.00    -0.237 OA
ATOM     83  O   UNL A   1      32.518  35.010  29.818  1.00  0.00    -0.237 OA
ATOM     84  O   UNL A   1      33.983  35.873  28.034  1.00  0.00    -0.744 OA
ENDBRANCH  80  81
ENDBRANCH  48  73
BRANCH  60  85
ATOM     85  C   UNL A   1      39.746  33.631  37.293  1.00  0.00     0.058 A 
ATOM     86  C   UNL A   1      38.913  33.211  38.343  1.00  0.00     0.135 A 
ATOM     87  C   UNL A   1      40.316  34.912  37.386  1.00  0.00     0.135 A 
ATOM     88  F   UNL A   1      38.339  31.999  38.307  1.00  0.00    -0.206 F 
ATOM     89  C   UNL A   1      38.639  34.038  39.431  1.00  0.00     0.059 A 
ATOM     90  C   UNL A   1      40.080  35.743  38.478  1.00  0.00     0.059 A 
ATOM     91  F   UNL A   1      41.130  35.362  36.418  1.00  0.00    -0.206 F 
ATOM     92  C   UNL A   1      39.231  35.302  39.491  1.00  0.00     0.060 A 
BRANCH  92  93
ATOM     93  S   UNL A   1      38.895  36.349  40.923  1.00  0.00     0.124 S 
ATOM     94  O   UNL A   1      40.181  36.330  41.611  1.00  0.00    -0.237 OA
ATOM     95  O   UNL A   1      38.527  37.617  40.302  1.00  0.00    -0.237 OA
ATOM     96  O   UNL A   1      37.807  35.654  41.606  1.00  0.00    -0.744 OA
ENDBRANCH  92  93
ENDBRANCH  60  85
ENDBRANCH  34  35
ENDBRANCH  27  29
ENDBRANCH  26  27
ENDBRANCH  25  26
ENDBRANCH  24  25
ENDBRANCH  23  24
ENDBRANCH  22  23
ENDBRANCH   1  22
TORSDOF 25
ENDMDL
MODEL 2
REMARK VINA RESULT:      -9.2      5.088      7.338
REMARK SMILES C[C@H](C(=O)OCCOCCOCCOC(=O)c1ccc(-c2c3nc(c(-c4c(F)cc(S(=O)(=O)[O-])cc4F)c4ccc([nH]4)c(-c4c(F)cc(S(=O)(=O)[O-])cc4F)c4nc(c(-c5c(F)cc(S(=O)(=O)[O-])cc5F)c5ccc2[nH]5)C=C4)C=C3)cc1)[C@@H](C)[N@@H+](C)C[C@H]1C[C@H](O)C1
REMARK SMILES IDX 9 1 8 2 7 3 6 4 5 5 3 6 4 7 2 8 1 9 83 10 84 11 85 12 86 13
REMARK SMILES IDX 87 15 88 16 92 17 89 18 90 19 91 20 10 22 11 23 12 24 13 25
REMARK SMILES IDX 14 26 15 27 16 28 17 29 18 30 82 31 19 32 81 33 20 34 21 35
REMARK SMILES IDX 22 36 75 37 23 38 80 39 74 40 76 41 24 42 79 43 73 44 72 45
REMARK SMILES IDX 25 47 59 48 38 49 58 50 39 51 42 52 57 53 77 54 40 55 41 56
REMARK SMILES IDX 56 58 78 59 43 60 26 61 27 62 36 63 28 64 29 65 35 66 37 67
REMARK SMILES IDX 30 68 31 69 32 70 33 71 34 72 60 73 61 74 70 75 62 76 63 77
REMARK SMILES IDX 69 78 71 79 64 80 65 81 66 82 67 83 68 84 44 85 45 86 54 87
REMARK SMILES IDX 46 88 47 89 53 90 55 91 48 92 49 93 50 94 51 95 52 96
REMARK H PARENT 85 14 91 21 76 46 42 57
REMARK Flexibility Score: inf
ROOT
ATOM      1  C   UNL A   1      34.429  22.522  27.014  1.00  0.00     0.188 C 
ENDROOT
BRANCH   1   2
ATOM      2  O   UNL A   1      33.088  22.601  27.470  1.00  0.00    -0.376 OA
BRANCH   2   3
ATOM      3  C   UNL A   1      32.070  22.651  26.481  1.00  0.00     0.202 C 
BRANCH   3   4
ATOM      4  C   UNL A   1      30.948  23.688  26.646  1.00  0.00     0.261 C 
BRANCH   4   5
ATOM      5  O   UNL A   1      31.366  25.048  26.878  1.00  0.00    -0.463 OA
BRANCH   5   6
ATOM      6  C   UNL A   1      30.716  25.987  26.146  1.00  0.00     0.314 C 
ATOM      7  O   UNL A   1      29.744  25.724  25.442  1.00  0.00    -0.252 OA
BRANCH   6   8
ATOM      8  C   UNL A   1      31.375  27.369  26.135  1.00  0.00     0.154 C 
ATOM      9  C   UNL A   1      32.860  27.135  26.521  1.00  0.00     0.026 C 
BRANCH   8  10
ATOM     10  C   UNL A   1      31.377  28.356  24.911  1.00  0.00     0.194 C 
ATOM     11  C   UNL A   1      32.338  29.543  24.846  1.00  0.00     0.076 C 
BRANCH  10  12
ATOM     12  N   UNL A   1      31.329  27.622  23.614  1.00  0.00    -0.334 N 
ATOM     13  C   UNL A   1      30.112  27.794  22.831  1.00  0.00     0.332 C 
ATOM     14  H   UNL A   1      31.278  26.682  24.009  1.00  0.00     0.348 HD
BRANCH  12  15
ATOM     15  C   UNL A   1      32.546  27.491  22.807  1.00  0.00     0.265 C 
BRANCH  15  16
ATOM     16  C   UNL A   1      33.253  26.131  22.774  1.00  0.00     0.049 C 
ATOM     17  C   UNL A   1      32.757  25.262  21.576  1.00  0.00     0.041 C 
ATOM     18  C   UNL A   1      32.933  24.885  23.658  1.00  0.00     0.041 C 
ATOM     19  C   UNL A   1      33.062  24.003  22.405  1.00  0.00     0.115 C 
BRANCH  19  20
ATOM     20  O   UNL A   1      34.338  23.372  22.180  1.00  0.00    -0.393 OA
ATOM     21  H   UNL A   1      34.883  23.937  21.608  1.00  0.00     0.210 HD
ENDBRANCH  19  20
ENDBRANCH  15  16
ENDBRANCH  12  15
ENDBRANCH  10  12
ENDBRANCH   8  10
ENDBRANCH   6   8
ENDBRANCH   5   6
ENDBRANCH   4   5
ENDBRANCH   3   4
ENDBRANCH   2   3
ENDBRANCH   1   2
BRANCH   1  22
ATOM     22  C   UNL A   1      34.799  21.359  26.094  1.00  0.00     0.188 C 
BRANCH  22  23
ATOM     23  O   UNL A   1      35.205  21.704  24.775  1.00  0.00    -0.376 OA
BRANCH  23  24
ATOM     24  C   UNL A   1      36.477  22.349  24.645  1.00  0.00     0.202 C 
BRANCH  24  25
ATOM     25  C   UNL A   1      37.725  21.573  25.107  1.00  0.00     0.261 C 
BRANCH  25  26
ATOM     26  O   UNL A   1      38.301  22.020  26.352  1.00  0.00    -0.460 OA
BRANCH  26  27
ATOM     27  C   UNL A   1      39.656  22.016  26.463  1.00  0.00     0.338 C 
ATOM     28  O   UNL A   1      40.412  21.191  25.997  1.00  0.00    -0.246 OA
BRANCH  27  29
ATOM     29  C   UNL A   1      40.074  23.338  27.017  1.00  0.00     0.060 A 
ATOM     30  C   UNL A   1      39.350  24.481  26.640  1.00  0.00     0.016 A 
ATOM     31  C   UNL A   1      41.099  23.453  27.961  1.00  0.00     0.016 A 
ATOM     32  C   UNL A   1      39.676  25.735  27.168  1.00  0.00     0.010 A 
ATOM     33  C   UNL A   1      41.432  24.710  28.480  1.00  0.00     0.010 A 
ATOM     34  C   UNL A   1      40.749  25.864  28.059  1.00  0.00    -0.014 A 
BRANCH  34  35
ATOM     35  C   UNL A   1      41.299  27.210  28.377  1.00  0.00     0.031 A 
ATOM     36  C   UNL A   1      42.749  27.473  28.058  1.00  0.00     0.074 A 
ATOM     37  C   UNL A   1      40.548  28.191  28.914  1.00  0.00     0.049 A 
ATOM     38  N   UNL A   1      43.480  28.528  28.304  1.00  0.00    -0.248 NA
ATOM     39  C   UNL A   1      43.469  26.391  27.365  1.00  0.00     0.031 C 
ATOM     40  C   UNL A   1      39.123  28.096  29.227  1.00  0.00     0.029 A 
ATOM     41  N   UNL A   1      40.892  29.465  29.302  1.00  0.00    -0.354 N 
ATOM     42  C   UNL A   1      44.747  28.235  27.810  1.00  0.00     0.074 A 
ATOM     43  C   UNL A   1      44.692  26.892  27.277  1.00  0.00     0.031 C 
ATOM     44  C   UNL A   1      38.719  29.259  29.771  1.00  0.00     0.029 A 
ATOM     45  C   UNL A   1      39.860  30.167  29.881  1.00  0.00     0.049 A 
ATOM     46  H   UNL A   1      41.793  29.840  29.176  1.00  0.00     0.167 HD
ATOM     47  C   UNL A   1      45.853  29.015  27.790  1.00  0.00     0.037 A 
ATOM     48  C   UNL A   1      39.846  31.389  30.458  1.00  0.00     0.037 A 
ATOM     49  C   UNL A   1      45.910  30.352  28.316  1.00  0.00     0.049 A 
ATOM     50  C   UNL A   1      41.113  32.210  30.498  1.00  0.00     0.074 A 
ATOM     51  C   UNL A   1      46.986  31.223  28.334  1.00  0.00     0.029 A 
ATOM     52  N   UNL A   1      44.852  31.014  28.923  1.00  0.00    -0.354 N 
ATOM     53  N   UNL A   1      42.302  31.925  30.019  1.00  0.00    -0.248 NA
ATOM     54  C   UNL A   1      41.038  33.523  31.160  1.00  0.00     0.031 C 
ATOM     55  C   UNL A   1      46.596  32.388  29.001  1.00  0.00     0.029 A 
ATOM     56  C   UNL A   1      45.258  32.270  29.341  1.00  0.00     0.049 A 
ATOM     57  H   UNL A   1      43.947  30.644  29.038  1.00  0.00     0.167 HD
ATOM     58  C   UNL A   1      43.102  33.033  30.291  1.00  0.00     0.074 A 
ATOM     59  C   UNL A   1      42.262  33.997  30.969  1.00  0.00     0.031 C 
ATOM     60  C   UNL A   1      44.412  33.233  30.003  1.00  0.00     0.037 A 
BRANCH  47  61
ATOM     61  C   UNL A   1      47.107  28.426  27.206  1.00  0.00     0.058 A 
ATOM     62  C   UNL A   1      48.112  27.869  28.015  1.00  0.00     0.135 A 
ATOM     63  C   UNL A   1      47.292  28.388  25.814  1.00  0.00     0.135 A 
ATOM     64  F   UNL A   1      47.997  27.898  29.352  1.00  0.00    -0.206 F 
ATOM     65  C   UNL A   1      49.265  27.319  27.464  1.00  0.00     0.059 A 
ATOM     66  C   UNL A   1      48.423  27.815  25.242  1.00  0.00     0.059 A 
ATOM     67  F   UNL A   1      46.365  28.911  24.995  1.00  0.00    -0.206 F 
ATOM     68  C   UNL A   1      49.410  27.295  26.076  1.00  0.00     0.060 A 
BRANCH  68  69
ATOM     69  S   UNL A   1      50.910  26.571  25.379  1.00  0.00     0.124 S 
ATOM     70  O   UNL A   1      51.944  27.394  25.998  1.00  0.00    -0.237 OA
ATOM     71  O   UNL A   1      50.835  25.191  25.847  1.00  0.00    -0.237 OA
ATOM     72  O   UNL A   1      50.740  26.754  23.941  1.00  0.00    -0.744 OA
ENDBRANCH  68  69
ENDBRANCH  47  61
BRANCH  48  73
ATOM     73  C   UNL A   1      38.594  31.913  31.074  1.00  0.00     0.058 A 
ATOM     74  C   UNL A   1      37.693  32.702  30.341  1.00  0.00     0.135 A 
ATOM     75  C   UNL A   1      38.287  31.660  32.421  1.00  0.00     0.135 A 
ATOM     76  F   UNL A   1      37.949  32.992  29.056  1.00  0.00    -0.206 F 
ATOM     77  C   UNL A   1      36.546  33.235  30.923  1.00  0.00     0.059 A 
ATOM     78  C   UNL A   1      37.131  32.156  33.017  1.00  0.00     0.059 A 
ATOM     79  F   UNL A   1      39.113  30.911  33.169  1.00  0.00    -0.206 F 
ATOM     80  C   UNL A   1      36.272  32.953  32.263  1.00  0.00     0.060 A 
BRANCH  80  81
ATOM     81  S   UNL A   1      34.762  33.617  32.997  1.00  0.00     0.124 S 
ATOM     82  O   UNL A   1      35.029  33.450  34.422  1.00  0.00    -0.237 OA
ATOM     83  O   UNL A   1      34.761  34.991  32.505  1.00  0.00    -0.237 OA
ATOM     84  O   UNL A   1      33.716  32.760  32.448  1.00  0.00    -0.744 OA
ENDBRANCH  80  81
ENDBRANCH  48  73
BRANCH  60  85
ATOM     85  C   UNL A   1      45.022  34.561  30.371  1.00  0.00     0.058 A 
ATOM     86  C   UNL A   1      45.640  34.778  31.612  1.00  0.00     0.135 A 
ATOM     87  C   UNL A   1      45.045  35.613  29.439  1.00  0.00     0.135 A 
ATOM     88  F   UNL A   1      45.646  33.811  32.543  1.00  0.00    -0.206 F 
ATOM     89  C   UNL A   1      46.237  35.997  31.926  1.00  0.00     0.059 A 
ATOM     90  C   UNL A   1      45.662  36.828  29.719  1.00  0.00     0.059 A 
ATOM     91  F   UNL A   1      44.482  35.458  28.230  1.00  0.00    -0.206 F 
ATOM     92  C   UNL A   1      46.247  37.016  30.970  1.00  0.00     0.060 A 
BRANCH  92  93
ATOM     93  S   UNL A   1      47.055  38.578  31.376  1.00  0.00     0.124 S 
ATOM     94  O   UNL A   1      47.507  39.027  30.064  1.00  0.00    -0.237 OA
ATOM     95  O   UNL A   1      45.966  39.348  31.970  1.00  0.00    -0.237 OA
ATOM     96  O   UNL A   1      48.113  38.184  32.304  1.00  0.00    -0.744 OA
ENDBRANCH  92  93
ENDBRANCH  60  85
ENDBRANCH  34  35
ENDBRANCH  27  29
ENDBRANCH  26  27
ENDBRANCH  25  26
ENDBRANCH  24  25
ENDBRANCH  23  24
ENDBRANCH  22  23
ENDBRANCH   1  22
TORSDOF 25
ENDMDL
MODEL 3
REMARK VINA RESULT:      -9.2      6.070     11.178
REMARK SMILES C[C@H](C(=O)OCCOCCOCCOC(=O)c1ccc(-c2c3nc(c(-c4c(F)cc(S(=O)(=O)[O-])cc4F)c4ccc([nH]4)c(-c4c(F)cc(S(=O)(=O)[O-])cc4F)c4nc(c(-c5c(F)cc(S(=O)(=O)[O-])cc5F)c5ccc2[nH]5)C=C4)C=C3)cc1)[C@@H](C)[N@@H+](C)C[C@H]1C[C@H](O)C1
REMARK SMILES IDX 9 1 8 2 7 3 6 4 5 5 3 6 4 7 2 8 1 9 83 10 84 11 85 12 86 13
REMARK SMILES IDX 87 15 88 16 92 17 89 18 90 19 91 20 10 22 11 23 12 24 13 25
REMARK SMILES IDX 14 26 15 27 16 28 17 29 18 30 82 31 19 32 81 33 20 34 21 35
REMARK SMILES IDX 22 36 75 37 23 38 80 39 74 40 76 41 24 42 79 43 73 44 72 45
REMARK SMILES IDX 25 47 59 48 38 49 58 50 39 51 42 52 57 53 77 54 40 55 41 56
REMARK SMILES IDX 56 58 78 59 43 60 26 61 27 62 36 63 28 64 29 65 35 66 37 67
REMARK SMILES IDX 30 68 31 69 32 70 33 71 34 72 60 73 61 74 70 75 62 76 63 77
REMARK SMILES IDX 69 78 71 79 64 80 65 81 66 82 67 83 68 84 44 85 45 86 54 87
REMARK SMILES IDX 46 88 47 89 53 90 55 91 48 92 49 93 50 94 51 95 52 96
REMARK H PARENT 85 14 91 21 76 46 42 57
REMARK Flexibility Score: inf
ROOT
ATOM      1  C   UNL A   1      35.069  22.450  26.339  1.00  0.00     0.188 C 
ENDROOT
BRANCH   1   2
ATOM      2  O   UNL A   1      33.961  22.526  25.456  1.00  0.00    -0.376 OA
BRANCH   2   3
ATOM      3  C   UNL A   1      34.158  22.056  24.130  1.00  0.00     0.202 C 
BRANCH   3   4
ATOM      4  C   UNL A   1      34.199  23.090  22.993  1.00  0.00     0.261 C 
BRANCH   4   5
ATOM      5  O   UNL A   1      34.520  24.443  23.374  1.00  0.00    -0.463 OA
BRANCH   5   6
ATOM      6  C   UNL A   1      33.643  25.387  22.948  1.00  0.00     0.314 C 
ATOM      7  O   UNL A   1      33.365  25.548  21.762  1.00  0.00    -0.252 OA
BRANCH   6   8
ATOM      8  C   UNL A   1      33.144  26.343  24.035  1.00  0.00     0.154 C 
ATOM      9  C   UNL A   1      33.757  25.831  25.366  1.00  0.00     0.026 C 
BRANCH   8  10
ATOM     10  C   UNL A   1      33.337  27.903  24.019  1.00  0.00     0.194 C 
ATOM     11  C   UNL A   1      34.010  28.611  22.842  1.00  0.00     0.076 C 
BRANCH  10  12
ATOM     12  N   UNL A   1      32.098  28.614  24.447  1.00  0.00    -0.334 N 
ATOM     13  C   UNL A   1      32.098  29.127  25.811  1.00  0.00     0.332 C 
ATOM     14  H   UNL A   1      31.487  27.798  24.453  1.00  0.00     0.348 HD
BRANCH  12  15
ATOM     15  C   UNL A   1      31.378  29.461  23.490  1.00  0.00     0.265 C 
BRANCH  15  16
ATOM     16  C   UNL A   1      29.847  29.505  23.567  1.00  0.00     0.049 C 
ATOM     17  C   UNL A   1      29.198  29.056  22.221  1.00  0.00     0.041 C 
ATOM     18  C   UNL A   1      28.938  30.767  23.450  1.00  0.00     0.041 C 
ATOM     19  C   UNL A   1      27.998  29.965  22.534  1.00  0.00     0.115 C 
BRANCH  19  20
ATOM     20  O   UNL A   1      26.856  29.342  23.155  1.00  0.00    -0.393 OA
ATOM     21  H   UNL A   1      27.016  28.389  23.245  1.00  0.00     0.210 HD
ENDBRANCH  19  20
ENDBRANCH  15  16
ENDBRANCH  12  15
ENDBRANCH  10  12
ENDBRANCH   8  10
ENDBRANCH   6   8
ENDBRANCH   5   6
ENDBRANCH   4   5
ENDBRANCH   3   4
ENDBRANCH   2   3
ENDBRANCH   1   2
BRANCH   1  22
ATOM     22  C   UNL A   1      36.419  22.038  25.752  1.00  0.00     0.188 C 
BRANCH  22  23
ATOM     23  O   UNL A   1      37.457  23.009  25.819  1.00  0.00    -0.376 OA
BRANCH  23  24
ATOM     24  C   UNL A   1      38.772  22.521  26.109  1.00  0.00     0.202 C 
BRANCH  24  25
ATOM     25  C   UNL A   1      39.086  21.054  25.757  1.00  0.00     0.261 C 
BRANCH  25  26
ATOM     26  O   UNL A   1      39.889  20.349  26.727  1.00  0.00    -0.460 OA
BRANCH  26  27
ATOM     27  C   UNL A   1      41.167  20.033  26.386  1.00  0.00     0.338 C 
ATOM     28  O   UNL A   1      41.529  19.033  25.804  1.00  0.00    -0.246 OA
BRANCH  27  29
ATOM     29  C   UNL A   1      42.011  21.246  26.600  1.00  0.00     0.060 A 
ATOM     30  C   UNL A   1      42.279  21.650  27.918  1.00  0.00     0.016 A 
ATOM     31  C   UNL A   1      42.608  21.929  25.536  1.00  0.00     0.016 A 
ATOM     32  C   UNL A   1      43.103  22.753  28.170  1.00  0.00     0.010 A 
ATOM     33  C   UNL A   1      43.423  23.040  25.788  1.00  0.00     0.010 A 
ATOM     34  C   UNL A   1      43.645  23.482  27.104  1.00  0.00    -0.014 A 
BRANCH  34  35
ATOM     35  C   UNL A   1      44.250  24.821  27.344  1.00  0.00     0.031 A 
ATOM     36  C   UNL A   1      43.339  25.938  27.788  1.00  0.00     0.074 A 
ATOM     37  C   UNL A   1      45.569  25.055  27.199  1.00  0.00     0.049 A 
ATOM     38  N   UNL A   1      43.605  27.201  27.989  1.00  0.00    -0.248 NA
ATOM     39  C   UNL A   1      41.935  25.572  28.037  1.00  0.00     0.031 C 
ATOM     40  C   UNL A   1      46.573  24.061  26.827  1.00  0.00     0.029 A 
ATOM     41  N   UNL A   1      46.286  26.220  27.341  1.00  0.00    -0.354 N 
ATOM     42  C   UNL A   1      42.404  27.785  28.375  1.00  0.00     0.074 A 
ATOM     43  C   UNL A   1      41.401  26.742  28.351  1.00  0.00     0.031 C 
ATOM     44  C   UNL A   1      47.776  24.662  26.756  1.00  0.00     0.029 A 
ATOM     45  C   UNL A   1      47.623  26.089  27.041  1.00  0.00     0.049 A 
ATOM     46  H   UNL A   1      45.882  27.069  27.631  1.00  0.00     0.167 HD
ATOM     47  C   UNL A   1      42.156  29.068  28.729  1.00  0.00     0.037 A 
ATOM     48  C   UNL A   1      48.603  27.017  26.976  1.00  0.00     0.037 A 
ATOM     49  C   UNL A   1      43.151  30.106  28.758  1.00  0.00     0.049 A 
ATOM     50  C   UNL A   1      48.287  28.459  27.295  1.00  0.00     0.074 A 
ATOM     51  C   UNL A   1      42.995  31.435  29.111  1.00  0.00     0.029 A 
ATOM     52  N   UNL A   1      44.485  29.937  28.416  1.00  0.00    -0.354 N 
ATOM     53  N   UNL A   1      47.147  28.995  27.668  1.00  0.00    -0.248 NA
ATOM     54  C   UNL A   1      49.391  29.426  27.185  1.00  0.00     0.031 C 
ATOM     55  C   UNL A   1      44.221  32.083  28.928  1.00  0.00     0.029 A 
ATOM     56  C   UNL A   1      45.156  31.145  28.524  1.00  0.00     0.049 A 
ATOM     57  H   UNL A   1      44.894  29.087  28.138  1.00  0.00     0.167 HD
ATOM     58  C   UNL A   1      47.408  30.350  27.868  1.00  0.00     0.074 A 
ATOM     59  C   UNL A   1      48.813  30.551  27.583  1.00  0.00     0.031 C 
ATOM     60  C   UNL A   1      46.560  31.336  28.254  1.00  0.00     0.037 A 
BRANCH  47  61
ATOM     61  C   UNL A   1      40.740  29.429  29.085  1.00  0.00     0.058 A 
ATOM     62  C   UNL A   1      40.352  29.695  30.409  1.00  0.00     0.135 A 
ATOM     63  C   UNL A   1      39.765  29.544  28.082  1.00  0.00     0.135 A 
ATOM     64  F   UNL A   1      41.239  29.578  31.410  1.00  0.00    -0.206 F 
ATOM     65  C   UNL A   1      39.042  30.036  30.726  1.00  0.00     0.059 A 
ATOM     66  C   UNL A   1      38.456  29.915  28.373  1.00  0.00     0.059 A 
ATOM     67  F   UNL A   1      40.080  29.296  26.801  1.00  0.00    -0.206 F 
ATOM     68  C   UNL A   1      38.102  30.146  29.701  1.00  0.00     0.060 A 
BRANCH  68  69
ATOM     69  S   UNL A   1      36.408  30.597  30.131  1.00  0.00     0.124 S 
ATOM     70  O   UNL A   1      36.554  32.017  30.436  1.00  0.00    -0.237 OA
ATOM     71  O   UNL A   1      35.682  30.285  28.905  1.00  0.00    -0.237 OA
ATOM     72  O   UNL A   1      36.105  29.739  31.272  1.00  0.00    -0.744 OA
ENDBRANCH  68  69
ENDBRANCH  47  61
BRANCH  48  73
ATOM     73  C   UNL A   1      49.981  26.625  26.566  1.00  0.00     0.058 A 
ATOM     74  C   UNL A   1      50.985  26.383  27.517  1.00  0.00     0.135 A 
ATOM     75  C   UNL A   1      50.331  26.515  25.210  1.00  0.00     0.135 A 
ATOM     76  F   UNL A   1      50.710  26.496  28.825  1.00  0.00    -0.206 F 
ATOM     77  C   UNL A   1      52.288  26.065  27.141  1.00  0.00     0.059 A 
ATOM     78  C   UNL A   1      51.618  26.167  24.809  1.00  0.00     0.059 A 
ATOM     79  F   UNL A   1      49.411  26.735  24.258  1.00  0.00    -0.206 F 
ATOM     80  C   UNL A   1      52.593  25.956  25.783  1.00  0.00     0.060 A 
BRANCH  80  81
ATOM     81  S   UNL A   1      54.276  25.503  25.306  1.00  0.00     0.124 S 
ATOM     82  O   UNL A   1      54.305  24.084  25.642  1.00  0.00    -0.237 OA
ATOM     83  O   UNL A   1      54.285  25.822  23.881  1.00  0.00    -0.237 OA
ATOM     84  O   UNL A   1      55.105  26.366  26.141  1.00  0.00    -0.744 OA
ENDBRANCH  80  81
ENDBRANCH  48  73
BRANCH  60  85
ATOM     85  C   UNL A   1      47.125  32.720  28.444  1.00  0.00     0.058 A 
ATOM     86  C   UNL A   1      47.120  33.673  27.413  1.00  0.00     0.135 A 
ATOM     87  C   UNL A   1      47.619  33.118  29.698  1.00  0.00     0.135 A 
ATOM     88  F   UNL A   1      46.664  33.349  26.194  1.00  0.00    -0.206 F 
ATOM     89  C   UNL A   1      47.608  34.963  27.612  1.00  0.00     0.059 A 
ATOM     90  C   UNL A   1      48.082  34.410  29.928  1.00  0.00     0.059 A 
ATOM     91  F   UNL A   1      47.635  32.253  30.724  1.00  0.00    -0.206 F 
ATOM     92  C   UNL A   1      48.083  35.324  28.875  1.00  0.00     0.060 A 
BRANCH  92  93
ATOM     93  S   UNL A   1      48.678  37.009  29.128  1.00  0.00     0.124 S 
ATOM     94  O   UNL A   1      50.073  36.895  28.717  1.00  0.00    -0.237 OA
ATOM     95  O   UNL A   1      47.816  37.781  28.239  1.00  0.00    -0.237 OA
ATOM     96  O   UNL A   1      48.461  37.238  30.554  1.00  0.00    -0.744 OA
ENDBRANCH  92  93
ENDBRANCH  60  85
ENDBRANCH  34  35
ENDBRANCH  27  29
ENDBRANCH  26  27
ENDBRANCH  25  26
ENDBRANCH  24  25
ENDBRANCH  23  24
ENDBRANCH  22  23
ENDBRANCH   1  22
TORSDOF 25
ENDMDL
