MODEL 1
REMARK VINA RESULT:     -10.9      0.000      0.000
REMARK SMILES CCOc1cc2c(cc1/C=C1/C(=O)N(c3cccc(C(=O)OCCOCCOCCOC(=O)c4ccc(-c5c6nc(c(-c7c(F)cc(S(=O)(=O)[O-])cc7F)c7ccc([nH]7)c(-c7c(F)cc(S(=O)(=O)[O-])cc7F)c7nc(c(-c8c(F)cc(S(=O)(=O)[O-])cc8F)c8ccc5[nH]8)C=C7)C=C6)cc4)c3)C(=S)N=C1O)OCO2
REMARK SMILES IDX 26 1 25 2 24 3 23 4 22 5 20 6 21 7 19 8 15 9 16 10 100 11
REMARK SMILES IDX 17 12 18 13 14 14 10 15 11 16 12 17 104 18 13 19 103 20
REMARK SMILES IDX 101 21 102 22 9 23 4 24 5 25 6 26 8 27 7 28 108 29 106 30
REMARK SMILES IDX 107 31 3 32 2 33 1 34 105 35 27 37 28 38 29 39 30 40 31 41
REMARK SMILES IDX 32 42 33 43 34 44 35 45 99 46 36 47 98 48 37 49 38 50 39 51
REMARK SMILES IDX 92 52 40 53 97 54 91 55 93 56 41 57 96 58 90 59 89 60 42 62
REMARK SMILES IDX 76 63 55 64 75 65 56 66 59 67 74 68 94 69 57 70 58 71 73 73
REMARK SMILES IDX 95 74 60 75 43 76 44 77 53 78 45 79 46 80 52 81 54 82 47 83
REMARK SMILES IDX 48 84 49 85 50 86 51 87 77 88 78 89 87 90 79 91 80 92 86 93
REMARK SMILES IDX 88 94 81 95 82 96 83 97 84 98 85 99 61 100 62 101 71 102
REMARK SMILES IDX 63 103 64 104 70 105 72 106 65 107 66 108 67 109 68 110
REMARK SMILES IDX 69 111
REMARK H PARENT 105 36 93 61 59 72
REMARK Flexibility Score: inf
ROOT
ATOM      1  C   UNL A   1      35.151  33.448  28.567  1.00  0.00     0.188 C 
ENDROOT
BRANCH   1   2
ATOM      2  O   UNL A   1      35.668  32.346  27.828  1.00  0.00    -0.376 OA
BRANCH   2   3
ATOM      3  C   UNL A   1      34.952  31.119  27.784  1.00  0.00     0.202 C 
BRANCH   3   4
ATOM      4  C   UNL A   1      33.426  31.134  27.606  1.00  0.00     0.261 C 
BRANCH   4   5
ATOM      5  O   UNL A   1      32.957  30.541  26.386  1.00  0.00    -0.460 OA
BRANCH   5   6
ATOM      6  C   UNL A   1      31.686  30.857  26.029  1.00  0.00     0.338 C 
ATOM      7  O   UNL A   1      31.047  31.838  26.371  1.00  0.00    -0.246 OA
BRANCH   6   8
ATOM      8  C   UNL A   1      31.230  29.914  24.985  1.00  0.00     0.062 A 
ATOM      9  C   UNL A   1      31.550  27.925  23.620  1.00  0.00     0.052 A 
ATOM     10  C   UNL A   1      30.383  28.267  22.908  1.00  0.00     0.027 A 
ATOM     11  C   UNL A   1      31.963  28.763  24.667  1.00  0.00     0.042 A 
ATOM     12  C   UNL A   1      29.654  29.416  23.226  1.00  0.00     0.003 A 
ATOM     13  C   UNL A   1      30.071  30.235  24.271  1.00  0.00     0.016 A 
BRANCH   9  14
ATOM     14  N   UNL A   1      32.270  26.709  23.309  1.00  0.00    -0.251 N 
ATOM     15  C   UNL A   1      32.365  23.184  24.313  1.00  0.00     0.031 C 
ATOM     16  C   UNL A   1      32.554  24.277  23.534  1.00  0.00     0.103 C 
ATOM     17  C   UNL A   1      31.851  25.534  23.957  1.00  0.00     0.270 C 
ATOM     18  C   UNL A   1      33.307  24.432  22.295  1.00  0.00     0.226 C 
ATOM     19  O   UNL A   1      30.957  25.476  24.803  1.00  0.00    -0.268 OA
ATOM     20  N   UNL A   1      33.663  25.532  21.754  1.00  0.00    -0.184 NA
ATOM     21  C   UNL A   1      33.330  26.714  22.374  1.00  0.00     0.210 C 
ATOM     22  S   UNL A   1      34.275  28.078  22.001  1.00  0.00    -0.038 S 
BRANCH  15  23
ATOM     23  C   UNL A   1      32.819  21.773  24.202  1.00  0.00     0.021 A 
ATOM     24  C   UNL A   1      33.872  21.289  25.032  1.00  0.00     0.130 A 
ATOM     25  C   UNL A   1      34.196  19.928  25.094  1.00  0.00     0.097 A 
ATOM     26  C   UNL A   1      33.543  19.079  24.240  1.00  0.00     0.169 A 
ATOM     27  C   UNL A   1      32.263  20.878  23.275  1.00  0.00     0.062 A 
ATOM     28  C   UNL A   1      32.619  19.544  23.339  1.00  0.00     0.166 A 
ATOM     29  O   UNL A   1      33.724  17.735  24.161  1.00  0.00    -0.453 OA
ATOM     30  O   UNL A   1      32.103  18.546  22.573  1.00  0.00    -0.454 OA
ATOM     31  C   UNL A   1      32.753  17.395  23.152  1.00  0.00     0.468 C 
BRANCH  24  32
ATOM     32  O   UNL A   1      34.574  22.136  25.860  1.00  0.00    -0.493 OA
BRANCH  32  33
ATOM     33  C   UNL A   1      34.387  21.798  27.248  1.00  0.00     0.226 C 
ATOM     34  C   UNL A   1      33.129  22.426  27.838  1.00  0.00     0.049 C 
ENDBRANCH  32  33
ENDBRANCH  24  32
ENDBRANCH  15  23
BRANCH  18  35
ATOM     35  O   UNL A   1      33.618  23.329  21.618  1.00  0.00    -0.493 OA
ATOM     36  H   UNL A   1      33.196  23.145  20.802  1.00  0.00     0.295 HD
ENDBRANCH  18  35
ENDBRANCH   9  14
ENDBRANCH   6   8
ENDBRANCH   5   6
ENDBRANCH   4   5
ENDBRANCH   3   4
ENDBRANCH   2   3
ENDBRANCH   1   2
BRANCH   1  37
ATOM     37  C   UNL A   1      34.459  34.617  27.832  1.00  0.00     0.188 C 
BRANCH  37  38
ATOM     38  O   UNL A   1      34.669  35.874  28.445  1.00  0.00    -0.376 OA
BRANCH  38  39
ATOM     39  C   UNL A   1      33.529  36.681  28.688  1.00  0.00     0.202 C 
BRANCH  39  40
ATOM     40  C   UNL A   1      32.638  36.411  29.915  1.00  0.00     0.261 C 
BRANCH  40  41
ATOM     41  O   UNL A   1      33.265  36.453  31.205  1.00  0.00    -0.460 OA
BRANCH  41  42
ATOM     42  C   UNL A   1      32.978  35.450  32.064  1.00  0.00     0.338 C 
ATOM     43  O   UNL A   1      31.878  35.148  32.489  1.00  0.00    -0.246 OA
BRANCH  42  44
ATOM     44  C   UNL A   1      34.213  34.664  32.285  1.00  0.00     0.060 A 
ATOM     45  C   UNL A   1      34.118  33.424  32.930  1.00  0.00     0.016 A 
ATOM     46  C   UNL A   1      35.459  35.154  31.881  1.00  0.00     0.016 A 
ATOM     47  C   UNL A   1      35.275  32.696  33.216  1.00  0.00     0.010 A 
ATOM     48  C   UNL A   1      36.618  34.427  32.180  1.00  0.00     0.010 A 
ATOM     49  C   UNL A   1      36.536  33.213  32.883  1.00  0.00    -0.014 A 
BRANCH  49  50
ATOM     50  C   UNL A   1      37.758  32.578  33.444  1.00  0.00     0.031 A 
ATOM     51  C   UNL A   1      38.411  31.464  32.666  1.00  0.00     0.074 A 
ATOM     52  C   UNL A   1      38.311  33.008  34.593  1.00  0.00     0.049 A 
ATOM     53  N   UNL A   1      39.487  30.775  32.943  1.00  0.00    -0.248 NA
ATOM     54  C   UNL A   1      37.759  31.077  31.404  1.00  0.00     0.031 C 
ATOM     55  C   UNL A   1      37.795  34.092  35.427  1.00  0.00     0.029 A 
ATOM     56  N   UNL A   1      39.433  32.577  35.259  1.00  0.00    -0.354 N 
ATOM     57  C   UNL A   1      39.643  29.878  31.892  1.00  0.00     0.074 A 
ATOM     58  C   UNL A   1      38.530  30.083  30.991  1.00  0.00     0.031 C 
ATOM     59  C   UNL A   1      38.599  34.240  36.496  1.00  0.00     0.029 A 
ATOM     60  C   UNL A   1      39.670  33.246  36.436  1.00  0.00     0.049 A 
ATOM     61  H   UNL A   1      40.013  31.855  34.924  1.00  0.00     0.167 HD
ATOM     62  C   UNL A   1      40.632  28.975  31.686  1.00  0.00     0.037 A 
ATOM     63  C   UNL A   1      40.635  33.069  37.363  1.00  0.00     0.037 A 
ATOM     64  C   UNL A   1      41.738  28.767  32.584  1.00  0.00     0.049 A 
ATOM     65  C   UNL A   1      41.688  32.010  37.145  1.00  0.00     0.074 A 
ATOM     66  C   UNL A   1      42.799  27.888  32.453  1.00  0.00     0.029 A 
ATOM     67  N   UNL A   1      41.923  29.442  33.781  1.00  0.00    -0.354 N 
ATOM     68  N   UNL A   1      41.842  31.194  36.129  1.00  0.00    -0.248 NA
ATOM     69  C   UNL A   1      42.701  31.852  38.199  1.00  0.00     0.031 C 
ATOM     70  C   UNL A   1      43.599  27.995  33.595  1.00  0.00     0.029 A 
ATOM     71  C   UNL A   1      43.066  28.979  34.413  1.00  0.00     0.049 A 
ATOM     72  H   UNL A   1      41.329  30.144  34.132  1.00  0.00     0.167 HD
ATOM     73  C   UNL A   1      42.982  30.446  36.409  1.00  0.00     0.074 A 
ATOM     74  C   UNL A   1      43.487  30.917  37.683  1.00  0.00     0.031 C 
ATOM     75  C   UNL A   1      43.560  29.459  35.679  1.00  0.00     0.037 A 
BRANCH  62  76
ATOM     76  C   UNL A   1      40.550  28.128  30.445  1.00  0.00     0.058 A 
ATOM     77  C   UNL A   1      41.431  28.312  29.367  1.00  0.00     0.135 A 
ATOM     78  C   UNL A   1      39.600  27.099  30.346  1.00  0.00     0.135 A 
ATOM     79  F   UNL A   1      42.347  29.293  29.402  1.00  0.00    -0.206 F 
ATOM     80  C   UNL A   1      41.356  27.524  28.224  1.00  0.00     0.059 A 
ATOM     81  C   UNL A   1      39.524  26.281  29.222  1.00  0.00     0.059 A 
ATOM     82  F   UNL A   1      38.731  26.882  31.346  1.00  0.00    -0.206 F 
ATOM     83  C   UNL A   1      40.398  26.509  28.161  1.00  0.00     0.060 A 
BRANCH  83  84
ATOM     84  S   UNL A   1      40.318  25.490  26.674  1.00  0.00     0.124 S 
ATOM     85  O   UNL A   1      40.773  26.429  25.652  1.00  0.00    -0.237 OA
ATOM     86  O   UNL A   1      41.239  24.403  26.990  1.00  0.00    -0.237 OA
ATOM     87  O   UNL A   1      38.910  25.112  26.595  1.00  0.00    -0.744 OA
ENDBRANCH  83  84
ENDBRANCH  62  76
BRANCH  63  88
ATOM     88  C   UNL A   1      40.654  33.907  38.593  1.00  0.00     0.058 A 
ATOM     89  C   UNL A   1      41.442  35.066  38.672  1.00  0.00     0.135 A 
ATOM     90  C   UNL A   1      39.900  33.555  39.724  1.00  0.00     0.135 A 
ATOM     91  F   UNL A   1      42.193  35.437  37.623  1.00  0.00    -0.206 F 
ATOM     92  C   UNL A   1      41.498  35.834  39.831  1.00  0.00     0.059 A 
ATOM     93  C   UNL A   1      39.917  34.322  40.885  1.00  0.00     0.059 A 
ATOM     94  F   UNL A   1      39.124  32.460  39.700  1.00  0.00    -0.206 F 
ATOM     95  C   UNL A   1      40.730  35.454  40.933  1.00  0.00     0.060 A 
BRANCH  95  96
ATOM     96  S   UNL A   1      40.778  36.479  42.419  1.00  0.00     0.124 S 
ATOM     97  O   UNL A   1      41.636  35.687  43.293  1.00  0.00    -0.237 OA
ATOM     98  O   UNL A   1      41.354  37.722  41.914  1.00  0.00    -0.237 OA
ATOM     99  O   UNL A   1      39.376  36.562  42.815  1.00  0.00    -0.744 OA
ENDBRANCH  95  96
ENDBRANCH  63  88
BRANCH  75 100
ATOM    100  C   UNL A   1      44.821  28.839  36.220  1.00  0.00     0.058 A 
ATOM    101  C   UNL A   1      44.797  27.666  36.990  1.00  0.00     0.135 A 
ATOM    102  C   UNL A   1      46.075  29.401  35.923  1.00  0.00     0.135 A 
ATOM    103  F   UNL A   1      43.627  27.090  37.306  1.00  0.00    -0.206 F 
ATOM    104  C   UNL A   1      45.968  27.085  37.468  1.00  0.00     0.059 A 
ATOM    105  C   UNL A   1      47.260  28.821  36.367  1.00  0.00     0.059 A 
ATOM    106  F   UNL A   1      46.157  30.516  35.180  1.00  0.00    -0.206 F 
ATOM    107  C   UNL A   1      47.195  27.672  37.152  1.00  0.00     0.060 A 
BRANCH 107 108
ATOM    108  S   UNL A   1      48.708  26.895  37.758  1.00  0.00     0.124 S 
ATOM    109  O   UNL A   1      48.758  25.680  36.953  1.00  0.00    -0.237 OA
ATOM    110  O   UNL A   1      49.721  27.901  37.453  1.00  0.00    -0.237 OA
ATOM    111  O   UNL A   1      48.441  26.695  39.180  1.00  0.00    -0.744 OA
ENDBRANCH 107 108
ENDBRANCH  75 100
ENDBRANCH  49  50
ENDBRANCH  42  44
ENDBRANCH  41  42
ENDBRANCH  40  41
ENDBRANCH  39  40
ENDBRANCH  38  39
ENDBRANCH  37  38
ENDBRANCH   1  37
TORSDOF 25
ENDMDL
MODEL 2
REMARK VINA RESULT:     -10.7      0.743      7.566
REMARK SMILES CCOc1cc2c(cc1/C=C1/C(=O)N(c3cccc(C(=O)OCCOCCOCCOC(=O)c4ccc(-c5c6nc(c(-c7c(F)cc(S(=O)(=O)[O-])cc7F)c7ccc([nH]7)c(-c7c(F)cc(S(=O)(=O)[O-])cc7F)c7nc(c(-c8c(F)cc(S(=O)(=O)[O-])cc8F)c8ccc5[nH]8)C=C7)C=C6)cc4)c3)C(=S)N=C1O)OCO2
REMARK SMILES IDX 26 1 25 2 24 3 23 4 22 5 20 6 21 7 19 8 15 9 16 10 100 11
REMARK SMILES IDX 17 12 18 13 14 14 10 15 11 16 12 17 104 18 13 19 103 20
REMARK SMILES IDX 101 21 102 22 9 23 4 24 5 25 6 26 8 27 7 28 108 29 106 30
REMARK SMILES IDX 107 31 3 32 2 33 1 34 105 35 27 37 28 38 29 39 30 40 31 41
REMARK SMILES IDX 32 42 33 43 34 44 35 45 99 46 36 47 98 48 37 49 38 50 39 51
REMARK SMILES IDX 92 52 40 53 97 54 91 55 93 56 41 57 96 58 90 59 89 60 42 62
REMARK SMILES IDX 76 63 55 64 75 65 56 66 59 67 74 68 94 69 57 70 58 71 73 73
REMARK SMILES IDX 95 74 60 75 43 76 44 77 53 78 45 79 46 80 52 81 54 82 47 83
REMARK SMILES IDX 48 84 49 85 50 86 51 87 77 88 78 89 87 90 79 91 80 92 86 93
REMARK SMILES IDX 88 94 81 95 82 96 83 97 84 98 85 99 61 100 62 101 71 102
REMARK SMILES IDX 63 103 64 104 70 105 72 106 65 107 66 108 67 109 68 110
REMARK SMILES IDX 69 111
REMARK H PARENT 105 36 93 61 59 72
REMARK Flexibility Score: inf
ROOT
ATOM      1  C   UNL A   1      34.839  32.644  28.679  1.00  0.00     0.188 C 
ENDROOT
BRANCH   1   2
ATOM      2  O   UNL A   1      35.361  31.519  27.978  1.00  0.00    -0.376 OA
BRANCH   2   3
ATOM      3  C   UNL A   1      34.502  30.450  27.608  1.00  0.00     0.202 C 
BRANCH   3   4
ATOM      4  C   UNL A   1      33.029  30.735  27.279  1.00  0.00     0.261 C 
BRANCH   4   5
ATOM      5  O   UNL A   1      32.692  30.632  25.889  1.00  0.00    -0.460 OA
BRANCH   5   6
ATOM      6  C   UNL A   1      31.383  30.820  25.585  1.00  0.00     0.338 C 
ATOM      7  O   UNL A   1      30.682  31.768  25.899  1.00  0.00    -0.246 OA
BRANCH   6   8
ATOM      8  C   UNL A   1      30.954  29.774  24.629  1.00  0.00     0.062 A 
ATOM      9  C   UNL A   1      31.360  27.717  23.395  1.00  0.00     0.052 A 
ATOM     10  C   UNL A   1      30.146  27.927  22.712  1.00  0.00     0.027 A 
ATOM     11  C   UNL A   1      31.753  28.655  24.362  1.00  0.00     0.042 A 
ATOM     12  C   UNL A   1      29.350  29.044  22.980  1.00  0.00     0.003 A 
ATOM     13  C   UNL A   1      29.749  29.964  23.946  1.00  0.00     0.016 A 
BRANCH   9  14
ATOM     14  N   UNL A   1      32.151  26.532  23.140  1.00  0.00    -0.251 N 
ATOM     15  C   UNL A   1      32.406  23.049  24.256  1.00  0.00     0.031 C 
ATOM     16  C   UNL A   1      32.557  24.127  23.449  1.00  0.00     0.103 C 
ATOM     17  C   UNL A   1      31.778  25.356  23.815  1.00  0.00     0.270 C 
ATOM     18  C   UNL A   1      33.332  24.284  22.223  1.00  0.00     0.226 C 
ATOM     19  O   UNL A   1      30.867  25.276  24.640  1.00  0.00    -0.268 OA
ATOM     20  N   UNL A   1      33.643  25.385  21.656  1.00  0.00    -0.184 NA
ATOM     21  C   UNL A   1      33.232  26.565  22.232  1.00  0.00     0.210 C 
ATOM     22  S   UNL A   1      34.113  27.966  21.838  1.00  0.00    -0.038 S 
BRANCH  15  23
ATOM     23  C   UNL A   1      32.936  21.662  24.201  1.00  0.00     0.021 A 
ATOM     24  C   UNL A   1      34.207  21.355  24.768  1.00  0.00     0.130 A 
ATOM     25  C   UNL A   1      34.653  20.034  24.906  1.00  0.00     0.097 A 
ATOM     26  C   UNL A   1      33.877  19.041  24.372  1.00  0.00     0.169 A 
ATOM     27  C   UNL A   1      32.237  20.617  23.577  1.00  0.00     0.062 A 
ATOM     28  C   UNL A   1      32.712  19.325  23.705  1.00  0.00     0.166 A 
ATOM     29  O   UNL A   1      34.147  17.710  24.412  1.00  0.00    -0.453 OA
ATOM     30  O   UNL A   1      32.102  18.204  23.235  1.00  0.00    -0.454 OA
ATOM     31  C   UNL A   1      32.979  17.182  23.754  1.00  0.00     0.468 C 
BRANCH  24  32
ATOM     32  O   UNL A   1      35.025  22.344  25.265  1.00  0.00    -0.493 OA
BRANCH  32  33
ATOM     33  C   UNL A   1      36.214  22.501  24.468  1.00  0.00     0.226 C 
ATOM     34  C   UNL A   1      37.395  23.028  25.275  1.00  0.00     0.049 C 
ENDBRANCH  32  33
ENDBRANCH  24  32
ENDBRANCH  15  23
BRANCH  18  35
ATOM     35  O   UNL A   1      33.718  23.179  21.589  1.00  0.00    -0.493 OA
ATOM     36  H   UNL A   1      33.653  23.128  20.656  1.00  0.00     0.295 HD
ENDBRANCH  18  35
ENDBRANCH   9  14
ENDBRANCH   6   8
ENDBRANCH   5   6
ENDBRANCH   4   5
ENDBRANCH   3   4
ENDBRANCH   2   3
ENDBRANCH   1   2
BRANCH   1  37
ATOM     37  C   UNL A   1      34.719  34.011  27.970  1.00  0.00     0.188 C 
BRANCH  37  38
ATOM     38  O   UNL A   1      34.704  35.110  28.859  1.00  0.00    -0.376 OA
BRANCH  38  39
ATOM     39  C   UNL A   1      33.605  36.001  28.779  1.00  0.00     0.202 C 
BRANCH  39  40
ATOM     40  C   UNL A   1      32.528  36.004  29.880  1.00  0.00     0.261 C 
BRANCH  40  41
ATOM     41  O   UNL A   1      32.932  36.420  31.193  1.00  0.00    -0.460 OA
BRANCH  41  42
ATOM     42  C   UNL A   1      32.833  35.511  32.188  1.00  0.00     0.338 C 
ATOM     43  O   UNL A   1      31.836  35.244  32.833  1.00  0.00    -0.246 OA
BRANCH  42  44
ATOM     44  C   UNL A   1      34.110  34.765  32.260  1.00  0.00     0.060 A 
ATOM     45  C   UNL A   1      34.077  33.397  32.558  1.00  0.00     0.016 A 
ATOM     46  C   UNL A   1      35.333  35.414  32.061  1.00  0.00     0.016 A 
ATOM     47  C   UNL A   1      35.270  32.686  32.704  1.00  0.00     0.010 A 
ATOM     48  C   UNL A   1      36.527  34.701  32.222  1.00  0.00     0.010 A 
ATOM     49  C   UNL A   1      36.504  33.342  32.582  1.00  0.00    -0.014 A 
BRANCH  49  50
ATOM     50  C   UNL A   1      37.747  32.653  33.021  1.00  0.00     0.031 A 
ATOM     51  C   UNL A   1      38.344  33.029  34.352  1.00  0.00     0.074 A 
ATOM     52  C   UNL A   1      38.312  31.682  32.281  1.00  0.00     0.049 A 
ATOM     53  N   UNL A   1      39.407  32.557  34.950  1.00  0.00    -0.248 NA
ATOM     54  C   UNL A   1      37.645  34.080  35.111  1.00  0.00     0.031 C 
ATOM     55  C   UNL A   1      37.819  31.206  30.989  1.00  0.00     0.029 A 
ATOM     56  N   UNL A   1      39.431  30.920  32.515  1.00  0.00    -0.354 N 
ATOM     57  C   UNL A   1      39.503  33.248  36.153  1.00  0.00     0.074 A 
ATOM     58  C   UNL A   1      38.413  34.199  36.183  1.00  0.00     0.031 C 
ATOM     59  C   UNL A   1      38.636  30.234  30.543  1.00  0.00     0.029 A 
ATOM     60  C   UNL A   1      39.721  30.035  31.503  1.00  0.00     0.049 A 
ATOM     61  H   UNL A   1      39.976  31.001  33.332  1.00  0.00     0.167 HD
ATOM     62  C   UNL A   1      40.407  33.096  37.151  1.00  0.00     0.037 A 
ATOM     63  C   UNL A   1      40.750  29.173  31.364  1.00  0.00     0.037 A 
ATOM     64  C   UNL A   1      41.494  32.152  37.121  1.00  0.00     0.049 A 
ATOM     65  C   UNL A   1      41.784  29.069  32.459  1.00  0.00     0.074 A 
ATOM     66  C   UNL A   1      42.451  31.911  38.090  1.00  0.00     0.029 A 
ATOM     67  N   UNL A   1      41.772  31.299  36.064  1.00  0.00    -0.354 N 
ATOM     68  N   UNL A   1      41.841  29.703  33.606  1.00  0.00    -0.248 NA
ATOM     69  C   UNL A   1      42.891  28.126  32.241  1.00  0.00     0.031 C 
ATOM     70  C   UNL A   1      43.338  30.948  37.599  1.00  0.00     0.029 A 
ATOM     71  C   UNL A   1      42.902  30.549  36.345  1.00  0.00     0.049 A 
ATOM     72  H   UNL A   1      41.246  31.236  35.234  1.00  0.00     0.167 HD
ATOM     73  C   UNL A   1      42.972  29.218  34.256  1.00  0.00     0.074 A 
ATOM     74  C   UNL A   1      43.561  28.226  33.380  1.00  0.00     0.031 C 
ATOM     75  C   UNL A   1      43.478  29.561  35.467  1.00  0.00     0.037 A 
BRANCH  62  76
ATOM     76  C   UNL A   1      40.267  33.985  38.356  1.00  0.00     0.058 A 
ATOM     77  C   UNL A   1      41.005  35.172  38.486  1.00  0.00     0.135 A 
ATOM     78  C   UNL A   1      39.360  33.663  39.379  1.00  0.00     0.135 A 
ATOM     79  F   UNL A   1      41.900  35.518  37.547  1.00  0.00    -0.206 F 
ATOM     80  C   UNL A   1      40.869  35.994  39.599  1.00  0.00     0.059 A 
ATOM     81  C   UNL A   1      39.188  34.485  40.489  1.00  0.00     0.059 A 
ATOM     82  F   UNL A   1      38.630  32.538  39.306  1.00  0.00    -0.206 F 
ATOM     83  C   UNL A   1      39.957  35.642  40.596  1.00  0.00     0.060 A 
BRANCH  83  84
ATOM     84  S   UNL A   1      39.788  36.724  42.031  1.00  0.00     0.124 S 
ATOM     85  O   UNL A   1      38.841  35.974  42.852  1.00  0.00    -0.237 OA
ATOM     86  O   UNL A   1      41.155  36.787  42.538  1.00  0.00    -0.237 OA
ATOM     87  O   UNL A   1      39.276  37.967  41.462  1.00  0.00    -0.744 OA
ENDBRANCH  83  84
ENDBRANCH  62  76
BRANCH  63  88
ATOM     88  C   UNL A   1      40.866  28.339  30.136  1.00  0.00     0.058 A 
ATOM     89  C   UNL A   1      41.843  28.607  29.165  1.00  0.00     0.135 A 
ATOM     90  C   UNL A   1      39.989  27.270  29.899  1.00  0.00     0.135 A 
ATOM     91  F   UNL A   1      42.696  29.628  29.338  1.00  0.00    -0.206 F 
ATOM     92  C   UNL A   1      41.934  27.859  27.995  1.00  0.00     0.059 A 
ATOM     93  C   UNL A   1      40.077  26.489  28.751  1.00  0.00     0.059 A 
ATOM     94  F   UNL A   1      39.039  26.967  30.799  1.00  0.00    -0.206 F 
ATOM     95  C   UNL A   1      41.046  26.800  27.798  1.00  0.00     0.060 A 
BRANCH  95  96
ATOM     96  S   UNL A   1      41.198  25.810  26.295  1.00  0.00     0.124 S 
ATOM     97  O   UNL A   1      42.392  25.022  26.583  1.00  0.00    -0.237 OA
ATOM     98  O   UNL A   1      39.937  25.075  26.283  1.00  0.00    -0.237 OA
ATOM     99  O   UNL A   1      41.341  26.813  25.245  1.00  0.00    -0.744 OA
ENDBRANCH  95  96
ENDBRANCH  63  88
BRANCH  75 100
ATOM    100  C   UNL A   1      44.713  28.840  35.937  1.00  0.00     0.058 A 
ATOM    101  C   UNL A   1      44.639  27.623  36.633  1.00  0.00     0.135 A 
ATOM    102  C   UNL A   1      45.989  29.349  35.644  1.00  0.00     0.135 A 
ATOM    103  F   UNL A   1      43.445  27.094  36.942  1.00  0.00    -0.206 F 
ATOM    104  C   UNL A   1      45.785  26.950  37.045  1.00  0.00     0.059 A 
ATOM    105  C   UNL A   1      47.149  28.678  36.021  1.00  0.00     0.059 A 
ATOM    106  F   UNL A   1      46.119  30.502  34.969  1.00  0.00    -0.206 F 
ATOM    107  C   UNL A   1      47.036  27.486  36.735  1.00  0.00     0.060 A 
BRANCH 107 108
ATOM    108  S   UNL A   1      48.516  26.590  37.253  1.00  0.00     0.124 S 
ATOM    109  O   UNL A   1      47.943  25.353  37.772  1.00  0.00    -0.237 OA
ATOM    110  O   UNL A   1      49.263  26.470  36.006  1.00  0.00    -0.237 OA
ATOM    111  O   UNL A   1      49.114  27.471  38.252  1.00  0.00    -0.744 OA
ENDBRANCH 107 108
ENDBRANCH  75 100
ENDBRANCH  49  50
ENDBRANCH  42  44
ENDBRANCH  41  42
ENDBRANCH  40  41
ENDBRANCH  39  40
ENDBRANCH  38  39
ENDBRANCH  37  38
ENDBRANCH   1  37
TORSDOF 25
ENDMDL
MODEL 3
REMARK VINA RESULT:      -9.3      9.636     15.200
REMARK SMILES CCOc1cc2c(cc1/C=C1/C(=O)N(c3cccc(C(=O)OCCOCCOCCOC(=O)c4ccc(-c5c6nc(c(-c7c(F)cc(S(=O)(=O)[O-])cc7F)c7ccc([nH]7)c(-c7c(F)cc(S(=O)(=O)[O-])cc7F)c7nc(c(-c8c(F)cc(S(=O)(=O)[O-])cc8F)c8ccc5[nH]8)C=C7)C=C6)cc4)c3)C(=S)N=C1O)OCO2
REMARK SMILES IDX 26 1 25 2 24 3 23 4 22 5 20 6 21 7 19 8 15 9 16 10 100 11
REMARK SMILES IDX 17 12 18 13 14 14 10 15 11 16 12 17 104 18 13 19 103 20
REMARK SMILES IDX 101 21 102 22 9 23 4 24 5 25 6 26 8 27 7 28 108 29 106 30
REMARK SMILES IDX 107 31 3 32 2 33 1 34 105 35 27 37 28 38 29 39 30 40 31 41
REMARK SMILES IDX 32 42 33 43 34 44 35 45 99 46 36 47 98 48 37 49 38 50 39 51
REMARK SMILES IDX 92 52 40 53 97 54 91 55 93 56 41 57 96 58 90 59 89 60 42 62
REMARK SMILES IDX 76 63 55 64 75 65 56 66 59 67 74 68 94 69 57 70 58 71 73 73
REMARK SMILES IDX 95 74 60 75 43 76 44 77 53 78 45 79 46 80 52 81 54 82 47 83
REMARK SMILES IDX 48 84 49 85 50 86 51 87 77 88 78 89 87 90 79 91 80 92 86 93
REMARK SMILES IDX 88 94 81 95 82 96 83 97 84 98 85 99 61 100 62 101 71 102
REMARK SMILES IDX 63 103 64 104 70 105 72 106 65 107 66 108 67 109 68 110
REMARK SMILES IDX 69 111
REMARK H PARENT 105 36 93 61 59 72
REMARK Flexibility Score: inf
ROOT
ATOM      1  C   UNL A   1      48.792  41.706  28.355  1.00  0.00     0.188 C 
ENDROOT
BRANCH   1   2
ATOM      2  O   UNL A   1      49.241  42.833  27.609  1.00  0.00    -0.376 OA
BRANCH   2   3
ATOM      3  C   UNL A   1      48.762  44.133  27.924  1.00  0.00     0.202 C 
BRANCH   3   4
ATOM      4  C   UNL A   1      48.961  45.282  26.924  1.00  0.00     0.261 C 
BRANCH   4   5
ATOM      5  O   UNL A   1      47.939  45.392  25.923  1.00  0.00    -0.460 OA
BRANCH   5   6
ATOM      6  C   UNL A   1      48.344  45.188  24.644  1.00  0.00     0.338 C 
ATOM      7  O   UNL A   1      49.214  45.795  24.040  1.00  0.00    -0.246 OA
BRANCH   6   8
ATOM      8  C   UNL A   1      47.697  43.964  24.122  1.00  0.00     0.062 A 
ATOM      9  C   UNL A   1      46.209  42.058  24.392  1.00  0.00     0.052 A 
ATOM     10  C   UNL A   1      46.634  41.591  23.133  1.00  0.00     0.027 A 
ATOM     11  C   UNL A   1      46.751  43.258  24.877  1.00  0.00     0.042 A 
ATOM     12  C   UNL A   1      47.578  42.296  22.382  1.00  0.00     0.003 A 
ATOM     13  C   UNL A   1      48.103  43.488  22.871  1.00  0.00     0.016 A 
BRANCH   9  14
ATOM     14  N   UNL A   1      45.197  41.341  25.138  1.00  0.00    -0.251 N 
ATOM     15  C   UNL A   1      44.880  38.393  27.295  1.00  0.00     0.031 C 
ATOM     16  C   UNL A   1      44.567  39.593  26.749  1.00  0.00     0.103 C 
ATOM     17  C   UNL A   1      45.626  40.248  25.911  1.00  0.00     0.270 C 
ATOM     18  C   UNL A   1      43.360  40.401  26.879  1.00  0.00     0.226 C 
ATOM     19  O   UNL A   1      46.784  39.829  25.958  1.00  0.00    -0.268 OA
ATOM     20  N   UNL A   1      43.020  41.385  26.140  1.00  0.00    -0.184 NA
ATOM     21  C   UNL A   1      43.845  41.748  25.100  1.00  0.00     0.210 C 
ATOM     22  S   UNL A   1      43.138  42.613  23.818  1.00  0.00    -0.038 S 
BRANCH  15  23
ATOM     23  C   UNL A   1      44.153  37.479  28.213  1.00  0.00     0.021 A 
ATOM     24  C   UNL A   1      43.272  36.487  27.692  1.00  0.00     0.130 A 
ATOM     25  C   UNL A   1      42.720  35.490  28.506  1.00  0.00     0.097 A 
ATOM     26  C   UNL A   1      42.961  35.561  29.853  1.00  0.00     0.169 A 
ATOM     27  C   UNL A   1      44.275  37.566  29.609  1.00  0.00     0.062 A 
ATOM     28  C   UNL A   1      43.698  36.584  30.393  1.00  0.00     0.166 A 
ATOM     29  O   UNL A   1      42.512  34.685  30.790  1.00  0.00    -0.453 OA
ATOM     30  O   UNL A   1      43.804  36.483  31.745  1.00  0.00    -0.454 OA
ATOM     31  C   UNL A   1      43.113  35.237  31.977  1.00  0.00     0.468 C 
BRANCH  24  32
ATOM     32  O   UNL A   1      42.977  36.430  26.349  1.00  0.00    -0.493 OA
BRANCH  32  33
ATOM     33  C   UNL A   1      42.795  35.073  25.902  1.00  0.00     0.226 C 
ATOM     34  C   UNL A   1      43.918  34.603  24.985  1.00  0.00     0.049 C 
ENDBRANCH  32  33
ENDBRANCH  24  32
ENDBRANCH  15  23
BRANCH  18  35
ATOM     35  O   UNL A   1      42.543  40.133  27.896  1.00  0.00    -0.493 OA
ATOM     36  H   UNL A   1      41.617  40.217  27.786  1.00  0.00     0.295 HD
ENDBRANCH  18  35
ENDBRANCH   9  14
ENDBRANCH   6   8
ENDBRANCH   5   6
ENDBRANCH   4   5
ENDBRANCH   3   4
ENDBRANCH   2   3
ENDBRANCH   1   2
BRANCH   1  37
ATOM     37  C   UNL A   1      48.040  41.910  29.688  1.00  0.00     0.188 C 
BRANCH  37  38
ATOM     38  O   UNL A   1      47.662  40.700  30.315  1.00  0.00    -0.376 OA
BRANCH  38  39
ATOM     39  C   UNL A   1      48.522  39.584  30.153  1.00  0.00     0.202 C 
BRANCH  39  40
ATOM     40  C   UNL A   1      47.933  38.179  29.928  1.00  0.00     0.261 C 
BRANCH  40  41
ATOM     41  O   UNL A   1      48.163  37.566  28.651  1.00  0.00    -0.460 OA
BRANCH  41  42
ATOM     42  C   UNL A   1      48.982  36.491  28.620  1.00  0.00     0.338 C 
ATOM     43  O   UNL A   1      50.187  36.489  28.794  1.00  0.00    -0.246 OA
BRANCH  42  44
ATOM     44  C   UNL A   1      48.145  35.276  28.498  1.00  0.00     0.060 A 
ATOM     45  C   UNL A   1      48.094  34.381  29.574  1.00  0.00     0.016 A 
ATOM     46  C   UNL A   1      47.435  35.008  27.323  1.00  0.00     0.016 A 
ATOM     47  C   UNL A   1      47.370  33.191  29.457  1.00  0.00     0.010 A 
ATOM     48  C   UNL A   1      46.722  33.809  27.205  1.00  0.00     0.010 A 
ATOM     49  C   UNL A   1      46.717  32.876  28.257  1.00  0.00    -0.014 A 
BRANCH  49  50
ATOM     50  C   UNL A   1      46.201  31.497  28.044  1.00  0.00     0.031 A 
ATOM     51  C   UNL A   1      47.164  30.434  27.581  1.00  0.00     0.074 A 
ATOM     52  C   UNL A   1      44.919  31.178  28.299  1.00  0.00     0.049 A 
ATOM     53  N   UNL A   1      46.952  29.166  27.345  1.00  0.00    -0.248 NA
ATOM     54  C   UNL A   1      48.554  30.862  27.356  1.00  0.00     0.031 C 
ATOM     55  C   UNL A   1      43.894  32.105  28.776  1.00  0.00     0.029 A 
ATOM     56  N   UNL A   1      44.260  29.977  28.189  1.00  0.00    -0.354 N 
ATOM     57  C   UNL A   1      48.178  28.644  26.948  1.00  0.00     0.074 A 
ATOM     58  C   UNL A   1      49.121  29.741  26.937  1.00  0.00     0.031 C 
ATOM     59  C   UNL A   1      42.734  31.438  28.914  1.00  0.00     0.029 A 
ATOM     60  C   UNL A   1      42.926  30.045  28.513  1.00  0.00     0.049 A 
ATOM     61  H   UNL A   1      44.703  29.145  27.903  1.00  0.00     0.167 HD
ATOM     62  C   UNL A   1      48.496  27.365  26.634  1.00  0.00     0.037 A 
ATOM     63  C   UNL A   1      41.970  29.094  28.480  1.00  0.00     0.037 A 
ATOM     64  C   UNL A   1      47.558  26.273  26.641  1.00  0.00     0.049 A 
ATOM     65  C   UNL A   1      42.333  27.690  28.062  1.00  0.00     0.074 A 
ATOM     66  C   UNL A   1      47.788  24.939  26.356  1.00  0.00     0.029 A 
ATOM     67  N   UNL A   1      46.209  26.390  26.943  1.00  0.00    -0.354 N 
ATOM     68  N   UNL A   1      43.504  27.205  27.723  1.00  0.00    -0.248 NA
ATOM     69  C   UNL A   1      41.243  26.703  28.027  1.00  0.00     0.031 C 
ATOM     70  C   UNL A   1      46.569  24.257  26.436  1.00  0.00     0.029 A 
ATOM     71  C   UNL A   1      45.589  25.157  26.824  1.00  0.00     0.049 A 
ATOM     72  H   UNL A   1      45.759  27.226  27.201  1.00  0.00     0.167 HD
ATOM     73  C   UNL A   1      43.297  25.853  27.461  1.00  0.00     0.074 A 
ATOM     74  C   UNL A   1      41.891  25.595  27.695  1.00  0.00     0.031 C 
ATOM     75  C   UNL A   1      44.189  24.911  27.064  1.00  0.00     0.037 A 
BRANCH  62  76
ATOM     76  C   UNL A   1      49.920  27.081  26.239  1.00  0.00     0.058 A 
ATOM     77  C   UNL A   1      50.342  27.152  24.902  1.00  0.00     0.135 A 
ATOM     78  C   UNL A   1      50.880  26.763  27.213  1.00  0.00     0.135 A 
ATOM     79  F   UNL A   1      49.461  27.434  23.929  1.00  0.00    -0.206 F 
ATOM     80  C   UNL A   1      51.660  26.894  24.542  1.00  0.00     0.059 A 
ATOM     81  C   UNL A   1      52.210  26.527  26.878  1.00  0.00     0.059 A 
ATOM     82  F   UNL A   1      50.529  26.678  28.507  1.00  0.00    -0.206 F 
ATOM     83  C   UNL A   1      52.588  26.582  25.538  1.00  0.00     0.060 A 
BRANCH  83  84
ATOM     84  S   UNL A   1      54.295  26.256  25.053  1.00  0.00     0.124 S 
ATOM     85  O   UNL A   1      54.174  24.950  24.413  1.00  0.00    -0.237 OA
ATOM     86  O   UNL A   1      54.586  27.374  24.162  1.00  0.00    -0.237 OA
ATOM     87  O   UNL A   1      55.017  26.267  26.322  1.00  0.00    -0.744 OA
ENDBRANCH  83  84
ENDBRANCH  62  76
BRANCH  63  88
ATOM     88  C   UNL A   1      40.566  29.431  28.845  1.00  0.00     0.058 A 
ATOM     89  C   UNL A   1      39.568  29.546  27.866  1.00  0.00     0.135 A 
ATOM     90  C   UNL A   1      40.199  29.667  30.179  1.00  0.00     0.135 A 
ATOM     91  F   UNL A   1      39.870  29.345  26.574  1.00  0.00    -0.206 F 
ATOM     92  C   UNL A   1      38.262  29.901  28.192  1.00  0.00     0.059 A 
ATOM     93  C   UNL A   1      38.895  29.996  30.534  1.00  0.00     0.059 A 
ATOM     94  F   UNL A   1      41.115  29.565  31.156  1.00  0.00    -0.206 F 
ATOM     95  C   UNL A   1      37.935  30.123  29.531  1.00  0.00     0.060 A 
BRANCH  95  96
ATOM     96  S   UNL A   1      36.229  30.544  29.949  1.00  0.00     0.124 S 
ATOM     97  O   UNL A   1      35.960  29.621  31.047  1.00  0.00    -0.237 OA
ATOM     98  O   UNL A   1      36.341  31.953  30.313  1.00  0.00    -0.237 OA
ATOM     99  O   UNL A   1      35.505  30.279  28.710  1.00  0.00    -0.744 OA
ENDBRANCH  95  96
ENDBRANCH  63  88
BRANCH  75 100
ATOM    100  C   UNL A   1      43.683  23.505  26.885  1.00  0.00     0.058 A 
ATOM    101  C   UNL A   1      43.424  22.667  27.981  1.00  0.00     0.135 A 
ATOM    102  C   UNL A   1      43.410  23.004  25.600  1.00  0.00     0.135 A 
ATOM    103  F   UNL A   1      43.670  23.094  29.230  1.00  0.00    -0.206 F 
ATOM    104  C   UNL A   1      42.935  21.375  27.810  1.00  0.00     0.059 A 
ATOM    105  C   UNL A   1      42.895  21.725  25.408  1.00  0.00     0.059 A 
ATOM    106  F   UNL A   1      43.628  23.766  24.517  1.00  0.00    -0.206 F 
ATOM    107  C   UNL A   1      42.675  20.913  26.519  1.00  0.00     0.060 A 
BRANCH 107 108
ATOM    108  S   UNL A   1      42.018  19.244  26.312  1.00  0.00     0.124 S 
ATOM    109  O   UNL A   1      40.630  19.516  25.954  1.00  0.00    -0.237 OA
ATOM    110  O   UNL A   1      42.856  18.707  25.244  1.00  0.00    -0.237 OA
ATOM    111  O   UNL A   1      42.219  18.634  27.623  1.00  0.00    -0.744 OA
ENDBRANCH 107 108
ENDBRANCH  75 100
ENDBRANCH  49  50
ENDBRANCH  42  44
ENDBRANCH  41  42
ENDBRANCH  40  41
ENDBRANCH  39  40
ENDBRANCH  38  39
ENDBRANCH  37  38
ENDBRANCH   1  37
TORSDOF 25
ENDMDL
