MODEL 1
REMARK VINA RESULT:      -9.3      0.000      0.000
REMARK SMILES O=C(CSc1ccc2ccccc2n1)NCc1ccc(C(=O)OCCOCCOCCOC(=O)c2ccc(-c3c4nc(c(-c5c(F)cc(S(=O)(=O)[O-])cc5F)c5ccc([nH]5)c(-c5c(F)cc(S(=O)(=O)[O-])cc5F)c5nc(c(-c6c(F)cc(S(=O)(=O)[O-])cc6F)c6ccc3[nH]6)C=C5)C=C4)cc2)cc1
REMARK SMILES IDX 27 1 26 2 25 3 24 4 23 5 21 6 22 7 20 8 17 9 18 10 102 11
REMARK SMILES IDX 19 12 101 13 16 14 15 15 1 16 2 17 3 19 4 20 5 21 6 22 14 23
REMARK SMILES IDX 7 24 13 25 8 26 12 27 9 28 11 29 10 30 28 31 29 32 30 33
REMARK SMILES IDX 31 34 32 35 33 36 34 37 35 38 36 39 100 40 37 41 99 42 38 43
REMARK SMILES IDX 39 44 40 45 93 46 41 47 98 48 92 49 94 50 42 51 97 52 91 53
REMARK SMILES IDX 90 54 43 56 77 57 56 58 76 59 57 60 60 61 75 62 95 63 58 64
REMARK SMILES IDX 59 65 74 67 96 68 61 69 44 70 45 71 54 72 46 73 47 74 53 75
REMARK SMILES IDX 55 76 48 77 49 78 50 79 51 80 52 81 78 82 79 83 88 84 80 85
REMARK SMILES IDX 81 86 87 87 89 88 82 89 83 90 84 91 85 92 86 93 62 94 63 95
REMARK SMILES IDX 72 96 64 97 65 98 71 99 73 100 66 101 67 102 68 103 69 104
REMARK SMILES IDX 70 105
REMARK H PARENT 15 18 94 55 60 66
REMARK Flexibility Score: inf
ROOT
ATOM      1  C   UNL A   1      47.441  25.119  26.744  1.00  0.00     0.188 C 
ENDROOT
BRANCH   1   2
ATOM      2  O   UNL A   1      46.555  25.185  27.847  1.00  0.00    -0.376 OA
BRANCH   2   3
ATOM      3  C   UNL A   1      45.675  24.110  28.129  1.00  0.00     0.202 C 
BRANCH   3   4
ATOM      4  C   UNL A   1      44.284  23.992  27.491  1.00  0.00     0.261 C 
BRANCH   4   5
ATOM      5  O   UNL A   1      43.683  22.694  27.561  1.00  0.00    -0.460 OA
BRANCH   5   6
ATOM      6  C   UNL A   1      42.623  22.605  28.407  1.00  0.00     0.338 C 
ATOM      7  O   UNL A   1      42.633  22.743  29.612  1.00  0.00    -0.246 OA
BRANCH   6   8
ATOM      8  C   UNL A   1      41.373  22.474  27.629  1.00  0.00     0.060 A 
ATOM      9  C   UNL A   1      38.941  22.343  26.237  1.00  0.00    -0.029 A 
ATOM     10  C   UNL A   1      39.413  23.568  26.732  1.00  0.00     0.006 A 
ATOM     11  C   UNL A   1      39.739  21.196  26.395  1.00  0.00     0.006 A 
ATOM     12  C   UNL A   1      40.608  23.630  27.445  1.00  0.00     0.016 A 
ATOM     13  C   UNL A   1      40.956  21.259  27.084  1.00  0.00     0.016 A 
BRANCH   9  14
ATOM     14  C   UNL A   1      37.631  22.253  25.493  1.00  0.00     0.151 C 
BRANCH  14  15
ATOM     15  N   UNL A   1      36.488  22.212  26.380  1.00  0.00    -0.351 N 
ATOM     16  O   UNL A   1      35.345  23.898  25.340  1.00  0.00    -0.274 OA
ATOM     17  C   UNL A   1      35.400  23.042  26.219  1.00  0.00     0.230 C 
ATOM     18  H   UNL A   1      36.488  21.568  27.124  1.00  0.00     0.163 HD
BRANCH  17  19
ATOM     19  C   UNL A   1      34.267  22.814  27.203  1.00  0.00     0.176 C 
BRANCH  19  20
ATOM     20  S   UNL A   1      32.651  23.228  26.459  1.00  0.00    -0.096 SA
BRANCH  20  21
ATOM     21  C   UNL A   1      32.484  21.902  25.281  1.00  0.00     0.097 A 
ATOM     22  C   UNL A   1      32.182  22.157  23.952  1.00  0.00     0.036 A 
ATOM     23  N   UNL A   1      32.767  20.663  25.738  1.00  0.00    -0.241 NA
ATOM     24  C   UNL A   1      32.141  21.096  23.056  1.00  0.00     0.013 A 
ATOM     25  C   UNL A   1      32.752  19.636  24.867  1.00  0.00     0.072 A 
ATOM     26  C   UNL A   1      32.442  19.808  23.502  1.00  0.00     0.000 A 
ATOM     27  C   UNL A   1      33.068  18.356  25.303  1.00  0.00     0.029 A 
ATOM     28  C   UNL A   1      32.456  18.714  22.620  1.00  0.00     0.010 A 
ATOM     29  C   UNL A   1      33.094  17.265  24.428  1.00  0.00     0.002 A 
ATOM     30  C   UNL A   1      32.789  17.444  23.084  1.00  0.00     0.001 A 
ENDBRANCH  20  21
ENDBRANCH  19  20
ENDBRANCH  17  19
ENDBRANCH  14  15
ENDBRANCH   9  14
ENDBRANCH   6   8
ENDBRANCH   5   6
ENDBRANCH   4   5
ENDBRANCH   3   4
ENDBRANCH   2   3
ENDBRANCH   1   2
BRANCH   1  31
ATOM     31  C   UNL A   1      46.895  25.140  25.302  1.00  0.00     0.188 C 
BRANCH  31  32
ATOM     32  O   UNL A   1      46.772  26.385  24.655  1.00  0.00    -0.376 OA
BRANCH  32  33
ATOM     33  C   UNL A   1      45.740  27.294  24.996  1.00  0.00     0.202 C 
BRANCH  33  34
ATOM     34  C   UNL A   1      44.384  26.954  25.642  1.00  0.00     0.261 C 
BRANCH  34  35
ATOM     35  O   UNL A   1      43.218  27.626  25.173  1.00  0.00    -0.460 OA
BRANCH  35  36
ATOM     36  C   UNL A   1      42.044  27.101  25.601  1.00  0.00     0.338 C 
ATOM     37  O   UNL A   1      41.496  26.091  25.195  1.00  0.00    -0.246 OA
BRANCH  36  38
ATOM     38  C   UNL A   1      41.588  27.861  26.777  1.00  0.00     0.060 A 
ATOM     39  C   UNL A   1      42.070  29.162  26.958  1.00  0.00     0.016 A 
ATOM     40  C   UNL A   1      40.739  27.275  27.719  1.00  0.00     0.016 A 
ATOM     41  C   UNL A   1      41.731  29.873  28.107  1.00  0.00     0.010 A 
ATOM     42  C   UNL A   1      40.415  27.984  28.878  1.00  0.00     0.010 A 
ATOM     43  C   UNL A   1      40.938  29.271  29.092  1.00  0.00    -0.014 A 
BRANCH  43  44
ATOM     44  C   UNL A   1      40.809  29.913  30.423  1.00  0.00     0.031 A 
ATOM     45  C   UNL A   1      41.849  29.609  31.469  1.00  0.00     0.074 A 
ATOM     46  C   UNL A   1      39.802  30.762  30.692  1.00  0.00     0.049 A 
ATOM     47  N   UNL A   1      41.921  30.016  32.708  1.00  0.00    -0.248 NA
ATOM     48  C   UNL A   1      42.950  28.723  31.059  1.00  0.00     0.031 C 
ATOM     49  C   UNL A   1      38.757  31.160  29.751  1.00  0.00     0.029 A 
ATOM     50  N   UNL A   1      39.491  31.437  31.846  1.00  0.00    -0.354 N 
ATOM     51  C   UNL A   1      43.072  29.434  33.229  1.00  0.00     0.074 A 
ATOM     52  C   UNL A   1      43.648  28.622  32.180  1.00  0.00     0.031 C 
ATOM     53  C   UNL A   1      37.910  32.000  30.372  1.00  0.00     0.029 A 
ATOM     54  C   UNL A   1      38.336  32.176  31.760  1.00  0.00     0.049 A 
ATOM     55  H   UNL A   1      40.045  31.395  32.660  1.00  0.00     0.167 HD
ATOM     56  C   UNL A   1      43.604  29.570  34.466  1.00  0.00     0.037 A 
ATOM     57  C   UNL A   1      37.689  32.893  32.700  1.00  0.00     0.037 A 
ATOM     58  C   UNL A   1      43.025  30.378  35.507  1.00  0.00     0.049 A 
ATOM     59  C   UNL A   1      38.267  32.983  34.090  1.00  0.00     0.074 A 
ATOM     60  C   UNL A   1      43.494  30.594  36.791  1.00  0.00     0.029 A 
ATOM     61  N   UNL A   1      41.845  31.098  35.386  1.00  0.00    -0.354 N 
ATOM     62  N   UNL A   1      39.367  32.446  34.563  1.00  0.00    -0.248 NA
ATOM     63  C   UNL A   1      37.518  33.778  35.073  1.00  0.00     0.031 C 
ATOM     64  C   UNL A   1      42.573  31.406  37.461  1.00  0.00     0.029 A 
ATOM     65  C   UNL A   1      41.560  31.742  36.579  1.00  0.00     0.049 A 
ATOM     66  H   UNL A   1      41.293  31.146  34.573  1.00  0.00     0.167 HD
ATOM     67  C   UNL A   1      39.459  32.865  35.887  1.00  0.00     0.074 A 
ATOM     68  C   UNL A   1      38.305  33.704  36.139  1.00  0.00     0.031 C 
ATOM     69  C   UNL A   1      40.412  32.585  36.810  1.00  0.00     0.037 A 
BRANCH  56  70
ATOM     70  C   UNL A   1      44.863  28.809  34.768  1.00  0.00     0.058 A 
ATOM     71  C   UNL A   1      46.114  29.443  34.834  1.00  0.00     0.135 A 
ATOM     72  C   UNL A   1      44.816  27.428  35.021  1.00  0.00     0.135 A 
ATOM     73  F   UNL A   1      46.220  30.757  34.581  1.00  0.00    -0.206 F 
ATOM     74  C   UNL A   1      47.276  28.732  35.115  1.00  0.00     0.059 A 
ATOM     75  C   UNL A   1      45.961  26.702  35.331  1.00  0.00     0.059 A 
ATOM     76  F   UNL A   1      43.646  26.771  34.968  1.00  0.00    -0.206 F 
ATOM     77  C   UNL A   1      47.190  27.360  35.361  1.00  0.00     0.060 A 
BRANCH  77  78
ATOM     78  S   UNL A   1      48.706  26.450  35.727  1.00  0.00     0.124 S 
ATOM     79  O   UNL A   1      49.595  26.931  34.674  1.00  0.00    -0.237 OA
ATOM     80  O   UNL A   1      49.022  26.902  37.078  1.00  0.00    -0.237 OA
ATOM     81  O   UNL A   1      48.300  25.053  35.614  1.00  0.00    -0.744 OA
ENDBRANCH  77  78
ENDBRANCH  56  70
BRANCH  57  82
ATOM     82  C   UNL A   1      36.413  33.580  32.364  1.00  0.00     0.058 A 
ATOM     83  C   UNL A   1      36.340  34.978  32.285  1.00  0.00     0.135 A 
ATOM     84  C   UNL A   1      35.239  32.849  32.117  1.00  0.00     0.135 A 
ATOM     85  F   UNL A   1      37.432  35.720  32.524  1.00  0.00    -0.206 F 
ATOM     86  C   UNL A   1      35.148  35.630  31.990  1.00  0.00     0.059 A 
ATOM     87  C   UNL A   1      34.041  33.478  31.794  1.00  0.00     0.059 A 
ATOM     88  F   UNL A   1      35.257  31.509  32.171  1.00  0.00    -0.206 F 
ATOM     89  C   UNL A   1      34.003  34.870  31.742  1.00  0.00     0.060 A 
BRANCH  89  90
ATOM     90  S   UNL A   1      32.471  35.726  31.310  1.00  0.00     0.124 S 
ATOM     91  O   UNL A   1      32.928  37.106  31.199  1.00  0.00    -0.237 OA
ATOM     92  O   UNL A   1      32.100  35.073  30.060  1.00  0.00    -0.237 OA
ATOM     93  O   UNL A   1      31.597  35.439  32.443  1.00  0.00    -0.744 OA
ENDBRANCH  89  90
ENDBRANCH  57  82
BRANCH  69  94
ATOM     94  C   UNL A   1      40.282  33.225  38.166  1.00  0.00     0.058 A 
ATOM     95  C   UNL A   1      39.355  32.769  39.115  1.00  0.00     0.135 A 
ATOM     96  C   UNL A   1      41.143  34.270  38.540  1.00  0.00     0.135 A 
ATOM     97  F   UNL A   1      38.506  31.776  38.808  1.00  0.00    -0.206 F 
ATOM     98  C   UNL A   1      39.270  33.341  40.381  1.00  0.00     0.059 A 
ATOM     99  C   UNL A   1      41.094  34.838  39.810  1.00  0.00     0.059 A 
ATOM    100  F   UNL A   1      42.058  34.737  37.675  1.00  0.00    -0.206 F 
ATOM    101  C   UNL A   1      40.146  34.374  40.720  1.00  0.00     0.060 A 
BRANCH 101 102
ATOM    102  S   UNL A   1      40.051  35.084  42.378  1.00  0.00     0.124 S 
ATOM    103  O   UNL A   1      38.975  36.056  42.220  1.00  0.00    -0.237 OA
ATOM    104  O   UNL A   1      39.737  33.919  43.199  1.00  0.00    -0.237 OA
ATOM    105  O   UNL A   1      41.382  35.648  42.584  1.00  0.00    -0.744 OA
ENDBRANCH 101 102
ENDBRANCH  69  94
ENDBRANCH  43  44
ENDBRANCH  36  38
ENDBRANCH  35  36
ENDBRANCH  34  35
ENDBRANCH  33  34
ENDBRANCH  32  33
ENDBRANCH  31  32
ENDBRANCH   1  31
TORSDOF 25
ENDMDL
MODEL 2
REMARK VINA RESULT:      -8.8      5.050      8.096
REMARK SMILES O=C(CSc1ccc2ccccc2n1)NCc1ccc(C(=O)OCCOCCOCCOC(=O)c2ccc(-c3c4nc(c(-c5c(F)cc(S(=O)(=O)[O-])cc5F)c5ccc([nH]5)c(-c5c(F)cc(S(=O)(=O)[O-])cc5F)c5nc(c(-c6c(F)cc(S(=O)(=O)[O-])cc6F)c6ccc3[nH]6)C=C5)C=C4)cc2)cc1
REMARK SMILES IDX 27 1 26 2 25 3 24 4 23 5 21 6 22 7 20 8 17 9 18 10 102 11
REMARK SMILES IDX 19 12 101 13 16 14 15 15 1 16 2 17 3 19 4 20 5 21 6 22 14 23
REMARK SMILES IDX 7 24 13 25 8 26 12 27 9 28 11 29 10 30 28 31 29 32 30 33
REMARK SMILES IDX 31 34 32 35 33 36 34 37 35 38 36 39 100 40 37 41 99 42 38 43
REMARK SMILES IDX 39 44 40 45 93 46 41 47 98 48 92 49 94 50 42 51 97 52 91 53
REMARK SMILES IDX 90 54 43 56 77 57 56 58 76 59 57 60 60 61 75 62 95 63 58 64
REMARK SMILES IDX 59 65 74 67 96 68 61 69 44 70 45 71 54 72 46 73 47 74 53 75
REMARK SMILES IDX 55 76 48 77 49 78 50 79 51 80 52 81 78 82 79 83 88 84 80 85
REMARK SMILES IDX 81 86 87 87 89 88 82 89 83 90 84 91 85 92 86 93 62 94 63 95
REMARK SMILES IDX 72 96 64 97 65 98 71 99 73 100 66 101 67 102 68 103 69 104
REMARK SMILES IDX 70 105
REMARK H PARENT 15 18 94 55 60 66
REMARK Flexibility Score: inf
ROOT
ATOM      1  C   UNL A   1      43.253  24.450  26.685  1.00  0.00     0.188 C 
ENDROOT
BRANCH   1   2
ATOM      2  O   UNL A   1      41.980  24.764  26.148  1.00  0.00    -0.376 OA
BRANCH   2   3
ATOM      3  C   UNL A   1      41.052  25.529  26.898  1.00  0.00     0.202 C 
BRANCH   3   4
ATOM      4  C   UNL A   1      41.094  27.063  26.946  1.00  0.00     0.261 C 
BRANCH   4   5
ATOM      5  O   UNL A   1      40.871  27.645  28.236  1.00  0.00    -0.460 OA
BRANCH   5   6
ATOM      6  C   UNL A   1      40.170  28.809  28.219  1.00  0.00     0.338 C 
ATOM      7  O   UNL A   1      39.491  29.243  27.313  1.00  0.00    -0.246 OA
BRANCH   6   8
ATOM      8  C   UNL A   1      40.205  29.431  29.561  1.00  0.00     0.060 A 
ATOM      9  C   UNL A   1      40.302  30.468  32.164  1.00  0.00    -0.029 A 
ATOM     10  C   UNL A   1      41.108  29.380  31.802  1.00  0.00     0.006 A 
ATOM     11  C   UNL A   1      39.493  31.070  31.183  1.00  0.00     0.006 A 
ATOM     12  C   UNL A   1      41.043  28.848  30.516  1.00  0.00     0.016 A 
ATOM     13  C   UNL A   1      39.447  30.557  29.881  1.00  0.00     0.016 A 
BRANCH   9  14
ATOM     14  C   UNL A   1      40.335  31.035  33.563  1.00  0.00     0.151 C 
BRANCH  14  15
ATOM     15  N   UNL A   1      39.248  31.955  33.818  1.00  0.00    -0.351 N 
ATOM     16  O   UNL A   1      38.292  30.706  35.479  1.00  0.00    -0.274 OA
ATOM     17  C   UNL A   1      38.301  31.724  34.793  1.00  0.00     0.230 C 
ATOM     18  H   UNL A   1      39.182  32.774  33.277  1.00  0.00     0.163 HD
BRANCH  17  19
ATOM     19  C   UNL A   1      37.272  32.828  34.962  1.00  0.00     0.176 C 
BRANCH  19  20
ATOM     20  S   UNL A   1      37.715  34.302  33.979  1.00  0.00    -0.096 SA
BRANCH  20  21
ATOM     21  C   UNL A   1      36.578  34.139  32.616  1.00  0.00     0.097 A 
ATOM     22  C   UNL A   1      35.257  34.547  32.731  1.00  0.00     0.036 A 
ATOM     23  N   UNL A   1      37.104  33.696  31.454  1.00  0.00    -0.241 NA
ATOM     24  C   UNL A   1      34.432  34.473  31.616  1.00  0.00     0.013 A 
ATOM     25  C   UNL A   1      36.313  33.647  30.366  1.00  0.00     0.072 A 
ATOM     26  C   UNL A   1      34.956  34.030  30.401  1.00  0.00     0.000 A 
ATOM     27  C   UNL A   1      36.835  33.224  29.150  1.00  0.00     0.029 A 
ATOM     28  C   UNL A   1      34.168  33.983  29.238  1.00  0.00     0.010 A 
ATOM     29  C   UNL A   1      36.059  33.185  27.988  1.00  0.00     0.002 A 
ATOM     30  C   UNL A   1      34.722  33.566  28.032  1.00  0.00     0.001 A 
ENDBRANCH  20  21
ENDBRANCH  19  20
ENDBRANCH  17  19
ENDBRANCH  14  15
ENDBRANCH   9  14
ENDBRANCH   6   8
ENDBRANCH   5   6
ENDBRANCH   4   5
ENDBRANCH   3   4
ENDBRANCH   2   3
ENDBRANCH   1   2
BRANCH   1  31
ATOM     31  C   UNL A   1      44.097  23.311  26.078  1.00  0.00     0.188 C 
BRANCH  31  32
ATOM     32  O   UNL A   1      45.390  23.094  26.592  1.00  0.00    -0.376 OA
BRANCH  32  33
ATOM     33  C   UNL A   1      46.484  23.905  26.201  1.00  0.00     0.202 C 
BRANCH  33  34
ATOM     34  C   UNL A   1      46.608  24.730  24.907  1.00  0.00     0.261 C 
BRANCH  34  35
ATOM     35  O   UNL A   1      45.780  25.878  24.748  1.00  0.00    -0.460 OA
BRANCH  35  36
ATOM     36  C   UNL A   1      46.446  27.039  24.533  1.00  0.00     0.338 C 
ATOM     37  O   UNL A   1      47.184  27.304  23.602  1.00  0.00    -0.246 OA
BRANCH  36  38
ATOM     38  C   UNL A   1      46.008  28.026  25.534  1.00  0.00     0.060 A 
ATOM     39  C   UNL A   1      46.969  28.873  26.100  1.00  0.00     0.016 A 
ATOM     40  C   UNL A   1      44.676  28.077  25.950  1.00  0.00     0.016 A 
ATOM     41  C   UNL A   1      46.603  29.754  27.116  1.00  0.00     0.010 A 
ATOM     42  C   UNL A   1      44.316  28.949  26.980  1.00  0.00     0.010 A 
ATOM     43  C   UNL A   1      45.285  29.765  27.590  1.00  0.00    -0.014 A 
BRANCH  43  44
ATOM     44  C   UNL A   1      44.964  30.491  28.843  1.00  0.00     0.031 A 
ATOM     45  C   UNL A   1      44.920  29.713  30.131  1.00  0.00     0.074 A 
ATOM     46  C   UNL A   1      44.734  31.816  28.841  1.00  0.00     0.049 A 
ATOM     47  N   UNL A   1      44.621  30.120  31.336  1.00  0.00    -0.248 NA
ATOM     48  C   UNL A   1      45.253  28.282  30.043  1.00  0.00     0.031 C 
ATOM     49  C   UNL A   1      44.783  32.680  27.664  1.00  0.00     0.029 A 
ATOM     50  N   UNL A   1      44.404  32.663  29.869  1.00  0.00    -0.354 N 
ATOM     51  C   UNL A   1      44.726  28.998  32.151  1.00  0.00     0.074 A 
ATOM     52  C   UNL A   1      45.086  27.887  31.297  1.00  0.00     0.031 C 
ATOM     53  C   UNL A   1      44.478  33.937  28.034  1.00  0.00     0.029 A 
ATOM     54  C   UNL A   1      44.185  33.959  29.467  1.00  0.00     0.049 A 
ATOM     55  H   UNL A   1      44.331  32.370  30.806  1.00  0.00     0.167 HD
ATOM     56  C   UNL A   1      44.547  28.904  33.489  1.00  0.00     0.037 A 
ATOM     57  C   UNL A   1      43.776  35.032  30.172  1.00  0.00     0.037 A 
ATOM     58  C   UNL A   1      44.188  30.012  34.333  1.00  0.00     0.049 A 
ATOM     59  C   UNL A   1      43.522  34.891  31.653  1.00  0.00     0.074 A 
ATOM     60  C   UNL A   1      43.996  30.024  35.704  1.00  0.00     0.029 A 
ATOM     61  N   UNL A   1      43.958  31.305  33.887  1.00  0.00    -0.354 N 
ATOM     62  N   UNL A   1      43.647  33.829  32.414  1.00  0.00    -0.248 NA
ATOM     63  C   UNL A   1      43.077  36.094  32.370  1.00  0.00     0.031 C 
ATOM     64  C   UNL A   1      43.604  31.313  36.079  1.00  0.00     0.029 A 
ATOM     65  C   UNL A   1      43.606  32.118  34.951  1.00  0.00     0.049 A 
ATOM     66  H   UNL A   1      44.035  31.602  32.951  1.00  0.00     0.167 HD
ATOM     67  C   UNL A   1      43.328  34.244  33.704  1.00  0.00     0.074 A 
ATOM     68  C   UNL A   1      43.009  35.655  33.620  1.00  0.00     0.031 C 
ATOM     69  C   UNL A   1      43.304  33.525  34.854  1.00  0.00     0.037 A 
BRANCH  56  70
ATOM     70  C   UNL A   1      44.714  27.549  34.118  1.00  0.00     0.058 A 
ATOM     71  C   UNL A   1      45.937  27.132  34.665  1.00  0.00     0.135 A 
ATOM     72  C   UNL A   1      43.626  26.664  34.197  1.00  0.00     0.135 A 
ATOM     73  F   UNL A   1      47.015  27.931  34.598  1.00  0.00    -0.206 F 
ATOM     74  C   UNL A   1      46.084  25.877  35.246  1.00  0.00     0.059 A 
ATOM     75  C   UNL A   1      43.743  25.415  34.799  1.00  0.00     0.059 A 
ATOM     76  F   UNL A   1      42.433  27.011  33.686  1.00  0.00    -0.206 F 
ATOM     77  C   UNL A   1      44.981  25.025  35.307  1.00  0.00     0.060 A 
BRANCH  77  78
ATOM     78  S   UNL A   1      45.185  23.400  36.068  1.00  0.00     0.124 S 
ATOM     79  O   UNL A   1      44.077  22.659  35.474  1.00  0.00    -0.237 OA
ATOM     80  O   UNL A   1      46.519  23.011  35.620  1.00  0.00    -0.237 OA
ATOM     81  O   UNL A   1      45.061  23.674  37.495  1.00  0.00    -0.744 OA
ENDBRANCH  77  78
ENDBRANCH  56  70
BRANCH  57  82
ATOM     82  C   UNL A   1      43.569  36.337  29.489  1.00  0.00     0.058 A 
ATOM     83  C   UNL A   1      42.390  36.605  28.779  1.00  0.00     0.135 A 
ATOM     84  C   UNL A   1      44.549  37.341  29.531  1.00  0.00     0.135 A 
ATOM     85  F   UNL A   1      41.428  35.672  28.699  1.00  0.00    -0.206 F 
ATOM     86  C   UNL A   1      42.195  37.815  28.120  1.00  0.00     0.059 A 
ATOM     87  C   UNL A   1      44.366  38.569  28.903  1.00  0.00     0.059 A 
ATOM     88  F   UNL A   1      45.691  37.139  30.205  1.00  0.00    -0.206 F 
ATOM     89  C   UNL A   1      43.188  38.793  28.191  1.00  0.00     0.060 A 
BRANCH  89  90
ATOM     90  S   UNL A   1      42.903  40.379  27.375  1.00  0.00     0.124 S 
ATOM     91  O   UNL A   1      43.374  40.102  26.023  1.00  0.00    -0.237 OA
ATOM     92  O   UNL A   1      41.462  40.546  27.529  1.00  0.00    -0.237 OA
ATOM     93  O   UNL A   1      43.720  41.306  28.151  1.00  0.00    -0.744 OA
ENDBRANCH  89  90
ENDBRANCH  57  82
BRANCH  69  94
ATOM     94  C   UNL A   1      42.968  34.254  36.127  1.00  0.00     0.058 A 
ATOM     95  C   UNL A   1      43.961  34.807  36.950  1.00  0.00     0.135 A 
ATOM     96  C   UNL A   1      41.626  34.455  36.493  1.00  0.00     0.135 A 
ATOM     97  F   UNL A   1      45.258  34.641  36.647  1.00  0.00    -0.206 F 
ATOM     98  C   UNL A   1      43.637  35.515  38.103  1.00  0.00     0.059 A 
ATOM     99  C   UNL A   1      41.280  35.182  37.628  1.00  0.00     0.059 A 
ATOM    100  F   UNL A   1      40.635  33.958  35.735  1.00  0.00    -0.206 F 
ATOM    101  C   UNL A   1      42.293  35.699  38.433  1.00  0.00     0.060 A 
BRANCH 101 102
ATOM    102  S   UNL A   1      41.885  36.650  39.913  1.00  0.00     0.124 S 
ATOM    103  O   UNL A   1      40.932  35.768  40.576  1.00  0.00    -0.237 OA
ATOM    104  O   UNL A   1      43.184  36.786  40.565  1.00  0.00    -0.237 OA
ATOM    105  O   UNL A   1      41.327  37.889  39.378  1.00  0.00    -0.744 OA
ENDBRANCH 101 102
ENDBRANCH  69  94
ENDBRANCH  43  44
ENDBRANCH  36  38
ENDBRANCH  35  36
ENDBRANCH  34  35
ENDBRANCH  33  34
ENDBRANCH  32  33
ENDBRANCH  31  32
ENDBRANCH   1  31
TORSDOF 25
ENDMDL
MODEL 3
REMARK VINA RESULT:      -8.7      4.398     11.344
REMARK SMILES O=C(CSc1ccc2ccccc2n1)NCc1ccc(C(=O)OCCOCCOCCOC(=O)c2ccc(-c3c4nc(c(-c5c(F)cc(S(=O)(=O)[O-])cc5F)c5ccc([nH]5)c(-c5c(F)cc(S(=O)(=O)[O-])cc5F)c5nc(c(-c6c(F)cc(S(=O)(=O)[O-])cc6F)c6ccc3[nH]6)C=C5)C=C4)cc2)cc1
REMARK SMILES IDX 27 1 26 2 25 3 24 4 23 5 21 6 22 7 20 8 17 9 18 10 102 11
REMARK SMILES IDX 19 12 101 13 16 14 15 15 1 16 2 17 3 19 4 20 5 21 6 22 14 23
REMARK SMILES IDX 7 24 13 25 8 26 12 27 9 28 11 29 10 30 28 31 29 32 30 33
REMARK SMILES IDX 31 34 32 35 33 36 34 37 35 38 36 39 100 40 37 41 99 42 38 43
REMARK SMILES IDX 39 44 40 45 93 46 41 47 98 48 92 49 94 50 42 51 97 52 91 53
REMARK SMILES IDX 90 54 43 56 77 57 56 58 76 59 57 60 60 61 75 62 95 63 58 64
REMARK SMILES IDX 59 65 74 67 96 68 61 69 44 70 45 71 54 72 46 73 47 74 53 75
REMARK SMILES IDX 55 76 48 77 49 78 50 79 51 80 52 81 78 82 79 83 88 84 80 85
REMARK SMILES IDX 81 86 87 87 89 88 82 89 83 90 84 91 85 92 86 93 62 94 63 95
REMARK SMILES IDX 72 96 64 97 65 98 71 99 73 100 66 101 67 102 68 103 69 104
REMARK SMILES IDX 70 105
REMARK H PARENT 15 18 94 55 60 66
REMARK Flexibility Score: inf
ROOT
ATOM      1  C   UNL A   1      36.590  23.138  24.694  1.00  0.00     0.188 C 
ENDROOT
BRANCH   1   2
ATOM      2  O   UNL A   1      35.532  22.933  23.775  1.00  0.00    -0.376 OA
BRANCH   2   3
ATOM      3  C   UNL A   1      34.249  23.483  24.020  1.00  0.00     0.202 C 
BRANCH   3   4
ATOM      4  C   UNL A   1      33.304  23.910  22.888  1.00  0.00     0.261 C 
BRANCH   4   5
ATOM      5  O   UNL A   1      33.818  24.910  22.001  1.00  0.00    -0.460 OA
BRANCH   5   6
ATOM      6  C   UNL A   1      32.895  25.803  21.557  1.00  0.00     0.338 C 
ATOM      7  O   UNL A   1      32.256  25.747  20.527  1.00  0.00    -0.246 OA
BRANCH   6   8
ATOM      8  C   UNL A   1      32.633  26.813  22.605  1.00  0.00     0.060 A 
ATOM      9  C   UNL A   1      31.997  28.753  24.527  1.00  0.00    -0.029 A 
ATOM     10  C   UNL A   1      30.992  27.951  23.966  1.00  0.00     0.006 A 
ATOM     11  C   UNL A   1      33.334  28.523  24.156  1.00  0.00     0.006 A 
ATOM     12  C   UNL A   1      31.304  27.004  22.993  1.00  0.00     0.016 A 
ATOM     13  C   UNL A   1      33.655  27.552  23.202  1.00  0.00     0.016 A 
BRANCH   9  14
ATOM     14  C   UNL A   1      31.672  29.808  25.557  1.00  0.00     0.151 C 
BRANCH  14  15
ATOM     15  N   UNL A   1      32.756  30.031  26.489  1.00  0.00    -0.351 N 
ATOM     16  O   UNL A   1      32.140  32.166  27.031  1.00  0.00    -0.274 OA
ATOM     17  C   UNL A   1      32.898  31.212  27.185  1.00  0.00     0.230 C 
ATOM     18  H   UNL A   1      33.416  29.314  26.630  1.00  0.00     0.163 HD
BRANCH  17  19
ATOM     19  C   UNL A   1      34.056  31.244  28.166  1.00  0.00     0.176 C 
BRANCH  19  20
ATOM     20  S   UNL A   1      35.021  32.785  28.001  1.00  0.00    -0.096 SA
BRANCH  20  21
ATOM     21  C   UNL A   1      34.786  33.493  29.620  1.00  0.00     0.097 A 
ATOM     22  C   UNL A   1      35.382  32.933  30.740  1.00  0.00     0.036 A 
ATOM     23  N   UNL A   1      34.087  34.647  29.667  1.00  0.00    -0.241 NA
ATOM     24  C   UNL A   1      35.233  33.567  31.967  1.00  0.00     0.013 A 
ATOM     25  C   UNL A   1      33.963  35.277  30.851  1.00  0.00     0.072 A 
ATOM     26  C   UNL A   1      34.527  34.768  32.040  1.00  0.00     0.000 A 
ATOM     27  C   UNL A   1      33.276  36.481  30.925  1.00  0.00     0.029 A 
ATOM     28  C   UNL A   1      34.392  35.465  33.253  1.00  0.00     0.010 A 
ATOM     29  C   UNL A   1      33.147  37.185  32.126  1.00  0.00     0.002 A 
ATOM     30  C   UNL A   1      33.707  36.676  33.293  1.00  0.00     0.001 A 
ENDBRANCH  20  21
ENDBRANCH  19  20
ENDBRANCH  17  19
ENDBRANCH  14  15
ENDBRANCH   9  14
ENDBRANCH   6   8
ENDBRANCH   5   6
ENDBRANCH   4   5
ENDBRANCH   3   4
ENDBRANCH   2   3
ENDBRANCH   1   2
BRANCH   1  31
ATOM     31  C   UNL A   1      37.465  21.955  25.154  1.00  0.00     0.188 C 
BRANCH  31  32
ATOM     32  O   UNL A   1      38.525  22.218  26.044  1.00  0.00    -0.376 OA
BRANCH  32  33
ATOM     33  C   UNL A   1      39.676  21.393  26.084  1.00  0.00     0.202 C 
BRANCH  33  34
ATOM     34  C   UNL A   1      40.663  21.238  27.256  1.00  0.00     0.261 C 
BRANCH  34  35
ATOM     35  O   UNL A   1      42.055  21.138  26.965  1.00  0.00    -0.460 OA
BRANCH  35  36
ATOM     36  C   UNL A   1      42.558  22.151  26.217  1.00  0.00     0.338 C 
ATOM     37  O   UNL A   1      42.608  22.216  25.002  1.00  0.00    -0.246 OA
BRANCH  36  38
ATOM     38  C   UNL A   1      42.899  23.272  27.109  1.00  0.00     0.060 A 
ATOM     39  C   UNL A   1      44.249  23.600  27.281  1.00  0.00     0.016 A 
ATOM     40  C   UNL A   1      41.902  23.954  27.810  1.00  0.00     0.016 A 
ATOM     41  C   UNL A   1      44.610  24.594  28.189  1.00  0.00     0.010 A 
ATOM     42  C   UNL A   1      42.268  24.938  28.731  1.00  0.00     0.010 A 
ATOM     43  C   UNL A   1      43.625  25.237  28.949  1.00  0.00    -0.014 A 
BRANCH  43  44
ATOM     44  C   UNL A   1      44.024  26.084  30.100  1.00  0.00     0.031 A 
ATOM     45  C   UNL A   1      43.995  27.580  29.932  1.00  0.00     0.074 A 
ATOM     46  C   UNL A   1      44.384  25.538  31.274  1.00  0.00     0.049 A 
ATOM     47  N   UNL A   1      44.339  28.515  30.777  1.00  0.00    -0.248 NA
ATOM     48  C   UNL A   1      43.521  28.085  28.633  1.00  0.00     0.031 C 
ATOM     49  C   UNL A   1      44.417  24.107  31.567  1.00  0.00     0.029 A 
ATOM     50  N   UNL A   1      44.802  26.131  32.439  1.00  0.00    -0.354 N 
ATOM     51  C   UNL A   1      44.126  29.719  30.114  1.00  0.00     0.074 A 
ATOM     52  C   UNL A   1      43.653  29.394  28.786  1.00  0.00     0.031 C 
ATOM     53  C   UNL A   1      44.848  23.931  32.828  1.00  0.00     0.029 A 
ATOM     54  C   UNL A   1      45.148  25.234  33.421  1.00  0.00     0.049 A 
ATOM     55  H   UNL A   1      44.850  27.107  32.560  1.00  0.00     0.167 HD
ATOM     56  C   UNL A   1      44.301  30.981  30.572  1.00  0.00     0.037 A 
ATOM     57  C   UNL A   1      45.666  25.442  34.648  1.00  0.00     0.037 A 
ATOM     58  C   UNL A   1      44.773  31.298  31.894  1.00  0.00     0.049 A 
ATOM     59  C   UNL A   1      45.911  26.855  35.117  1.00  0.00     0.074 A 
ATOM     60  C   UNL A   1      44.972  32.546  32.460  1.00  0.00     0.029 A 
ATOM     61  N   UNL A   1      45.129  30.362  32.854  1.00  0.00    -0.354 N 
ATOM     62  N   UNL A   1      45.684  27.984  34.488  1.00  0.00    -0.248 NA
ATOM     63  C   UNL A   1      46.478  27.021  36.463  1.00  0.00     0.031 C 
ATOM     64  C   UNL A   1      45.492  32.363  33.746  1.00  0.00     0.029 A 
ATOM     65  C   UNL A   1      45.566  31.004  34.001  1.00  0.00     0.049 A 
ATOM     66  H   UNL A   1      45.078  29.386  32.737  1.00  0.00     0.167 HD
ATOM     67  C   UNL A   1      46.049  28.994  35.374  1.00  0.00     0.074 A 
ATOM     68  C   UNL A   1      46.507  28.342  36.584  1.00  0.00     0.031 C 
ATOM     69  C   UNL A   1      46.006  30.339  35.203  1.00  0.00     0.037 A 
BRANCH  56  70
ATOM     70  C   UNL A   1      44.003  32.110  29.627  1.00  0.00     0.058 A 
ATOM     71  C   UNL A   1      42.836  32.882  29.741  1.00  0.00     0.135 A 
ATOM     72  C   UNL A   1      44.911  32.443  28.608  1.00  0.00     0.135 A 
ATOM     73  F   UNL A   1      41.925  32.595  30.684  1.00  0.00    -0.206 F 
ATOM     74  C   UNL A   1      42.566  33.927  28.863  1.00  0.00     0.059 A 
ATOM     75  C   UNL A   1      44.675  33.501  27.736  1.00  0.00     0.059 A 
ATOM     76  F   UNL A   1      46.041  31.735  28.453  1.00  0.00    -0.206 F 
ATOM     77  C   UNL A   1      43.492  34.228  27.863  1.00  0.00     0.060 A 
BRANCH  77  78
ATOM     78  S   UNL A   1      43.131  35.589  26.733  1.00  0.00     0.124 S 
ATOM     79  O   UNL A   1      41.874  36.094  27.276  1.00  0.00    -0.237 OA
ATOM     80  O   UNL A   1      44.291  36.457  26.909  1.00  0.00    -0.237 OA
ATOM     81  O   UNL A   1      43.033  34.935  25.432  1.00  0.00    -0.744 OA
ENDBRANCH  77  78
ENDBRANCH  56  70
BRANCH  57  82
ATOM     82  C   UNL A   1      45.999  24.285  35.521  1.00  0.00     0.058 A 
ATOM     83  C   UNL A   1      47.205  23.587  35.372  1.00  0.00     0.135 A 
ATOM     84  C   UNL A   1      45.113  23.853  36.521  1.00  0.00     0.135 A 
ATOM     85  F   UNL A   1      48.080  23.955  34.422  1.00  0.00    -0.206 F 
ATOM     86  C   UNL A   1      47.518  22.492  36.171  1.00  0.00     0.059 A 
ATOM     87  C   UNL A   1      45.415  22.777  37.351  1.00  0.00     0.059 A 
ATOM     88  F   UNL A   1      43.949  24.492  36.712  1.00  0.00    -0.206 F 
ATOM     89  C   UNL A   1      46.617  22.097  37.161  1.00  0.00     0.060 A 
BRANCH  89  90
ATOM     90  S   UNL A   1      47.055  20.705  38.226  1.00  0.00     0.124 S 
ATOM     91  O   UNL A   1      48.409  21.063  38.634  1.00  0.00    -0.237 OA
ATOM     92  O   UNL A   1      46.034  20.782  39.265  1.00  0.00    -0.237 OA
ATOM     93  O   UNL A   1      46.947  19.554  37.335  1.00  0.00    -0.744 OA
ENDBRANCH  89  90
ENDBRANCH  57  82
BRANCH  69  94
ATOM     94  C   UNL A   1      46.420  31.204  36.363  1.00  0.00     0.058 A 
ATOM     95  C   UNL A   1      45.494  31.667  37.311  1.00  0.00     0.135 A 
ATOM     96  C   UNL A   1      47.775  31.520  36.563  1.00  0.00     0.135 A 
ATOM     97  F   UNL A   1      44.187  31.397  37.166  1.00  0.00    -0.206 F 
ATOM     98  C   UNL A   1      45.892  32.431  38.403  1.00  0.00     0.059 A 
ATOM     99  C   UNL A   1      48.198  32.261  37.662  1.00  0.00     0.059 A 
ATOM    100  F   UNL A   1      48.704  31.092  35.694  1.00  0.00    -0.206 F 
ATOM    101  C   UNL A   1      47.248  32.722  38.571  1.00  0.00     0.060 A 
BRANCH 101 102
ATOM    102  S   UNL A   1      47.757  33.684  40.012  1.00  0.00     0.124 S 
ATOM    103  O   UNL A   1      47.686  35.046  39.495  1.00  0.00    -0.237 OA
ATOM    104  O   UNL A   1      46.744  33.327  41.000  1.00  0.00    -0.237 OA
ATOM    105  O   UNL A   1      49.101  33.189  40.295  1.00  0.00    -0.744 OA
ENDBRANCH 101 102
ENDBRANCH  69  94
ENDBRANCH  43  44
ENDBRANCH  36  38
ENDBRANCH  35  36
ENDBRANCH  34  35
ENDBRANCH  33  34
ENDBRANCH  32  33
ENDBRANCH  31  32
ENDBRANCH   1  31
TORSDOF 25
ENDMDL
