MODEL 1
REMARK VINA RESULT:     -10.3      0.000      0.000
REMARK SMILES O=C(OCCOCCOCCOC(=O)C1(NC(=O)c2nc(C3CC3)n[nH]2)CCCCC1)c1ccc(-c2c3nc(c(-c4c(F)cc(S(=O)(=O)[O-])cc4F)c4ccc([nH]4)c(-c4c(F)cc(S(=O)(=O)[O-])cc4F)c4nc(c(-c5c(F)cc(S(=O)(=O)[O-])cc5F)c5ccc2[nH]5)C=C4)C=C3)cc1
REMARK SMILES IDX 7 1 6 2 5 3 4 4 3 5 2 6 1 7 32 8 33 9 97 10 34 11 96 12
REMARK SMILES IDX 35 13 36 14 37 15 90 16 38 17 95 18 89 19 91 20 39 21 94 22
REMARK SMILES IDX 88 23 87 24 40 26 74 27 53 28 73 29 54 30 57 31 72 32 92 33
REMARK SMILES IDX 55 34 56 35 71 37 93 38 58 39 41 40 42 41 51 42 43 43 44 44
REMARK SMILES IDX 50 45 52 46 45 47 46 48 47 49 48 50 49 51 75 52 76 53 85 54
REMARK SMILES IDX 77 55 78 56 84 57 86 58 79 59 80 60 81 61 82 62 83 63 59 64
REMARK SMILES IDX 60 65 69 66 61 67 62 68 68 69 70 70 63 71 64 72 65 73 66 74
REMARK SMILES IDX 67 75 8 76 9 77 10 78 11 79 12 80 13 81 14 82 15 83 27 84
REMARK SMILES IDX 31 85 28 86 30 87 29 88 16 89 17 90 18 92 19 93 20 94 26 95
REMARK SMILES IDX 21 96 25 97 22 99 23 100 24 101
REMARK H PARENT 91 25 57 36 16 91 26 98
REMARK Flexibility Score: inf
ROOT
ATOM      1  C   UNL A   1      41.163  21.523  26.963  1.00  0.00     0.188 C 
ENDROOT
BRANCH   1   2
ATOM      2  O   UNL A   1      42.252  21.289  26.068  1.00  0.00    -0.376 OA
BRANCH   2   3
ATOM      3  C   UNL A   1      42.808  22.476  25.505  1.00  0.00     0.202 C 
BRANCH   3   4
ATOM      4  C   UNL A   1      43.004  23.663  26.467  1.00  0.00     0.261 C 
BRANCH   4   5
ATOM      5  O   UNL A   1      42.874  24.934  25.805  1.00  0.00    -0.460 OA
BRANCH   5   6
ATOM      6  C   UNL A   1      41.958  25.894  26.106  1.00  0.00     0.338 C 
ATOM      7  O   UNL A   1      41.263  26.356  25.203  1.00  0.00    -0.246 OA
BRANCH   6   8
ATOM      8  C   UNL A   1      41.895  26.536  27.467  1.00  0.00     0.060 A 
ATOM      9  C   UNL A   1      40.883  26.326  28.407  1.00  0.00     0.016 A 
ATOM     10  C   UNL A   1      42.962  27.373  27.843  1.00  0.00     0.016 A 
ATOM     11  C   UNL A   1      40.891  26.932  29.654  1.00  0.00     0.010 A 
ATOM     12  C   UNL A   1      42.971  28.012  29.091  1.00  0.00     0.010 A 
ATOM     13  C   UNL A   1      41.910  27.815  29.981  1.00  0.00    -0.014 A 
BRANCH  13  14
ATOM     14  C   UNL A   1      41.662  28.710  31.123  1.00  0.00     0.031 A 
ATOM     15  C   UNL A   1      40.580  29.733  30.962  1.00  0.00     0.074 A 
ATOM     16  C   UNL A   1      42.226  28.483  32.321  1.00  0.00     0.049 A 
ATOM     17  N   UNL A   1      40.147  30.617  31.817  1.00  0.00    -0.248 NA
ATOM     18  C   UNL A   1      39.839  29.710  29.687  1.00  0.00     0.031 C 
ATOM     19  C   UNL A   1      43.097  27.353  32.637  1.00  0.00     0.029 A 
ATOM     20  N   UNL A   1      42.152  29.179  33.496  1.00  0.00    -0.354 N 
ATOM     21  C   UNL A   1      39.058  31.220  31.202  1.00  0.00     0.074 A 
ATOM     22  C   UNL A   1      38.924  30.643  29.885  1.00  0.00     0.031 C 
ATOM     23  C   UNL A   1      43.552  27.484  33.894  1.00  0.00     0.029 A 
ATOM     24  C   UNL A   1      43.025  28.719  34.452  1.00  0.00     0.049 A 
ATOM     25  H   UNL A   1      41.535  29.933  33.642  1.00  0.00     0.167 HD
ATOM     26  C   UNL A   1      38.230  32.157  31.714  1.00  0.00     0.037 A 
ATOM     27  C   UNL A   1      43.393  29.274  35.622  1.00  0.00     0.037 A 
ATOM     28  C   UNL A   1      38.426  32.745  33.009  1.00  0.00     0.049 A 
ATOM     29  C   UNL A   1      42.654  30.504  36.062  1.00  0.00     0.074 A 
ATOM     30  C   UNL A   1      37.723  33.770  33.611  1.00  0.00     0.029 A 
ATOM     31  N   UNL A   1      39.424  32.362  33.897  1.00  0.00    -0.354 N 
ATOM     32  N   UNL A   1      41.668  31.122  35.455  1.00  0.00    -0.248 NA
ATOM     33  C   UNL A   1      43.043  31.095  37.347  1.00  0.00     0.031 C 
ATOM     34  C   UNL A   1      38.331  34.039  34.843  1.00  0.00     0.029 A 
ATOM     35  C   UNL A   1      39.378  33.148  35.032  1.00  0.00     0.049 A 
ATOM     36  H   UNL A   1      40.070  31.635  33.740  1.00  0.00     0.167 HD
ATOM     37  C   UNL A   1      41.273  32.140  36.309  1.00  0.00     0.074 A 
ATOM     38  C   UNL A   1      42.147  32.066  37.467  1.00  0.00     0.031 C 
ATOM     39  C   UNL A   1      40.264  33.035  36.165  1.00  0.00     0.037 A 
BRANCH  26  40
ATOM     40  C   UNL A   1      37.105  32.616  30.835  1.00  0.00     0.058 A 
ATOM     41  C   UNL A   1      37.286  33.619  29.867  1.00  0.00     0.135 A 
ATOM     42  C   UNL A   1      35.814  32.094  31.004  1.00  0.00     0.135 A 
ATOM     43  F   UNL A   1      38.493  34.181  29.693  1.00  0.00    -0.206 F 
ATOM     44  C   UNL A   1      36.221  34.107  29.117  1.00  0.00     0.059 A 
ATOM     45  C   UNL A   1      34.737  32.552  30.251  1.00  0.00     0.059 A 
ATOM     46  F   UNL A   1      35.583  31.153  31.933  1.00  0.00    -0.206 F 
ATOM     47  C   UNL A   1      34.948  33.570  29.321  1.00  0.00     0.060 A 
BRANCH  47  48
ATOM     48  S   UNL A   1      33.570  34.231  28.361  1.00  0.00     0.124 S 
ATOM     49  O   UNL A   1      32.672  34.688  29.417  1.00  0.00    -0.237 OA
ATOM     50  O   UNL A   1      34.210  35.279  27.576  1.00  0.00    -0.237 OA
ATOM     51  O   UNL A   1      33.103  33.075  27.598  1.00  0.00    -0.744 OA
ENDBRANCH  47  48
ENDBRANCH  26  40
BRANCH  27  52
ATOM     52  C   UNL A   1      44.533  28.711  36.393  1.00  0.00     0.058 A 
ATOM     53  C   UNL A   1      45.829  29.233  36.297  1.00  0.00     0.135 A 
ATOM     54  C   UNL A   1      44.334  27.616  37.254  1.00  0.00     0.135 A 
ATOM     55  F   UNL A   1      46.072  30.279  35.492  1.00  0.00    -0.206 F 
ATOM     56  C   UNL A   1      46.892  28.680  37.007  1.00  0.00     0.059 A 
ATOM     57  C   UNL A   1      45.376  27.057  37.987  1.00  0.00     0.059 A 
ATOM     58  F   UNL A   1      43.110  27.086  37.399  1.00  0.00    -0.206 F 
ATOM     59  C   UNL A   1      46.656  27.591  37.848  1.00  0.00     0.060 A 
BRANCH  59  60
ATOM     60  S   UNL A   1      48.039  26.894  38.780  1.00  0.00     0.124 S 
ATOM     61  O   UNL A   1      49.070  27.904  38.575  1.00  0.00    -0.237 OA
ATOM     62  O   UNL A   1      47.483  26.808  40.126  1.00  0.00    -0.237 OA
ATOM     63  O   UNL A   1      48.272  25.611  38.124  1.00  0.00    -0.744 OA
ENDBRANCH  59  60
ENDBRANCH  27  52
BRANCH  39  64
ATOM     64  C   UNL A   1      40.018  33.959  37.317  1.00  0.00     0.058 A 
ATOM     65  C   UNL A   1      39.152  33.618  38.365  1.00  0.00     0.135 A 
ATOM     66  C   UNL A   1      40.701  35.183  37.389  1.00  0.00     0.135 A 
ATOM     67  F   UNL A   1      38.470  32.462  38.331  1.00  0.00    -0.206 F 
ATOM     68  C   UNL A   1      38.955  34.474  39.441  1.00  0.00     0.059 A 
ATOM     69  C   UNL A   1      40.541  36.040  38.468  1.00  0.00     0.059 A 
ATOM     70  F   UNL A   1      41.545  35.546  36.410  1.00  0.00    -0.206 F 
ATOM     71  C   UNL A   1      39.656  35.681  39.485  1.00  0.00     0.060 A 
BRANCH  71  72
ATOM     72  S   UNL A   1      39.422  36.766  40.906  1.00  0.00     0.124 S 
ATOM     73  O   UNL A   1      40.741  37.379  41.025  1.00  0.00    -0.237 OA
ATOM     74  O   UNL A   1      38.352  37.648  40.453  1.00  0.00    -0.237 OA
ATOM     75  O   UNL A   1      39.057  35.844  41.977  1.00  0.00    -0.744 OA
ENDBRANCH  71  72
ENDBRANCH  39  64
ENDBRANCH  13  14
ENDBRANCH   6   8
ENDBRANCH   5   6
ENDBRANCH   4   5
ENDBRANCH   3   4
ENDBRANCH   2   3
ENDBRANCH   1   2
BRANCH   1  76
ATOM     76  C   UNL A   1      39.868  21.248  26.237  1.00  0.00     0.188 C 
BRANCH  76  77
ATOM     77  O   UNL A   1      39.027  22.397  26.171  1.00  0.00    -0.376 OA
BRANCH  77  78
ATOM     78  C   UNL A   1      37.848  22.184  25.411  1.00  0.00     0.202 C 
BRANCH  78  79
ATOM     79  C   UNL A   1      36.666  23.023  25.912  1.00  0.00     0.261 C 
BRANCH  79  80
ATOM     80  O   UNL A   1      35.424  22.582  25.335  1.00  0.00    -0.461 OA
BRANCH  80  81
ATOM     81  C   UNL A   1      34.364  22.497  26.190  1.00  0.00     0.331 C 
ATOM     82  O   UNL A   1      34.363  22.916  27.345  1.00  0.00    -0.249 OA
BRANCH  81  83
ATOM     83  C   UNL A   1      33.182  21.685  25.589  1.00  0.00     0.138 C 
ATOM     84  C   UNL A   1      32.834  22.010  24.110  1.00  0.00     0.040 C 
ATOM     85  C   UNL A   1      33.717  20.224  25.699  1.00  0.00     0.040 C 
ATOM     86  C   UNL A   1      32.069  20.909  23.369  1.00  0.00     0.003 C 
ATOM     87  C   UNL A   1      32.945  19.169  24.914  1.00  0.00     0.003 C 
ATOM     88  C   UNL A   1      32.781  19.572  23.462  1.00  0.00     0.000 C 
BRANCH  83  89
ATOM     89  N   UNL A   1      31.940  21.839  26.415  1.00  0.00    -0.333 N 
ATOM     90  C   UNL A   1      30.841  22.673  26.231  1.00  0.00     0.289 C 
ATOM     91  H   UNL A   1      31.896  21.263  27.212  1.00  0.00     0.165 HD
ATOM     92  O   UNL A   1      29.742  22.158  26.456  1.00  0.00    -0.266 OA
BRANCH  90  93
ATOM     93  C   UNL A   1      30.989  24.098  25.973  1.00  0.00     0.214 A 
ATOM     94  N   UNL A   1      30.522  24.795  24.940  1.00  0.00    -0.207 NA
ATOM     95  N   UNL A   1      31.465  24.987  26.894  1.00  0.00    -0.255 N 
ATOM     96  C   UNL A   1      30.776  26.109  25.287  1.00  0.00     0.154 A 
ATOM     97  N   UNL A   1      31.262  26.261  26.525  1.00  0.00    -0.158 NA
ATOM     98  H   UNL A   1      31.907  24.722  27.733  1.00  0.00     0.192 HD
BRANCH  96  99
ATOM     99  C   UNL A   1      30.503  27.355  24.434  1.00  0.00     0.060 C 
ATOM    100  C   UNL A   1      31.580  27.973  23.568  1.00  0.00     0.012 C 
ATOM    101  C   UNL A   1      30.437  27.260  22.924  1.00  0.00     0.012 C 
ENDBRANCH  96  99
ENDBRANCH  90  93
ENDBRANCH  83  89
ENDBRANCH  81  83
ENDBRANCH  80  81
ENDBRANCH  79  80
ENDBRANCH  78  79
ENDBRANCH  77  78
ENDBRANCH  76  77
ENDBRANCH   1  76
TORSDOF 23
ENDMDL
MODEL 2
REMARK VINA RESULT:     -10.2      1.123      2.921
REMARK SMILES O=C(OCCOCCOCCOC(=O)C1(NC(=O)c2nc(C3CC3)n[nH]2)CCCCC1)c1ccc(-c2c3nc(c(-c4c(F)cc(S(=O)(=O)[O-])cc4F)c4ccc([nH]4)c(-c4c(F)cc(S(=O)(=O)[O-])cc4F)c4nc(c(-c5c(F)cc(S(=O)(=O)[O-])cc5F)c5ccc2[nH]5)C=C4)C=C3)cc1
REMARK SMILES IDX 7 1 6 2 5 3 4 4 3 5 2 6 1 7 32 8 33 9 97 10 34 11 96 12
REMARK SMILES IDX 35 13 36 14 37 15 90 16 38 17 95 18 89 19 91 20 39 21 94 22
REMARK SMILES IDX 88 23 87 24 40 26 74 27 53 28 73 29 54 30 57 31 72 32 92 33
REMARK SMILES IDX 55 34 56 35 71 37 93 38 58 39 41 40 42 41 51 42 43 43 44 44
REMARK SMILES IDX 50 45 52 46 45 47 46 48 47 49 48 50 49 51 75 52 76 53 85 54
REMARK SMILES IDX 77 55 78 56 84 57 86 58 79 59 80 60 81 61 82 62 83 63 59 64
REMARK SMILES IDX 60 65 69 66 61 67 62 68 68 69 70 70 63 71 64 72 65 73 66 74
REMARK SMILES IDX 67 75 8 76 9 77 10 78 11 79 12 80 13 81 14 82 15 83 27 84
REMARK SMILES IDX 31 85 28 86 30 87 29 88 16 89 17 90 18 92 19 93 20 94 26 95
REMARK SMILES IDX 21 96 25 97 22 99 23 100 24 101
REMARK H PARENT 91 25 57 36 16 91 26 98
REMARK Flexibility Score: inf
ROOT
ATOM      1  C   UNL A   1      41.492  21.413  27.016  1.00  0.00     0.188 C 
ENDROOT
BRANCH   1   2
ATOM      2  O   UNL A   1      42.490  21.403  25.994  1.00  0.00    -0.376 OA
BRANCH   2   3
ATOM      3  C   UNL A   1      42.779  22.689  25.449  1.00  0.00     0.202 C 
BRANCH   3   4
ATOM      4  C   UNL A   1      43.041  23.818  26.463  1.00  0.00     0.261 C 
BRANCH   4   5
ATOM      5  O   UNL A   1      42.838  25.125  25.895  1.00  0.00    -0.460 OA
BRANCH   5   6
ATOM      6  C   UNL A   1      41.857  25.998  26.248  1.00  0.00     0.338 C 
ATOM      7  O   UNL A   1      41.078  26.396  25.385  1.00  0.00    -0.246 OA
BRANCH   6   8
ATOM      8  C   UNL A   1      41.807  26.631  27.614  1.00  0.00     0.060 A 
ATOM      9  C   UNL A   1      40.804  26.414  28.563  1.00  0.00     0.016 A 
ATOM     10  C   UNL A   1      42.877  27.466  27.985  1.00  0.00     0.016 A 
ATOM     11  C   UNL A   1      40.825  27.012  29.813  1.00  0.00     0.010 A 
ATOM     12  C   UNL A   1      42.899  28.097  29.237  1.00  0.00     0.010 A 
ATOM     13  C   UNL A   1      41.846  27.894  30.136  1.00  0.00    -0.014 A 
BRANCH  13  14
ATOM     14  C   UNL A   1      41.610  28.781  31.287  1.00  0.00     0.031 A 
ATOM     15  C   UNL A   1      40.533  29.812  31.139  1.00  0.00     0.074 A 
ATOM     16  C   UNL A   1      42.178  28.540  32.480  1.00  0.00     0.049 A 
ATOM     17  N   UNL A   1      40.110  30.692  32.002  1.00  0.00    -0.248 NA
ATOM     18  C   UNL A   1      39.786  29.804  29.867  1.00  0.00     0.031 C 
ATOM     19  C   UNL A   1      43.043  27.403  32.783  1.00  0.00     0.029 A 
ATOM     20  N   UNL A   1      42.113  29.227  33.660  1.00  0.00    -0.354 N 
ATOM     21  C   UNL A   1      39.023  31.307  31.398  1.00  0.00     0.074 A 
ATOM     22  C   UNL A   1      38.878  30.742  30.077  1.00  0.00     0.031 C 
ATOM     23  C   UNL A   1      43.505  27.520  34.038  1.00  0.00     0.029 A 
ATOM     24  C   UNL A   1      42.988  28.755  34.609  1.00  0.00     0.049 A 
ATOM     25  H   UNL A   1      41.502  29.984  33.815  1.00  0.00     0.167 HD
ATOM     26  C   UNL A   1      38.203  32.245  31.921  1.00  0.00     0.037 A 
ATOM     27  C   UNL A   1      43.364  29.297  35.781  1.00  0.00     0.037 A 
ATOM     28  C   UNL A   1      38.408  32.821  33.220  1.00  0.00     0.049 A 
ATOM     29  C   UNL A   1      42.636  30.529  36.235  1.00  0.00     0.074 A 
ATOM     30  C   UNL A   1      37.715  33.846  33.833  1.00  0.00     0.029 A 
ATOM     31  N   UNL A   1      39.408  32.424  34.100  1.00  0.00    -0.354 N 
ATOM     32  N   UNL A   1      41.651  31.158  35.638  1.00  0.00    -0.248 NA
ATOM     33  C   UNL A   1      43.034  31.107  37.522  1.00  0.00     0.031 C 
ATOM     34  C   UNL A   1      38.330  34.101  35.064  1.00  0.00     0.029 A 
ATOM     35  C   UNL A   1      39.372  33.202  35.242  1.00  0.00     0.049 A 
ATOM     36  H   UNL A   1      40.048  31.695  33.934  1.00  0.00     0.167 HD
ATOM     37  C   UNL A   1      41.266  32.171  36.501  1.00  0.00     0.074 A 
ATOM     38  C   UNL A   1      42.146  32.083  37.654  1.00  0.00     0.031 C 
ATOM     39  C   UNL A   1      40.263  33.074  36.370  1.00  0.00     0.037 A 
BRANCH  26  40
ATOM     40  C   UNL A   1      37.076  32.718  31.051  1.00  0.00     0.058 A 
ATOM     41  C   UNL A   1      35.788  32.163  31.144  1.00  0.00     0.135 A 
ATOM     42  C   UNL A   1      37.300  33.694  30.068  1.00  0.00     0.135 A 
ATOM     43  F   UNL A   1      35.532  31.196  32.041  1.00  0.00    -0.206 F 
ATOM     44  C   UNL A   1      34.770  32.540  30.275  1.00  0.00     0.059 A 
ATOM     45  C   UNL A   1      36.290  34.101  29.202  1.00  0.00     0.059 A 
ATOM     46  F   UNL A   1      38.518  34.237  29.922  1.00  0.00    -0.206 F 
ATOM     47  C   UNL A   1      35.033  33.506  29.303  1.00  0.00     0.060 A 
BRANCH  47  48
ATOM     48  S   UNL A   1      33.710  33.965  28.164  1.00  0.00     0.124 S 
ATOM     49  O   UNL A   1      32.768  34.625  29.062  1.00  0.00    -0.237 OA
ATOM     50  O   UNL A   1      34.399  34.834  27.218  1.00  0.00    -0.237 OA
ATOM     51  O   UNL A   1      33.267  32.682  27.623  1.00  0.00    -0.744 OA
ENDBRANCH  47  48
ENDBRANCH  26  40
BRANCH  27  52
ATOM     52  C   UNL A   1      44.504  28.721  36.543  1.00  0.00     0.058 A 
ATOM     53  C   UNL A   1      45.794  29.265  36.481  1.00  0.00     0.135 A 
ATOM     54  C   UNL A   1      44.313  27.591  37.358  1.00  0.00     0.135 A 
ATOM     55  F   UNL A   1      46.030  30.345  35.721  1.00  0.00    -0.206 F 
ATOM     56  C   UNL A   1      46.857  28.699  37.181  1.00  0.00     0.059 A 
ATOM     57  C   UNL A   1      45.355  27.019  38.081  1.00  0.00     0.059 A 
ATOM     58  F   UNL A   1      43.095  27.038  37.468  1.00  0.00    -0.206 F 
ATOM     59  C   UNL A   1      46.628  27.575  37.977  1.00  0.00     0.060 A 
BRANCH  59  60
ATOM     60  S   UNL A   1      48.011  26.862  38.896  1.00  0.00     0.124 S 
ATOM     61  O   UNL A   1      47.998  27.662  40.115  1.00  0.00    -0.237 OA
ATOM     62  O   UNL A   1      47.595  25.470  39.037  1.00  0.00    -0.237 OA
ATOM     63  O   UNL A   1      49.151  27.079  38.009  1.00  0.00    -0.744 OA
ENDBRANCH  59  60
ENDBRANCH  27  52
BRANCH  39  64
ATOM     64  C   UNL A   1      40.028  33.990  37.530  1.00  0.00     0.058 A 
ATOM     65  C   UNL A   1      39.171  33.643  38.583  1.00  0.00     0.135 A 
ATOM     66  C   UNL A   1      40.713  35.213  37.604  1.00  0.00     0.135 A 
ATOM     67  F   UNL A   1      38.488  32.488  38.547  1.00  0.00    -0.206 F 
ATOM     68  C   UNL A   1      38.984  34.492  39.667  1.00  0.00     0.059 A 
ATOM     69  C   UNL A   1      40.563  36.063  38.691  1.00  0.00     0.059 A 
ATOM     70  F   UNL A   1      41.549  35.582  36.620  1.00  0.00    -0.206 F 
ATOM     71  C   UNL A   1      39.687  35.697  39.712  1.00  0.00     0.060 A 
BRANCH  71  72
ATOM     72  S   UNL A   1      39.467  36.773  41.144  1.00  0.00     0.124 S 
ATOM     73  O   UNL A   1      40.839  36.904  41.622  1.00  0.00    -0.237 OA
ATOM     74  O   UNL A   1      38.886  37.971  40.547  1.00  0.00    -0.237 OA
ATOM     75  O   UNL A   1      38.570  36.009  42.004  1.00  0.00    -0.744 OA
ENDBRANCH  71  72
ENDBRANCH  39  64
ENDBRANCH  13  14
ENDBRANCH   6   8
ENDBRANCH   5   6
ENDBRANCH   4   5
ENDBRANCH   3   4
ENDBRANCH   2   3
ENDBRANCH   1   2
BRANCH   1  76
ATOM     76  C   UNL A   1      40.142  21.182  26.382  1.00  0.00     0.188 C 
BRANCH  76  77
ATOM     77  O   UNL A   1      39.448  22.398  26.119  1.00  0.00    -0.376 OA
BRANCH  77  78
ATOM     78  C   UNL A   1      38.084  22.203  25.780  1.00  0.00     0.202 C 
BRANCH  78  79
ATOM     79  C   UNL A   1      37.316  23.524  25.649  1.00  0.00     0.261 C 
BRANCH  79  80
ATOM     80  O   UNL A   1      35.899  23.329  25.810  1.00  0.00    -0.461 OA
BRANCH  80  81
ATOM     81  C   UNL A   1      35.170  23.263  24.659  1.00  0.00     0.331 C 
ATOM     82  O   UNL A   1      35.544  22.713  23.626  1.00  0.00    -0.249 OA
BRANCH  81  83
ATOM     83  C   UNL A   1      33.851  24.083  24.745  1.00  0.00     0.138 C 
ATOM     84  C   UNL A   1      33.156  24.081  26.134  1.00  0.00     0.040 C 
ATOM     85  C   UNL A   1      34.352  25.519  24.404  1.00  0.00     0.040 C 
ATOM     86  C   UNL A   1      32.197  25.250  26.379  1.00  0.00     0.003 C 
ATOM     87  C   UNL A   1      33.377  26.655  24.700  1.00  0.00     0.003 C 
ATOM     88  C   UNL A   1      32.868  26.588  26.127  1.00  0.00     0.000 C 
BRANCH  83  89
ATOM     89  N   UNL A   1      32.860  23.628  23.716  1.00  0.00    -0.333 N 
ATOM     90  C   UNL A   1      31.938  22.587  23.760  1.00  0.00     0.289 C 
ATOM     91  H   UNL A   1      32.863  24.146  22.878  1.00  0.00     0.165 HD
ATOM     92  O   UNL A   1      30.827  22.843  23.289  1.00  0.00    -0.266 OA
BRANCH  90  93
ATOM     93  C   UNL A   1      32.315  21.240  24.164  1.00  0.00     0.214 A 
ATOM     94  N   UNL A   1      33.142  20.402  23.543  1.00  0.00    -0.207 NA
ATOM     95  N   UNL A   1      32.027  20.710  25.388  1.00  0.00    -0.255 N 
ATOM     96  C   UNL A   1      33.291  19.360  24.441  1.00  0.00     0.154 A 
ATOM     97  N   UNL A   1      32.698  19.571  25.622  1.00  0.00    -0.158 NA
ATOM     98  H   UNL A   1      31.398  21.118  26.027  1.00  0.00     0.192 HD
BRANCH  96  99
ATOM     99  C   UNL A   1      34.091  18.069  24.227  1.00  0.00     0.060 C 
ATOM    100  C   UNL A   1      33.532  16.717  24.614  1.00  0.00     0.012 C 
ATOM    101  C   UNL A   1      33.677  17.067  23.170  1.00  0.00     0.012 C 
ENDBRANCH  96  99
ENDBRANCH  90  93
ENDBRANCH  83  89
ENDBRANCH  81  83
ENDBRANCH  80  81
ENDBRANCH  79  80
ENDBRANCH  78  79
ENDBRANCH  77  78
ENDBRANCH  76  77
ENDBRANCH   1  76
TORSDOF 23
ENDMDL
MODEL 3
REMARK VINA RESULT:     -10.2      6.328     11.717
REMARK SMILES O=C(OCCOCCOCCOC(=O)C1(NC(=O)c2nc(C3CC3)n[nH]2)CCCCC1)c1ccc(-c2c3nc(c(-c4c(F)cc(S(=O)(=O)[O-])cc4F)c4ccc([nH]4)c(-c4c(F)cc(S(=O)(=O)[O-])cc4F)c4nc(c(-c5c(F)cc(S(=O)(=O)[O-])cc5F)c5ccc2[nH]5)C=C4)C=C3)cc1
REMARK SMILES IDX 7 1 6 2 5 3 4 4 3 5 2 6 1 7 32 8 33 9 97 10 34 11 96 12
REMARK SMILES IDX 35 13 36 14 37 15 90 16 38 17 95 18 89 19 91 20 39 21 94 22
REMARK SMILES IDX 88 23 87 24 40 26 74 27 53 28 73 29 54 30 57 31 72 32 92 33
REMARK SMILES IDX 55 34 56 35 71 37 93 38 58 39 41 40 42 41 51 42 43 43 44 44
REMARK SMILES IDX 50 45 52 46 45 47 46 48 47 49 48 50 49 51 75 52 76 53 85 54
REMARK SMILES IDX 77 55 78 56 84 57 86 58 79 59 80 60 81 61 82 62 83 63 59 64
REMARK SMILES IDX 60 65 69 66 61 67 62 68 68 69 70 70 63 71 64 72 65 73 66 74
REMARK SMILES IDX 67 75 8 76 9 77 10 78 11 79 12 80 13 81 14 82 15 83 27 84
REMARK SMILES IDX 31 85 28 86 30 87 29 88 16 89 17 90 18 92 19 93 20 94 26 95
REMARK SMILES IDX 21 96 25 97 22 99 23 100 24 101
REMARK H PARENT 91 25 57 36 16 91 26 98
REMARK Flexibility Score: inf
ROOT
ATOM      1  C   UNL A   1      34.472  32.094  28.100  1.00  0.00     0.188 C 
ENDROOT
BRANCH   1   2
ATOM      2  O   UNL A   1      35.552  32.930  28.517  1.00  0.00    -0.376 OA
BRANCH   2   3
ATOM      3  C   UNL A   1      35.429  33.417  29.853  1.00  0.00     0.202 C 
BRANCH   3   4
ATOM      4  C   UNL A   1      36.119  32.585  30.950  1.00  0.00     0.261 C 
BRANCH   4   5
ATOM      5  O   UNL A   1      35.961  31.169  30.746  1.00  0.00    -0.460 OA
BRANCH   5   6
ATOM      6  C   UNL A   1      36.843  30.210  31.139  1.00  0.00     0.338 C 
ATOM      7  O   UNL A   1      36.573  29.523  32.122  1.00  0.00    -0.246 OA
BRANCH   6   8
ATOM      8  C   UNL A   1      38.212  30.087  30.525  1.00  0.00     0.060 A 
ATOM      9  C   UNL A   1      38.469  29.935  29.159  1.00  0.00     0.016 A 
ATOM     10  C   UNL A   1      39.323  30.181  31.384  1.00  0.00     0.016 A 
ATOM     11  C   UNL A   1      39.756  29.848  28.652  1.00  0.00     0.010 A 
ATOM     12  C   UNL A   1      40.630  30.069  30.888  1.00  0.00     0.010 A 
ATOM     13  C   UNL A   1      40.839  29.865  29.519  1.00  0.00    -0.014 A 
BRANCH  13  14
ATOM     14  C   UNL A   1      42.119  29.378  28.981  1.00  0.00     0.031 A 
ATOM     15  C   UNL A   1      43.232  30.375  28.870  1.00  0.00     0.074 A 
ATOM     16  C   UNL A   1      42.345  28.066  28.801  1.00  0.00     0.049 A 
ATOM     17  N   UNL A   1      44.456  30.201  28.457  1.00  0.00    -0.248 NA
ATOM     18  C   UNL A   1      42.944  31.737  29.356  1.00  0.00     0.031 C 
ATOM     19  C   UNL A   1      41.401  27.000  29.128  1.00  0.00     0.029 A 
ATOM     20  N   UNL A   1      43.434  27.401  28.309  1.00  0.00    -0.354 N 
ATOM     21  C   UNL A   1      45.093  31.414  28.676  1.00  0.00     0.074 A 
ATOM     22  C   UNL A   1      44.115  32.333  29.208  1.00  0.00     0.031 C 
ATOM     23  C   UNL A   1      41.914  25.821  28.740  1.00  0.00     0.029 A 
ATOM     24  C   UNL A   1      43.205  26.060  28.114  1.00  0.00     0.049 A 
ATOM     25  H   UNL A   1      44.294  27.839  28.113  1.00  0.00     0.167 HD
ATOM     26  C   UNL A   1      46.394  31.718  28.471  1.00  0.00     0.037 A 
ATOM     27  C   UNL A   1      43.939  25.147  27.452  1.00  0.00     0.037 A 
ATOM     28  C   UNL A   1      47.327  30.793  27.891  1.00  0.00     0.049 A 
ATOM     29  C   UNL A   1      45.292  25.576  26.963  1.00  0.00     0.074 A 
ATOM     30  C   UNL A   1      48.646  30.999  27.539  1.00  0.00     0.029 A 
ATOM     31  N   UNL A   1      47.019  29.479  27.559  1.00  0.00    -0.354 N 
ATOM     32  N   UNL A   1      45.877  26.743  27.106  1.00  0.00    -0.248 NA
ATOM     33  C   UNL A   1      46.099  24.574  26.260  1.00  0.00     0.031 C 
ATOM     34  C   UNL A   1      49.119  29.822  26.947  1.00  0.00     0.029 A 
ATOM     35  C   UNL A   1      48.113  28.867  26.978  1.00  0.00     0.049 A 
ATOM     36  H   UNL A   1      46.148  29.048  27.716  1.00  0.00     0.167 HD
ATOM     37  C   UNL A   1      47.146  26.602  26.565  1.00  0.00     0.074 A 
ATOM     38  C   UNL A   1      47.231  25.238  26.071  1.00  0.00     0.031 C 
ATOM     39  C   UNL A   1      48.156  27.504  26.507  1.00  0.00     0.037 A 
BRANCH  26  40
ATOM     40  C   UNL A   1      46.827  33.110  28.825  1.00  0.00     0.058 A 
ATOM     41  C   UNL A   1      47.305  33.431  30.107  1.00  0.00     0.135 A 
ATOM     42  C   UNL A   1      46.702  34.150  27.893  1.00  0.00     0.135 A 
ATOM     43  F   UNL A   1      47.405  32.479  31.049  1.00  0.00    -0.206 F 
ATOM     44  C   UNL A   1      47.620  34.739  30.459  1.00  0.00     0.059 A 
ATOM     45  C   UNL A   1      47.030  35.463  28.217  1.00  0.00     0.059 A 
ATOM     46  F   UNL A   1      46.226  33.901  26.662  1.00  0.00    -0.206 F 
ATOM     47  C   UNL A   1      47.473  35.750  29.508  1.00  0.00     0.060 A 
BRANCH  47  48
ATOM     48  S   UNL A   1      47.858  37.447  29.987  1.00  0.00     0.124 S 
ATOM     49  O   UNL A   1      49.235  37.575  29.522  1.00  0.00    -0.237 OA
ATOM     50  O   UNL A   1      46.864  38.214  29.245  1.00  0.00    -0.237 OA
ATOM     51  O   UNL A   1      47.684  37.438  31.438  1.00  0.00    -0.744 OA
ENDBRANCH  47  48
ENDBRANCH  26  40
BRANCH  27  52
ATOM     52  C   UNL A   1      43.382  23.798  27.170  1.00  0.00     0.058 A 
ATOM     53  C   UNL A   1      42.831  23.463  25.926  1.00  0.00     0.135 A 
ATOM     54  C   UNL A   1      43.391  22.805  28.166  1.00  0.00     0.135 A 
ATOM     55  F   UNL A   1      42.800  24.374  24.940  1.00  0.00    -0.206 F 
ATOM     56  C   UNL A   1      42.290  22.203  25.684  1.00  0.00     0.059 A 
ATOM     57  C   UNL A   1      42.873  21.533  27.942  1.00  0.00     0.059 A 
ATOM     58  F   UNL A   1      43.922  23.064  29.371  1.00  0.00    -0.206 F 
ATOM     59  C   UNL A   1      42.314  21.245  26.699  1.00  0.00     0.060 A 
BRANCH  59  60
ATOM     60  S   UNL A   1      41.628  19.607  26.367  1.00  0.00     0.124 S 
ATOM     61  O   UNL A   1      42.006  18.879  27.573  1.00  0.00    -0.237 OA
ATOM     62  O   UNL A   1      40.206  19.900  26.215  1.00  0.00    -0.237 OA
ATOM     63  O   UNL A   1      42.310  19.199  25.143  1.00  0.00    -0.744 OA
ENDBRANCH  59  60
ENDBRANCH  27  52
BRANCH  39  64
ATOM     64  C   UNL A   1      49.457  27.019  25.945  1.00  0.00     0.058 A 
ATOM     65  C   UNL A   1      49.784  27.185  24.593  1.00  0.00     0.135 A 
ATOM     66  C   UNL A   1      50.404  26.422  26.792  1.00  0.00     0.135 A 
ATOM     67  F   UNL A   1      48.903  27.741  23.745  1.00  0.00    -0.206 F 
ATOM     68  C   UNL A   1      51.006  26.754  24.091  1.00  0.00     0.059 A 
ATOM     69  C   UNL A   1      51.642  26.010  26.318  1.00  0.00     0.059 A 
ATOM     70  F   UNL A   1      50.134  26.250  28.095  1.00  0.00    -0.206 F 
ATOM     71  C   UNL A   1      51.928  26.171  24.963  1.00  0.00     0.060 A 
BRANCH  71  72
ATOM     72  S   UNL A   1      53.527  25.652  24.309  1.00  0.00     0.124 S 
ATOM     73  O   UNL A   1      53.546  24.240  24.673  1.00  0.00    -0.237 OA
ATOM     74  O   UNL A   1      53.390  25.938  22.885  1.00  0.00    -0.237 OA
ATOM     75  O   UNL A   1      54.476  26.500  25.024  1.00  0.00    -0.744 OA
ENDBRANCH  71  72
ENDBRANCH  39  64
ENDBRANCH  13  14
ENDBRANCH   6   8
ENDBRANCH   5   6
ENDBRANCH   4   5
ENDBRANCH   3   4
ENDBRANCH   2   3
ENDBRANCH   1   2
BRANCH   1  76
ATOM     76  C   UNL A   1      35.033  30.778  27.618  1.00  0.00     0.188 C 
BRANCH  76  77
ATOM     77  O   UNL A   1      34.021  29.792  27.427  1.00  0.00    -0.376 OA
BRANCH  77  78
ATOM     78  C   UNL A   1      32.859  30.299  26.792  1.00  0.00     0.202 C 
BRANCH  78  79
ATOM     79  C   UNL A   1      32.504  29.529  25.514  1.00  0.00     0.261 C 
BRANCH  79  80
ATOM     80  O   UNL A   1      32.687  28.112  25.683  1.00  0.00    -0.461 OA
BRANCH  80  81
ATOM     81  C   UNL A   1      33.469  27.494  24.751  1.00  0.00     0.331 C 
ATOM     82  O   UNL A   1      34.173  28.079  23.931  1.00  0.00    -0.249 OA
BRANCH  81  83
ATOM     83  C   UNL A   1      33.274  25.951  24.743  1.00  0.00     0.138 C 
ATOM     84  C   UNL A   1      34.555  25.117  25.017  1.00  0.00     0.040 C 
ATOM     85  C   UNL A   1      32.256  25.758  25.907  1.00  0.00     0.040 C 
ATOM     86  C   UNL A   1      34.304  23.692  25.518  1.00  0.00     0.003 C 
ATOM     87  C   UNL A   1      32.066  24.326  26.398  1.00  0.00     0.003 C 
ATOM     88  C   UNL A   1      33.395  23.677  26.734  1.00  0.00     0.000 C 
BRANCH  83  89
ATOM     89  N   UNL A   1      32.670  25.486  23.451  1.00  0.00    -0.333 N 
ATOM     90  C   UNL A   1      31.944  26.192  22.497  1.00  0.00     0.289 C 
ATOM     91  H   UNL A   1      32.807  24.533  23.247  1.00  0.00     0.165 HD
ATOM     92  O   UNL A   1      32.220  25.934  21.323  1.00  0.00    -0.266 OA
BRANCH  90  93
ATOM     93  C   UNL A   1      30.815  27.037  22.858  1.00  0.00     0.214 A 
ATOM     94  N   UNL A   1      30.625  28.320  22.560  1.00  0.00    -0.207 NA
ATOM     95  N   UNL A   1      29.653  26.557  23.391  1.00  0.00    -0.255 N 
ATOM     96  C   UNL A   1      29.326  28.565  22.971  1.00  0.00     0.154 A 
ATOM     97  N   UNL A   1      28.674  27.475  23.392  1.00  0.00    -0.158 NA
ATOM     98  H   UNL A   1      29.546  25.641  23.737  1.00  0.00     0.192 HD
BRANCH  96  99
ATOM     99  C   UNL A   1      28.587  29.909  22.930  1.00  0.00     0.060 C 
ATOM    100  C   UNL A   1      29.110  31.077  22.121  1.00  0.00     0.012 C 
ATOM    101  C   UNL A   1      27.877  30.364  21.673  1.00  0.00     0.012 C 
ENDBRANCH  96  99
ENDBRANCH  90  93
ENDBRANCH  83  89
ENDBRANCH  81  83
ENDBRANCH  80  81
ENDBRANCH  79  80
ENDBRANCH  78  79
ENDBRANCH  77  78
ENDBRANCH  76  77
ENDBRANCH   1  76
TORSDOF 23
ENDMDL
