MODEL 1
REMARK VINA RESULT:     -10.2      0.000      0.000
REMARK SMILES Cc1cc(OCC(=O)OCCOCCOCCOC(=O)c2ccc(-c3c4nc(c(-c5c(F)cc(S(=O)(=O)[O-])cc5F)c5ccc([nH]5)c(-c5c(F)cc(S(=O)(=O)[O-])cc5F)c5nc(c(-c6c(F)cc(S(=O)(=O)[O-])cc6F)c6ccc3[nH]6)C=C5)C=C4)cc2)ccc1NC(=O)c1ccc(N2C(=O)[C@@H]3[C@H](C2=O)[C@H]2C=C[C@@H]3C2)cc1
REMARK SMILES IDX 13 1 12 2 11 3 10 4 9 5 7 6 8 7 6 8 5 9 4 10 1 11 2 12 3 13
REMARK SMILES IDX 89 14 88 15 87 16 90 17 91 18 92 20 93 21 94 22 110 23 95 24
REMARK SMILES IDX 109 25 96 26 97 27 98 28 102 29 99 30 100 31 101 32 103 33
REMARK SMILES IDX 107 34 104 35 106 36 108 37 105 38 14 39 15 40 16 41 17 42
REMARK SMILES IDX 18 43 19 44 20 45 21 46 22 47 86 48 23 49 85 50 24 51 25 52
REMARK SMILES IDX 26 53 79 54 27 55 84 56 78 57 80 58 28 59 83 60 77 61 76 62
REMARK SMILES IDX 29 64 63 65 42 66 62 67 43 68 46 69 61 70 81 71 44 72 45 73
REMARK SMILES IDX 60 75 82 76 47 77 30 78 31 79 40 80 32 81 33 82 39 83 41 84
REMARK SMILES IDX 34 85 35 86 36 87 37 88 38 89 64 90 65 91 74 92 66 93 67 94
REMARK SMILES IDX 73 95 75 96 68 97 69 98 70 99 71 100 72 101 48 102 49 103
REMARK SMILES IDX 58 104 50 105 51 106 57 107 59 108 52 109 53 110 54 111
REMARK SMILES IDX 55 112 56 113
REMARK H PARENT 90 19 80 63 46 74
REMARK Flexibility Score: inf
ROOT
ATOM      1  C   UNL A   1      33.718  35.202  30.308  1.00  0.00     0.188 C 
ENDROOT
BRANCH   1   2
ATOM      2  O   UNL A   1      33.147  34.976  31.601  1.00  0.00    -0.376 OA
BRANCH   2   3
ATOM      3  C   UNL A   1      33.881  34.763  32.838  1.00  0.00     0.202 C 
BRANCH   3   4
ATOM      4  C   UNL A   1      34.841  33.394  33.418  1.00  0.00     0.261 C 
BRANCH   4   5
ATOM      5  O   UNL A   1      36.390  33.318  34.239  1.00  0.00    -0.461 OA
BRANCH   5   6
ATOM      6  C   UNL A   1      37.423  32.411  34.919  1.00  0.00     0.344 C 
ATOM      7  O   UNL A   1      37.596  32.060  36.100  1.00  0.00    -0.248 OA
BRANCH   6   8
ATOM      8  C   UNL A   1      38.360  31.723  34.038  1.00  0.00     0.351 C 
BRANCH   8   9
ATOM      9  O   UNL A   1      38.487  32.719  33.082  1.00  0.00    -0.482 OA
BRANCH   9  10
ATOM     10  C   UNL A   1      39.483  33.630  33.518  1.00  0.00     0.120 A 
ATOM     11  C   UNL A   1      42.139  34.318  30.275  1.00  0.00     0.047 C 
ATOM     12  C   UNL A   1      41.738  34.591  31.716  1.00  0.00    -0.024 A 
ATOM     13  C   UNL A   1      40.040  34.179  31.907  1.00  0.00     0.052 A 
ATOM     14  C   UNL A   1      42.930  34.577  33.057  1.00  0.00     0.044 A 
ATOM     15  C   UNL A   1      42.513  34.137  34.666  1.00  0.00     0.030 A 
ATOM     16  C   UNL A   1      40.856  33.618  35.012  1.00  0.00     0.048 A 
BRANCH  14  17
ATOM     17  N   UNL A   1      44.316  34.623  32.760  1.00  0.00    -0.322 N 
ATOM     18  C   UNL A   1      45.293  33.621  32.710  1.00  0.00     0.255 C 
ATOM     19  H   UNL A   1      44.653  35.525  32.552  1.00  0.00     0.170 HD
ATOM     20  O   UNL A   1      46.440  33.937  32.375  1.00  0.00    -0.269 OA
BRANCH  18  21
ATOM     21  C   UNL A   1      45.054  32.155  32.948  1.00  0.00     0.040 A 
ATOM     22  C   UNL A   1      44.418  31.358  31.997  1.00  0.00     0.016 A 
ATOM     23  C   UNL A   1      45.356  31.542  34.164  1.00  0.00     0.016 A 
ATOM     24  C   UNL A   1      44.283  29.948  32.182  1.00  0.00     0.027 A 
ATOM     25  C   UNL A   1      45.197  30.132  34.350  1.00  0.00     0.027 A 
ATOM     26  C   UNL A   1      44.744  29.274  33.328  1.00  0.00     0.052 A 
BRANCH  26  27
ATOM     27  N   UNL A   1      44.768  27.810  33.435  1.00  0.00    -0.250 N 
ATOM     28  C   UNL A   1      45.875  27.059  33.816  1.00  0.00     0.238 C 
ATOM     29  C   UNL A   1      43.679  26.981  33.213  1.00  0.00     0.238 C 
ATOM     30  O   UNL A   1      47.001  27.426  34.121  1.00  0.00    -0.274 OA
ATOM     31  C   UNL A   1      45.555  25.577  33.754  1.00  0.00     0.099 C 
ATOM     32  C   UNL A   1      44.086  25.528  33.335  1.00  0.00     0.099 C 
ATOM     33  O   UNL A   1      42.529  27.278  32.910  1.00  0.00    -0.274 OA
ATOM     34  C   UNL A   1      45.576  24.772  35.081  1.00  0.00     0.025 C 
ATOM     35  C   UNL A   1      43.421  24.704  34.463  1.00  0.00     0.025 C 
ATOM     36  C   UNL A   1      45.250  23.328  34.750  1.00  0.00    -0.027 C 
ATOM     37  C   UNL A   1      44.224  25.110  35.697  1.00  0.00     0.017 C 
ATOM     38  C   UNL A   1      43.959  23.286  34.373  1.00  0.00    -0.027 C 
ENDBRANCH  26  27
ENDBRANCH  18  21
ENDBRANCH  14  17
ENDBRANCH   9  10
ENDBRANCH   8   9
ENDBRANCH   6   8
ENDBRANCH   5   6
ENDBRANCH   4   5
ENDBRANCH   3   4
ENDBRANCH   2   3
ENDBRANCH   1   2
BRANCH   1  39
ATOM     39  C   UNL A   1      33.237  34.528  29.024  1.00  0.00     0.188 C 
BRANCH  39  40
ATOM     40  O   UNL A   1      34.122  33.514  28.610  1.00  0.00    -0.376 OA
BRANCH  40  41
ATOM     41  C   UNL A   1      34.595  32.596  29.586  1.00  0.00     0.202 C 
BRANCH  41  42
ATOM     42  C   UNL A   1      35.930  31.830  29.320  1.00  0.00     0.261 C 
BRANCH  42  43
ATOM     43  O   UNL A   1      36.000  31.121  28.042  1.00  0.00    -0.460 OA
BRANCH  43  44
ATOM     44  C   UNL A   1      36.249  29.750  28.052  1.00  0.00     0.338 C 
ATOM     45  O   UNL A   1      35.439  29.035  27.492  1.00  0.00    -0.246 OA
BRANCH  44  46
ATOM     46  C   UNL A   1      37.643  29.407  28.906  1.00  0.00     0.060 A 
ATOM     47  C   UNL A   1      38.576  29.283  30.714  1.00  0.00     0.016 A 
ATOM     48  C   UNL A   1      38.683  29.365  27.503  1.00  0.00     0.016 A 
ATOM     49  C   UNL A   1      40.447  29.129  30.667  1.00  0.00     0.010 A 
ATOM     50  C   UNL A   1      40.346  29.364  27.707  1.00  0.00     0.010 A 
ATOM     51  C   UNL A   1      41.340  29.171  29.106  1.00  0.00    -0.014 A 
BRANCH  51  52
ATOM     52  C   UNL A   1      42.999  29.044  28.491  1.00  0.00     0.031 A 
ATOM     53  C   UNL A   1      44.089  30.271  27.672  1.00  0.00     0.074 A 
ATOM     54  C   UNL A   1      43.708  28.075  29.142  1.00  0.00     0.049 A 
ATOM     55  N   UNL A   1      45.203  30.045  26.997  1.00  0.00    -0.248 NA
ATOM     56  C   UNL A   1      43.991  31.868  27.526  1.00  0.00     0.031 C 
ATOM     57  C   UNL A   1      45.139  28.093  29.481  1.00  0.00     0.029 A 
ATOM     58  N   UNL A   1      43.281  26.860  29.706  1.00  0.00    -0.354 N 
ATOM     59  C   UNL A   1      45.769  31.347  26.733  1.00  0.00     0.074 A 
ATOM     60  C   UNL A   1      44.714  32.225  26.483  1.00  0.00     0.031 C 
ATOM     61  C   UNL A   1      45.509  26.905  29.999  1.00  0.00     0.029 A 
ATOM     62  C   UNL A   1      44.407  26.001  29.745  1.00  0.00     0.049 A 
ATOM     63  H   UNL A   1      42.371  26.646  30.016  1.00  0.00     0.167 HD
ATOM     64  C   UNL A   1      46.965  31.783  27.269  1.00  0.00     0.037 A 
ATOM     65  C   UNL A   1      44.481  24.941  28.883  1.00  0.00     0.037 A 
ATOM     66  C   UNL A   1      47.695  30.611  27.654  1.00  0.00     0.049 A 
ATOM     67  C   UNL A   1      45.574  25.145  27.849  1.00  0.00     0.074 A 
ATOM     68  C   UNL A   1      48.204  30.064  28.809  1.00  0.00     0.029 A 
ATOM     69  N   UNL A   1      47.701  29.615  26.706  1.00  0.00    -0.354 N 
ATOM     70  N   UNL A   1      46.116  26.312  27.610  1.00  0.00    -0.248 NA
ATOM     71  C   UNL A   1      46.233  24.088  27.088  1.00  0.00     0.031 C 
ATOM     72  C   UNL A   1      48.366  28.658  28.551  1.00  0.00     0.029 A 
ATOM     73  C   UNL A   1      47.991  28.394  27.239  1.00  0.00     0.049 A 
ATOM     74  H   UNL A   1      47.516  29.766  25.751  1.00  0.00     0.167 HD
ATOM     75  C   UNL A   1      47.145  26.198  26.731  1.00  0.00     0.074 A 
ATOM     76  C   UNL A   1      47.172  24.784  26.417  1.00  0.00     0.031 C 
ATOM     77  C   UNL A   1      47.892  27.264  26.324  1.00  0.00     0.037 A 
BRANCH  64  78
ATOM     78  C   UNL A   1      47.434  33.249  27.547  1.00  0.00     0.058 A 
ATOM     79  C   UNL A   1      48.597  33.721  26.899  1.00  0.00     0.135 A 
ATOM     80  C   UNL A   1      46.874  34.217  28.438  1.00  0.00     0.135 A 
ATOM     81  F   UNL A   1      49.288  32.919  26.078  1.00  0.00    -0.206 F 
ATOM     82  C   UNL A   1      49.118  35.020  27.062  1.00  0.00     0.059 A 
ATOM     83  C   UNL A   1      47.348  35.540  28.576  1.00  0.00     0.059 A 
ATOM     84  F   UNL A   1      45.879  33.928  29.287  1.00  0.00    -0.206 F 
ATOM     85  C   UNL A   1      48.474  35.938  27.881  1.00  0.00     0.060 A 
BRANCH  85  86
ATOM     86  S   UNL A   1      49.129  37.620  28.026  1.00  0.00     0.124 S 
ATOM     87  O   UNL A   1      49.739  37.824  26.716  1.00  0.00    -0.237 OA
ATOM     88  O   UNL A   1      47.923  38.399  28.292  1.00  0.00    -0.237 OA
ATOM     89  O   UNL A   1      50.067  37.531  29.141  1.00  0.00    -0.744 OA
ENDBRANCH  85  86
ENDBRANCH  64  78
BRANCH  65  90
ATOM     90  C   UNL A   1      43.147  24.270  28.764  1.00  0.00     0.058 A 
ATOM     91  C   UNL A   1      42.464  24.487  27.544  1.00  0.00     0.135 A 
ATOM     92  C   UNL A   1      42.901  23.054  29.427  1.00  0.00     0.135 A 
ATOM     93  F   UNL A   1      42.669  25.622  26.854  1.00  0.00    -0.206 F 
ATOM     94  C   UNL A   1      41.737  23.478  26.920  1.00  0.00     0.059 A 
ATOM     95  C   UNL A   1      42.181  22.021  28.811  1.00  0.00     0.059 A 
ATOM     96  F   UNL A   1      43.524  22.782  30.583  1.00  0.00    -0.206 F 
ATOM     97  C   UNL A   1      41.653  22.229  27.538  1.00  0.00     0.060 A 
BRANCH  97  98
ATOM     98  S   UNL A   1      41.129  20.843  26.510  1.00  0.00     0.124 S 
ATOM     99  O   UNL A   1      39.860  21.303  25.962  1.00  0.00    -0.237 OA
ATOM    100  O   UNL A   1      42.238  20.793  25.565  1.00  0.00    -0.237 OA
ATOM    101  O   UNL A   1      41.046  19.718  27.434  1.00  0.00    -0.744 OA
ENDBRANCH  97  98
ENDBRANCH  65  90
BRANCH  77 102
ATOM    102  C   UNL A   1      48.509  27.370  24.935  1.00  0.00     0.058 A 
ATOM    103  C   UNL A   1      49.871  27.142  24.675  1.00  0.00     0.135 A 
ATOM    104  C   UNL A   1      47.699  27.520  23.774  1.00  0.00     0.135 A 
ATOM    105  F   UNL A   1      50.734  26.812  25.644  1.00  0.00    -0.206 F 
ATOM    106  C   UNL A   1      50.409  27.221  23.394  1.00  0.00     0.059 A 
ATOM    107  C   UNL A   1      48.200  27.476  22.480  1.00  0.00     0.059 A 
ATOM    108  F   UNL A   1      46.373  27.705  23.841  1.00  0.00    -0.206 F 
ATOM    109  C   UNL A   1      49.567  27.409  22.307  1.00  0.00     0.060 A 
BRANCH 109 110
ATOM    110  S   UNL A   1      50.269  27.647  20.673  1.00  0.00     0.124 S 
ATOM    111  O   UNL A   1      51.403  26.729  20.724  1.00  0.00    -0.237 OA
ATOM    112  O   UNL A   1      49.175  27.253  19.791  1.00  0.00    -0.237 OA
ATOM    113  O   UNL A   1      50.607  29.067  20.651  1.00  0.00    -0.744 OA
ENDBRANCH 109 110
ENDBRANCH  77 102
ENDBRANCH  51  52
ENDBRANCH  44  46
ENDBRANCH  43  44
ENDBRANCH  42  43
ENDBRANCH  41  42
ENDBRANCH  40  41
ENDBRANCH  39  40
ENDBRANCH   1  39
TORSDOF 25
ENDMDL
MODEL 2
REMARK VINA RESULT:      -8.4      4.882     11.708
REMARK SMILES Cc1cc(OCC(=O)OCCOCCOCCOC(=O)c2ccc(-c3c4nc(c(-c5c(F)cc(S(=O)(=O)[O-])cc5F)c5ccc([nH]5)c(-c5c(F)cc(S(=O)(=O)[O-])cc5F)c5nc(c(-c6c(F)cc(S(=O)(=O)[O-])cc6F)c6ccc3[nH]6)C=C5)C=C4)cc2)ccc1NC(=O)c1ccc(N2C(=O)[C@@H]3[C@H](C2=O)[C@H]2C=C[C@@H]3C2)cc1
REMARK SMILES IDX 13 1 12 2 11 3 10 4 9 5 7 6 8 7 6 8 5 9 4 10 1 11 2 12 3 13
REMARK SMILES IDX 89 14 88 15 87 16 90 17 91 18 92 20 93 21 94 22 110 23 95 24
REMARK SMILES IDX 109 25 96 26 97 27 98 28 102 29 99 30 100 31 101 32 103 33
REMARK SMILES IDX 107 34 104 35 106 36 108 37 105 38 14 39 15 40 16 41 17 42
REMARK SMILES IDX 18 43 19 44 20 45 21 46 22 47 86 48 23 49 85 50 24 51 25 52
REMARK SMILES IDX 26 53 79 54 27 55 84 56 78 57 80 58 28 59 83 60 77 61 76 62
REMARK SMILES IDX 29 64 63 65 42 66 62 67 43 68 46 69 61 70 81 71 44 72 45 73
REMARK SMILES IDX 60 75 82 76 47 77 30 78 31 79 40 80 32 81 33 82 39 83 41 84
REMARK SMILES IDX 34 85 35 86 36 87 37 88 38 89 64 90 65 91 74 92 66 93 67 94
REMARK SMILES IDX 73 95 75 96 68 97 69 98 70 99 71 100 72 101 48 102 49 103
REMARK SMILES IDX 58 104 50 105 51 106 57 107 59 108 52 109 53 110 54 111
REMARK SMILES IDX 55 112 56 113
REMARK H PARENT 90 19 80 63 46 74
REMARK Flexibility Score: inf
ROOT
ATOM      1  C   UNL A   1      34.346  34.226  30.096  1.00  0.00     0.188 C 
ENDROOT
BRANCH   1   2
ATOM      2  O   UNL A   1      35.622  34.160  29.452  1.00  0.00    -0.376 OA
BRANCH   2   3
ATOM      3  C   UNL A   1      35.941  33.398  28.255  1.00  0.00     0.202 C 
BRANCH   3   4
ATOM      4  C   UNL A   1      36.300  31.683  28.010  1.00  0.00     0.261 C 
BRANCH   4   5
ATOM      5  O   UNL A   1      35.299  30.347  27.468  1.00  0.00    -0.461 OA
BRANCH   5   6
ATOM      6  C   UNL A   1      33.926  29.927  26.930  1.00  0.00     0.344 C 
ATOM      7  O   UNL A   1      32.761  30.181  27.286  1.00  0.00    -0.248 OA
BRANCH   6   8
ATOM      8  C   UNL A   1      33.925  29.145  25.699  1.00  0.00     0.351 C 
BRANCH   8   9
ATOM      9  O   UNL A   1      32.877  28.294  26.016  1.00  0.00    -0.482 OA
BRANCH   9  10
ATOM     10  C   UNL A   1      32.441  27.661  24.823  1.00  0.00     0.120 A 
ATOM     11  C   UNL A   1      30.843  23.865  25.865  1.00  0.00     0.047 C 
ATOM     12  C   UNL A   1      31.178  24.894  24.796  1.00  0.00    -0.024 A 
ATOM     13  C   UNL A   1      31.335  26.465  25.568  1.00  0.00     0.052 A 
ATOM     14  C   UNL A   1      31.992  24.444  23.261  1.00  0.00     0.044 A 
ATOM     15  C   UNL A   1      33.024  25.522  22.407  1.00  0.00     0.030 A 
ATOM     16  C   UNL A   1      33.351  27.121  23.093  1.00  0.00     0.048 A 
BRANCH  14  17
ATOM     17  N   UNL A   1      32.054  23.080  22.877  1.00  0.00    -0.322 N 
ATOM     18  C   UNL A   1      33.025  22.094  23.097  1.00  0.00     0.255 C 
ATOM     19  H   UNL A   1      31.274  22.771  22.362  1.00  0.00     0.170 HD
ATOM     20  O   UNL A   1      32.803  20.951  22.680  1.00  0.00    -0.269 OA
BRANCH  18  21
ATOM     21  C   UNL A   1      34.296  22.277  23.879  1.00  0.00     0.040 A 
ATOM     22  C   UNL A   1      34.397  21.871  25.208  1.00  0.00     0.016 A 
ATOM     23  C   UNL A   1      35.398  22.955  23.356  1.00  0.00     0.016 A 
ATOM     24  C   UNL A   1      35.634  21.953  25.918  1.00  0.00     0.027 A 
ATOM     25  C   UNL A   1      36.627  23.053  24.081  1.00  0.00     0.027 A 
ATOM     26  C   UNL A   1      36.814  22.470  25.350  1.00  0.00     0.052 A 
BRANCH  26  27
ATOM     27  N   UNL A   1      38.120  22.386  26.015  1.00  0.00    -0.250 N 
ATOM     28  C   UNL A   1      38.961  21.279  25.979  1.00  0.00     0.238 C 
ATOM     29  C   UNL A   1      38.711  23.415  26.734  1.00  0.00     0.238 C 
ATOM     30  O   UNL A   1      38.808  20.200  25.425  1.00  0.00    -0.274 OA
ATOM     31  C   UNL A   1      40.195  21.524  26.828  1.00  0.00     0.099 C 
ATOM     32  C   UNL A   1      40.016  22.951  27.346  1.00  0.00     0.099 C 
ATOM     33  O   UNL A   1      38.297  24.549  26.944  1.00  0.00    -0.274 OA
ATOM     34  C   UNL A   1      41.572  21.571  26.115  1.00  0.00     0.025 C 
ATOM     35  C   UNL A   1      41.305  23.665  26.874  1.00  0.00     0.025 C 
ATOM     36  C   UNL A   1      42.633  21.802  27.175  1.00  0.00    -0.027 C 
ATOM     37  C   UNL A   1      41.601  22.983  25.540  1.00  0.00     0.017 C 
ATOM     38  C   UNL A   1      42.470  23.056  27.635  1.00  0.00    -0.027 C 
ENDBRANCH  26  27
ENDBRANCH  18  21
ENDBRANCH  14  17
ENDBRANCH   9  10
ENDBRANCH   8   9
ENDBRANCH   6   8
ENDBRANCH   5   6
ENDBRANCH   4   5
ENDBRANCH   3   4
ENDBRANCH   2   3
ENDBRANCH   1   2
BRANCH   1  39
ATOM     39  C   UNL A   1      33.280  35.278  29.792  1.00  0.00     0.188 C 
BRANCH  39  40
ATOM     40  O   UNL A   1      32.940  36.017  30.942  1.00  0.00    -0.376 OA
BRANCH  40  41
ATOM     41  C   UNL A   1      33.985  36.411  31.820  1.00  0.00     0.202 C 
BRANCH  41  42
ATOM     42  C   UNL A   1      33.908  35.994  33.323  1.00  0.00     0.261 C 
BRANCH  42  43
ATOM     43  O   UNL A   1      35.152  35.472  33.891  1.00  0.00    -0.460 OA
BRANCH  43  44
ATOM     44  C   UNL A   1      35.298  34.092  34.021  1.00  0.00     0.338 C 
ATOM     45  O   UNL A   1      34.479  33.392  33.452  1.00  0.00    -0.246 OA
BRANCH  44  46
ATOM     46  C   UNL A   1      36.597  33.722  35.003  1.00  0.00     0.060 A 
ATOM     47  C   UNL A   1      37.620  34.089  36.727  1.00  0.00     0.016 A 
ATOM     48  C   UNL A   1      37.433  32.763  33.806  1.00  0.00     0.016 A 
ATOM     49  C   UNL A   1      39.341  33.346  36.838  1.00  0.00     0.010 A 
ATOM     50  C   UNL A   1      39.029  32.322  34.068  1.00  0.00     0.010 A 
ATOM     51  C   UNL A   1      40.048  32.438  35.457  1.00  0.00    -0.014 A 
BRANCH  51  52
ATOM     52  C   UNL A   1      41.521  31.544  35.035  1.00  0.00     0.031 A 
ATOM     53  C   UNL A   1      41.841  30.258  33.766  1.00  0.00     0.074 A 
ATOM     54  C   UNL A   1      42.648  32.243  35.358  1.00  0.00     0.049 A 
ATOM     55  N   UNL A   1      42.877  29.441  33.681  1.00  0.00    -0.248 NA
ATOM     56  C   UNL A   1      40.992  29.768  32.493  1.00  0.00     0.031 C 
ATOM     57  C   UNL A   1      43.923  32.270  34.624  1.00  0.00     0.029 A 
ATOM     58  N   UNL A   1      42.887  33.150  36.407  1.00  0.00    -0.354 N 
ATOM     59  C   UNL A   1      42.742  28.772  32.409  1.00  0.00     0.074 A 
ATOM     60  C   UNL A   1      41.382  28.546  32.191  1.00  0.00     0.031 C 
ATOM     61  C   UNL A   1      44.846  32.963  35.320  1.00  0.00     0.029 A 
ATOM     62  C   UNL A   1      44.285  33.156  36.640  1.00  0.00     0.049 A 
ATOM     63  H   UNL A   1      42.210  33.679  36.889  1.00  0.00     0.167 HD
ATOM     64  C   UNL A   1      43.627  28.938  31.361  1.00  0.00     0.037 A 
ATOM     65  C   UNL A   1      44.785  32.568  37.769  1.00  0.00     0.037 A 
ATOM     66  C   UNL A   1      44.849  29.427  31.928  1.00  0.00     0.049 A 
ATOM     67  C   UNL A   1      45.575  31.314  37.435  1.00  0.00     0.074 A 
ATOM     68  C   UNL A   1      45.639  30.548  31.828  1.00  0.00     0.029 A 
ATOM     69  N   UNL A   1      45.254  28.755  33.058  1.00  0.00    -0.354 N 
ATOM     70  N   UNL A   1      45.483  30.705  36.280  1.00  0.00    -0.248 NA
ATOM     71  C   UNL A   1      46.596  30.701  38.278  1.00  0.00     0.031 C 
ATOM     72  C   UNL A   1      46.425  30.597  33.031  1.00  0.00     0.029 A 
ATOM     73  C   UNL A   1      46.123  29.486  33.812  1.00  0.00     0.049 A 
ATOM     74  H   UNL A   1      44.950  27.850  33.295  1.00  0.00     0.167 HD
ATOM     75  C   UNL A   1      46.377  29.686  36.198  1.00  0.00     0.074 A 
ATOM     76  C   UNL A   1      47.044  29.710  37.483  1.00  0.00     0.031 C 
ATOM     77  C   UNL A   1      46.502  28.899  35.091  1.00  0.00     0.037 A 
BRANCH  64  78
ATOM     78  C   UNL A   1      43.369  28.765  29.828  1.00  0.00     0.058 A 
ATOM     79  C   UNL A   1      43.318  27.458  29.293  1.00  0.00     0.135 A 
ATOM     80  C   UNL A   1      43.222  29.772  28.824  1.00  0.00     0.135 A 
ATOM     81  F   UNL A   1      43.505  26.395  30.086  1.00  0.00    -0.206 F 
ATOM     82  C   UNL A   1      43.090  27.172  27.933  1.00  0.00     0.059 A 
ATOM     83  C   UNL A   1      42.938  29.508  27.467  1.00  0.00     0.059 A 
ATOM     84  F   UNL A   1      43.415  31.075  29.073  1.00  0.00    -0.206 F 
ATOM     85  C   UNL A   1      42.871  28.200  27.025  1.00  0.00     0.060 A 
BRANCH  85  86
ATOM     86  S   UNL A   1      42.518  27.804  25.294  1.00  0.00     0.124 S 
ATOM     87  O   UNL A   1      41.641  26.643  25.419  1.00  0.00    -0.237 OA
ATOM     88  O   UNL A   1      41.883  29.030  24.819  1.00  0.00    -0.237 OA
ATOM     89  O   UNL A   1      43.835  27.529  24.726  1.00  0.00    -0.744 OA
ENDBRANCH  85  86
ENDBRANCH  64  78
BRANCH  65  90
ATOM     90  C   UNL A   1      43.920  32.882  38.951  1.00  0.00     0.058 A 
ATOM     91  C   UNL A   1      44.229  34.086  39.629  1.00  0.00     0.135 A 
ATOM     92  C   UNL A   1      42.581  32.455  38.986  1.00  0.00     0.135 A 
ATOM     93  F   UNL A   1      45.489  34.555  39.619  1.00  0.00    -0.206 F 
ATOM     94  C   UNL A   1      43.238  34.917  40.138  1.00  0.00     0.059 A 
ATOM     95  C   UNL A   1      41.565  33.282  39.484  1.00  0.00     0.059 A 
ATOM     96  F   UNL A   1      42.220  31.327  38.356  1.00  0.00    -0.206 F 
ATOM     97  C   UNL A   1      41.902  34.530  40.006  1.00  0.00     0.060 A 
BRANCH  97  98
ATOM     98  S   UNL A   1      40.655  35.811  40.236  1.00  0.00     0.124 S 
ATOM     99  O   UNL A   1      40.309  35.684  41.645  1.00  0.00    -0.237 OA
ATOM    100  O   UNL A   1      41.435  36.993  39.886  1.00  0.00    -0.237 OA
ATOM    101  O   UNL A   1      39.599  35.461  39.293  1.00  0.00    -0.744 OA
ENDBRANCH  97  98
ENDBRANCH  65  90
BRANCH  77 102
ATOM    102  C   UNL A   1      46.892  27.428  35.152  1.00  0.00     0.058 A 
ATOM    103  C   UNL A   1      46.049  26.424  35.656  1.00  0.00     0.135 A 
ATOM    104  C   UNL A   1      48.074  26.948  34.519  1.00  0.00     0.135 A 
ATOM    105  F   UNL A   1      44.824  26.695  36.125  1.00  0.00    -0.206 F 
ATOM    106  C   UNL A   1      46.417  25.082  35.680  1.00  0.00     0.059 A 
ATOM    107  C   UNL A   1      48.398  25.602  34.422  1.00  0.00     0.059 A 
ATOM    108  F   UNL A   1      48.969  27.769  33.951  1.00  0.00    -0.206 F 
ATOM    109  C   UNL A   1      47.604  24.686  35.079  1.00  0.00     0.060 A 
BRANCH 109 110
ATOM    110  S   UNL A   1      48.146  22.982  35.227  1.00  0.00     0.124 S 
ATOM    111  O   UNL A   1      46.925  22.271  34.859  1.00  0.00    -0.237 OA
ATOM    112  O   UNL A   1      49.238  22.906  34.262  1.00  0.00    -0.237 OA
ATOM    113  O   UNL A   1      48.543  22.872  36.628  1.00  0.00    -0.744 OA
ENDBRANCH 109 110
ENDBRANCH  77 102
ENDBRANCH  51  52
ENDBRANCH  44  46
ENDBRANCH  43  44
ENDBRANCH  42  43
ENDBRANCH  41  42
ENDBRANCH  40  41
ENDBRANCH  39  40
ENDBRANCH   1  39
TORSDOF 25
ENDMDL
MODEL 3
REMARK VINA RESULT:      -8.2      5.041     10.867
REMARK SMILES Cc1cc(OCC(=O)OCCOCCOCCOC(=O)c2ccc(-c3c4nc(c(-c5c(F)cc(S(=O)(=O)[O-])cc5F)c5ccc([nH]5)c(-c5c(F)cc(S(=O)(=O)[O-])cc5F)c5nc(c(-c6c(F)cc(S(=O)(=O)[O-])cc6F)c6ccc3[nH]6)C=C5)C=C4)cc2)ccc1NC(=O)c1ccc(N2C(=O)[C@@H]3[C@H](C2=O)[C@H]2C=C[C@@H]3C2)cc1
REMARK SMILES IDX 13 1 12 2 11 3 10 4 9 5 7 6 8 7 6 8 5 9 4 10 1 11 2 12 3 13
REMARK SMILES IDX 89 14 88 15 87 16 90 17 91 18 92 20 93 21 94 22 110 23 95 24
REMARK SMILES IDX 109 25 96 26 97 27 98 28 102 29 99 30 100 31 101 32 103 33
REMARK SMILES IDX 107 34 104 35 106 36 108 37 105 38 14 39 15 40 16 41 17 42
REMARK SMILES IDX 18 43 19 44 20 45 21 46 22 47 86 48 23 49 85 50 24 51 25 52
REMARK SMILES IDX 26 53 79 54 27 55 84 56 78 57 80 58 28 59 83 60 77 61 76 62
REMARK SMILES IDX 29 64 63 65 42 66 62 67 43 68 46 69 61 70 81 71 44 72 45 73
REMARK SMILES IDX 60 75 82 76 47 77 30 78 31 79 40 80 32 81 33 82 39 83 41 84
REMARK SMILES IDX 34 85 35 86 36 87 37 88 38 89 64 90 65 91 74 92 66 93 67 94
REMARK SMILES IDX 73 95 75 96 68 97 69 98 70 99 71 100 72 101 48 102 49 103
REMARK SMILES IDX 58 104 50 105 51 106 57 107 59 108 52 109 53 110 54 111
REMARK SMILES IDX 55 112 56 113
REMARK H PARENT 90 19 80 63 46 74
REMARK Flexibility Score: inf
ROOT
ATOM      1  C   UNL A   1      48.130  28.878  40.142  1.00  0.00     0.188 C 
ENDROOT
BRANCH   1   2
ATOM      2  O   UNL A   1      46.927  28.123  40.323  1.00  0.00    -0.376 OA
BRANCH   2   3
ATOM      3  C   UNL A   1      45.992  27.736  39.279  1.00  0.00     0.202 C 
BRANCH   3   4
ATOM      4  C   UNL A   1      45.058  28.692  38.119  1.00  0.00     0.261 C 
BRANCH   4   5
ATOM      5  O   UNL A   1      43.814  28.240  36.967  1.00  0.00    -0.461 OA
BRANCH   5   6
ATOM      6  C   UNL A   1      42.686  27.254  36.640  1.00  0.00     0.344 C 
ATOM      7  O   UNL A   1      41.697  26.854  37.280  1.00  0.00    -0.248 OA
BRANCH   6   8
ATOM      8  C   UNL A   1      42.669  26.716  35.284  1.00  0.00     0.351 C 
BRANCH   8   9
ATOM      9  O   UNL A   1      44.038  26.566  35.123  1.00  0.00    -0.482 OA
BRANCH   9  10
ATOM     10  C   UNL A   1      44.401  25.271  35.575  1.00  0.00     0.120 A 
ATOM     11  C   UNL A   1      48.609  24.868  35.153  1.00  0.00     0.047 C 
ATOM     12  C   UNL A   1      47.273  24.270  35.569  1.00  0.00    -0.024 A 
ATOM     13  C   UNL A   1      46.142  25.584  35.854  1.00  0.00     0.052 A 
ATOM     14  C   UNL A   1      46.783  22.610  35.097  1.00  0.00     0.044 A 
ATOM     15  C   UNL A   1      45.141  22.156  34.865  1.00  0.00     0.030 A 
ATOM     16  C   UNL A   1      43.879  23.386  35.036  1.00  0.00     0.048 A 
BRANCH  14  17
ATOM     17  N   UNL A   1      47.758  21.709  34.598  1.00  0.00    -0.322 N 
ATOM     18  C   UNL A   1      48.383  20.597  35.176  1.00  0.00     0.255 C 
ATOM     19  H   UNL A   1      48.050  21.901  33.677  1.00  0.00     0.170 HD
ATOM     20  O   UNL A   1      49.181  19.950  34.489  1.00  0.00    -0.269 OA
BRANCH  18  21
ATOM     21  C   UNL A   1      48.107  20.056  36.552  1.00  0.00     0.040 A 
ATOM     22  C   UNL A   1      46.811  19.760  36.970  1.00  0.00     0.016 A 
ATOM     23  C   UNL A   1      49.110  19.925  37.513  1.00  0.00     0.016 A 
ATOM     24  C   UNL A   1      46.561  19.152  38.239  1.00  0.00     0.027 A 
ATOM     25  C   UNL A   1      48.848  19.336  38.790  1.00  0.00     0.027 A 
ATOM     26  C   UNL A   1      47.580  18.843  39.158  1.00  0.00     0.052 A 
BRANCH  26  27
ATOM     27  N   UNL A   1      47.343  18.058  40.376  1.00  0.00    -0.250 N 
ATOM     28  C   UNL A   1      47.859  18.362  41.631  1.00  0.00     0.238 C 
ATOM     29  C   UNL A   1      46.538  16.931  40.449  1.00  0.00     0.238 C 
ATOM     30  O   UNL A   1      48.580  19.288  41.975  1.00  0.00    -0.274 OA
ATOM     31  C   UNL A   1      47.460  17.300  42.639  1.00  0.00     0.099 C 
ATOM     32  C   UNL A   1      46.588  16.334  41.839  1.00  0.00     0.099 C 
ATOM     33  O   UNL A   1      45.882  16.390  39.566  1.00  0.00    -0.274 OA
ATOM     34  C   UNL A   1      46.542  17.722  43.816  1.00  0.00     0.025 C 
ATOM     35  C   UNL A   1      45.264  16.305  42.639  1.00  0.00     0.025 C 
ATOM     36  C   UNL A   1      46.313  16.499  44.684  1.00  0.00    -0.027 C 
ATOM     37  C   UNL A   1      45.160  17.731  43.174  1.00  0.00     0.017 C 
ATOM     38  C   UNL A   1      45.551  15.645  43.977  1.00  0.00    -0.027 C 
ENDBRANCH  26  27
ENDBRANCH  18  21
ENDBRANCH  14  17
ENDBRANCH   9  10
ENDBRANCH   8   9
ENDBRANCH   6   8
ENDBRANCH   5   6
ENDBRANCH   4   5
ENDBRANCH   3   4
ENDBRANCH   2   3
ENDBRANCH   1   2
BRANCH   1  39
ATOM     39  C   UNL A   1      48.313  29.968  39.087  1.00  0.00     0.188 C 
BRANCH  39  40
ATOM     40  O   UNL A   1      47.938  31.233  39.580  1.00  0.00    -0.376 OA
BRANCH  40  41
ATOM     41  C   UNL A   1      46.564  31.589  39.539  1.00  0.00     0.202 C 
BRANCH  41  42
ATOM     42  C   UNL A   1      45.985  32.226  38.236  1.00  0.00     0.261 C 
BRANCH  42  43
ATOM     43  O   UNL A   1      46.781  33.315  37.667  1.00  0.00    -0.460 OA
BRANCH  43  44
ATOM     44  C   UNL A   1      47.026  33.316  36.296  1.00  0.00     0.338 C 
ATOM     45  O   UNL A   1      47.067  34.399  35.741  1.00  0.00    -0.246 OA
BRANCH  44  46
ATOM     46  C   UNL A   1      47.169  31.756  35.717  1.00  0.00     0.060 A 
ATOM     47  C   UNL A   1      48.215  30.007  35.700  1.00  0.00     0.016 A 
ATOM     48  C   UNL A   1      45.972  31.944  34.458  1.00  0.00     0.016 A 
ATOM     49  C   UNL A   1      47.768  28.792  34.340  1.00  0.00     0.010 A 
ATOM     50  C   UNL A   1      45.842  30.778  33.261  1.00  0.00     0.010 A 
ATOM     51  C   UNL A   1      46.541  29.208  33.094  1.00  0.00    -0.014 A 
BRANCH  51  52
ATOM     52  C   UNL A   1      45.743  28.486  31.684  1.00  0.00     0.031 A 
ATOM     53  C   UNL A   1      43.969  28.256  31.275  1.00  0.00     0.074 A 
ATOM     54  C   UNL A   1      46.526  28.557  30.567  1.00  0.00     0.049 A 
ATOM     55  N   UNL A   1      43.444  27.474  30.348  1.00  0.00    -0.248 NA
ATOM     56  C   UNL A   1      42.631  28.879  31.910  1.00  0.00     0.031 C 
ATOM     57  C   UNL A   1      46.083  28.761  29.179  1.00  0.00     0.029 A 
ATOM     58  N   UNL A   1      47.925  28.520  30.433  1.00  0.00    -0.354 N 
ATOM     59  C   UNL A   1      42.039  27.807  30.309  1.00  0.00     0.074 A 
ATOM     60  C   UNL A   1      41.630  28.072  31.616  1.00  0.00     0.031 C 
ATOM     61  C   UNL A   1      47.127  28.637  28.335  1.00  0.00     0.029 A 
ATOM     62  C   UNL A   1      48.206  28.072  29.118  1.00  0.00     0.049 A 
ATOM     63  H   UNL A   1      48.586  28.759  31.124  1.00  0.00     0.167 HD
ATOM     64  C   UNL A   1      41.424  28.397  29.222  1.00  0.00     0.037 A 
ATOM     65  C   UNL A   1      48.704  26.813  28.923  1.00  0.00     0.037 A 
ATOM     66  C   UNL A   1      42.259  28.137  28.085  1.00  0.00     0.049 A 
ATOM     67  C   UNL A   1      47.686  25.916  28.239  1.00  0.00     0.074 A 
ATOM     68  C   UNL A   1      42.976  28.864  27.164  1.00  0.00     0.029 A 
ATOM     69  N   UNL A   1      42.696  26.836  27.993  1.00  0.00    -0.354 N 
ATOM     70  N   UNL A   1      46.413  26.210  28.173  1.00  0.00    -0.248 NA
ATOM     71  C   UNL A   1      47.992  24.706  27.484  1.00  0.00     0.031 C 
ATOM     72  C   UNL A   1      43.968  27.970  26.630  1.00  0.00     0.029 A 
ATOM     73  C   UNL A   1      43.804  26.717  27.209  1.00  0.00     0.049 A 
ATOM     74  H   UNL A   1      42.259  26.078  28.444  1.00  0.00     0.167 HD
ATOM     75  C   UNL A   1      45.747  25.307  27.408  1.00  0.00     0.074 A 
ATOM     76  C   UNL A   1      46.776  24.370  27.009  1.00  0.00     0.031 C 
ATOM     77  C   UNL A   1      44.408  25.391  27.163  1.00  0.00     0.037 A 
BRANCH  64  78
ATOM     78  C   UNL A   1      40.141  29.290  29.191  1.00  0.00     0.058 A 
ATOM     79  C   UNL A   1      38.979  28.785  28.565  1.00  0.00     0.135 A 
ATOM     80  C   UNL A   1      39.965  30.624  29.675  1.00  0.00     0.135 A 
ATOM     81  F   UNL A   1      38.990  27.573  27.996  1.00  0.00    -0.206 F 
ATOM     82  C   UNL A   1      37.763  29.490  28.475  1.00  0.00     0.059 A 
ATOM     83  C   UNL A   1      38.741  31.327  29.644  1.00  0.00     0.059 A 
ATOM     84  F   UNL A   1      40.980  31.364  30.141  1.00  0.00    -0.206 F 
ATOM     85  C   UNL A   1      37.638  30.751  29.042  1.00  0.00     0.060 A 
BRANCH  85  86
ATOM     86  S   UNL A   1      36.045  31.610  28.969  1.00  0.00     0.124 S 
ATOM     87  O   UNL A   1      35.890  32.084  30.341  1.00  0.00    -0.237 OA
ATOM     88  O   UNL A   1      36.295  32.640  27.966  1.00  0.00    -0.237 OA
ATOM     89  O   UNL A   1      35.108  30.566  28.563  1.00  0.00    -0.744 OA
ENDBRANCH  85  86
ENDBRANCH  64  78
BRANCH  65  90
ATOM     90  C   UNL A   1      49.736  26.492  29.960  1.00  0.00     0.058 A 
ATOM     91  C   UNL A   1      50.971  27.168  29.819  1.00  0.00     0.135 A 
ATOM     92  C   UNL A   1      49.347  26.136  31.264  1.00  0.00     0.135 A 
ATOM     93  F   UNL A   1      51.391  27.549  28.600  1.00  0.00    -0.206 F 
ATOM     94  C   UNL A   1      51.680  27.638  30.919  1.00  0.00     0.059 A 
ATOM     95  C   UNL A   1      50.041  26.609  32.386  1.00  0.00     0.059 A 
ATOM     96  F   UNL A   1      48.183  25.502  31.468  1.00  0.00    -0.206 F 
ATOM     97  C   UNL A   1      51.171  27.403  32.198  1.00  0.00     0.060 A 
BRANCH  97  98
ATOM     98  S   UNL A   1      51.836  28.409  33.539  1.00  0.00     0.124 S 
ATOM     99  O   UNL A   1      51.036  29.623  33.466  1.00  0.00    -0.237 OA
ATOM    100  O   UNL A   1      51.554  27.539  34.674  1.00  0.00    -0.237 OA
ATOM    101  O   UNL A   1      53.248  28.564  33.209  1.00  0.00    -0.744 OA
ENDBRANCH  97  98
ENDBRANCH  65  90
BRANCH  77 102
ATOM    102  C   UNL A   1      43.516  24.170  26.969  1.00  0.00     0.058 A 
ATOM    103  C   UNL A   1      42.889  23.856  25.752  1.00  0.00     0.135 A 
ATOM    104  C   UNL A   1      43.416  23.160  27.967  1.00  0.00     0.135 A 
ATOM    105  F   UNL A   1      43.035  24.618  24.660  1.00  0.00    -0.206 F 
ATOM    106  C   UNL A   1      42.098  22.722  25.591  1.00  0.00     0.059 A 
ATOM    107  C   UNL A   1      42.736  21.965  27.782  1.00  0.00     0.059 A 
ATOM    108  F   UNL A   1      43.989  23.282  29.174  1.00  0.00    -0.206 F 
ATOM    109  C   UNL A   1      42.011  21.795  26.620  1.00  0.00     0.060 A 
BRANCH 109 110
ATOM    110  S   UNL A   1      40.887  20.405  26.467  1.00  0.00     0.124 S 
ATOM    111  O   UNL A   1      39.692  21.071  25.959  1.00  0.00    -0.237 OA
ATOM    112  O   UNL A   1      41.577  19.534  25.520  1.00  0.00    -0.237 OA
ATOM    113  O   UNL A   1      40.794  19.892  27.831  1.00  0.00    -0.744 OA
ENDBRANCH 109 110
ENDBRANCH  77 102
ENDBRANCH  51  52
ENDBRANCH  44  46
ENDBRANCH  43  44
ENDBRANCH  42  43
ENDBRANCH  41  42
ENDBRANCH  40  41
ENDBRANCH  39  40
ENDBRANCH   1  39
TORSDOF 25
ENDMDL
