MODEL 1
REMARK VINA RESULT:     -10.1      0.000      0.000
REMARK SMILES C[C@@H](C(=O)OCCOCCOCCOC(=O)c1ccc(-c2c3nc(c(-c4c(F)cc(S(=O)(=O)[O-])cc4F)c4ccc([nH]4)c(-c4c(F)cc(S(=O)(=O)[O-])cc4F)c4nc(c(-c5c(F)cc(S(=O)(=O)[O-])cc5F)c5ccc2[nH]5)C=C4)C=C3)cc1)c1ccc(Cc2ccco2)cc1F
REMARK SMILES IDX 9 1 8 2 7 3 6 4 5 5 3 6 4 7 2 8 1 9 83 10 84 11 94 12 85 13
REMARK SMILES IDX 93 14 95 15 86 16 87 17 88 18 89 19 92 20 90 21 91 22 10 23
REMARK SMILES IDX 11 24 12 25 13 26 14 27 15 28 16 29 17 30 18 31 82 32 19 33
REMARK SMILES IDX 81 34 20 35 21 36 22 37 75 38 23 39 80 40 74 41 76 42 24 43
REMARK SMILES IDX 79 44 73 45 72 46 25 48 59 49 38 50 58 51 39 52 42 53 57 54
REMARK SMILES IDX 77 55 40 56 41 57 56 59 78 60 43 61 26 62 27 63 36 64 28 65
REMARK SMILES IDX 29 66 35 67 37 68 30 69 31 70 32 71 33 72 34 73 60 74 61 75
REMARK SMILES IDX 70 76 62 77 63 78 69 79 71 80 64 81 65 82 66 83 67 84 68 85
REMARK SMILES IDX 44 86 45 87 54 88 46 89 47 90 53 91 55 92 48 93 49 94 50 95
REMARK SMILES IDX 51 96 52 97
REMARK H PARENT 76 47 42 58
REMARK Flexibility Score: inf
ROOT
ATOM      1  C   UNL A   1      36.038  22.779  26.087  1.00  0.00     0.188 C 
ENDROOT
BRANCH   1   2
ATOM      2  O   UNL A   1      34.655  22.600  26.378  1.00  0.00    -0.376 OA
BRANCH   2   3
ATOM      3  C   UNL A   1      33.940  21.592  25.671  1.00  0.00     0.202 C 
BRANCH   3   4
ATOM      4  C   UNL A   1      32.406  21.664  25.647  1.00  0.00     0.261 C 
BRANCH   4   5
ATOM      5  O   UNL A   1      31.847  22.841  25.021  1.00  0.00    -0.463 OA
BRANCH   5   6
ATOM      6  C   UNL A   1      32.074  22.984  23.684  1.00  0.00     0.313 C 
ATOM      7  O   UNL A   1      31.748  22.143  22.851  1.00  0.00    -0.252 OA
BRANCH   6   8
ATOM      8  C   UNL A   1      32.858  24.252  23.296  1.00  0.00     0.129 C 
ATOM      9  C   UNL A   1      34.357  24.132  23.000  1.00  0.00     0.025 C 
BRANCH   8  10
ATOM     10  C   UNL A   1      32.588  25.392  24.272  1.00  0.00     0.002 A 
ATOM     11  C   UNL A   1      33.540  25.751  25.233  1.00  0.00     0.008 A 
ATOM     12  C   UNL A   1      31.408  26.138  24.221  1.00  0.00     0.127 A 
ATOM     13  C   UNL A   1      33.314  26.834  26.094  1.00  0.00     0.005 A 
ATOM     14  C   UNL A   1      31.178  27.217  25.070  1.00  0.00     0.043 A 
ATOM     15  F   UNL A   1      30.445  25.812  23.353  1.00  0.00    -0.207 F 
ATOM     16  C   UNL A   1      32.130  27.581  26.023  1.00  0.00    -0.038 A 
BRANCH  16  17
ATOM     17  C   UNL A   1      31.876  28.759  26.939  1.00  0.00     0.111 C 
BRANCH  17  18
ATOM     18  C   UNL A   1      33.102  29.543  27.260  1.00  0.00     0.108 A 
ATOM     19  C   UNL A   1      34.446  29.235  27.334  1.00  0.00     0.046 A 
ATOM     20  O   UNL A   1      32.922  30.875  27.495  1.00  0.00    -0.469 OA
ATOM     21  C   UNL A   1      35.120  30.446  27.622  1.00  0.00     0.042 A 
ATOM     22  C   UNL A   1      34.150  31.415  27.700  1.00  0.00     0.195 A 
ENDBRANCH  17  18
ENDBRANCH  16  17
ENDBRANCH   8  10
ENDBRANCH   6   8
ENDBRANCH   5   6
ENDBRANCH   4   5
ENDBRANCH   3   4
ENDBRANCH   2   3
ENDBRANCH   1   2
BRANCH   1  23
ATOM     23  C   UNL A   1      36.831  21.553  25.605  1.00  0.00     0.188 C 
BRANCH  23  24
ATOM     24  O   UNL A   1      38.107  21.882  25.092  1.00  0.00    -0.376 OA
BRANCH  24  25
ATOM     25  C   UNL A   1      39.243  21.370  25.758  1.00  0.00     0.202 C 
BRANCH  25  26
ATOM     26  C   UNL A   1      39.865  22.228  26.866  1.00  0.00     0.261 C 
BRANCH  26  27
ATOM     27  O   UNL A   1      39.936  23.643  26.626  1.00  0.00    -0.460 OA
BRANCH  27  28
ATOM     28  C   UNL A   1      41.127  24.259  26.817  1.00  0.00     0.338 C 
ATOM     29  O   UNL A   1      42.172  24.012  26.237  1.00  0.00    -0.246 OA
BRANCH  28  30
ATOM     30  C   UNL A   1      40.899  25.419  27.715  1.00  0.00     0.060 A 
ATOM     31  C   UNL A   1      41.849  26.448  27.758  1.00  0.00     0.016 A 
ATOM     32  C   UNL A   1      39.746  25.501  28.503  1.00  0.00     0.016 A 
ATOM     33  C   UNL A   1      41.656  27.544  28.607  1.00  0.00     0.010 A 
ATOM     34  C   UNL A   1      39.559  26.595  29.356  1.00  0.00     0.010 A 
ATOM     35  C   UNL A   1      40.520  27.616  29.428  1.00  0.00    -0.014 A 
BRANCH  35  36
ATOM     36  C   UNL A   1      40.424  28.660  30.483  1.00  0.00     0.031 A 
ATOM     37  C   UNL A   1      41.362  28.574  31.657  1.00  0.00     0.074 A 
ATOM     38  C   UNL A   1      39.525  29.660  30.417  1.00  0.00     0.049 A 
ATOM     39  N   UNL A   1      41.444  29.341  32.712  1.00  0.00    -0.248 NA
ATOM     40  C   UNL A   1      42.326  27.464  31.639  1.00  0.00     0.031 C 
ATOM     41  C   UNL A   1      38.561  29.861  29.338  1.00  0.00     0.029 A 
ATOM     42  N   UNL A   1      39.278  30.698  31.285  1.00  0.00    -0.354 N 
ATOM     43  C   UNL A   1      42.467  28.806  33.486  1.00  0.00     0.074 A 
ATOM     44  C   UNL A   1      42.959  27.637  32.788  1.00  0.00     0.031 C 
ATOM     45  C   UNL A   1      37.837  30.964  29.600  1.00  0.00     0.029 A 
ATOM     46  C   UNL A   1      38.253  31.525  30.887  1.00  0.00     0.049 A 
ATOM     47  H   UNL A   1      39.789  30.836  32.114  1.00  0.00     0.167 HD
ATOM     48  C   UNL A   1      42.953  29.243  34.673  1.00  0.00     0.037 A 
ATOM     49  C   UNL A   1      37.700  32.594  31.500  1.00  0.00     0.037 A 
ATOM     50  C   UNL A   1      42.444  30.385  35.386  1.00  0.00     0.049 A 
ATOM     51  C   UNL A   1      38.221  33.030  32.851  1.00  0.00     0.074 A 
ATOM     52  C   UNL A   1      42.863  30.896  36.602  1.00  0.00     0.029 A 
ATOM     53  N   UNL A   1      41.393  31.185  34.960  1.00  0.00    -0.354 N 
ATOM     54  N   UNL A   1      39.203  32.528  33.562  1.00  0.00    -0.248 NA
ATOM     55  C   UNL A   1      37.548  34.172  33.490  1.00  0.00     0.031 C 
ATOM     56  C   UNL A   1      42.033  31.969  36.937  1.00  0.00     0.029 A 
ATOM     57  C   UNL A   1      41.135  32.169  35.900  1.00  0.00     0.049 A 
ATOM     58  H   UNL A   1      40.904  31.070  34.113  1.00  0.00     0.167 HD
ATOM     59  C   UNL A   1      39.278  33.304  34.717  1.00  0.00     0.074 A 
ATOM     60  C   UNL A   1      38.252  34.319  34.603  1.00  0.00     0.031 C 
ATOM     61  C   UNL A   1      40.117  33.183  35.777  1.00  0.00     0.037 A 
BRANCH  48  62
ATOM     62  C   UNL A   1      44.072  28.453  35.292  1.00  0.00     0.058 A 
ATOM     63  C   UNL A   1      43.826  27.394  36.180  1.00  0.00     0.135 A 
ATOM     64  C   UNL A   1      45.409  28.751  34.982  1.00  0.00     0.135 A 
ATOM     65  F   UNL A   1      42.566  27.080  36.527  1.00  0.00    -0.206 F 
ATOM     66  C   UNL A   1      44.865  26.679  36.765  1.00  0.00     0.059 A 
ATOM     67  C   UNL A   1      46.464  28.029  35.532  1.00  0.00     0.059 A 
ATOM     68  F   UNL A   1      45.701  29.755  34.141  1.00  0.00    -0.206 F 
ATOM     69  C   UNL A   1      46.182  27.005  36.434  1.00  0.00     0.060 A 
BRANCH  69  70
ATOM     70  S   UNL A   1      47.519  26.072  37.207  1.00  0.00     0.124 S 
ATOM     71  O   UNL A   1      47.260  24.725  36.709  1.00  0.00    -0.237 OA
ATOM     72  O   UNL A   1      48.707  26.728  36.670  1.00  0.00    -0.237 OA
ATOM     73  O   UNL A   1      47.291  26.267  38.636  1.00  0.00    -0.744 OA
ENDBRANCH  69  70
ENDBRANCH  48  62
BRANCH  49  74
ATOM     74  C   UNL A   1      36.566  33.322  30.863  1.00  0.00     0.058 A 
ATOM     75  C   UNL A   1      35.249  33.163  31.323  1.00  0.00     0.135 A 
ATOM     76  C   UNL A   1      36.773  34.173  29.766  1.00  0.00     0.135 A 
ATOM     77  F   UNL A   1      34.993  32.347  32.355  1.00  0.00    -0.206 F 
ATOM     78  C   UNL A   1      34.178  33.811  30.711  1.00  0.00     0.059 A 
ATOM     79  C   UNL A   1      35.723  34.857  29.159  1.00  0.00     0.059 A 
ATOM     80  F   UNL A   1      38.010  34.363  29.285  1.00  0.00    -0.206 F 
ATOM     81  C   UNL A   1      34.426  34.660  29.632  1.00  0.00     0.060 A 
BRANCH  81  82
ATOM     82  S   UNL A   1      33.036  35.534  28.880  1.00  0.00     0.124 S 
ATOM     83  O   UNL A   1      33.718  36.574  28.118  1.00  0.00    -0.237 OA
ATOM     84  O   UNL A   1      32.401  34.481  28.096  1.00  0.00    -0.237 OA
ATOM     85  O   UNL A   1      32.268  35.997  30.033  1.00  0.00    -0.744 OA
ENDBRANCH  81  82
ENDBRANCH  49  74
BRANCH  61  86
ATOM     86  C   UNL A   1      39.996  34.191  36.891  1.00  0.00     0.058 A 
ATOM     87  C   UNL A   1      40.703  35.404  36.877  1.00  0.00     0.135 A 
ATOM     88  C   UNL A   1      39.104  33.970  37.955  1.00  0.00     0.135 A 
ATOM     89  F   UNL A   1      41.571  35.668  35.887  1.00  0.00    -0.206 F 
ATOM     90  C   UNL A   1      40.548  36.350  37.888  1.00  0.00     0.059 A 
ATOM     91  C   UNL A   1      38.911  34.914  38.959  1.00  0.00     0.059 A 
ATOM     92  F   UNL A   1      38.391  32.834  38.014  1.00  0.00    -0.206 F 
ATOM     93  C   UNL A   1      39.646  36.098  38.922  1.00  0.00     0.060 A 
BRANCH  93  94
ATOM     94  S   UNL A   1      39.425  37.350  40.206  1.00  0.00     0.124 S 
ATOM     95  O   UNL A   1      38.757  36.586  41.252  1.00  0.00    -0.237 OA
ATOM     96  O   UNL A   1      40.800  37.749  40.492  1.00  0.00    -0.237 OA
ATOM     97  O   UNL A   1      38.608  38.368  39.553  1.00  0.00    -0.744 OA
ENDBRANCH  93  94
ENDBRANCH  61  86
ENDBRANCH  35  36
ENDBRANCH  28  30
ENDBRANCH  27  28
ENDBRANCH  26  27
ENDBRANCH  25  26
ENDBRANCH  24  25
ENDBRANCH  23  24
ENDBRANCH   1  23
TORSDOF 23
ENDMDL
MODEL 2
REMARK VINA RESULT:      -9.9      5.162      6.470
REMARK SMILES C[C@@H](C(=O)OCCOCCOCCOC(=O)c1ccc(-c2c3nc(c(-c4c(F)cc(S(=O)(=O)[O-])cc4F)c4ccc([nH]4)c(-c4c(F)cc(S(=O)(=O)[O-])cc4F)c4nc(c(-c5c(F)cc(S(=O)(=O)[O-])cc5F)c5ccc2[nH]5)C=C4)C=C3)cc1)c1ccc(Cc2ccco2)cc1F
REMARK SMILES IDX 9 1 8 2 7 3 6 4 5 5 3 6 4 7 2 8 1 9 83 10 84 11 94 12 85 13
REMARK SMILES IDX 93 14 95 15 86 16 87 17 88 18 89 19 92 20 90 21 91 22 10 23
REMARK SMILES IDX 11 24 12 25 13 26 14 27 15 28 16 29 17 30 18 31 82 32 19 33
REMARK SMILES IDX 81 34 20 35 21 36 22 37 75 38 23 39 80 40 74 41 76 42 24 43
REMARK SMILES IDX 79 44 73 45 72 46 25 48 59 49 38 50 58 51 39 52 42 53 57 54
REMARK SMILES IDX 77 55 40 56 41 57 56 59 78 60 43 61 26 62 27 63 36 64 28 65
REMARK SMILES IDX 29 66 35 67 37 68 30 69 31 70 32 71 33 72 34 73 60 74 61 75
REMARK SMILES IDX 70 76 62 77 63 78 69 79 71 80 64 81 65 82 66 83 67 84 68 85
REMARK SMILES IDX 44 86 45 87 54 88 46 89 47 90 53 91 55 92 48 93 49 94 50 95
REMARK SMILES IDX 51 96 52 97
REMARK H PARENT 76 47 42 58
REMARK Flexibility Score: inf
ROOT
ATOM      1  C   UNL A   1      33.628  21.034  25.835  1.00  0.00     0.188 C 
ENDROOT
BRANCH   1   2
ATOM      2  O   UNL A   1      32.383  21.235  25.171  1.00  0.00    -0.376 OA
BRANCH   2   3
ATOM      3  C   UNL A   1      32.363  21.200  23.749  1.00  0.00     0.202 C 
BRANCH   3   4
ATOM      4  C   UNL A   1      32.285  22.531  22.986  1.00  0.00     0.261 C 
BRANCH   4   5
ATOM      5  O   UNL A   1      33.190  23.564  23.439  1.00  0.00    -0.463 OA
BRANCH   5   6
ATOM      6  C   UNL A   1      33.026  24.801  22.890  1.00  0.00     0.313 C 
ATOM      7  O   UNL A   1      33.156  25.029  21.691  1.00  0.00    -0.252 OA
BRANCH   6   8
ATOM      8  C   UNL A   1      32.747  25.924  23.907  1.00  0.00     0.129 C 
ATOM      9  C   UNL A   1      32.879  25.617  25.402  1.00  0.00     0.025 C 
BRANCH   8  10
ATOM     10  C   UNL A   1      31.426  26.625  23.612  1.00  0.00     0.002 A 
ATOM     11  C   UNL A   1      30.218  26.105  24.090  1.00  0.00     0.008 A 
ATOM     12  C   UNL A   1      31.374  27.821  22.890  1.00  0.00     0.127 A 
ATOM     13  C   UNL A   1      29.010  26.779  23.865  1.00  0.00     0.005 A 
ATOM     14  C   UNL A   1      30.179  28.498  22.666  1.00  0.00     0.043 A 
ATOM     15  F   UNL A   1      32.491  28.340  22.371  1.00  0.00    -0.207 F 
ATOM     16  C   UNL A   1      28.975  27.984  23.150  1.00  0.00    -0.038 A 
BRANCH  16  17
ATOM     17  C   UNL A   1      27.679  28.729  22.908  1.00  0.00     0.111 C 
BRANCH  17  18
ATOM     18  C   UNL A   1      27.860  30.191  22.689  1.00  0.00     0.108 A 
ATOM     19  C   UNL A   1      28.049  31.271  23.529  1.00  0.00     0.046 A 
ATOM     20  O   UNL A   1      27.905  30.606  21.390  1.00  0.00    -0.469 OA
ATOM     21  C   UNL A   1      28.225  32.402  22.696  1.00  0.00     0.042 A 
ATOM     22  C   UNL A   1      28.140  31.943  21.404  1.00  0.00     0.195 A 
ENDBRANCH  17  18
ENDBRANCH  16  17
ENDBRANCH   8  10
ENDBRANCH   6   8
ENDBRANCH   5   6
ENDBRANCH   4   5
ENDBRANCH   3   4
ENDBRANCH   2   3
ENDBRANCH   1   2
BRANCH   1  23
ATOM     23  C   UNL A   1      34.850  20.682  24.971  1.00  0.00     0.188 C 
BRANCH  23  24
ATOM     24  O   UNL A   1      35.613  21.813  24.600  1.00  0.00    -0.376 OA
BRANCH  24  25
ATOM     25  C   UNL A   1      36.938  21.603  24.156  1.00  0.00     0.202 C 
BRANCH  25  26
ATOM     26  C   UNL A   1      37.988  21.219  25.205  1.00  0.00     0.261 C 
BRANCH  26  27
ATOM     27  O   UNL A   1      38.458  22.270  26.065  1.00  0.00    -0.460 OA
BRANCH  27  28
ATOM     28  C   UNL A   1      39.717  22.173  26.556  1.00  0.00     0.338 C 
ATOM     29  O   UNL A   1      40.461  21.210  26.458  1.00  0.00    -0.246 OA
BRANCH  28  30
ATOM     30  C   UNL A   1      40.110  23.509  27.067  1.00  0.00     0.060 A 
ATOM     31  C   UNL A   1      39.655  24.656  26.404  1.00  0.00     0.016 A 
ATOM     32  C   UNL A   1      40.912  23.635  28.206  1.00  0.00     0.016 A 
ATOM     33  C   UNL A   1      40.024  25.925  26.867  1.00  0.00     0.010 A 
ATOM     34  C   UNL A   1      41.286  24.904  28.662  1.00  0.00     0.010 A 
ATOM     35  C   UNL A   1      40.859  26.059  27.986  1.00  0.00    -0.014 A 
BRANCH  35  36
ATOM     36  C   UNL A   1      41.428  27.386  28.342  1.00  0.00     0.031 A 
ATOM     37  C   UNL A   1      42.906  27.600  28.154  1.00  0.00     0.074 A 
ATOM     38  C   UNL A   1      40.665  28.382  28.829  1.00  0.00     0.049 A 
ATOM     39  N   UNL A   1      43.635  28.651  28.426  1.00  0.00    -0.248 NA
ATOM     40  C   UNL A   1      43.662  26.468  27.596  1.00  0.00     0.031 C 
ATOM     41  C   UNL A   1      39.224  28.308  29.060  1.00  0.00     0.029 A 
ATOM     42  N   UNL A   1      41.002  29.656  29.221  1.00  0.00    -0.354 N 
ATOM     43  C   UNL A   1      44.935  28.309  28.074  1.00  0.00     0.074 A 
ATOM     44  C   UNL A   1      44.897  26.944  27.592  1.00  0.00     0.031 C 
ATOM     45  C   UNL A   1      38.798  29.492  29.537  1.00  0.00     0.029 A 
ATOM     46  C   UNL A   1      39.940  30.394  29.691  1.00  0.00     0.049 A 
ATOM     47  H   UNL A   1      41.920  30.008  29.169  1.00  0.00     0.167 HD
ATOM     48  C   UNL A   1      46.061  29.058  28.149  1.00  0.00     0.037 A 
ATOM     49  C   UNL A   1      39.899  31.642  30.206  1.00  0.00     0.037 A 
ATOM     50  C   UNL A   1      46.108  30.402  28.660  1.00  0.00     0.049 A 
ATOM     51  C   UNL A   1      41.178  32.438  30.333  1.00  0.00     0.074 A 
ATOM     52  C   UNL A   1      47.206  31.236  28.788  1.00  0.00     0.029 A 
ATOM     53  N   UNL A   1      45.015  31.108  29.144  1.00  0.00    -0.354 N 
ATOM     54  N   UNL A   1      42.397  32.111  29.977  1.00  0.00    -0.248 NA
ATOM     55  C   UNL A   1      41.076  33.773  30.945  1.00  0.00     0.031 C 
ATOM     56  C   UNL A   1      46.788  32.422  29.398  1.00  0.00     0.029 A 
ATOM     57  C   UNL A   1      45.417  32.355  29.593  1.00  0.00     0.049 A 
ATOM     58  H   UNL A   1      44.090  30.771  29.164  1.00  0.00     0.167 HD
ATOM     59  C   UNL A   1      43.200  33.202  30.302  1.00  0.00     0.074 A 
ATOM     60  C   UNL A   1      42.325  34.208  30.868  1.00  0.00     0.031 C 
ATOM     61  C   UNL A   1      44.540  33.355  30.149  1.00  0.00     0.037 A 
BRANCH  48  62
ATOM     62  C   UNL A   1      47.345  28.416  27.701  1.00  0.00     0.058 A 
ATOM     63  C   UNL A   1      47.796  28.514  26.375  1.00  0.00     0.135 A 
ATOM     64  C   UNL A   1      48.140  27.703  28.613  1.00  0.00     0.135 A 
ATOM     65  F   UNL A   1      47.065  29.167  25.457  1.00  0.00    -0.206 F 
ATOM     66  C   UNL A   1      48.975  27.902  25.962  1.00  0.00     0.059 A 
ATOM     67  C   UNL A   1      49.337  27.108  28.228  1.00  0.00     0.059 A 
ATOM     68  F   UNL A   1      47.752  27.575  29.892  1.00  0.00    -0.206 F 
ATOM     69  C   UNL A   1      49.738  27.200  26.897  1.00  0.00     0.060 A 
BRANCH  69  70
ATOM     70  S   UNL A   1      51.261  26.406  26.343  1.00  0.00     0.124 S 
ATOM     71  O   UNL A   1      51.311  25.234  27.211  1.00  0.00    -0.237 OA
ATOM     72  O   UNL A   1      50.979  26.140  24.936  1.00  0.00    -0.237 OA
ATOM     73  O   UNL A   1      52.284  27.417  26.594  1.00  0.00    -0.744 OA
ENDBRANCH  69  70
ENDBRANCH  48  62
BRANCH  49  74
ATOM     74  C   UNL A   1      38.606  32.220  30.673  1.00  0.00     0.058 A 
ATOM     75  C   UNL A   1      38.137  31.995  31.977  1.00  0.00     0.135 A 
ATOM     76  C   UNL A   1      37.802  32.989  29.817  1.00  0.00     0.135 A 
ATOM     77  F   UNL A   1      38.856  31.251  32.829  1.00  0.00    -0.206 F 
ATOM     78  C   UNL A   1      36.914  32.500  32.411  1.00  0.00     0.059 A 
ATOM     79  C   UNL A   1      36.591  33.531  30.238  1.00  0.00     0.059 A 
ATOM     80  F   UNL A   1      38.201  33.236  28.560  1.00  0.00    -0.206 F 
ATOM     81  C   UNL A   1      36.150  33.272  31.535  1.00  0.00     0.060 A 
BRANCH  81  82
ATOM     82  S   UNL A   1      34.589  33.964  32.125  1.00  0.00     0.124 S 
ATOM     83  O   UNL A   1      34.115  34.674  30.942  1.00  0.00    -0.237 OA
ATOM     84  O   UNL A   1      33.843  32.766  32.493  1.00  0.00    -0.237 OA
ATOM     85  O   UNL A   1      34.999  34.807  33.244  1.00  0.00    -0.744 OA
ENDBRANCH  81  82
ENDBRANCH  49  74
BRANCH  61  86
ATOM     86  C   UNL A   1      45.152  34.669  30.563  1.00  0.00     0.058 A 
ATOM     87  C   UNL A   1      45.636  34.888  31.863  1.00  0.00     0.135 A 
ATOM     88  C   UNL A   1      45.321  35.701  29.624  1.00  0.00     0.135 A 
ATOM     89  F   UNL A   1      45.499  33.939  32.803  1.00  0.00    -0.206 F 
ATOM     90  C   UNL A   1      46.244  36.089  32.222  1.00  0.00     0.059 A 
ATOM     91  C   UNL A   1      45.952  36.897  29.953  1.00  0.00     0.059 A 
ATOM     92  F   UNL A   1      44.891  35.543  28.362  1.00  0.00    -0.206 F 
ATOM     93  C   UNL A   1      46.401  37.086  31.259  1.00  0.00     0.060 A 
BRANCH  93  94
ATOM     94  S   UNL A   1      47.226  38.623  31.727  1.00  0.00     0.124 S 
ATOM     95  O   UNL A   1      47.423  39.260  30.431  1.00  0.00    -0.237 OA
ATOM     96  O   UNL A   1      46.239  39.253  32.600  1.00  0.00    -0.237 OA
ATOM     97  O   UNL A   1      48.443  38.168  32.394  1.00  0.00    -0.744 OA
ENDBRANCH  93  94
ENDBRANCH  61  86
ENDBRANCH  35  36
ENDBRANCH  28  30
ENDBRANCH  27  28
ENDBRANCH  26  27
ENDBRANCH  25  26
ENDBRANCH  24  25
ENDBRANCH  23  24
ENDBRANCH   1  23
TORSDOF 23
ENDMDL
MODEL 3
REMARK VINA RESULT:      -9.9      4.825      6.046
REMARK SMILES C[C@@H](C(=O)OCCOCCOCCOC(=O)c1ccc(-c2c3nc(c(-c4c(F)cc(S(=O)(=O)[O-])cc4F)c4ccc([nH]4)c(-c4c(F)cc(S(=O)(=O)[O-])cc4F)c4nc(c(-c5c(F)cc(S(=O)(=O)[O-])cc5F)c5ccc2[nH]5)C=C4)C=C3)cc1)c1ccc(Cc2ccco2)cc1F
REMARK SMILES IDX 9 1 8 2 7 3 6 4 5 5 3 6 4 7 2 8 1 9 83 10 84 11 94 12 85 13
REMARK SMILES IDX 93 14 95 15 86 16 87 17 88 18 89 19 92 20 90 21 91 22 10 23
REMARK SMILES IDX 11 24 12 25 13 26 14 27 15 28 16 29 17 30 18 31 82 32 19 33
REMARK SMILES IDX 81 34 20 35 21 36 22 37 75 38 23 39 80 40 74 41 76 42 24 43
REMARK SMILES IDX 79 44 73 45 72 46 25 48 59 49 38 50 58 51 39 52 42 53 57 54
REMARK SMILES IDX 77 55 40 56 41 57 56 59 78 60 43 61 26 62 27 63 36 64 28 65
REMARK SMILES IDX 29 66 35 67 37 68 30 69 31 70 32 71 33 72 34 73 60 74 61 75
REMARK SMILES IDX 70 76 62 77 63 78 69 79 71 80 64 81 65 82 66 83 67 84 68 85
REMARK SMILES IDX 44 86 45 87 54 88 46 89 47 90 53 91 55 92 48 93 49 94 50 95
REMARK SMILES IDX 51 96 52 97
REMARK H PARENT 76 47 42 58
REMARK Flexibility Score: inf
ROOT
ATOM      1  C   UNL A   1      33.361  20.126  25.627  1.00  0.00     0.188 C 
ENDROOT
BRANCH   1   2
ATOM      2  O   UNL A   1      32.257  19.839  24.772  1.00  0.00    -0.376 OA
BRANCH   2   3
ATOM      3  C   UNL A   1      32.363  20.182  23.394  1.00  0.00     0.202 C 
BRANCH   3   4
ATOM      4  C   UNL A   1      31.981  21.606  22.964  1.00  0.00     0.261 C 
BRANCH   4   5
ATOM      5  O   UNL A   1      31.539  22.481  24.027  1.00  0.00    -0.463 OA
BRANCH   5   6
ATOM      6  C   UNL A   1      32.077  23.734  24.046  1.00  0.00     0.313 C 
ATOM      7  O   UNL A   1      32.104  24.471  23.065  1.00  0.00    -0.252 OA
BRANCH   6   8
ATOM      8  C   UNL A   1      32.737  24.130  25.381  1.00  0.00     0.129 C 
ATOM      9  C   UNL A   1      32.422  23.306  26.634  1.00  0.00     0.025 C 
BRANCH   8  10
ATOM     10  C   UNL A   1      32.577  25.620  25.658  1.00  0.00     0.002 A 
ATOM     11  C   UNL A   1      31.552  26.087  26.488  1.00  0.00     0.008 A 
ATOM     12  C   UNL A   1      33.462  26.565  25.130  1.00  0.00     0.127 A 
ATOM     13  C   UNL A   1      31.439  27.452  26.787  1.00  0.00     0.005 A 
ATOM     14  C   UNL A   1      33.359  27.921  25.424  1.00  0.00     0.043 A 
ATOM     15  F   UNL A   1      34.433  26.181  24.294  1.00  0.00    -0.207 F 
ATOM     16  C   UNL A   1      32.341  28.387  26.259  1.00  0.00    -0.038 A 
BRANCH  16  17
ATOM     17  C   UNL A   1      32.238  29.863  26.580  1.00  0.00     0.111 C 
BRANCH  17  18
ATOM     18  C   UNL A   1      33.463  30.424  27.214  1.00  0.00     0.108 A 
ATOM     19  C   UNL A   1      34.690  29.897  27.564  1.00  0.00     0.046 A 
ATOM     20  O   UNL A   1      33.443  31.761  27.488  1.00  0.00    -0.469 OA
ATOM     21  C   UNL A   1      35.460  30.972  28.071  1.00  0.00     0.042 A 
ATOM     22  C   UNL A   1      34.659  32.086  27.994  1.00  0.00     0.195 A 
ENDBRANCH  17  18
ENDBRANCH  16  17
ENDBRANCH   8  10
ENDBRANCH   6   8
ENDBRANCH   5   6
ENDBRANCH   4   5
ENDBRANCH   3   4
ENDBRANCH   2   3
ENDBRANCH   1   2
BRANCH   1  23
ATOM     23  C   UNL A   1      34.747  20.275  24.978  1.00  0.00     0.188 C 
BRANCH  23  24
ATOM     24  O   UNL A   1      35.149  21.622  24.828  1.00  0.00    -0.376 OA
BRANCH  24  25
ATOM     25  C   UNL A   1      36.398  21.879  24.221  1.00  0.00     0.202 C 
BRANCH  25  26
ATOM     26  C   UNL A   1      37.661  21.451  24.979  1.00  0.00     0.261 C 
BRANCH  26  27
ATOM     27  O   UNL A   1      38.106  22.319  26.035  1.00  0.00    -0.460 OA
BRANCH  27  28
ATOM     28  C   UNL A   1      39.380  22.182  26.473  1.00  0.00     0.338 C 
ATOM     29  O   UNL A   1      40.098  21.208  26.321  1.00  0.00    -0.246 OA
BRANCH  28  30
ATOM     30  C   UNL A   1      39.821  23.497  27.002  1.00  0.00     0.060 A 
ATOM     31  C   UNL A   1      39.268  24.669  26.472  1.00  0.00     0.016 A 
ATOM     32  C   UNL A   1      40.767  23.576  28.030  1.00  0.00     0.016 A 
ATOM     33  C   UNL A   1      39.679  25.918  26.953  1.00  0.00     0.010 A 
ATOM     34  C   UNL A   1      41.183  24.825  28.503  1.00  0.00     0.010 A 
ATOM     35  C   UNL A   1      40.655  26.007  27.957  1.00  0.00    -0.014 A 
BRANCH  35  36
ATOM     36  C   UNL A   1      41.251  27.323  28.309  1.00  0.00     0.031 A 
ATOM     37  C   UNL A   1      42.733  27.507  28.123  1.00  0.00     0.074 A 
ATOM     38  C   UNL A   1      40.506  28.336  28.791  1.00  0.00     0.049 A 
ATOM     39  N   UNL A   1      43.482  28.544  28.392  1.00  0.00    -0.248 NA
ATOM     40  C   UNL A   1      43.466  26.358  27.571  1.00  0.00     0.031 C 
ATOM     41  C   UNL A   1      39.064  28.293  29.019  1.00  0.00     0.029 A 
ATOM     42  N   UNL A   1      40.869  29.605  29.179  1.00  0.00    -0.354 N 
ATOM     43  C   UNL A   1      44.775  28.174  28.044  1.00  0.00     0.074 A 
ATOM     44  C   UNL A   1      44.711  26.809  27.566  1.00  0.00     0.031 C 
ATOM     45  C   UNL A   1      38.661  29.486  29.492  1.00  0.00     0.029 A 
ATOM     46  C   UNL A   1      39.822  30.366  29.644  1.00  0.00     0.049 A 
ATOM     47  H   UNL A   1      41.793  29.938  29.127  1.00  0.00     0.167 HD
ATOM     48  C   UNL A   1      45.916  28.900  28.118  1.00  0.00     0.037 A 
ATOM     49  C   UNL A   1      39.805  31.616  30.154  1.00  0.00     0.037 A 
ATOM     50  C   UNL A   1      45.990  30.245  28.624  1.00  0.00     0.049 A 
ATOM     51  C   UNL A   1      41.099  32.387  30.280  1.00  0.00     0.074 A 
ATOM     52  C   UNL A   1      47.104  31.057  28.750  1.00  0.00     0.029 A 
ATOM     53  N   UNL A   1      44.911  30.974  29.103  1.00  0.00    -0.354 N 
ATOM     54  N   UNL A   1      42.312  32.033  29.928  1.00  0.00    -0.248 NA
ATOM     55  C   UNL A   1      41.023  33.726  30.887  1.00  0.00     0.031 C 
ATOM     56  C   UNL A   1      46.709  32.253  29.355  1.00  0.00     0.029 A 
ATOM     57  C   UNL A   1      45.337  32.215  29.548  1.00  0.00     0.049 A 
ATOM     58  H   UNL A   1      43.979  30.656  29.123  1.00  0.00     0.167 HD
ATOM     59  C   UNL A   1      43.136  33.110  30.250  1.00  0.00     0.074 A 
ATOM     60  C   UNL A   1      42.281  34.135  30.811  1.00  0.00     0.031 C 
ATOM     61  C   UNL A   1      44.479  33.235  30.099  1.00  0.00     0.037 A 
BRANCH  48  62
ATOM     62  C   UNL A   1      47.188  28.231  27.674  1.00  0.00     0.058 A 
ATOM     63  C   UNL A   1      48.018  27.549  28.577  1.00  0.00     0.135 A 
ATOM     64  C   UNL A   1      47.575  28.263  26.324  1.00  0.00     0.135 A 
ATOM     65  F   UNL A   1      47.706  27.505  29.883  1.00  0.00    -0.206 F 
ATOM     66  C   UNL A   1      49.203  26.949  28.164  1.00  0.00     0.059 A 
ATOM     67  C   UNL A   1      48.740  27.644  25.884  1.00  0.00     0.059 A 
ATOM     68  F   UNL A   1      46.819  28.905  25.419  1.00  0.00    -0.206 F 
ATOM     69  C   UNL A   1      49.555  27.003  26.815  1.00  0.00     0.060 A 
BRANCH  69  70
ATOM     70  S   UNL A   1      51.099  26.225  26.297  1.00  0.00     0.124 S 
ATOM     71  O   UNL A   1      52.089  27.107  26.907  1.00  0.00    -0.237 OA
ATOM     72  O   UNL A   1      50.990  24.894  26.884  1.00  0.00    -0.237 OA
ATOM     73  O   UNL A   1      51.033  26.271  24.839  1.00  0.00    -0.744 OA
ENDBRANCH  69  70
ENDBRANCH  48  62
BRANCH  49  74
ATOM     74  C   UNL A   1      38.523  32.222  30.617  1.00  0.00     0.058 A 
ATOM     75  C   UNL A   1      37.958  31.874  31.854  1.00  0.00     0.135 A 
ATOM     76  C   UNL A   1      37.825  33.143  29.821  1.00  0.00     0.135 A 
ATOM     77  F   UNL A   1      38.573  30.983  32.645  1.00  0.00    -0.206 F 
ATOM     78  C   UNL A   1      36.743  32.407  32.279  1.00  0.00     0.059 A 
ATOM     79  C   UNL A   1      36.626  33.714  30.238  1.00  0.00     0.059 A 
ATOM     80  F   UNL A   1      38.318  33.513  28.629  1.00  0.00    -0.206 F 
ATOM     81  C   UNL A   1      36.087  33.330  31.465  1.00  0.00     0.060 A 
BRANCH  81  82
ATOM     82  S   UNL A   1      34.538  34.053  32.049  1.00  0.00     0.124 S 
ATOM     83  O   UNL A   1      33.833  34.294  30.795  1.00  0.00    -0.237 OA
ATOM     84  O   UNL A   1      34.001  32.988  32.889  1.00  0.00    -0.237 OA
ATOM     85  O   UNL A   1      34.975  35.247  32.766  1.00  0.00    -0.744 OA
ENDBRANCH  81  82
ENDBRANCH  49  74
BRANCH  61  86
ATOM     86  C   UNL A   1      45.117  34.538  30.509  1.00  0.00     0.058 A 
ATOM     87  C   UNL A   1      45.237  35.619  29.621  1.00  0.00     0.135 A 
ATOM     88  C   UNL A   1      45.551  34.730  31.832  1.00  0.00     0.135 A 
ATOM     89  F   UNL A   1      44.843  35.493  28.344  1.00  0.00    -0.206 F 
ATOM     90  C   UNL A   1      45.785  36.836  30.024  1.00  0.00     0.059 A 
ATOM     91  C   UNL A   1      46.073  35.946  32.264  1.00  0.00     0.059 A 
ATOM     92  F   UNL A   1      45.448  33.736  32.728  1.00  0.00    -0.206 F 
ATOM     93  C   UNL A   1      46.196  36.991  31.349  1.00  0.00     0.060 A 
BRANCH  93  94
ATOM     94  S   UNL A   1      46.867  38.585  31.868  1.00  0.00     0.124 S 
ATOM     95  O   UNL A   1      47.522  38.236  33.124  1.00  0.00    -0.237 OA
ATOM     96  O   UNL A   1      47.758  38.924  30.762  1.00  0.00    -0.237 OA
ATOM     97  O   UNL A   1      45.684  39.431  31.992  1.00  0.00    -0.744 OA
ENDBRANCH  93  94
ENDBRANCH  61  86
ENDBRANCH  35  36
ENDBRANCH  28  30
ENDBRANCH  27  28
ENDBRANCH  26  27
ENDBRANCH  25  26
ENDBRANCH  24  25
ENDBRANCH  23  24
ENDBRANCH   1  23
TORSDOF 23
ENDMDL
