MODEL 1
REMARK VINA RESULT:     -11.4      0.000      0.000
REMARK SMILES CC1=C(CC(=O)OCCOCCOCCOC(=O)c2ccc(-c3c4nc(c(-c5c(F)cc(S(=O)(=O)[O-])cc5F)c5ccc([nH]5)c(-c5c(F)cc(S(=O)(=O)[O-])cc5F)c5nc(c(-c6c(F)cc(S(=O)(=O)[O-])cc6F)c6ccc3[nH]6)C=C5)C=C4)cc2)c2cc(F)ccc2/C1=C\c1cccc(OCc2ccccc2)c1
REMARK SMILES IDX 11 1 10 2 9 3 8 4 7 5 5 6 6 7 4 8 3 9 1 10 2 11 92 12 85 13
REMARK SMILES IDX 91 14 93 15 86 16 90 17 87 18 89 19 88 20 94 21 95 22 107 23
REMARK SMILES IDX 96 24 98 25 97 26 99 27 100 28 101 29 102 30 106 31 103 32
REMARK SMILES IDX 105 33 104 34 12 35 13 36 14 37 15 38 16 39 17 40 18 41
REMARK SMILES IDX 19 42 20 43 84 44 21 45 83 46 22 47 23 48 24 49 77 50 25 51
REMARK SMILES IDX 82 52 76 53 78 54 26 55 81 56 75 57 74 58 27 60 61 61 40 62
REMARK SMILES IDX 60 63 41 64 44 65 59 66 79 67 42 68 43 69 58 71 80 72 45 73
REMARK SMILES IDX 28 74 29 75 38 76 30 77 31 78 37 79 39 80 32 81 33 82 34 83
REMARK SMILES IDX 35 84 36 85 62 86 63 87 72 88 64 89 65 90 71 91 73 92 66 93
REMARK SMILES IDX 67 94 68 95 69 96 70 97 46 98 47 99 56 100 48 101 49 102
REMARK SMILES IDX 55 103 57 104 50 105 51 106 52 107 53 108 54 109
REMARK H PARENT 78 59 44 70
REMARK Flexibility Score: inf
ROOT
ATOM      1  C   UNL A   1      39.087  22.022  25.884  1.00  0.00     0.188 C 
ENDROOT
BRANCH   1   2
ATOM      2  O   UNL A   1      37.676  21.805  25.883  1.00  0.00    -0.376 OA
BRANCH   2   3
ATOM      3  C   UNL A   1      37.103  21.198  24.729  1.00  0.00     0.202 C 
BRANCH   3   4
ATOM      4  C   UNL A   1      35.867  20.341  25.010  1.00  0.00     0.261 C 
BRANCH   4   5
ATOM      5  O   UNL A   1      34.659  21.071  24.717  1.00  0.00    -0.463 OA
BRANCH   5   6
ATOM      6  C   UNL A   1      33.522  20.329  24.665  1.00  0.00     0.310 C 
ATOM      7  O   UNL A   1      33.300  19.364  25.388  1.00  0.00    -0.252 OA
BRANCH   6   8
ATOM      8  C   UNL A   1      32.476  20.908  23.712  1.00  0.00     0.159 C 
BRANCH   8   9
ATOM      9  C   UNL A   1      32.149  22.371  23.799  1.00  0.00    -0.025 C 
ATOM     10  C   UNL A   1      33.117  23.213  21.612  1.00  0.00     0.045 C 
ATOM     11  C   UNL A   1      32.439  23.371  22.931  1.00  0.00    -0.039 C 
ATOM     12  C   UNL A   1      31.880  24.643  23.429  1.00  0.00    -0.014 C 
ATOM     13  C   UNL A   1      31.319  22.953  24.873  1.00  0.00    -0.011 A 
ATOM     14  C   UNL A   1      31.242  24.349  24.723  1.00  0.00    -0.010 A 
ATOM     15  C   UNL A   1      31.860  25.813  22.762  1.00  0.00     0.017 C 
ATOM     16  C   UNL A   1      30.625  22.335  25.901  1.00  0.00     0.048 A 
ATOM     17  C   UNL A   1      30.614  25.142  25.679  1.00  0.00     0.012 A 
ATOM     18  C   UNL A   1      29.924  23.135  26.805  1.00  0.00     0.123 A 
ATOM     19  C   UNL A   1      29.953  24.524  26.735  1.00  0.00     0.040 A 
ATOM     20  F   UNL A   1      29.230  22.553  27.791  1.00  0.00    -0.207 F 
BRANCH  15  21
ATOM     21  C   UNL A   1      31.160  27.029  23.201  1.00  0.00    -0.021 A 
ATOM     22  C   UNL A   1      29.874  27.306  22.731  1.00  0.00     0.008 A 
ATOM     23  C   UNL A   1      31.812  27.960  24.029  1.00  0.00     0.054 A 
ATOM     24  C   UNL A   1      29.258  28.515  23.059  1.00  0.00     0.004 A 
ATOM     25  C   UNL A   1      31.189  29.159  24.382  1.00  0.00     0.120 A 
ATOM     26  C   UNL A   1      29.917  29.436  23.876  1.00  0.00     0.046 A 
BRANCH  25  27
ATOM     27  O   UNL A   1      31.705  30.142  25.184  1.00  0.00    -0.489 OA
BRANCH  27  28
ATOM     28  C   UNL A   1      31.853  29.886  26.585  1.00  0.00     0.265 C 
BRANCH  28  29
ATOM     29  C   UNL A   1      33.284  30.041  27.049  1.00  0.00    -0.011 A 
ATOM     30  C   UNL A   1      34.173  28.959  26.982  1.00  0.00     0.007 A 
ATOM     31  C   UNL A   1      33.751  31.275  27.521  1.00  0.00     0.007 A 
ATOM     32  C   UNL A   1      35.512  29.120  27.346  1.00  0.00     0.000 A 
ATOM     33  C   UNL A   1      35.091  31.438  27.870  1.00  0.00     0.000 A 
ATOM     34  C   UNL A   1      35.972  30.362  27.779  1.00  0.00     0.000 A 
ENDBRANCH  28  29
ENDBRANCH  27  28
ENDBRANCH  25  27
ENDBRANCH  15  21
ENDBRANCH   8   9
ENDBRANCH   6   8
ENDBRANCH   5   6
ENDBRANCH   4   5
ENDBRANCH   3   4
ENDBRANCH   2   3
ENDBRANCH   1   2
BRANCH   1  35
ATOM     35  C   UNL A   1      39.652  23.044  26.884  1.00  0.00     0.188 C 
BRANCH  35  36
ATOM     36  O   UNL A   1      40.883  22.603  27.452  1.00  0.00    -0.376 OA
BRANCH  36  37
ATOM     37  C   UNL A   1      42.009  22.831  26.615  1.00  0.00     0.202 C 
BRANCH  37  38
ATOM     38  C   UNL A   1      42.949  23.847  27.264  1.00  0.00     0.261 C 
BRANCH  38  39
ATOM     39  O   UNL A   1      43.209  24.998  26.442  1.00  0.00    -0.460 OA
BRANCH  39  40
ATOM     40  C   UNL A   1      42.132  25.737  26.094  1.00  0.00     0.338 C 
ATOM     41  O   UNL A   1      41.513  25.688  25.049  1.00  0.00    -0.246 OA
BRANCH  40  42
ATOM     42  C   UNL A   1      41.766  26.566  27.257  1.00  0.00     0.060 A 
ATOM     43  C   UNL A   1      40.682  26.228  28.061  1.00  0.00     0.016 A 
ATOM     44  C   UNL A   1      42.542  27.683  27.562  1.00  0.00     0.016 A 
ATOM     45  C   UNL A   1      40.387  27.019  29.179  1.00  0.00     0.010 A 
ATOM     46  C   UNL A   1      42.281  28.441  28.703  1.00  0.00     0.010 A 
ATOM     47  C   UNL A   1      41.194  28.122  29.521  1.00  0.00    -0.014 A 
BRANCH  47  48
ATOM     48  C   UNL A   1      40.929  28.904  30.758  1.00  0.00     0.031 A 
ATOM     49  C   UNL A   1      41.770  28.721  31.993  1.00  0.00     0.074 A 
ATOM     50  C   UNL A   1      39.899  29.771  30.774  1.00  0.00     0.049 A 
ATOM     51  N   UNL A   1      41.735  29.385  33.120  1.00  0.00    -0.248 NA
ATOM     52  C   UNL A   1      42.765  27.637  31.970  1.00  0.00     0.031 C 
ATOM     53  C   UNL A   1      38.949  29.970  29.675  1.00  0.00     0.029 A 
ATOM     54  N   UNL A   1      39.483  30.655  31.736  1.00  0.00    -0.354 N 
ATOM     55  C   UNL A   1      42.709  28.817  33.932  1.00  0.00     0.074 A 
ATOM     56  C   UNL A   1      43.271  27.706  33.193  1.00  0.00     0.031 C 
ATOM     57  C   UNL A   1      38.096  30.952  30.006  1.00  0.00     0.029 A 
ATOM     58  C   UNL A   1      38.426  31.441  31.341  1.00  0.00     0.049 A 
ATOM     59  H   UNL A   1      39.900  30.720  32.626  1.00  0.00     0.167 HD
ATOM     60  C   UNL A   1      43.121  29.204  35.164  1.00  0.00     0.037 A 
ATOM     61  C   UNL A   1      37.810  32.460  31.971  1.00  0.00     0.037 A 
ATOM     62  C   UNL A   1      42.559  30.313  35.894  1.00  0.00     0.049 A 
ATOM     63  C   UNL A   1      38.300  32.891  33.324  1.00  0.00     0.074 A 
ATOM     64  C   UNL A   1      42.943  30.821  37.123  1.00  0.00     0.029 A 
ATOM     65  N   UNL A   1      41.492  31.087  35.462  1.00  0.00    -0.354 N 
ATOM     66  N   UNL A   1      39.279  32.395  34.043  1.00  0.00    -0.248 NA
ATOM     67  C   UNL A   1      37.611  34.029  33.946  1.00  0.00     0.031 C 
ATOM     68  C   UNL A   1      42.088  31.882  37.448  1.00  0.00     0.029 A 
ATOM     69  C   UNL A   1      41.193  32.058  36.404  1.00  0.00     0.049 A 
ATOM     70  H   UNL A   1      41.015  30.963  34.609  1.00  0.00     0.167 HD
ATOM     71  C   UNL A   1      39.328  33.164  35.199  1.00  0.00     0.074 A 
ATOM     72  C   UNL A   1      38.298  34.176  35.070  1.00  0.00     0.031 C 
ATOM     73  C   UNL A   1      40.149  33.042  36.273  1.00  0.00     0.037 A 
BRANCH  60  74
ATOM     74  C   UNL A   1      44.258  28.440  35.788  1.00  0.00     0.058 A 
ATOM     75  C   UNL A   1      45.590  28.848  35.613  1.00  0.00     0.135 A 
ATOM     76  C   UNL A   1      44.021  27.318  36.600  1.00  0.00     0.135 A 
ATOM     77  F   UNL A   1      45.877  29.907  34.839  1.00  0.00    -0.206 F 
ATOM     78  C   UNL A   1      46.649  28.155  36.193  1.00  0.00     0.059 A 
ATOM     79  C   UNL A   1      45.063  26.625  37.211  1.00  0.00     0.059 A 
ATOM     80  F   UNL A   1      42.767  26.885  36.805  1.00  0.00    -0.206 F 
ATOM     81  C   UNL A   1      46.375  27.043  36.991  1.00  0.00     0.060 A 
BRANCH  81  82
ATOM     82  S   UNL A   1      47.762  26.162  37.740  1.00  0.00     0.124 S 
ATOM     83  O   UNL A   1      48.146  27.079  38.809  1.00  0.00    -0.237 OA
ATOM     84  O   UNL A   1      47.142  24.913  38.170  1.00  0.00    -0.237 OA
ATOM     85  O   UNL A   1      48.719  26.039  36.645  1.00  0.00    -0.744 OA
ENDBRANCH  81  82
ENDBRANCH  60  74
BRANCH  61  86
ATOM     86  C   UNL A   1      36.708  33.186  31.288  1.00  0.00     0.058 A 
ATOM     87  C   UNL A   1      36.972  34.011  30.185  1.00  0.00     0.135 A 
ATOM     88  C   UNL A   1      35.373  33.036  31.690  1.00  0.00     0.135 A 
ATOM     89  F   UNL A   1      38.235  34.189  29.768  1.00  0.00    -0.206 F 
ATOM     90  C   UNL A   1      35.953  34.669  29.506  1.00  0.00     0.059 A 
ATOM     91  C   UNL A   1      34.333  33.666  31.014  1.00  0.00     0.059 A 
ATOM     92  F   UNL A   1      35.069  32.245  32.730  1.00  0.00    -0.206 F 
ATOM     93  C   UNL A   1      34.633  34.483  29.925  1.00  0.00     0.060 A 
BRANCH  93  94
ATOM     94  S   UNL A   1      33.311  35.283  28.988  1.00  0.00     0.124 S 
ATOM     95  O   UNL A   1      32.474  35.818  30.056  1.00  0.00    -0.237 OA
ATOM     96  O   UNL A   1      34.048  36.268  28.200  1.00  0.00    -0.237 OA
ATOM     97  O   UNL A   1      32.732  34.185  28.220  1.00  0.00    -0.744 OA
ENDBRANCH  93  94
ENDBRANCH  61  86
BRANCH  73  98
ATOM     98  C   UNL A   1      39.951  34.025  37.394  1.00  0.00     0.058 A 
ATOM     99  C   UNL A   1      39.172  33.704  38.517  1.00  0.00     0.135 A 
ATOM    100  C   UNL A   1      40.550  35.293  37.351  1.00  0.00     0.135 A 
ATOM    101  F   UNL A   1      38.574  32.506  38.604  1.00  0.00    -0.206 F 
ATOM    102  C   UNL A   1      38.963  34.622  39.541  1.00  0.00     0.059 A 
ATOM    103  C   UNL A   1      40.374  36.218  38.377  1.00  0.00     0.059 A 
ATOM    104  F   UNL A   1      41.314  35.646  36.304  1.00  0.00    -0.206 F 
ATOM    105  C   UNL A   1      39.564  35.878  39.459  1.00  0.00     0.060 A 
BRANCH 105 106
ATOM    106  S   UNL A   1      39.280  37.062  40.793  1.00  0.00     0.124 S 
ATOM    107  O   UNL A   1      40.601  37.131  41.410  1.00  0.00    -0.237 OA
ATOM    108  O   UNL A   1      38.856  38.256  40.069  1.00  0.00    -0.237 OA
ATOM    109  O   UNL A   1      38.244  36.424  41.598  1.00  0.00    -0.744 OA
ENDBRANCH 105 106
ENDBRANCH  73  98
ENDBRANCH  47  48
ENDBRANCH  40  42
ENDBRANCH  39  40
ENDBRANCH  38  39
ENDBRANCH  37  38
ENDBRANCH  36  37
ENDBRANCH  35  36
ENDBRANCH   1  35
TORSDOF 25
ENDMDL
MODEL 2
REMARK VINA RESULT:     -11.1      1.387      2.989
REMARK SMILES CC1=C(CC(=O)OCCOCCOCCOC(=O)c2ccc(-c3c4nc(c(-c5c(F)cc(S(=O)(=O)[O-])cc5F)c5ccc([nH]5)c(-c5c(F)cc(S(=O)(=O)[O-])cc5F)c5nc(c(-c6c(F)cc(S(=O)(=O)[O-])cc6F)c6ccc3[nH]6)C=C5)C=C4)cc2)c2cc(F)ccc2/C1=C\c1cccc(OCc2ccccc2)c1
REMARK SMILES IDX 11 1 10 2 9 3 8 4 7 5 5 6 6 7 4 8 3 9 1 10 2 11 92 12 85 13
REMARK SMILES IDX 91 14 93 15 86 16 90 17 87 18 89 19 88 20 94 21 95 22 107 23
REMARK SMILES IDX 96 24 98 25 97 26 99 27 100 28 101 29 102 30 106 31 103 32
REMARK SMILES IDX 105 33 104 34 12 35 13 36 14 37 15 38 16 39 17 40 18 41
REMARK SMILES IDX 19 42 20 43 84 44 21 45 83 46 22 47 23 48 24 49 77 50 25 51
REMARK SMILES IDX 82 52 76 53 78 54 26 55 81 56 75 57 74 58 27 60 61 61 40 62
REMARK SMILES IDX 60 63 41 64 44 65 59 66 79 67 42 68 43 69 58 71 80 72 45 73
REMARK SMILES IDX 28 74 29 75 38 76 30 77 31 78 37 79 39 80 32 81 33 82 34 83
REMARK SMILES IDX 35 84 36 85 62 86 63 87 72 88 64 89 65 90 71 91 73 92 66 93
REMARK SMILES IDX 67 94 68 95 69 96 70 97 46 98 47 99 56 100 48 101 49 102
REMARK SMILES IDX 55 103 57 104 50 105 51 106 52 107 53 108 54 109
REMARK H PARENT 78 59 44 70
REMARK Flexibility Score: inf
ROOT
ATOM      1  C   UNL A   1      38.307  21.840  25.508  1.00  0.00     0.188 C 
ENDROOT
BRANCH   1   2
ATOM      2  O   UNL A   1      36.988  21.300  25.450  1.00  0.00    -0.376 OA
BRANCH   2   3
ATOM      3  C   UNL A   1      36.795  20.109  24.693  1.00  0.00     0.202 C 
BRANCH   3   4
ATOM      4  C   UNL A   1      35.473  19.389  24.967  1.00  0.00     0.261 C 
BRANCH   4   5
ATOM      5  O   UNL A   1      34.371  20.318  24.967  1.00  0.00    -0.463 OA
BRANCH   5   6
ATOM      6  C   UNL A   1      33.157  19.791  25.270  1.00  0.00     0.310 C 
ATOM      7  O   UNL A   1      32.993  18.840  26.025  1.00  0.00    -0.252 OA
BRANCH   6   8
ATOM      8  C   UNL A   1      31.995  20.598  24.688  1.00  0.00     0.159 C 
BRANCH   8   9
ATOM      9  C   UNL A   1      32.043  22.096  24.769  1.00  0.00    -0.025 C 
ATOM     10  C   UNL A   1      31.733  22.454  27.261  1.00  0.00     0.045 C 
ATOM     11  C   UNL A   1      31.905  22.904  25.849  1.00  0.00    -0.039 C 
ATOM     12  C   UNL A   1      32.063  24.314  25.442  1.00  0.00    -0.014 C 
ATOM     13  C   UNL A   1      32.371  22.961  23.618  1.00  0.00    -0.011 A 
ATOM     14  C   UNL A   1      32.276  24.315  23.986  1.00  0.00    -0.010 A 
ATOM     15  C   UNL A   1      32.120  25.375  26.271  1.00  0.00     0.017 C 
ATOM     16  C   UNL A   1      32.774  22.626  22.335  1.00  0.00     0.048 A 
ATOM     17  C   UNL A   1      32.422  25.328  23.043  1.00  0.00     0.012 A 
ATOM     18  C   UNL A   1      33.004  23.654  21.420  1.00  0.00     0.123 A 
ATOM     19  C   UNL A   1      32.785  24.989  21.744  1.00  0.00     0.040 A 
ATOM     20  F   UNL A   1      33.416  23.350  20.184  1.00  0.00    -0.207 F 
BRANCH  15  21
ATOM     21  C   UNL A   1      32.438  26.752  25.865  1.00  0.00    -0.021 A 
ATOM     22  C   UNL A   1      33.721  27.266  26.074  1.00  0.00     0.008 A 
ATOM     23  C   UNL A   1      31.432  27.586  25.344  1.00  0.00     0.054 A 
ATOM     24  C   UNL A   1      33.987  28.607  25.795  1.00  0.00     0.004 A 
ATOM     25  C   UNL A   1      31.702  28.921  25.038  1.00  0.00     0.120 A 
ATOM     26  C   UNL A   1      32.980  29.428  25.283  1.00  0.00     0.046 A 
BRANCH  25  27
ATOM     27  O   UNL A   1      30.822  29.833  24.520  1.00  0.00    -0.489 OA
BRANCH  27  28
ATOM     28  C   UNL A   1      29.868  29.398  23.544  1.00  0.00     0.265 C 
BRANCH  28  29
ATOM     29  C   UNL A   1      29.182  30.557  22.855  1.00  0.00    -0.011 A 
ATOM     30  C   UNL A   1      29.137  31.819  23.464  1.00  0.00     0.007 A 
ATOM     31  C   UNL A   1      28.610  30.395  21.586  1.00  0.00     0.007 A 
ATOM     32  C   UNL A   1      28.565  32.905  22.799  1.00  0.00     0.000 A 
ATOM     33  C   UNL A   1      28.051  31.483  20.917  1.00  0.00     0.000 A 
ATOM     34  C   UNL A   1      28.032  32.739  21.522  1.00  0.00     0.000 A 
ENDBRANCH  28  29
ENDBRANCH  27  28
ENDBRANCH  25  27
ENDBRANCH  15  21
ENDBRANCH   8   9
ENDBRANCH   6   8
ENDBRANCH   5   6
ENDBRANCH   4   5
ENDBRANCH   3   4
ENDBRANCH   2   3
ENDBRANCH   1   2
BRANCH   1  35
ATOM     35  C   UNL A   1      38.475  23.257  26.080  1.00  0.00     0.188 C 
BRANCH  35  36
ATOM     36  O   UNL A   1      39.351  23.273  27.205  1.00  0.00    -0.376 OA
BRANCH  36  37
ATOM     37  C   UNL A   1      40.637  22.733  26.932  1.00  0.00     0.202 C 
BRANCH  37  38
ATOM     38  C   UNL A   1      41.712  23.540  27.659  1.00  0.00     0.261 C 
BRANCH  38  39
ATOM     39  O   UNL A   1      42.443  24.432  26.799  1.00  0.00    -0.460 OA
BRANCH  39  40
ATOM     40  C   UNL A   1      41.746  25.471  26.289  1.00  0.00     0.338 C 
ATOM     41  O   UNL A   1      41.385  25.621  25.138  1.00  0.00    -0.246 OA
BRANCH  40  42
ATOM     42  C   UNL A   1      41.406  26.371  27.406  1.00  0.00     0.060 A 
ATOM     43  C   UNL A   1      40.270  26.150  28.179  1.00  0.00     0.016 A 
ATOM     44  C   UNL A   1      42.257  27.435  27.701  1.00  0.00     0.016 A 
ATOM     45  C   UNL A   1      39.999  27.004  29.256  1.00  0.00     0.010 A 
ATOM     46  C   UNL A   1      42.016  28.254  28.803  1.00  0.00     0.010 A 
ATOM     47  C   UNL A   1      40.879  28.053  29.589  1.00  0.00    -0.014 A 
BRANCH  47  48
ATOM     48  C   UNL A   1      40.633  28.900  30.787  1.00  0.00     0.031 A 
ATOM     49  C   UNL A   1      41.480  28.769  32.024  1.00  0.00     0.074 A 
ATOM     50  C   UNL A   1      39.615  29.782  30.764  1.00  0.00     0.049 A 
ATOM     51  N   UNL A   1      41.461  29.490  33.116  1.00  0.00    -0.248 NA
ATOM     52  C   UNL A   1      42.460  27.671  32.050  1.00  0.00     0.031 C 
ATOM     53  C   UNL A   1      38.661  29.938  29.663  1.00  0.00     0.029 A 
ATOM     54  N   UNL A   1      39.217  30.719  31.683  1.00  0.00    -0.354 N 
ATOM     55  C   UNL A   1      42.432  28.950  33.950  1.00  0.00     0.074 A 
ATOM     56  C   UNL A   1      42.975  27.795  33.265  1.00  0.00     0.031 C 
ATOM     57  C   UNL A   1      37.823  30.947  29.948  1.00  0.00     0.029 A 
ATOM     58  C   UNL A   1      38.169  31.498  31.255  1.00  0.00     0.049 A 
ATOM     59  H   UNL A   1      39.641  30.823  32.565  1.00  0.00     0.167 HD
ATOM     60  C   UNL A   1      42.858  29.393  35.159  1.00  0.00     0.037 A 
ATOM     61  C   UNL A   1      37.571  32.557  31.835  1.00  0.00     0.037 A 
ATOM     62  C   UNL A   1      42.317  30.546  35.834  1.00  0.00     0.049 A 
ATOM     63  C   UNL A   1      38.076  33.049  33.162  1.00  0.00     0.074 A 
ATOM     64  C   UNL A   1      42.715  31.111  37.034  1.00  0.00     0.029 A 
ATOM     65  N   UNL A   1      41.257  31.312  35.369  1.00  0.00    -0.354 N 
ATOM     66  N   UNL A   1      39.053  32.576  33.899  1.00  0.00    -0.248 NA
ATOM     67  C   UNL A   1      37.406  34.227  33.730  1.00  0.00     0.031 C 
ATOM     68  C   UNL A   1      41.877  32.198  37.309  1.00  0.00     0.029 A 
ATOM     69  C   UNL A   1      40.978  32.333  36.263  1.00  0.00     0.049 A 
ATOM     70  H   UNL A   1      40.773  31.151  34.527  1.00  0.00     0.167 HD
ATOM     71  C   UNL A   1      39.120  33.403  35.015  1.00  0.00     0.074 A 
ATOM     72  C   UNL A   1      38.103  34.421  34.841  1.00  0.00     0.031 C 
ATOM     73  C   UNL A   1      39.946  33.324  36.088  1.00  0.00     0.037 A 
BRANCH  60  74
ATOM     74  C   UNL A   1      43.989  28.646  35.814  1.00  0.00     0.058 A 
ATOM     75  C   UNL A   1      45.328  28.987  35.561  1.00  0.00     0.135 A 
ATOM     76  C   UNL A   1      43.741  27.612  36.731  1.00  0.00     0.135 A 
ATOM     77  F   UNL A   1      45.624  29.961  34.685  1.00  0.00    -0.206 F 
ATOM     78  C   UNL A   1      46.381  28.310  36.169  1.00  0.00     0.059 A 
ATOM     79  C   UNL A   1      44.779  26.938  37.370  1.00  0.00     0.059 A 
ATOM     80  F   UNL A   1      42.481  27.246  37.014  1.00  0.00    -0.206 F 
ATOM     81  C   UNL A   1      46.097  27.285  37.072  1.00  0.00     0.060 A 
BRANCH  81  82
ATOM     82  S   UNL A   1      47.477  26.422  37.855  1.00  0.00     0.124 S 
ATOM     83  O   UNL A   1      47.069  26.434  39.257  1.00  0.00    -0.237 OA
ATOM     84  O   UNL A   1      47.446  25.120  37.197  1.00  0.00    -0.237 OA
ATOM     85  O   UNL A   1      48.629  27.258  37.530  1.00  0.00    -0.744 OA
ENDBRANCH  81  82
ENDBRANCH  60  74
BRANCH  61  86
ATOM     86  C   UNL A   1      36.474  33.262  31.123  1.00  0.00     0.058 A 
ATOM     87  C   UNL A   1      35.158  33.207  31.607  1.00  0.00     0.135 A 
ATOM     88  C   UNL A   1      36.721  34.035  29.980  1.00  0.00     0.135 A 
ATOM     89  F   UNL A   1      34.873  32.476  32.695  1.00  0.00    -0.206 F 
ATOM     90  C   UNL A   1      34.123  33.891  30.979  1.00  0.00     0.059 A 
ATOM     91  C   UNL A   1      35.706  34.745  29.346  1.00  0.00     0.059 A 
ATOM     92  F   UNL A   1      37.966  34.129  29.488  1.00  0.00    -0.206 F 
ATOM     93  C   UNL A   1      34.409  34.664  29.852  1.00  0.00     0.060 A 
BRANCH  93  94
ATOM     94  S   UNL A   1      33.069  35.607  29.091  1.00  0.00     0.124 S 
ATOM     95  O   UNL A   1      32.481  34.616  28.198  1.00  0.00    -0.237 OA
ATOM     96  O   UNL A   1      32.262  35.981  30.249  1.00  0.00    -0.237 OA
ATOM     97  O   UNL A   1      33.765  36.712  28.437  1.00  0.00    -0.744 OA
ENDBRANCH  93  94
ENDBRANCH  61  86
BRANCH  73  98
ATOM     98  C   UNL A   1      39.769  34.365  37.159  1.00  0.00     0.058 A 
ATOM     99  C   UNL A   1      40.300  35.656  37.017  1.00  0.00     0.135 A 
ATOM    100  C   UNL A   1      39.056  34.074  38.332  1.00  0.00     0.135 A 
ATOM    101  F   UNL A   1      40.994  35.984  35.915  1.00  0.00    -0.206 F 
ATOM    102  C   UNL A   1      40.163  36.612  38.019  1.00  0.00     0.059 A 
ATOM    103  C   UNL A   1      38.886  35.022  39.337  1.00  0.00     0.059 A 
ATOM    104  F   UNL A   1      38.518  32.857  38.513  1.00  0.00    -0.206 F 
ATOM    105  C   UNL A   1      39.459  36.283  39.177  1.00  0.00     0.060 A 
BRANCH 105 106
ATOM    106  S   UNL A   1      39.293  37.531  40.473  1.00  0.00     0.124 S 
ATOM    107  O   UNL A   1      40.679  37.950  40.655  1.00  0.00    -0.237 OA
ATOM    108  O   UNL A   1      38.411  38.513  39.852  1.00  0.00    -0.237 OA
ATOM    109  O   UNL A   1      38.711  36.788  41.586  1.00  0.00    -0.744 OA
ENDBRANCH 105 106
ENDBRANCH  73  98
ENDBRANCH  47  48
ENDBRANCH  40  42
ENDBRANCH  39  40
ENDBRANCH  38  39
ENDBRANCH  37  38
ENDBRANCH  36  37
ENDBRANCH  35  36
ENDBRANCH   1  35
TORSDOF 25
ENDMDL
MODEL 3
REMARK VINA RESULT:     -10.1      1.200      8.001
REMARK SMILES CC1=C(CC(=O)OCCOCCOCCOC(=O)c2ccc(-c3c4nc(c(-c5c(F)cc(S(=O)(=O)[O-])cc5F)c5ccc([nH]5)c(-c5c(F)cc(S(=O)(=O)[O-])cc5F)c5nc(c(-c6c(F)cc(S(=O)(=O)[O-])cc6F)c6ccc3[nH]6)C=C5)C=C4)cc2)c2cc(F)ccc2/C1=C\c1cccc(OCc2ccccc2)c1
REMARK SMILES IDX 11 1 10 2 9 3 8 4 7 5 5 6 6 7 4 8 3 9 1 10 2 11 92 12 85 13
REMARK SMILES IDX 91 14 93 15 86 16 90 17 87 18 89 19 88 20 94 21 95 22 107 23
REMARK SMILES IDX 96 24 98 25 97 26 99 27 100 28 101 29 102 30 106 31 103 32
REMARK SMILES IDX 105 33 104 34 12 35 13 36 14 37 15 38 16 39 17 40 18 41
REMARK SMILES IDX 19 42 20 43 84 44 21 45 83 46 22 47 23 48 24 49 77 50 25 51
REMARK SMILES IDX 82 52 76 53 78 54 26 55 81 56 75 57 74 58 27 60 61 61 40 62
REMARK SMILES IDX 60 63 41 64 44 65 59 66 79 67 42 68 43 69 58 71 80 72 45 73
REMARK SMILES IDX 28 74 29 75 38 76 30 77 31 78 37 79 39 80 32 81 33 82 34 83
REMARK SMILES IDX 35 84 36 85 62 86 63 87 72 88 64 89 65 90 71 91 73 92 66 93
REMARK SMILES IDX 67 94 68 95 69 96 70 97 46 98 47 99 56 100 48 101 49 102
REMARK SMILES IDX 55 103 57 104 50 105 51 106 52 107 53 108 54 109
REMARK H PARENT 78 59 44 70
REMARK Flexibility Score: inf
ROOT
ATOM      1  C   UNL A   1      37.441  19.839  25.265  1.00  0.00     0.188 C 
ENDROOT
BRANCH   1   2
ATOM      2  O   UNL A   1      36.217  19.474  24.627  1.00  0.00    -0.376 OA
BRANCH   2   3
ATOM      3  C   UNL A   1      35.915  18.086  24.524  1.00  0.00     0.202 C 
BRANCH   3   4
ATOM      4  C   UNL A   1      34.459  17.729  24.832  1.00  0.00     0.261 C 
BRANCH   4   5
ATOM      5  O   UNL A   1      33.555  18.590  24.111  1.00  0.00    -0.463 OA
BRANCH   5   6
ATOM      6  C   UNL A   1      33.258  19.769  24.715  1.00  0.00     0.310 C 
ATOM      7  O   UNL A   1      33.259  19.935  25.930  1.00  0.00    -0.252 OA
BRANCH   6   8
ATOM      8  C   UNL A   1      33.065  20.916  23.722  1.00  0.00     0.159 C 
BRANCH   8   9
ATOM      9  C   UNL A   1      33.071  22.326  24.236  1.00  0.00    -0.025 C 
ATOM     10  C   UNL A   1      34.972  23.323  22.886  1.00  0.00     0.045 C 
ATOM     11  C   UNL A   1      33.892  23.356  23.915  1.00  0.00    -0.039 C 
ATOM     12  C   UNL A   1      33.490  24.567  24.657  1.00  0.00    -0.014 C 
ATOM     13  C   UNL A   1      32.048  22.857  25.159  1.00  0.00    -0.011 A 
ATOM     14  C   UNL A   1      32.353  24.184  25.510  1.00  0.00    -0.010 A 
ATOM     15  C   UNL A   1      33.995  25.804  24.485  1.00  0.00     0.017 C 
ATOM     16  C   UNL A   1      30.890  22.270  25.643  1.00  0.00     0.048 A 
ATOM     17  C   UNL A   1      31.603  24.866  26.464  1.00  0.00     0.012 A 
ATOM     18  C   UNL A   1      30.096  22.997  26.531  1.00  0.00     0.123 A 
ATOM     19  C   UNL A   1      30.464  24.260  26.982  1.00  0.00     0.040 A 
ATOM     20  F   UNL A   1      28.963  22.453  26.991  1.00  0.00    -0.207 F 
BRANCH  15  21
ATOM     21  C   UNL A   1      33.475  27.028  25.114  1.00  0.00    -0.021 A 
ATOM     22  C   UNL A   1      33.833  27.348  26.426  1.00  0.00     0.008 A 
ATOM     23  C   UNL A   1      32.550  27.837  24.429  1.00  0.00     0.054 A 
ATOM     24  C   UNL A   1      33.249  28.446  27.058  1.00  0.00     0.004 A 
ATOM     25  C   UNL A   1      31.985  28.952  25.048  1.00  0.00     0.120 A 
ATOM     26  C   UNL A   1      32.328  29.239  26.372  1.00  0.00     0.046 A 
BRANCH  25  27
ATOM     27  O   UNL A   1      31.085  29.824  24.496  1.00  0.00    -0.489 OA
BRANCH  27  28
ATOM     28  C   UNL A   1      30.009  29.302  23.709  1.00  0.00     0.265 C 
BRANCH  28  29
ATOM     29  C   UNL A   1      29.262  30.387  22.965  1.00  0.00    -0.011 A 
ATOM     30  C   UNL A   1      29.108  31.660  23.533  1.00  0.00     0.007 A 
ATOM     31  C   UNL A   1      28.743  30.148  21.686  1.00  0.00     0.007 A 
ATOM     32  C   UNL A   1      28.479  32.682  22.819  1.00  0.00     0.000 A 
ATOM     33  C   UNL A   1      28.128  31.173  20.968  1.00  0.00     0.000 A 
ATOM     34  C   UNL A   1      27.999  32.440  21.533  1.00  0.00     0.000 A 
ENDBRANCH  28  29
ENDBRANCH  27  28
ENDBRANCH  25  27
ENDBRANCH  15  21
ENDBRANCH   8   9
ENDBRANCH   6   8
ENDBRANCH   5   6
ENDBRANCH   4   5
ENDBRANCH   3   4
ENDBRANCH   2   3
ENDBRANCH   1   2
BRANCH   1  35
ATOM     35  C   UNL A   1      38.005  21.240  24.982  1.00  0.00     0.188 C 
BRANCH  35  36
ATOM     36  O   UNL A   1      38.494  21.863  26.167  1.00  0.00    -0.376 OA
BRANCH  36  37
ATOM     37  C   UNL A   1      39.906  21.776  26.313  1.00  0.00     0.202 C 
BRANCH  37  38
ATOM     38  C   UNL A   1      40.360  22.590  27.524  1.00  0.00     0.261 C 
BRANCH  38  39
ATOM     39  O   UNL A   1      41.615  23.265  27.326  1.00  0.00    -0.460 OA
BRANCH  39  40
ATOM     40  C   UNL A   1      41.560  24.443  26.667  1.00  0.00     0.338 C 
ATOM     41  O   UNL A   1      41.562  24.614  25.464  1.00  0.00    -0.246 OA
BRANCH  40  42
ATOM     42  C   UNL A   1      41.400  25.509  27.673  1.00  0.00     0.060 A 
ATOM     43  C   UNL A   1      40.234  25.611  28.425  1.00  0.00     0.016 A 
ATOM     44  C   UNL A   1      42.449  26.402  27.885  1.00  0.00     0.016 A 
ATOM     45  C   UNL A   1      40.132  26.613  29.397  1.00  0.00     0.010 A 
ATOM     46  C   UNL A   1      42.369  27.368  28.888  1.00  0.00     0.010 A 
ATOM     47  C   UNL A   1      41.205  27.491  29.650  1.00  0.00    -0.014 A 
BRANCH  47  48
ATOM     48  C   UNL A   1      41.125  28.495  30.744  1.00  0.00     0.031 A 
ATOM     49  C   UNL A   1      40.086  29.584  30.731  1.00  0.00     0.074 A 
ATOM     50  C   UNL A   1      42.019  28.436  31.750  1.00  0.00     0.049 A 
ATOM     51  N   UNL A   1      39.817  30.479  31.648  1.00  0.00    -0.248 NA
ATOM     52  C   UNL A   1      39.254  29.700  29.522  1.00  0.00     0.031 C 
ATOM     53  C   UNL A   1      43.134  27.489  31.831  1.00  0.00     0.029 A 
ATOM     54  N   UNL A   1      42.127  29.176  32.901  1.00  0.00    -0.354 N 
ATOM     55  C   UNL A   1      38.780  31.250  31.140  1.00  0.00     0.074 A 
ATOM     56  C   UNL A   1      38.513  30.762  29.803  1.00  0.00     0.031 C 
ATOM     57  C   UNL A   1      43.780  27.671  32.994  1.00  0.00     0.029 A 
ATOM     58  C   UNL A   1      43.137  28.754  33.732  1.00  0.00     0.049 A 
ATOM     59  H   UNL A   1      41.538  29.936  33.110  1.00  0.00     0.167 HD
ATOM     60  C   UNL A   1      38.089  32.250  31.742  1.00  0.00     0.037 A 
ATOM     61  C   UNL A   1      43.488  29.172  34.963  1.00  0.00     0.037 A 
ATOM     62  C   UNL A   1      38.358  32.730  33.075  1.00  0.00     0.049 A 
ATOM     63  C   UNL A   1      42.693  30.262  35.624  1.00  0.00     0.074 A 
ATOM     64  C   UNL A   1      37.681  33.698  33.797  1.00  0.00     0.029 A 
ATOM     65  N   UNL A   1      39.387  32.278  33.888  1.00  0.00    -0.354 N 
ATOM     66  N   UNL A   1      41.660  30.925  35.161  1.00  0.00    -0.248 NA
ATOM     67  C   UNL A   1      43.104  30.652  36.979  1.00  0.00     0.031 C 
ATOM     68  C   UNL A   1      38.321  33.853  35.033  1.00  0.00     0.029 A 
ATOM     69  C   UNL A   1      39.374  32.956  35.096  1.00  0.00     0.049 A 
ATOM     70  H   UNL A   1      40.033  31.577  33.641  1.00  0.00     0.167 HD
ATOM     71  C   UNL A   1      41.292  31.806  36.171  1.00  0.00     0.074 A 
ATOM     72  C   UNL A   1      42.197  31.571  37.279  1.00  0.00     0.031 C 
ATOM     73  C   UNL A   1      40.297  32.729  36.180  1.00  0.00     0.037 A 
BRANCH  60  74
ATOM     74  C   UNL A   1      36.953  32.871  30.974  1.00  0.00     0.058 A 
ATOM     75  C   UNL A   1      35.619  32.520  31.240  1.00  0.00     0.135 A 
ATOM     76  C   UNL A   1      37.187  33.850  29.995  1.00  0.00     0.135 A 
ATOM     77  F   UNL A   1      35.336  31.583  32.158  1.00  0.00    -0.206 F 
ATOM     78  C   UNL A   1      34.560  33.095  30.543  1.00  0.00     0.059 A 
ATOM     79  C   UNL A   1      36.141  34.456  29.303  1.00  0.00     0.059 A 
ATOM     80  F   UNL A   1      38.442  34.226  29.701  1.00  0.00    -0.206 F 
ATOM     81  C   UNL A   1      34.831  34.062  29.574  1.00  0.00     0.060 A 
BRANCH  81  82
ATOM     82  S   UNL A   1      33.444  34.800  28.686  1.00  0.00     0.124 S 
ATOM     83  O   UNL A   1      34.073  35.974  28.087  1.00  0.00    -0.237 OA
ATOM     84  O   UNL A   1      33.068  33.740  27.756  1.00  0.00    -0.237 OA
ATOM     85  O   UNL A   1      32.474  35.079  29.740  1.00  0.00    -0.744 OA
ENDBRANCH  81  82
ENDBRANCH  60  74
BRANCH  61  86
ATOM     86  C   UNL A   1      44.607  28.500  35.674  1.00  0.00     0.058 A 
ATOM     87  C   UNL A   1      45.938  28.858  35.410  1.00  0.00     0.135 A 
ATOM     88  C   UNL A   1      44.373  27.527  36.656  1.00  0.00     0.135 A 
ATOM     89  F   UNL A   1      46.211  29.781  34.475  1.00  0.00    -0.206 F 
ATOM     90  C   UNL A   1      46.998  28.272  36.091  1.00  0.00     0.059 A 
ATOM     91  C   UNL A   1      45.416  26.940  37.366  1.00  0.00     0.059 A 
ATOM     92  F   UNL A   1      43.116  27.162  36.953  1.00  0.00    -0.206 F 
ATOM     93  C   UNL A   1      46.726  27.318  37.074  1.00  0.00     0.060 A 
BRANCH  93  94
ATOM     94  S   UNL A   1      48.109  26.618  38.003  1.00  0.00     0.124 S 
ATOM     95  O   UNL A   1      49.159  26.589  36.992  1.00  0.00    -0.237 OA
ATOM     96  O   UNL A   1      48.281  27.594  39.075  1.00  0.00    -0.237 OA
ATOM     97  O   UNL A   1      47.603  25.316  38.427  1.00  0.00    -0.744 OA
ENDBRANCH  93  94
ENDBRANCH  61  86
BRANCH  73  98
ATOM     98  C   UNL A   1      40.150  33.557  37.426  1.00  0.00     0.058 A 
ATOM     99  C   UNL A   1      39.209  33.228  38.414  1.00  0.00     0.135 A 
ATOM    100  C   UNL A   1      40.961  34.682  37.639  1.00  0.00     0.135 A 
ATOM    101  F   UNL A   1      38.406  32.164  38.256  1.00  0.00    -0.206 F 
ATOM    102  C   UNL A   1      39.050  34.010  39.554  1.00  0.00     0.059 A 
ATOM    103  C   UNL A   1      40.836  35.465  38.784  1.00  0.00     0.059 A 
ATOM    104  F   UNL A   1      41.885  35.034  36.730  1.00  0.00    -0.206 F 
ATOM    105  C   UNL A   1      39.865  35.129  39.727  1.00  0.00     0.060 A 
BRANCH 105 106
ATOM    106  S   UNL A   1      39.646  36.139  41.209  1.00  0.00     0.124 S 
ATOM    107  O   UNL A   1      40.989  36.676  41.399  1.00  0.00    -0.237 OA
ATOM    108  O   UNL A   1      38.633  37.100  40.786  1.00  0.00    -0.237 OA
ATOM    109  O   UNL A   1      39.207  35.175  42.213  1.00  0.00    -0.744 OA
ENDBRANCH 105 106
ENDBRANCH  73  98
ENDBRANCH  47  48
ENDBRANCH  40  42
ENDBRANCH  39  40
ENDBRANCH  38  39
ENDBRANCH  37  38
ENDBRANCH  36  37
ENDBRANCH  35  36
ENDBRANCH   1  35
TORSDOF 25
ENDMDL
