MODEL 1
REMARK VINA RESULT:     -10.5      0.000      0.000
REMARK SMILES Cc1ccccc1OCCN1C(=O)CC[C@H](C(=O)OCCOCCOCCOC(=O)c2ccc(-c3c4nc(c(-c5c(F)cc(S(=O)(=O)[O-])cc5F)c5ccc([nH]5)c(-c5c(F)cc(S(=O)(=O)[O-])cc5F)c5nc(c(-c6c(F)cc(S(=O)(=O)[O-])cc6F)c6ccc3[nH]6)C=C5)C=C4)cc2)[C@@H]1c1ccco1
REMARK SMILES IDX 23 1 22 2 21 3 20 4 19 5 17 6 18 7 16 8 11 9 12 10 97 11
REMARK SMILES IDX 13 12 14 13 15 14 10 15 9 16 8 17 7 18 1 19 2 20 3 21 4 22
REMARK SMILES IDX 6 23 5 24 98 25 99 26 102 27 100 28 101 29 24 30 25 31 26 32
REMARK SMILES IDX 27 33 28 34 29 35 30 36 31 37 32 38 96 39 33 40 95 41 34 42
REMARK SMILES IDX 35 43 36 44 89 45 37 46 94 47 88 48 90 49 38 50 93 51 87 52
REMARK SMILES IDX 86 53 39 55 73 56 52 57 72 58 53 59 56 60 71 61 91 62 54 63
REMARK SMILES IDX 55 64 70 66 92 67 57 68 40 69 41 70 50 71 42 72 43 73 49 74
REMARK SMILES IDX 51 75 44 76 45 77 46 78 47 79 48 80 74 81 75 82 84 83 76 84
REMARK SMILES IDX 77 85 83 86 85 87 78 88 79 89 80 90 81 91 82 92 58 93 59 94
REMARK SMILES IDX 68 95 60 96 61 97 67 98 69 99 62 100 63 101 64 102 65 103
REMARK SMILES IDX 66 104
REMARK H PARENT 90 54 56 65
REMARK Flexibility Score: inf
ROOT
ATOM      1  C   UNL A   1      41.216  22.714  27.146  1.00  0.00     0.188 C 
ENDROOT
BRANCH   1   2
ATOM      2  O   UNL A   1      40.231  22.482  26.114  1.00  0.00    -0.376 OA
BRANCH   2   3
ATOM      3  C   UNL A   1      38.779  22.381  26.242  1.00  0.00     0.202 C 
BRANCH   3   4
ATOM      4  C   UNL A   1      37.337  23.287  25.731  1.00  0.00     0.261 C 
BRANCH   4   5
ATOM      5  O   UNL A   1      35.761  22.893  24.814  1.00  0.00    -0.463 OA
BRANCH   5   6
ATOM      6  C   UNL A   1      34.988  23.239  23.518  1.00  0.00     0.311 C 
ATOM      7  O   UNL A   1      35.281  23.106  22.308  1.00  0.00    -0.252 OA
BRANCH   6   8
ATOM      8  C   UNL A   1      33.817  24.066  23.545  1.00  0.00     0.130 C 
ATOM      9  N   UNL A   1      31.458  23.815  24.201  1.00  0.00    -0.328 N 
ATOM     10  C   UNL A   1      31.125  24.645  23.123  1.00  0.00     0.223 C 
ATOM     11  C   UNL A   1      32.828  23.356  24.492  1.00  0.00     0.166 C 
ATOM     12  O   UNL A   1      29.962  24.950  22.846  1.00  0.00    -0.275 OA
ATOM     13  C   UNL A   1      32.238  25.369  22.388  1.00  0.00     0.101 C 
ATOM     14  C   UNL A   1      33.462  24.545  22.198  1.00  0.00     0.028 C 
BRANCH   9  15
ATOM     15  C   UNL A   1      30.468  23.772  25.274  1.00  0.00     0.162 C 
BRANCH  15  16
ATOM     16  C   UNL A   1      30.588  24.920  26.321  1.00  0.00     0.251 C 
BRANCH  16  17
ATOM     17  O   UNL A   1      30.215  26.234  25.894  1.00  0.00    -0.491 OA
BRANCH  17  18
ATOM     18  C   UNL A   1      31.060  27.140  25.315  1.00  0.00     0.122 A 
ATOM     19  C   UNL A   1      33.354  26.672  26.444  1.00  0.00     0.048 C 
ATOM     20  C   UNL A   1      32.447  27.316  25.434  1.00  0.00    -0.009 A 
ATOM     21  C   UNL A   1      33.097  28.203  24.538  1.00  0.00     0.007 A 
ATOM     22  C   UNL A   1      32.390  28.990  23.633  1.00  0.00     0.001 A 
ATOM     23  C   UNL A   1      30.356  28.012  24.455  1.00  0.00     0.047 A 
ATOM     24  C   UNL A   1      31.008  28.929  23.622  1.00  0.00     0.004 A 
ENDBRANCH  17  18
ENDBRANCH  16  17
ENDBRANCH  15  16
ENDBRANCH   9  15
BRANCH  11  25
ATOM     25  C   UNL A   1      33.133  21.854  24.606  1.00  0.00     0.127 A 
ATOM     26  C   UNL A   1      32.908  20.417  23.666  1.00  0.00     0.048 A 
ATOM     27  O   UNL A   1      33.154  21.281  26.337  1.00  0.00    -0.467 OA
ATOM     28  C   UNL A   1      32.796  18.821  24.714  1.00  0.00     0.042 A 
ATOM     29  C   UNL A   1      32.899  19.218  26.420  1.00  0.00     0.195 A 
ENDBRANCH  11  25
ENDBRANCH   6   8
ENDBRANCH   5   6
ENDBRANCH   4   5
ENDBRANCH   3   4
ENDBRANCH   2   3
ENDBRANCH   1   2
BRANCH   1  30
ATOM     30  C   UNL A   1      41.840  21.524  27.815  1.00  0.00     0.188 C 
BRANCH  30  31
ATOM     31  O   UNL A   1      42.587  20.897  26.810  1.00  0.00    -0.376 OA
BRANCH  31  32
ATOM     32  C   UNL A   1      42.308  19.594  26.420  1.00  0.00     0.202 C 
BRANCH  32  33
ATOM     33  C   UNL A   1      43.320  19.056  25.420  1.00  0.00     0.261 C 
BRANCH  33  34
ATOM     34  O   UNL A   1      44.545  19.837  25.242  1.00  0.00    -0.460 OA
BRANCH  34  35
ATOM     35  C   UNL A   1      44.896  20.450  24.048  1.00  0.00     0.338 C 
ATOM     36  O   UNL A   1      44.749  19.909  22.964  1.00  0.00    -0.246 OA
BRANCH  35  37
ATOM     37  C   UNL A   1      45.150  21.905  24.215  1.00  0.00     0.060 A 
ATOM     38  C   UNL A   1      46.370  22.585  24.306  1.00  0.00     0.016 A 
ATOM     39  C   UNL A   1      44.056  22.615  24.510  1.00  0.00     0.016 A 
ATOM     40  C   UNL A   1      46.555  23.786  25.123  1.00  0.00     0.010 A 
ATOM     41  C   UNL A   1      44.278  23.640  25.406  1.00  0.00     0.010 A 
ATOM     42  C   UNL A   1      45.516  24.351  25.892  1.00  0.00    -0.014 A 
BRANCH  42  43
ATOM     43  C   UNL A   1      45.567  25.984  26.866  1.00  0.00     0.031 A 
ATOM     44  C   UNL A   1      44.020  27.158  27.156  1.00  0.00     0.074 A 
ATOM     45  C   UNL A   1      46.784  26.201  27.465  1.00  0.00     0.049 A 
ATOM     46  N   UNL A   1      43.726  29.011  27.324  1.00  0.00    -0.248 NA
ATOM     47  C   UNL A   1      42.216  26.523  27.873  1.00  0.00     0.031 C 
ATOM     48  C   UNL A   1      47.141  26.729  28.806  1.00  0.00     0.029 A 
ATOM     49  N   UNL A   1      48.054  25.943  26.956  1.00  0.00    -0.354 N 
ATOM     50  C   UNL A   1      42.169  29.339  28.116  1.00  0.00     0.074 A 
ATOM     51  C   UNL A   1      41.343  27.706  28.267  1.00  0.00     0.031 C 
ATOM     52  C   UNL A   1      48.398  27.200  28.789  1.00  0.00     0.029 A 
ATOM     53  C   UNL A   1      48.907  26.933  27.473  1.00  0.00     0.049 A 
ATOM     54  H   UNL A   1      48.307  25.208  26.352  1.00  0.00     0.167 HD
ATOM     55  C   UNL A   1      42.211  30.270  29.144  1.00  0.00     0.037 A 
ATOM     56  C   UNL A   1      49.583  27.757  26.647  1.00  0.00     0.037 A 
ATOM     57  C   UNL A   1      43.620  30.739  29.415  1.00  0.00     0.049 A 
ATOM     58  C   UNL A   1      49.150  29.200  26.897  1.00  0.00     0.074 A 
ATOM     59  C   UNL A   1      44.478  30.499  30.490  1.00  0.00     0.029 A 
ATOM     60  N   UNL A   1      44.477  31.198  28.390  1.00  0.00    -0.354 N 
ATOM     61  N   UNL A   1      48.037  29.593  27.492  1.00  0.00    -0.248 NA
ATOM     62  C   UNL A   1      50.038  30.314  26.600  1.00  0.00     0.031 C 
ATOM     63  C   UNL A   1      45.825  30.788  30.107  1.00  0.00     0.029 A 
ATOM     64  C   UNL A   1      45.835  31.199  28.781  1.00  0.00     0.049 A 
ATOM     65  H   UNL A   1      44.163  31.484  27.502  1.00  0.00     0.167 HD
ATOM     66  C   UNL A   1      47.988  30.977  27.546  1.00  0.00     0.074 A 
ATOM     67  C   UNL A   1      49.323  31.346  27.076  1.00  0.00     0.031 C 
ATOM     68  C   UNL A   1      46.906  31.759  27.925  1.00  0.00     0.037 A 
BRANCH  55  69
ATOM     69  C   UNL A   1      41.074  30.353  30.164  1.00  0.00     0.058 A 
ATOM     70  C   UNL A   1      40.908  29.376  31.169  1.00  0.00     0.135 A 
ATOM     71  C   UNL A   1      40.132  31.409  30.227  1.00  0.00     0.135 A 
ATOM     72  F   UNL A   1      41.775  28.368  31.318  1.00  0.00    -0.206 F 
ATOM     73  C   UNL A   1      39.870  29.401  32.103  1.00  0.00     0.059 A 
ATOM     74  C   UNL A   1      39.058  31.439  31.132  1.00  0.00     0.059 A 
ATOM     75  F   UNL A   1      40.254  32.496  29.452  1.00  0.00    -0.206 F 
ATOM     76  C   UNL A   1      38.946  30.435  32.080  1.00  0.00     0.060 A 
BRANCH  76  77
ATOM     77  S   UNL A   1      37.705  30.506  33.387  1.00  0.00     0.124 S 
ATOM     78  O   UNL A   1      38.455  30.044  34.551  1.00  0.00    -0.237 OA
ATOM     79  O   UNL A   1      37.346  31.920  33.384  1.00  0.00    -0.237 OA
ATOM     80  O   UNL A   1      36.663  29.597  32.920  1.00  0.00    -0.744 OA
ENDBRANCH  76  77
ENDBRANCH  55  69
BRANCH  56  81
ATOM     81  C   UNL A   1      49.985  26.978  25.411  1.00  0.00     0.058 A 
ATOM     82  C   UNL A   1      49.194  27.213  24.243  1.00  0.00     0.135 A 
ATOM     83  C   UNL A   1      51.303  26.560  25.178  1.00  0.00     0.135 A 
ATOM     84  F   UNL A   1      47.926  27.643  24.373  1.00  0.00    -0.206 F 
ATOM     85  C   UNL A   1      49.727  27.218  22.950  1.00  0.00     0.059 A 
ATOM     86  C   UNL A   1      51.846  26.513  23.876  1.00  0.00     0.059 A 
ATOM     87  F   UNL A   1      52.126  26.338  26.213  1.00  0.00    -0.206 F 
ATOM     88  C   UNL A   1      51.069  26.905  22.778  1.00  0.00     0.060 A 
BRANCH  88  89
ATOM     89  S   UNL A   1      51.796  27.197  21.139  1.00  0.00     0.124 S 
ATOM     90  O   UNL A   1      50.726  26.787  20.240  1.00  0.00    -0.237 OA
ATOM     91  O   UNL A   1      52.062  28.636  21.176  1.00  0.00    -0.237 OA
ATOM     92  O   UNL A   1      52.971  26.333  21.137  1.00  0.00    -0.744 OA
ENDBRANCH  88  89
ENDBRANCH  56  81
BRANCH  68  93
ATOM     93  C   UNL A   1      46.779  33.260  27.631  1.00  0.00     0.058 A 
ATOM     94  C   UNL A   1      46.043  33.828  26.579  1.00  0.00     0.135 A 
ATOM     95  C   UNL A   1      47.345  34.216  28.524  1.00  0.00     0.135 A 
ATOM     96  F   UNL A   1      45.290  33.096  25.748  1.00  0.00    -0.206 F 
ATOM     97  C   UNL A   1      45.998  35.204  26.348  1.00  0.00     0.059 A 
ATOM     98  C   UNL A   1      47.196  35.587  28.389  1.00  0.00     0.059 A 
ATOM     99  F   UNL A   1      48.090  33.876  29.582  1.00  0.00    -0.206 F 
ATOM    100  C   UNL A   1      46.573  36.074  27.262  1.00  0.00     0.060 A 
BRANCH 100 101
ATOM    101  S   UNL A   1      46.495  37.841  26.979  1.00  0.00     0.124 S 
ATOM    102  O   UNL A   1      47.195  38.349  28.153  1.00  0.00    -0.237 OA
ATOM    103  O   UNL A   1      47.200  37.982  25.708  1.00  0.00    -0.237 OA
ATOM    104  O   UNL A   1      45.063  38.116  26.929  1.00  0.00    -0.744 OA
ENDBRANCH 100 101
ENDBRANCH  68  93
ENDBRANCH  42  43
ENDBRANCH  35  37
ENDBRANCH  34  35
ENDBRANCH  33  34
ENDBRANCH  32  33
ENDBRANCH  31  32
ENDBRANCH  30  31
ENDBRANCH   1  30
TORSDOF 25
ENDMDL
MODEL 2
REMARK VINA RESULT:      -9.0      5.123     11.418
REMARK SMILES Cc1ccccc1OCCN1C(=O)CC[C@H](C(=O)OCCOCCOCCOC(=O)c2ccc(-c3c4nc(c(-c5c(F)cc(S(=O)(=O)[O-])cc5F)c5ccc([nH]5)c(-c5c(F)cc(S(=O)(=O)[O-])cc5F)c5nc(c(-c6c(F)cc(S(=O)(=O)[O-])cc6F)c6ccc3[nH]6)C=C5)C=C4)cc2)[C@@H]1c1ccco1
REMARK SMILES IDX 23 1 22 2 21 3 20 4 19 5 17 6 18 7 16 8 11 9 12 10 97 11
REMARK SMILES IDX 13 12 14 13 15 14 10 15 9 16 8 17 7 18 1 19 2 20 3 21 4 22
REMARK SMILES IDX 6 23 5 24 98 25 99 26 102 27 100 28 101 29 24 30 25 31 26 32
REMARK SMILES IDX 27 33 28 34 29 35 30 36 31 37 32 38 96 39 33 40 95 41 34 42
REMARK SMILES IDX 35 43 36 44 89 45 37 46 94 47 88 48 90 49 38 50 93 51 87 52
REMARK SMILES IDX 86 53 39 55 73 56 52 57 72 58 53 59 56 60 71 61 91 62 54 63
REMARK SMILES IDX 55 64 70 66 92 67 57 68 40 69 41 70 50 71 42 72 43 73 49 74
REMARK SMILES IDX 51 75 44 76 45 77 46 78 47 79 48 80 74 81 75 82 84 83 76 84
REMARK SMILES IDX 77 85 83 86 85 87 78 88 79 89 80 90 81 91 82 92 58 93 59 94
REMARK SMILES IDX 68 95 60 96 61 97 67 98 69 99 62 100 63 101 64 102 65 103
REMARK SMILES IDX 66 104
REMARK H PARENT 90 54 56 65
REMARK Flexibility Score: inf
ROOT
ATOM      1  C   UNL A   1      35.501  31.440  28.688  1.00  0.00     0.188 C 
ENDROOT
BRANCH   1   2
ATOM      2  O   UNL A   1      36.202  30.317  29.267  1.00  0.00    -0.376 OA
BRANCH   2   3
ATOM      3  C   UNL A   1      37.052  29.330  28.605  1.00  0.00     0.202 C 
BRANCH   3   4
ATOM      4  C   UNL A   1      38.692  29.237  27.924  1.00  0.00     0.261 C 
BRANCH   4   5
ATOM      5  O   UNL A   1      39.998  27.917  27.748  1.00  0.00    -0.463 OA
BRANCH   5   6
ATOM      6  C   UNL A   1      41.467  27.710  27.306  1.00  0.00     0.311 C 
ATOM      7  O   UNL A   1      41.980  27.480  26.187  1.00  0.00    -0.252 OA
BRANCH   6   8
ATOM      8  C   UNL A   1      42.511  27.491  28.263  1.00  0.00     0.130 C 
ATOM      9  N   UNL A   1      43.560  25.554  29.363  1.00  0.00    -0.328 N 
ATOM     10  C   UNL A   1      43.665  26.335  30.520  1.00  0.00     0.223 C 
ATOM     11  C   UNL A   1      42.897  26.003  28.126  1.00  0.00     0.166 C 
ATOM     12  O   UNL A   1      44.150  25.912  31.573  1.00  0.00    -0.275 OA
ATOM     13  C   UNL A   1      43.368  27.820  30.428  1.00  0.00     0.101 C 
ATOM     14  C   UNL A   1      42.213  28.144  29.549  1.00  0.00     0.028 C 
BRANCH   9  15
ATOM     15  C   UNL A   1      44.506  24.444  29.280  1.00  0.00     0.162 C 
BRANCH  15  16
ATOM     16  C   UNL A   1      45.992  24.866  29.069  1.00  0.00     0.251 C 
BRANCH  16  17
ATOM     17  O   UNL A   1      46.236  25.991  28.221  1.00  0.00    -0.491 OA
BRANCH  17  18
ATOM     18  C   UNL A   1      47.189  26.041  27.240  1.00  0.00     0.122 A 
ATOM     19  C   UNL A   1      46.050  27.377  25.323  1.00  0.00     0.048 C 
ATOM     20  C   UNL A   1      47.209  26.708  26.006  1.00  0.00    -0.009 A 
ATOM     21  C   UNL A   1      48.429  26.762  25.285  1.00  0.00     0.007 A 
ATOM     22  C   UNL A   1      49.566  26.074  25.701  1.00  0.00     0.001 A 
ATOM     23  C   UNL A   1      48.323  25.278  27.596  1.00  0.00     0.047 A 
ATOM     24  C   UNL A   1      49.500  25.290  26.839  1.00  0.00     0.004 A 
ENDBRANCH  17  18
ENDBRANCH  16  17
ENDBRANCH  15  16
ENDBRANCH   9  15
BRANCH  11  25
ATOM     25  C   UNL A   1      41.753  25.177  27.516  1.00  0.00     0.127 A 
ATOM     26  C   UNL A   1      40.168  24.641  27.965  1.00  0.00     0.048 A 
ATOM     27  O   UNL A   1      42.356  23.918  26.342  1.00  0.00    -0.467 OA
ATOM     28  C   UNL A   1      39.627  23.025  27.098  1.00  0.00     0.042 A 
ATOM     29  C   UNL A   1      40.923  22.435  26.071  1.00  0.00     0.195 A 
ENDBRANCH  11  25
ENDBRANCH   6   8
ENDBRANCH   5   6
ENDBRANCH   4   5
ENDBRANCH   3   4
ENDBRANCH   2   3
ENDBRANCH   1   2
BRANCH   1  30
ATOM     30  C   UNL A   1      35.342  32.683  29.514  1.00  0.00     0.188 C 
BRANCH  30  31
ATOM     31  O   UNL A   1      34.790  32.243  30.724  1.00  0.00    -0.376 OA
BRANCH  31  32
ATOM     32  C   UNL A   1      35.299  32.678  31.940  1.00  0.00     0.202 C 
BRANCH  32  33
ATOM     33  C   UNL A   1      36.442  31.807  32.438  1.00  0.00     0.261 C 
BRANCH  33  34
ATOM     34  O   UNL A   1      37.785  32.154  31.968  1.00  0.00    -0.460 OA
BRANCH  34  35
ATOM     35  C   UNL A   1      38.754  32.728  32.777  1.00  0.00     0.338 C 
ATOM     36  O   UNL A   1      38.483  33.512  33.671  1.00  0.00    -0.246 OA
BRANCH  35  37
ATOM     37  C   UNL A   1      40.070  32.049  32.647  1.00  0.00     0.060 A 
ATOM     38  C   UNL A   1      41.274  32.319  33.310  1.00  0.00     0.016 A 
ATOM     39  C   UNL A   1      40.143  31.201  31.616  1.00  0.00     0.016 A 
ATOM     40  C   UNL A   1      42.586  32.138  32.686  1.00  0.00     0.010 A 
ATOM     41  C   UNL A   1      41.367  31.196  30.979  1.00  0.00     0.010 A 
ATOM     42  C   UNL A   1      42.742  31.684  31.360  1.00  0.00    -0.014 A 
BRANCH  42  43
ATOM     43  C   UNL A   1      44.372  31.254  30.478  1.00  0.00     0.031 A 
ATOM     44  C   UNL A   1      45.987  30.593  31.379  1.00  0.00     0.074 A 
ATOM     45  C   UNL A   1      44.265  31.331  29.110  1.00  0.00     0.049 A 
ATOM     46  N   UNL A   1      47.848  30.757  31.137  1.00  0.00    -0.248 NA
ATOM     47  C   UNL A   1      46.012  29.019  32.680  1.00  0.00     0.031 C 
ATOM     48  C   UNL A   1      44.793  30.457  28.032  1.00  0.00     0.029 A 
ATOM     49  N   UNL A   1      43.580  32.275  28.350  1.00  0.00    -0.354 N 
ATOM     50  C   UNL A   1      48.716  29.458  31.983  1.00  0.00     0.074 A 
ATOM     51  C   UNL A   1      47.440  28.571  32.961  1.00  0.00     0.031 C 
ATOM     52  C   UNL A   1      44.852  31.144  26.879  1.00  0.00     0.029 A 
ATOM     53  C   UNL A   1      44.309  32.443  27.161  1.00  0.00     0.049 A 
ATOM     54  H   UNL A   1      42.745  32.734  28.597  1.00  0.00     0.167 HD
ATOM     55  C   UNL A   1      49.690  28.811  31.236  1.00  0.00     0.037 A 
ATOM     56  C   UNL A   1      44.797  33.654  26.820  1.00  0.00     0.037 A 
ATOM     57  C   UNL A   1      49.730  29.316  29.814  1.00  0.00     0.049 A 
ATOM     58  C   UNL A   1      46.320  33.588  26.745  1.00  0.00     0.074 A 
ATOM     59  C   UNL A   1      49.349  28.714  28.613  1.00  0.00     0.029 A 
ATOM     60  N   UNL A   1      49.796  30.691  29.499  1.00  0.00    -0.354 N 
ATOM     61  N   UNL A   1      47.095  32.671  27.300  1.00  0.00    -0.248 NA
ATOM     62  C   UNL A   1      47.072  34.504  25.901  1.00  0.00     0.031 C 
ATOM     63  C   UNL A   1      49.171  29.712  27.606  1.00  0.00     0.029 A 
ATOM     64  C   UNL A   1      49.421  30.959  28.163  1.00  0.00     0.049 A 
ATOM     65  H   UNL A   1      50.072  31.386  30.140  1.00  0.00     0.167 HD
ATOM     66  C   UNL A   1      48.425  32.932  27.012  1.00  0.00     0.074 A 
ATOM     67  C   UNL A   1      48.317  34.019  26.041  1.00  0.00     0.031 C 
ATOM     68  C   UNL A   1      49.535  32.308  27.564  1.00  0.00     0.037 A 
BRANCH  55  69
ATOM     69  C   UNL A   1      50.220  27.443  31.670  1.00  0.00     0.058 A 
ATOM     70  C   UNL A   1      51.387  27.315  32.454  1.00  0.00     0.135 A 
ATOM     71  C   UNL A   1      49.587  26.209  31.376  1.00  0.00     0.135 A 
ATOM     72  F   UNL A   1      52.046  28.386  32.911  1.00  0.00    -0.206 F 
ATOM     73  C   UNL A   1      51.917  26.086  32.852  1.00  0.00     0.059 A 
ATOM     74  C   UNL A   1      50.119  24.959  31.731  1.00  0.00     0.059 A 
ATOM     75  F   UNL A   1      48.384  26.170  30.786  1.00  0.00    -0.206 F 
ATOM     76  C   UNL A   1      51.280  24.909  32.486  1.00  0.00     0.060 A 
BRANCH  76  77
ATOM     77  S   UNL A   1      51.917  23.351  33.134  1.00  0.00     0.124 S 
ATOM     78  O   UNL A   1      51.328  23.308  34.469  1.00  0.00    -0.237 OA
ATOM     79  O   UNL A   1      51.386  22.387  32.176  1.00  0.00    -0.237 OA
ATOM     80  O   UNL A   1      53.365  23.532  33.100  1.00  0.00    -0.744 OA
ENDBRANCH  76  77
ENDBRANCH  55  69
BRANCH  56  81
ATOM     81  C   UNL A   1      43.810  34.714  27.264  1.00  0.00     0.058 A 
ATOM     82  C   UNL A   1      44.175  35.453  28.432  1.00  0.00     0.135 A 
ATOM     83  C   UNL A   1      42.960  35.377  26.366  1.00  0.00     0.135 A 
ATOM     84  F   UNL A   1      45.009  34.904  29.334  1.00  0.00    -0.206 F 
ATOM     85  C   UNL A   1      43.876  36.809  28.601  1.00  0.00     0.059 A 
ATOM     86  C   UNL A   1      42.608  36.732  26.544  1.00  0.00     0.059 A 
ATOM     87  F   UNL A   1      42.584  34.771  25.231  1.00  0.00    -0.206 F 
ATOM     88  C   UNL A   1      43.123  37.454  27.629  1.00  0.00     0.060 A 
BRANCH  88  89
ATOM     89  S   UNL A   1      42.994  39.264  27.729  1.00  0.00     0.124 S 
ATOM     90  O   UNL A   1      42.726  39.639  26.347  1.00  0.00    -0.237 OA
ATOM     91  O   UNL A   1      41.871  39.438  28.651  1.00  0.00    -0.237 OA
ATOM     92  O   UNL A   1      44.301  39.663  28.236  1.00  0.00    -0.744 OA
ENDBRANCH  88  89
ENDBRANCH  56  81
BRANCH  68  93
ATOM     93  C   UNL A   1      50.965  32.862  27.487  1.00  0.00     0.058 A 
ATOM     94  C   UNL A   1      51.452  33.969  28.200  1.00  0.00     0.135 A 
ATOM     95  C   UNL A   1      51.958  32.179  26.727  1.00  0.00     0.135 A 
ATOM     96  F   UNL A   1      50.716  34.623  29.107  1.00  0.00    -0.206 F 
ATOM     97  C   UNL A   1      52.757  34.441  28.057  1.00  0.00     0.059 A 
ATOM     98  C   UNL A   1      53.292  32.553  26.681  1.00  0.00     0.059 A 
ATOM     99  F   UNL A   1      51.692  31.107  25.971  1.00  0.00    -0.206 F 
ATOM    100  C   UNL A   1      53.670  33.722  27.299  1.00  0.00     0.060 A 
BRANCH 100 101
ATOM    101  S   UNL A   1      55.353  34.316  27.135  1.00  0.00     0.124 S 
ATOM    102  O   UNL A   1      55.677  33.881  25.780  1.00  0.00    -0.237 OA
ATOM    103  O   UNL A   1      55.192  35.755  27.318  1.00  0.00    -0.237 OA
ATOM    104  O   UNL A   1      56.064  33.628  28.207  1.00  0.00    -0.744 OA
ENDBRANCH 100 101
ENDBRANCH  68  93
ENDBRANCH  42  43
ENDBRANCH  35  37
ENDBRANCH  34  35
ENDBRANCH  33  34
ENDBRANCH  32  33
ENDBRANCH  31  32
ENDBRANCH  30  31
ENDBRANCH   1  30
TORSDOF 25
ENDMDL
MODEL 3
REMARK VINA RESULT:      -8.9      5.970     13.427
REMARK SMILES Cc1ccccc1OCCN1C(=O)CC[C@H](C(=O)OCCOCCOCCOC(=O)c2ccc(-c3c4nc(c(-c5c(F)cc(S(=O)(=O)[O-])cc5F)c5ccc([nH]5)c(-c5c(F)cc(S(=O)(=O)[O-])cc5F)c5nc(c(-c6c(F)cc(S(=O)(=O)[O-])cc6F)c6ccc3[nH]6)C=C5)C=C4)cc2)[C@@H]1c1ccco1
REMARK SMILES IDX 23 1 22 2 21 3 20 4 19 5 17 6 18 7 16 8 11 9 12 10 97 11
REMARK SMILES IDX 13 12 14 13 15 14 10 15 9 16 8 17 7 18 1 19 2 20 3 21 4 22
REMARK SMILES IDX 6 23 5 24 98 25 99 26 102 27 100 28 101 29 24 30 25 31 26 32
REMARK SMILES IDX 27 33 28 34 29 35 30 36 31 37 32 38 96 39 33 40 95 41 34 42
REMARK SMILES IDX 35 43 36 44 89 45 37 46 94 47 88 48 90 49 38 50 93 51 87 52
REMARK SMILES IDX 86 53 39 55 73 56 52 57 72 58 53 59 56 60 71 61 91 62 54 63
REMARK SMILES IDX 55 64 70 66 92 67 57 68 40 69 41 70 50 71 42 72 43 73 49 74
REMARK SMILES IDX 51 75 44 76 45 77 46 78 47 79 48 80 74 81 75 82 84 83 76 84
REMARK SMILES IDX 77 85 83 86 85 87 78 88 79 89 80 90 81 91 82 92 58 93 59 94
REMARK SMILES IDX 68 95 60 96 61 97 67 98 69 99 62 100 63 101 64 102 65 103
REMARK SMILES IDX 66 104
REMARK H PARENT 90 54 56 65
REMARK Flexibility Score: inf
ROOT
ATOM      1  C   UNL A   1      48.222  34.485  27.371  1.00  0.00     0.188 C 
ENDROOT
BRANCH   1   2
ATOM      2  O   UNL A   1      47.887  34.025  28.700  1.00  0.00    -0.376 OA
BRANCH   2   3
ATOM      3  C   UNL A   1      47.811  32.655  29.200  1.00  0.00     0.202 C 
BRANCH   3   4
ATOM      4  C   UNL A   1      47.779  31.003  28.541  1.00  0.00     0.261 C 
BRANCH   4   5
ATOM      5  O   UNL A   1      46.726  30.068  27.318  1.00  0.00    -0.463 OA
BRANCH   5   6
ATOM      6  C   UNL A   1      46.797  29.359  25.944  1.00  0.00     0.311 C 
ATOM      7  O   UNL A   1      46.409  29.703  24.804  1.00  0.00    -0.252 OA
BRANCH   6   8
ATOM      8  C   UNL A   1      47.132  27.969  25.836  1.00  0.00     0.130 C 
ATOM      9  N   UNL A   1      45.947  25.819  26.015  1.00  0.00    -0.328 N 
ATOM     10  C   UNL A   1      47.097  25.296  26.619  1.00  0.00     0.223 C 
ATOM     11  C   UNL A   1      45.792  27.232  25.629  1.00  0.00     0.166 C 
ATOM     12  O   UNL A   1      47.176  24.129  27.012  1.00  0.00    -0.275 OA
ATOM     13  C   UNL A   1      48.368  26.124  26.609  1.00  0.00     0.101 C 
ATOM     14  C   UNL A   1      48.137  27.575  26.838  1.00  0.00     0.028 C 
BRANCH   9  15
ATOM     15  C   UNL A   1      45.075  24.829  25.388  1.00  0.00     0.162 C 
BRANCH  15  16
ATOM     16  C   UNL A   1      43.940  24.282  26.305  1.00  0.00     0.251 C 
BRANCH  16  17
ATOM     17  O   UNL A   1      42.611  24.744  26.045  1.00  0.00    -0.491 OA
BRANCH  17  18
ATOM     18  C   UNL A   1      41.693  25.072  27.004  1.00  0.00     0.122 A 
ATOM     19  C   UNL A   1      43.074  25.138  29.204  1.00  0.00     0.048 C 
ATOM     20  C   UNL A   1      41.844  25.355  28.369  1.00  0.00    -0.009 A 
ATOM     21  C   UNL A   1      40.736  25.886  29.078  1.00  0.00     0.007 A 
ATOM     22  C   UNL A   1      39.479  26.017  28.496  1.00  0.00     0.001 A 
ATOM     23  C   UNL A   1      40.390  25.127  26.459  1.00  0.00     0.047 A 
ATOM     24  C   UNL A   1      39.292  25.593  27.192  1.00  0.00     0.004 A 
ENDBRANCH  17  18
ENDBRANCH  16  17
ENDBRANCH  15  16
ENDBRANCH   9  15
BRANCH  11  25
ATOM     25  C   UNL A   1      44.607  28.055  26.160  1.00  0.00     0.127 A 
ATOM     26  C   UNL A   1      43.876  28.427  27.687  1.00  0.00     0.048 A 
ATOM     27  O   UNL A   1      43.247  28.173  24.951  1.00  0.00    -0.467 OA
ATOM     28  C   UNL A   1      42.012  28.836  27.568  1.00  0.00     0.042 A 
ATOM     29  C   UNL A   1      41.470  28.679  25.906  1.00  0.00     0.195 A 
ENDBRANCH  11  25
ENDBRANCH   6   8
ENDBRANCH   5   6
ENDBRANCH   4   5
ENDBRANCH   3   4
ENDBRANCH   2   3
ENDBRANCH   1   2
BRANCH   1  30
ATOM     30  C   UNL A   1      47.431  33.951  26.213  1.00  0.00     0.188 C 
BRANCH  30  31
ATOM     31  O   UNL A   1      46.091  34.105  26.590  1.00  0.00    -0.376 OA
BRANCH  31  32
ATOM     32  C   UNL A   1      45.173  34.704  25.739  1.00  0.00     0.202 C 
BRANCH  32  33
ATOM     33  C   UNL A   1      44.285  35.710  26.455  1.00  0.00     0.261 C 
BRANCH  33  34
ATOM     34  O   UNL A   1      43.052  35.192  27.049  1.00  0.00    -0.460 OA
BRANCH  34  35
ATOM     35  C   UNL A   1      42.868  35.034  28.415  1.00  0.00     0.338 C 
ATOM     36  O   UNL A   1      41.966  35.585  29.024  1.00  0.00    -0.246 OA
BRANCH  35  37
ATOM     37  C   UNL A   1      43.662  33.904  28.964  1.00  0.00     0.060 A 
ATOM     38  C   UNL A   1      43.518  32.529  28.738  1.00  0.00     0.016 A 
ATOM     39  C   UNL A   1      44.490  34.254  29.953  1.00  0.00     0.016 A 
ATOM     40  C   UNL A   1      43.805  31.518  29.758  1.00  0.00     0.010 A 
ATOM     41  C   UNL A   1      44.595  33.313  30.957  1.00  0.00     0.010 A 
ATOM     42  C   UNL A   1      44.243  31.850  31.056  1.00  0.00    -0.014 A 
BRANCH  42  43
ATOM     43  C   UNL A   1      44.803  30.649  32.421  1.00  0.00     0.031 A 
ATOM     44  C   UNL A   1      46.525  29.706  32.440  1.00  0.00     0.074 A 
ATOM     45  C   UNL A   1      43.921  30.604  33.474  1.00  0.00     0.049 A 
ATOM     46  N   UNL A   1      47.159  28.035  33.037  1.00  0.00    -0.248 NA
ATOM     47  C   UNL A   1      48.335  30.617  32.186  1.00  0.00     0.031 C 
ATOM     48  C   UNL A   1      44.143  30.554  34.941  1.00  0.00     0.029 A 
ATOM     49  N   UNL A   1      42.529  30.623  33.436  1.00  0.00    -0.354 N 
ATOM     50  C   UNL A   1      48.925  28.059  33.233  1.00  0.00     0.074 A 
ATOM     51  C   UNL A   1      49.472  29.675  32.555  1.00  0.00     0.031 C 
ATOM     52  C   UNL A   1      43.054  30.057  35.549  1.00  0.00     0.029 A 
ATOM     53  C   UNL A   1      42.084  29.837  34.513  1.00  0.00     0.049 A 
ATOM     54  H   UNL A   1      41.966  31.096  32.782  1.00  0.00     0.167 HD
ATOM     55  C   UNL A   1      49.395  27.535  34.429  1.00  0.00     0.037 A 
ATOM     56  C   UNL A   1      41.309  28.755  34.299  1.00  0.00     0.037 A 
ATOM     57  C   UNL A   1      48.266  27.134  35.345  1.00  0.00     0.049 A 
ATOM     58  C   UNL A   1      42.032  27.503  34.789  1.00  0.00     0.074 A 
ATOM     59  C   UNL A   1      47.805  27.694  36.539  1.00  0.00     0.029 A 
ATOM     60  N   UNL A   1      47.194  26.319  34.917  1.00  0.00    -0.354 N 
ATOM     61  N   UNL A   1      43.331  27.380  35.004  1.00  0.00    -0.248 NA
ATOM     62  C   UNL A   1      41.293  26.321  35.206  1.00  0.00     0.031 C 
ATOM     63  C   UNL A   1      46.477  27.241  36.806  1.00  0.00     0.029 A 
ATOM     64  C   UNL A   1      46.075  26.399  35.777  1.00  0.00     0.049 A 
ATOM     65  H   UNL A   1      47.223  25.758  34.108  1.00  0.00     0.167 HD
ATOM     66  C   UNL A   1      43.623  26.101  35.452  1.00  0.00     0.074 A 
ATOM     67  C   UNL A   1      42.288  25.543  35.663  1.00  0.00     0.031 C 
ATOM     68  C   UNL A   1      44.882  25.539  35.607  1.00  0.00     0.037 A 
BRANCH  55  69
ATOM     69  C   UNL A   1      50.813  27.852  34.911  1.00  0.00     0.058 A 
ATOM     70  C   UNL A   1      51.111  29.045  35.603  1.00  0.00     0.135 A 
ATOM     71  C   UNL A   1      51.922  26.983  34.756  1.00  0.00     0.135 A 
ATOM     72  F   UNL A   1      50.158  29.925  35.929  1.00  0.00    -0.206 F 
ATOM     73  C   UNL A   1      52.395  29.382  36.038  1.00  0.00     0.059 A 
ATOM     74  C   UNL A   1      53.228  27.315  35.151  1.00  0.00     0.059 A 
ATOM     75  F   UNL A   1      51.770  25.743  34.272  1.00  0.00    -0.206 F 
ATOM     76  C   UNL A   1      53.451  28.513  35.809  1.00  0.00     0.060 A 
BRANCH  76  77
ATOM     77  S   UNL A   1      55.064  28.920  36.507  1.00  0.00     0.124 S 
ATOM     78  O   UNL A   1      55.658  29.741  35.455  1.00  0.00    -0.237 OA
ATOM     79  O   UNL A   1      54.694  29.626  37.729  1.00  0.00    -0.237 OA
ATOM     80  O   UNL A   1      55.691  27.616  36.704  1.00  0.00    -0.744 OA
ENDBRANCH  76  77
ENDBRANCH  55  69
BRANCH  56  81
ATOM     81  C   UNL A   1      40.382  29.047  33.137  1.00  0.00     0.058 A 
ATOM     82  C   UNL A   1      39.251  29.869  33.435  1.00  0.00     0.135 A 
ATOM     83  C   UNL A   1      40.829  29.087  31.807  1.00  0.00     0.135 A 
ATOM     84  F   UNL A   1      38.772  29.913  34.691  1.00  0.00    -0.206 F 
ATOM     85  C   UNL A   1      38.725  30.799  32.532  1.00  0.00     0.059 A 
ATOM     86  C   UNL A   1      40.279  29.986  30.869  1.00  0.00     0.059 A 
ATOM     87  F   UNL A   1      41.898  28.367  31.441  1.00  0.00    -0.206 F 
ATOM     88  C   UNL A   1      39.273  30.880  31.259  1.00  0.00     0.060 A 
BRANCH  88  89
ATOM     89  S   UNL A   1      38.769  32.278  30.214  1.00  0.00     0.124 S 
ATOM     90  O   UNL A   1      38.146  31.614  29.077  1.00  0.00    -0.237 OA
ATOM     91  O   UNL A   1      37.850  33.000  31.095  1.00  0.00    -0.237 OA
ATOM     92  O   UNL A   1      40.031  32.949  29.924  1.00  0.00    -0.744 OA
ENDBRANCH  88  89
ENDBRANCH  56  81
BRANCH  68  93
ATOM     93  C   UNL A   1      45.144  24.034  35.757  1.00  0.00     0.058 A 
ATOM     94  C   UNL A   1      45.538  23.387  36.940  1.00  0.00     0.135 A 
ATOM     95  C   UNL A   1      44.884  23.149  34.671  1.00  0.00     0.135 A 
ATOM     96  F   UNL A   1      45.649  24.028  38.109  1.00  0.00    -0.206 F 
ATOM     97  C   UNL A   1      45.793  22.017  36.998  1.00  0.00     0.059 A 
ATOM     98  C   UNL A   1      45.000  21.771  34.749  1.00  0.00     0.059 A 
ATOM     99  F   UNL A   1      44.509  23.571  33.458  1.00  0.00    -0.206 F 
ATOM    100  C   UNL A   1      45.515  21.217  35.899  1.00  0.00     0.060 A 
BRANCH 100 101
ATOM    101  S   UNL A   1      45.820  19.454  35.982  1.00  0.00     0.124 S 
ATOM    102  O   UNL A   1      47.181  19.376  35.462  1.00  0.00    -0.237 OA
ATOM    103  O   UNL A   1      45.670  19.181  37.409  1.00  0.00    -0.237 OA
ATOM    104  O   UNL A   1      44.783  18.886  35.127  1.00  0.00    -0.744 OA
ENDBRANCH 100 101
ENDBRANCH  68  93
ENDBRANCH  42  43
ENDBRANCH  35  37
ENDBRANCH  34  35
ENDBRANCH  33  34
ENDBRANCH  32  33
ENDBRANCH  31  32
ENDBRANCH  30  31
ENDBRANCH   1  30
TORSDOF 25
ENDMDL
