MODEL 1
REMARK VINA RESULT:     -10.2      0.000      0.000
REMARK SMILES O=C(OCCOCCOCCOC(=O)[C@H]1C=C[C@H](NS(=O)(=O)c2ccc(F)c(F)c2F)C1)c1ccc(-c2c3nc(c(-c4c(F)cc(S(=O)(=O)[O-])cc4F)c4ccc([nH]4)c(-c4c(F)cc(S(=O)(=O)[O-])cc4F)c4nc(c(-c5c(F)cc(S(=O)(=O)[O-])cc5F)c5ccc2[nH]5)C=C4)C=C3)cc1
REMARK SMILES IDX 7 1 6 2 5 3 4 4 3 5 2 6 1 7 33 8 34 9 98 10 35 11 97 12
REMARK SMILES IDX 36 13 37 14 38 15 91 16 39 17 96 18 90 19 92 20 40 21 95 22
REMARK SMILES IDX 89 23 88 24 41 26 75 27 54 28 74 29 55 30 58 31 73 32 93 33
REMARK SMILES IDX 56 34 57 35 72 37 94 38 59 39 42 40 43 41 52 42 44 43 45 44
REMARK SMILES IDX 51 45 53 46 46 47 47 48 48 49 49 50 50 51 76 52 77 53 86 54
REMARK SMILES IDX 78 55 79 56 85 57 87 58 80 59 81 60 82 61 83 62 84 63 60 64
REMARK SMILES IDX 61 65 70 66 62 67 63 68 69 69 71 70 64 71 65 72 66 73 67 74
REMARK SMILES IDX 68 75 8 76 9 77 10 78 11 79 12 80 13 81 14 82 15 83 16 84
REMARK SMILES IDX 32 85 17 86 18 87 19 88 20 90 21 91 22 92 23 93 24 94 30 95
REMARK SMILES IDX 25 96 28 97 31 98 26 99 29 100 27 101
REMARK H PARENT 92 25 58 36 19 89
REMARK Flexibility Score: inf
ROOT
ATOM      1  C   UNL A   1      34.514  32.754  28.474  1.00  0.00     0.188 C 
ENDROOT
BRANCH   1   2
ATOM      2  O   UNL A   1      34.099  32.938  29.830  1.00  0.00    -0.376 OA
BRANCH   2   3
ATOM      3  C   UNL A   1      35.089  33.562  30.660  1.00  0.00     0.202 C 
BRANCH   3   4
ATOM      4  C   UNL A   1      36.568  33.430  30.219  1.00  0.00     0.261 C 
BRANCH   4   5
ATOM      5  O   UNL A   1      37.492  33.023  31.252  1.00  0.00    -0.460 OA
BRANCH   5   6
ATOM      6  C   UNL A   1      37.906  31.781  31.627  1.00  0.00     0.338 C 
ATOM      7  O   UNL A   1      37.317  31.225  32.552  1.00  0.00    -0.246 OA
BRANCH   6   8
ATOM      8  C   UNL A   1      39.067  31.078  31.001  1.00  0.00     0.060 A 
ATOM      9  C   UNL A   1      40.213  30.737  31.701  1.00  0.00     0.016 A 
ATOM     10  C   UNL A   1      39.012  30.718  29.644  1.00  0.00     0.016 A 
ATOM     11  C   UNL A   1      41.315  30.184  31.096  1.00  0.00     0.010 A 
ATOM     12  C   UNL A   1      40.099  30.068  29.031  1.00  0.00     0.010 A 
ATOM     13  C   UNL A   1      41.272  29.827  29.761  1.00  0.00    -0.014 A 
BRANCH  13  14
ATOM     14  C   UNL A   1      42.564  29.434  29.163  1.00  0.00     0.031 A 
ATOM     15  C   UNL A   1      42.724  27.992  28.798  1.00  0.00     0.074 A 
ATOM     16  C   UNL A   1      43.424  30.365  28.699  1.00  0.00     0.049 A 
ATOM     17  N   UNL A   1      43.769  27.370  28.339  1.00  0.00    -0.248 NA
ATOM     18  C   UNL A   1      41.515  27.150  28.897  1.00  0.00     0.031 C 
ATOM     19  C   UNL A   1      43.177  31.810  28.695  1.00  0.00     0.029 A 
ATOM     20  N   UNL A   1      44.664  30.262  28.119  1.00  0.00    -0.354 N 
ATOM     21  C   UNL A   1      43.336  26.082  28.054  1.00  0.00     0.074 A 
ATOM     22  C   UNL A   1      41.957  25.981  28.462  1.00  0.00     0.031 C 
ATOM     23  C   UNL A   1      44.246  32.454  28.210  1.00  0.00     0.029 A 
ATOM     24  C   UNL A   1      45.300  31.482  27.993  1.00  0.00     0.049 A 
ATOM     25  H   UNL A   1      45.058  29.409  27.825  1.00  0.00     0.167 HD
ATOM     26  C   UNL A   1      44.035  25.096  27.453  1.00  0.00     0.037 A 
ATOM     27  C   UNL A   1      46.615  31.762  27.869  1.00  0.00     0.037 A 
ATOM     28  C   UNL A   1      45.415  25.257  27.090  1.00  0.00     0.049 A 
ATOM     29  C   UNL A   1      47.507  30.548  27.685  1.00  0.00     0.074 A 
ATOM     30  C   UNL A   1      46.282  24.343  26.530  1.00  0.00     0.029 A 
ATOM     31  N   UNL A   1      46.130  26.434  27.281  1.00  0.00    -0.354 N 
ATOM     32  N   UNL A   1      47.144  29.294  27.503  1.00  0.00    -0.248 NA
ATOM     33  C   UNL A   1      48.957  30.747  27.695  1.00  0.00     0.031 C 
ATOM     34  C   UNL A   1      47.540  24.952  26.441  1.00  0.00     0.029 A 
ATOM     35  C   UNL A   1      47.439  26.266  26.880  1.00  0.00     0.049 A 
ATOM     36  H   UNL A   1      45.756  27.268  27.649  1.00  0.00     0.167 HD
ATOM     37  C   UNL A   1      48.312  28.579  27.281  1.00  0.00     0.074 A 
ATOM     38  C   UNL A   1      49.399  29.531  27.404  1.00  0.00     0.031 C 
ATOM     39  C   UNL A   1      48.474  27.269  26.961  1.00  0.00     0.037 A 
BRANCH  26  40
ATOM     40  C   UNL A   1      43.322  23.798  27.212  1.00  0.00     0.058 A 
ATOM     41  C   UNL A   1      43.193  22.827  28.221  1.00  0.00     0.135 A 
ATOM     42  C   UNL A   1      42.812  23.491  25.943  1.00  0.00     0.135 A 
ATOM     43  F   UNL A   1      43.696  23.050  29.446  1.00  0.00    -0.206 F 
ATOM     44  C   UNL A   1      42.612  21.587  27.969  1.00  0.00     0.059 A 
ATOM     45  C   UNL A   1      42.204  22.268  25.675  1.00  0.00     0.059 A 
ATOM     46  F   UNL A   1      42.925  24.374  24.938  1.00  0.00    -0.206 F 
ATOM     47  C   UNL A   1      42.125  21.315  26.690  1.00  0.00     0.060 A 
BRANCH  47  48
ATOM     48  S   UNL A   1      41.394  19.696  26.372  1.00  0.00     0.124 S 
ATOM     49  O   UNL A   1      40.016  20.054  26.050  1.00  0.00    -0.237 OA
ATOM     50  O   UNL A   1      42.198  19.207  25.255  1.00  0.00    -0.237 OA
ATOM     51  O   UNL A   1      41.580  18.984  27.632  1.00  0.00    -0.744 OA
ENDBRANCH  47  48
ENDBRANCH  26  40
BRANCH  27  52
ATOM     52  C   UNL A   1      47.163  33.146  28.123  1.00  0.00     0.058 A 
ATOM     53  C   UNL A   1      47.426  34.069  27.099  1.00  0.00     0.135 A 
ATOM     54  C   UNL A   1      47.574  33.538  29.414  1.00  0.00     0.135 A 
ATOM     55  F   UNL A   1      47.012  33.820  25.849  1.00  0.00    -0.206 F 
ATOM     56  C   UNL A   1      48.174  35.233  27.320  1.00  0.00     0.059 A 
ATOM     57  C   UNL A   1      48.282  34.704  29.669  1.00  0.00     0.059 A 
ATOM     58  F   UNL A   1      47.322  32.772  30.483  1.00  0.00    -0.206 F 
ATOM     59  C   UNL A   1      48.618  35.528  28.608  1.00  0.00     0.060 A 
BRANCH  59  60
ATOM     60  S   UNL A   1      49.742  36.909  28.909  1.00  0.00     0.124 S 
ATOM     61  O   UNL A   1      50.286  37.167  27.581  1.00  0.00    -0.237 OA
ATOM     62  O   UNL A   1      48.831  37.915  29.440  1.00  0.00    -0.237 OA
ATOM     63  O   UNL A   1      50.690  36.349  29.870  1.00  0.00    -0.744 OA
ENDBRANCH  59  60
ENDBRANCH  27  52
BRANCH  39  64
ATOM     64  C   UNL A   1      49.844  26.859  26.516  1.00  0.00     0.058 A 
ATOM     65  C   UNL A   1      50.830  26.401  27.398  1.00  0.00     0.135 A 
ATOM     66  C   UNL A   1      50.143  26.897  25.144  1.00  0.00     0.135 A 
ATOM     67  F   UNL A   1      50.593  26.365  28.719  1.00  0.00    -0.206 F 
ATOM     68  C   UNL A   1      52.081  26.014  26.935  1.00  0.00     0.059 A 
ATOM     69  C   UNL A   1      51.372  26.482  24.656  1.00  0.00     0.059 A 
ATOM     70  F   UNL A   1      49.224  27.320  24.261  1.00  0.00    -0.206 F 
ATOM     71  C   UNL A   1      52.341  26.055  25.561  1.00  0.00     0.060 A 
BRANCH  71  72
ATOM     72  S   UNL A   1      53.959  25.531  24.964  1.00  0.00     0.124 S 
ATOM     73  O   UNL A   1      53.734  24.111  24.719  1.00  0.00    -0.237 OA
ATOM     74  O   UNL A   1      54.137  26.360  23.777  1.00  0.00    -0.237 OA
ATOM     75  O   UNL A   1      54.850  25.842  26.078  1.00  0.00    -0.744 OA
ENDBRANCH  71  72
ENDBRANCH  39  64
ENDBRANCH  13  14
ENDBRANCH   6   8
ENDBRANCH   5   6
ENDBRANCH   4   5
ENDBRANCH   3   4
ENDBRANCH   2   3
ENDBRANCH   1   2
BRANCH   1  76
ATOM     76  C   UNL A   1      34.277  31.356  27.904  1.00  0.00     0.188 C 
BRANCH  76  77
ATOM     77  O   UNL A   1      33.036  31.113  27.251  1.00  0.00    -0.376 OA
BRANCH  77  78
ATOM     78  C   UNL A   1      32.579  29.767  27.197  1.00  0.00     0.202 C 
BRANCH  78  79
ATOM     79  C   UNL A   1      32.700  28.999  25.870  1.00  0.00     0.261 C 
BRANCH  79  80
ATOM     80  O   UNL A   1      32.057  29.617  24.742  1.00  0.00    -0.463 OA
BRANCH  80  81
ATOM     81  C   UNL A   1      31.493  28.764  23.838  1.00  0.00     0.312 C 
ATOM     82  O   UNL A   1      31.132  29.092  22.712  1.00  0.00    -0.252 OA
BRANCH  81  83
ATOM     83  C   UNL A   1      31.488  27.307  24.315  1.00  0.00     0.123 C 
ATOM     84  C   UNL A   1      30.156  26.657  24.474  1.00  0.00    -0.015 C 
ATOM     85  C   UNL A   1      32.205  26.391  23.304  1.00  0.00     0.043 C 
ATOM     86  C   UNL A   1      30.079  25.498  23.811  1.00  0.00    -0.011 C 
ATOM     87  C   UNL A   1      31.296  25.177  23.035  1.00  0.00     0.093 C 
BRANCH  87  88
ATOM     88  N   UNL A   1      31.987  23.959  23.425  1.00  0.00    -0.204 NA
ATOM     89  H   UNL A   1      31.242  23.326  23.718  1.00  0.00     0.142 HD
BRANCH  88  90
ATOM     90  S   UNL A   1      33.009  23.010  22.517  1.00  0.00     0.244 S 
ATOM     91  O   UNL A   1      32.292  21.751  22.365  1.00  0.00    -0.207 OA
ATOM     92  O   UNL A   1      33.421  23.744  21.353  1.00  0.00    -0.207 OA
BRANCH  90  93
ATOM     93  C   UNL A   1      34.382  22.656  23.568  1.00  0.00     0.121 A 
ATOM     94  C   UNL A   1      35.664  23.087  23.182  1.00  0.00     0.028 A 
ATOM     95  C   UNL A   1      34.193  22.058  24.810  1.00  0.00     0.181 A 
ATOM     96  C   UNL A   1      36.754  22.879  24.033  1.00  0.00     0.044 A 
ATOM     97  C   UNL A   1      35.281  21.863  25.656  1.00  0.00     0.195 A 
ATOM     98  F   UNL A   1      32.985  21.639  25.211  1.00  0.00    -0.202 F 
ATOM     99  C   UNL A   1      36.555  22.263  25.264  1.00  0.00     0.161 A 
ATOM    100  F   UNL A   1      35.106  21.271  26.845  1.00  0.00    -0.200 F 
ATOM    101  F   UNL A   1      37.610  22.031  26.057  1.00  0.00    -0.204 F 
ENDBRANCH  90  93
ENDBRANCH  88  90
ENDBRANCH  87  88
ENDBRANCH  81  83
ENDBRANCH  80  81
ENDBRANCH  79  80
ENDBRANCH  78  79
ENDBRANCH  77  78
ENDBRANCH  76  77
ENDBRANCH   1  76
TORSDOF 23
ENDMDL
MODEL 2
REMARK VINA RESULT:     -10.0      4.311      8.972
REMARK SMILES O=C(OCCOCCOCCOC(=O)[C@H]1C=C[C@H](NS(=O)(=O)c2ccc(F)c(F)c2F)C1)c1ccc(-c2c3nc(c(-c4c(F)cc(S(=O)(=O)[O-])cc4F)c4ccc([nH]4)c(-c4c(F)cc(S(=O)(=O)[O-])cc4F)c4nc(c(-c5c(F)cc(S(=O)(=O)[O-])cc5F)c5ccc2[nH]5)C=C4)C=C3)cc1
REMARK SMILES IDX 7 1 6 2 5 3 4 4 3 5 2 6 1 7 33 8 34 9 98 10 35 11 97 12
REMARK SMILES IDX 36 13 37 14 38 15 91 16 39 17 96 18 90 19 92 20 40 21 95 22
REMARK SMILES IDX 89 23 88 24 41 26 75 27 54 28 74 29 55 30 58 31 73 32 93 33
REMARK SMILES IDX 56 34 57 35 72 37 94 38 59 39 42 40 43 41 52 42 44 43 45 44
REMARK SMILES IDX 51 45 53 46 46 47 47 48 48 49 49 50 50 51 76 52 77 53 86 54
REMARK SMILES IDX 78 55 79 56 85 57 87 58 80 59 81 60 82 61 83 62 84 63 60 64
REMARK SMILES IDX 61 65 70 66 62 67 63 68 69 69 71 70 64 71 65 72 66 73 67 74
REMARK SMILES IDX 68 75 8 76 9 77 10 78 11 79 12 80 13 81 14 82 15 83 16 84
REMARK SMILES IDX 32 85 17 86 18 87 19 88 20 90 21 91 22 92 23 93 24 94 30 95
REMARK SMILES IDX 25 96 28 97 31 98 26 99 29 100 27 101
REMARK H PARENT 92 25 58 36 19 89
REMARK Flexibility Score: inf
ROOT
ATOM      1  C   UNL A   1      31.508  29.337  24.133  1.00  0.00     0.188 C 
ENDROOT
BRANCH   1   2
ATOM      2  O   UNL A   1      31.237  29.569  25.517  1.00  0.00    -0.376 OA
BRANCH   2   3
ATOM      3  C   UNL A   1      31.457  30.924  25.932  1.00  0.00     0.202 C 
BRANCH   3   4
ATOM      4  C   UNL A   1      32.440  31.152  27.108  1.00  0.00     0.261 C 
BRANCH   4   5
ATOM      5  O   UNL A   1      33.798  30.713  26.879  1.00  0.00    -0.460 OA
BRANCH   5   6
ATOM      6  C   UNL A   1      34.446  29.593  27.301  1.00  0.00     0.338 C 
ATOM      7  O   UNL A   1      33.881  28.508  27.171  1.00  0.00    -0.246 OA
BRANCH   6   8
ATOM      8  C   UNL A   1      35.789  29.619  27.956  1.00  0.00     0.060 A 
ATOM      9  C   UNL A   1      36.953  29.958  27.285  1.00  0.00     0.016 A 
ATOM     10  C   UNL A   1      35.903  29.306  29.321  1.00  0.00     0.016 A 
ATOM     11  C   UNL A   1      38.194  29.881  27.867  1.00  0.00     0.010 A 
ATOM     12  C   UNL A   1      37.159  29.311  29.956  1.00  0.00     0.010 A 
ATOM     13  C   UNL A   1      38.317  29.573  29.209  1.00  0.00    -0.014 A 
BRANCH  13  14
ATOM     14  C   UNL A   1      39.692  29.317  29.682  1.00  0.00     0.031 A 
ATOM     15  C   UNL A   1      40.240  30.265  30.702  1.00  0.00     0.074 A 
ATOM     16  C   UNL A   1      40.300  28.136  29.439  1.00  0.00     0.049 A 
ATOM     17  N   UNL A   1      41.431  30.319  31.221  1.00  0.00    -0.248 NA
ATOM     18  C   UNL A   1      39.289  31.243  31.269  1.00  0.00     0.031 C 
ATOM     19  C   UNL A   1      39.686  27.003  28.743  1.00  0.00     0.029 A 
ATOM     20  N   UNL A   1      41.549  27.663  29.757  1.00  0.00    -0.354 N 
ATOM     21  C   UNL A   1      41.362  31.301  32.200  1.00  0.00     0.074 A 
ATOM     22  C   UNL A   1      40.040  31.875  32.156  1.00  0.00     0.031 C 
ATOM     23  C   UNL A   1      40.570  26.004  28.628  1.00  0.00     0.029 A 
ATOM     24  C   UNL A   1      41.850  26.474  29.121  1.00  0.00     0.049 A 
ATOM     25  H   UNL A   1      42.164  28.123  30.372  1.00  0.00     0.167 HD
ATOM     26  C   UNL A   1      42.320  31.644  33.086  1.00  0.00     0.037 A 
ATOM     27  C   UNL A   1      43.050  25.921  28.847  1.00  0.00     0.037 A 
ATOM     28  C   UNL A   1      43.625  31.046  33.062  1.00  0.00     0.049 A 
ATOM     29  C   UNL A   1      44.235  26.638  29.467  1.00  0.00     0.074 A 
ATOM     30  C   UNL A   1      44.725  31.319  33.847  1.00  0.00     0.029 A 
ATOM     31  N   UNL A   1      43.999  30.048  32.168  1.00  0.00    -0.354 N 
ATOM     32  N   UNL A   1      44.221  27.634  30.329  1.00  0.00    -0.248 NA
ATOM     33  C   UNL A   1      45.581  26.197  29.097  1.00  0.00     0.031 C 
ATOM     34  C   UNL A   1      45.784  30.527  33.384  1.00  0.00     0.029 A 
ATOM     35  C   UNL A   1      45.324  29.712  32.357  1.00  0.00     0.049 A 
ATOM     36  H   UNL A   1      43.404  29.640  31.497  1.00  0.00     0.167 HD
ATOM     37  C   UNL A   1      45.543  27.870  30.674  1.00  0.00     0.074 A 
ATOM     38  C   UNL A   1      46.338  26.946  29.887  1.00  0.00     0.031 C 
ATOM     39  C   UNL A   1      46.056  28.734  31.588  1.00  0.00     0.037 A 
BRANCH  26  40
ATOM     40  C   UNL A   1      41.983  32.713  34.083  1.00  0.00     0.058 A 
ATOM     41  C   UNL A   1      42.169  34.077  33.798  1.00  0.00     0.135 A 
ATOM     42  C   UNL A   1      41.522  32.372  35.364  1.00  0.00     0.135 A 
ATOM     43  F   UNL A   1      42.643  34.460  32.601  1.00  0.00    -0.206 F 
ATOM     44  C   UNL A   1      41.942  35.060  34.756  1.00  0.00     0.059 A 
ATOM     45  C   UNL A   1      41.264  33.340  36.329  1.00  0.00     0.059 A 
ATOM     46  F   UNL A   1      41.345  31.084  35.696  1.00  0.00    -0.206 F 
ATOM     47  C   UNL A   1      41.493  34.681  36.022  1.00  0.00     0.060 A 
BRANCH  47  48
ATOM     48  S   UNL A   1      41.223  35.965  37.262  1.00  0.00     0.124 S 
ATOM     49  O   UNL A   1      40.051  36.649  36.725  1.00  0.00    -0.237 OA
ATOM     50  O   UNL A   1      40.999  35.183  38.474  1.00  0.00    -0.237 OA
ATOM     51  O   UNL A   1      42.465  36.731  37.236  1.00  0.00    -0.744 OA
ENDBRANCH  47  48
ENDBRANCH  26  40
BRANCH  27  52
ATOM     52  C   UNL A   1      43.206  24.821  27.824  1.00  0.00     0.058 A 
ATOM     53  C   UNL A   1      43.212  23.457  28.154  1.00  0.00     0.135 A 
ATOM     54  C   UNL A   1      43.496  25.120  26.476  1.00  0.00     0.135 A 
ATOM     55  F   UNL A   1      42.880  23.067  29.393  1.00  0.00    -0.206 F 
ATOM     56  C   UNL A   1      43.619  22.472  27.245  1.00  0.00     0.059 A 
ATOM     57  C   UNL A   1      43.866  24.160  25.544  1.00  0.00     0.059 A 
ATOM     58  F   UNL A   1      43.459  26.379  26.023  1.00  0.00    -0.206 F 
ATOM     59  C   UNL A   1      43.968  22.840  25.947  1.00  0.00     0.060 A 
BRANCH  59  60
ATOM     60  S   UNL A   1      44.679  21.639  24.802  1.00  0.00     0.124 S 
ATOM     61  O   UNL A   1      43.818  20.477  24.990  1.00  0.00    -0.237 OA
ATOM     62  O   UNL A   1      44.551  22.338  23.529  1.00  0.00    -0.237 OA
ATOM     63  O   UNL A   1      46.044  21.487  25.302  1.00  0.00    -0.744 OA
ENDBRANCH  59  60
ENDBRANCH  27  52
BRANCH  39  64
ATOM     64  C   UNL A   1      47.504  28.560  31.928  1.00  0.00     0.058 A 
ATOM     65  C   UNL A   1      48.529  29.277  31.300  1.00  0.00     0.135 A 
ATOM     66  C   UNL A   1      47.850  27.663  32.953  1.00  0.00     0.135 A 
ATOM     67  F   UNL A   1      48.246  30.132  30.304  1.00  0.00    -0.206 F 
ATOM     68  C   UNL A   1      49.858  29.094  31.663  1.00  0.00     0.059 A 
ATOM     69  C   UNL A   1      49.165  27.491  33.355  1.00  0.00     0.059 A 
ATOM     70  F   UNL A   1      46.898  26.961  33.589  1.00  0.00    -0.206 F 
ATOM     71  C   UNL A   1      50.165  28.200  32.694  1.00  0.00     0.060 A 
BRANCH  71  72
ATOM     72  S   UNL A   1      51.888  27.983  33.175  1.00  0.00     0.124 S 
ATOM     73  O   UNL A   1      51.768  27.803  34.618  1.00  0.00    -0.237 OA
ATOM     74  O   UNL A   1      52.276  26.798  32.418  1.00  0.00    -0.237 OA
ATOM     75  O   UNL A   1      52.520  29.228  32.749  1.00  0.00    -0.744 OA
ENDBRANCH  71  72
ENDBRANCH  39  64
ENDBRANCH  13  14
ENDBRANCH   6   8
ENDBRANCH   5   6
ENDBRANCH   4   5
ENDBRANCH   3   4
ENDBRANCH   2   3
ENDBRANCH   1   2
BRANCH   1  76
ATOM     76  C   UNL A   1      30.300  28.927  23.291  1.00  0.00     0.188 C 
BRANCH  76  77
ATOM     77  O   UNL A   1      30.436  27.781  22.458  1.00  0.00    -0.376 OA
BRANCH  77  78
ATOM     78  C   UNL A   1      30.379  26.506  23.086  1.00  0.00     0.202 C 
BRANCH  78  79
ATOM     79  C   UNL A   1      29.488  26.333  24.327  1.00  0.00     0.261 C 
BRANCH  79  80
ATOM     80  O   UNL A   1      29.920  25.326  25.258  1.00  0.00    -0.463 OA
BRANCH  80  81
ATOM     81  C   UNL A   1      30.878  25.714  26.150  1.00  0.00     0.312 C 
ATOM     82  O   UNL A   1      30.798  26.715  26.856  1.00  0.00    -0.252 OA
BRANCH  81  83
ATOM     83  C   UNL A   1      32.008  24.689  26.295  1.00  0.00     0.123 C 
ATOM     84  C   UNL A   1      31.611  23.296  26.649  1.00  0.00    -0.015 C 
ATOM     85  C   UNL A   1      32.766  24.509  24.966  1.00  0.00     0.043 C 
ATOM     86  C   UNL A   1      32.119  22.397  25.799  1.00  0.00    -0.011 C 
ATOM     87  C   UNL A   1      32.888  22.999  24.688  1.00  0.00     0.093 C 
BRANCH  87  88
ATOM     88  N   UNL A   1      34.292  22.630  24.624  1.00  0.00    -0.204 NA
ATOM     89  H   UNL A   1      34.794  23.499  24.815  1.00  0.00     0.142 HD
BRANCH  88  90
ATOM     90  S   UNL A   1      35.104  21.478  25.510  1.00  0.00     0.244 S 
ATOM     91  O   UNL A   1      34.483  21.530  26.826  1.00  0.00    -0.207 OA
ATOM     92  O   UNL A   1      35.118  20.244  24.773  1.00  0.00    -0.207 OA
BRANCH  90  93
ATOM     93  C   UNL A   1      36.737  22.111  25.724  1.00  0.00     0.121 A 
ATOM     94  C   UNL A   1      36.904  23.460  26.085  1.00  0.00     0.028 A 
ATOM     95  C   UNL A   1      37.843  21.270  25.644  1.00  0.00     0.181 A 
ATOM     96  C   UNL A   1      38.186  23.964  26.328  1.00  0.00     0.044 A 
ATOM     97  C   UNL A   1      39.116  21.776  25.897  1.00  0.00     0.195 A 
ATOM     98  F   UNL A   1      37.721  19.980  25.306  1.00  0.00    -0.202 F 
ATOM     99  C   UNL A   1      39.285  23.116  26.227  1.00  0.00     0.161 A 
ATOM    100  F   UNL A   1      40.184  20.973  25.804  1.00  0.00    -0.200 F 
ATOM    101  F   UNL A   1      40.513  23.615  26.422  1.00  0.00    -0.204 F 
ENDBRANCH  90  93
ENDBRANCH  88  90
ENDBRANCH  87  88
ENDBRANCH  81  83
ENDBRANCH  80  81
ENDBRANCH  79  80
ENDBRANCH  78  79
ENDBRANCH  77  78
ENDBRANCH  76  77
ENDBRANCH   1  76
TORSDOF 23
ENDMDL
MODEL 3
REMARK VINA RESULT:      -9.8      4.646     11.061
REMARK SMILES O=C(OCCOCCOCCOC(=O)[C@H]1C=C[C@H](NS(=O)(=O)c2ccc(F)c(F)c2F)C1)c1ccc(-c2c3nc(c(-c4c(F)cc(S(=O)(=O)[O-])cc4F)c4ccc([nH]4)c(-c4c(F)cc(S(=O)(=O)[O-])cc4F)c4nc(c(-c5c(F)cc(S(=O)(=O)[O-])cc5F)c5ccc2[nH]5)C=C4)C=C3)cc1
REMARK SMILES IDX 7 1 6 2 5 3 4 4 3 5 2 6 1 7 33 8 34 9 98 10 35 11 97 12
REMARK SMILES IDX 36 13 37 14 38 15 91 16 39 17 96 18 90 19 92 20 40 21 95 22
REMARK SMILES IDX 89 23 88 24 41 26 75 27 54 28 74 29 55 30 58 31 73 32 93 33
REMARK SMILES IDX 56 34 57 35 72 37 94 38 59 39 42 40 43 41 52 42 44 43 45 44
REMARK SMILES IDX 51 45 53 46 46 47 47 48 48 49 49 50 50 51 76 52 77 53 86 54
REMARK SMILES IDX 78 55 79 56 85 57 87 58 80 59 81 60 82 61 83 62 84 63 60 64
REMARK SMILES IDX 61 65 70 66 62 67 63 68 69 69 71 70 64 71 65 72 66 73 67 74
REMARK SMILES IDX 68 75 8 76 9 77 10 78 11 79 12 80 13 81 14 82 15 83 16 84
REMARK SMILES IDX 32 85 17 86 18 87 19 88 20 90 21 91 22 92 23 93 24 94 30 95
REMARK SMILES IDX 25 96 28 97 31 98 26 99 29 100 27 101
REMARK H PARENT 92 25 58 36 19 89
REMARK Flexibility Score: inf
ROOT
ATOM      1  C   UNL A   1      36.983  33.816  29.660  1.00  0.00     0.188 C 
ENDROOT
BRANCH   1   2
ATOM      2  O   UNL A   1      35.817  33.902  30.483  1.00  0.00    -0.376 OA
BRANCH   2   3
ATOM      3  C   UNL A   1      34.587  33.731  29.766  1.00  0.00     0.202 C 
BRANCH   3   4
ATOM      4  C   UNL A   1      34.682  33.209  28.311  1.00  0.00     0.261 C 
BRANCH   4   5
ATOM      5  O   UNL A   1      33.864  32.057  28.008  1.00  0.00    -0.460 OA
BRANCH   5   6
ATOM      6  C   UNL A   1      34.204  30.746  27.870  1.00  0.00     0.338 C 
ATOM      7  O   UNL A   1      33.344  29.958  27.479  1.00  0.00    -0.246 OA
BRANCH   6   8
ATOM      8  C   UNL A   1      35.555  30.207  28.214  1.00  0.00     0.060 A 
ATOM      9  C   UNL A   1      35.876  29.707  29.465  1.00  0.00     0.016 A 
ATOM     10  C   UNL A   1      36.561  30.177  27.233  1.00  0.00     0.016 A 
ATOM     11  C   UNL A   1      37.146  29.309  29.802  1.00  0.00     0.010 A 
ATOM     12  C   UNL A   1      37.844  29.686  27.537  1.00  0.00     0.010 A 
ATOM     13  C   UNL A   1      38.144  29.277  28.845  1.00  0.00    -0.014 A 
BRANCH  13  14
ATOM     14  C   UNL A   1      39.508  29.031  29.353  1.00  0.00     0.031 A 
ATOM     15  C   UNL A   1      40.020  29.977  30.392  1.00  0.00     0.074 A 
ATOM     16  C   UNL A   1      40.133  27.857  29.118  1.00  0.00     0.049 A 
ATOM     17  N   UNL A   1      41.196  30.040  30.942  1.00  0.00    -0.248 NA
ATOM     18  C   UNL A   1      39.045  30.943  30.939  1.00  0.00     0.031 C 
ATOM     19  C   UNL A   1      39.548  26.723  28.399  1.00  0.00     0.029 A 
ATOM     20  N   UNL A   1      41.377  27.394  29.466  1.00  0.00    -0.354 N 
ATOM     21  C   UNL A   1      41.092  31.015  31.925  1.00  0.00     0.074 A 
ATOM     22  C   UNL A   1      39.767  31.577  31.849  1.00  0.00     0.031 C 
ATOM     23  C   UNL A   1      40.444  25.732  28.301  1.00  0.00     0.029 A 
ATOM     24  C   UNL A   1      41.706  26.211  28.831  1.00  0.00     0.049 A 
ATOM     25  H   UNL A   1      41.972  27.855  30.100  1.00  0.00     0.167 HD
ATOM     26  C   UNL A   1      42.024  31.361  32.838  1.00  0.00     0.037 A 
ATOM     27  C   UNL A   1      42.918  25.671  28.585  1.00  0.00     0.037 A 
ATOM     28  C   UNL A   1      43.335  30.775  32.844  1.00  0.00     0.049 A 
ATOM     29  C   UNL A   1      44.080  26.395  29.240  1.00  0.00     0.074 A 
ATOM     30  C   UNL A   1      44.411  31.053  33.659  1.00  0.00     0.029 A 
ATOM     31  N   UNL A   1      43.741  29.786  31.954  1.00  0.00    -0.354 N 
ATOM     32  N   UNL A   1      44.034  27.386  30.107  1.00  0.00    -0.248 NA
ATOM     33  C   UNL A   1      45.439  25.969  28.902  1.00  0.00     0.031 C 
ATOM     34  C   UNL A   1      45.489  30.274  33.219  1.00  0.00     0.029 A 
ATOM     35  C   UNL A   1      45.063  29.461  32.176  1.00  0.00     0.049 A 
ATOM     36  H   UNL A   1      43.168  29.377  31.265  1.00  0.00     0.167 HD
ATOM     37  C   UNL A   1      45.344  27.632  30.489  1.00  0.00     0.074 A 
ATOM     38  C   UNL A   1      46.168  26.720  29.717  1.00  0.00     0.031 C 
ATOM     39  C   UNL A   1      45.825  28.495  31.421  1.00  0.00     0.037 A 
BRANCH  26  40
ATOM     40  C   UNL A   1      41.650  32.420  33.832  1.00  0.00     0.058 A 
ATOM     41  C   UNL A   1      40.892  32.124  34.979  1.00  0.00     0.135 A 
ATOM     42  C   UNL A   1      42.001  33.760  33.610  1.00  0.00     0.135 A 
ATOM     43  F   UNL A   1      40.496  30.864  35.223  1.00  0.00    -0.206 F 
ATOM     44  C   UNL A   1      40.469  33.123  35.851  1.00  0.00     0.059 A 
ATOM     45  C   UNL A   1      41.611  34.771  34.483  1.00  0.00     0.059 A 
ATOM     46  F   UNL A   1      42.707  34.101  32.521  1.00  0.00    -0.206 F 
ATOM     47  C   UNL A   1      40.830  34.446  35.592  1.00  0.00     0.060 A 
BRANCH  47  48
ATOM     48  S   UNL A   1      40.256  35.734  36.718  1.00  0.00     0.124 S 
ATOM     49  O   UNL A   1      39.239  35.020  37.485  1.00  0.00    -0.237 OA
ATOM     50  O   UNL A   1      41.474  36.074  37.447  1.00  0.00    -0.237 OA
ATOM     51  O   UNL A   1      39.755  36.772  35.823  1.00  0.00    -0.744 OA
ENDBRANCH  47  48
ENDBRANCH  26  40
BRANCH  27  52
ATOM     52  C   UNL A   1      43.111  24.579  27.560  1.00  0.00     0.058 A 
ATOM     53  C   UNL A   1      43.347  23.238  27.899  1.00  0.00     0.135 A 
ATOM     54  C   UNL A   1      43.202  24.883  26.185  1.00  0.00     0.135 A 
ATOM     55  F   UNL A   1      43.215  22.836  29.171  1.00  0.00    -0.206 F 
ATOM     56  C   UNL A   1      43.784  22.297  26.956  1.00  0.00     0.059 A 
ATOM     57  C   UNL A   1      43.595  23.961  25.224  1.00  0.00     0.059 A 
ATOM     58  F   UNL A   1      42.937  26.113  25.729  1.00  0.00    -0.206 F 
ATOM     59  C   UNL A   1      43.928  22.678  25.624  1.00  0.00     0.060 A 
BRANCH  59  60
ATOM     60  S   UNL A   1      44.667  21.560  24.414  1.00  0.00     0.124 S 
ATOM     61  O   UNL A   1      44.352  22.212  23.149  1.00  0.00    -0.237 OA
ATOM     62  O   UNL A   1      46.067  21.578  24.818  1.00  0.00    -0.237 OA
ATOM     63  O   UNL A   1      43.957  20.306  24.659  1.00  0.00    -0.744 OA
ENDBRANCH  59  60
ENDBRANCH  27  52
BRANCH  39  64
ATOM     64  C   UNL A   1      47.265  28.332  31.797  1.00  0.00     0.058 A 
ATOM     65  C   UNL A   1      47.710  27.390  32.733  1.00  0.00     0.135 A 
ATOM     66  C   UNL A   1      48.222  29.134  31.154  1.00  0.00     0.135 A 
ATOM     67  F   UNL A   1      46.829  26.614  33.384  1.00  0.00    -0.206 F 
ATOM     68  C   UNL A   1      49.060  27.264  33.036  1.00  0.00     0.059 A 
ATOM     69  C   UNL A   1      49.577  29.001  31.414  1.00  0.00     0.059 A 
ATOM     70  F   UNL A   1      47.841  30.045  30.243  1.00  0.00    -0.206 F 
ATOM     71  C   UNL A   1      49.986  28.073  32.368  1.00  0.00     0.060 A 
BRANCH  71  72
ATOM     72  S   UNL A   1      51.738  27.890  32.750  1.00  0.00     0.124 S 
ATOM     73  O   UNL A   1      51.767  26.564  33.358  1.00  0.00    -0.237 OA
ATOM     74  O   UNL A   1      52.356  27.999  31.433  1.00  0.00    -0.237 OA
ATOM     75  O   UNL A   1      52.007  29.002  33.656  1.00  0.00    -0.744 OA
ENDBRANCH  71  72
ENDBRANCH  39  64
ENDBRANCH  13  14
ENDBRANCH   6   8
ENDBRANCH   5   6
ENDBRANCH   4   5
ENDBRANCH   3   4
ENDBRANCH   2   3
ENDBRANCH   1   2
BRANCH   1  76
ATOM     76  C   UNL A   1      38.233  34.487  30.229  1.00  0.00     0.188 C 
BRANCH  76  77
ATOM     77  O   UNL A   1      39.396  34.516  29.409  1.00  0.00    -0.376 OA
BRANCH  77  78
ATOM     78  C   UNL A   1      40.658  34.460  30.062  1.00  0.00     0.202 C 
BRANCH  78  79
ATOM     79  C   UNL A   1      41.935  34.536  29.208  1.00  0.00     0.261 C 
BRANCH  79  80
ATOM     80  O   UNL A   1      42.927  33.536  29.496  1.00  0.00    -0.463 OA
BRANCH  80  81
ATOM     81  C   UNL A   1      43.814  33.272  28.492  1.00  0.00     0.312 C 
ATOM     82  O   UNL A   1      44.190  34.101  27.668  1.00  0.00    -0.252 OA
BRANCH  81  83
ATOM     83  C   UNL A   1      44.417  31.866  28.582  1.00  0.00     0.123 C 
ATOM     84  C   UNL A   1      43.461  30.722  28.565  1.00  0.00    -0.015 C 
ATOM     85  C   UNL A   1      45.330  31.577  27.375  1.00  0.00     0.043 C 
ATOM     86  C   UNL A   1      43.772  29.821  27.627  1.00  0.00    -0.011 C 
ATOM     87  C   UNL A   1      44.937  30.202  26.801  1.00  0.00     0.093 C 
BRANCH  87  88
ATOM     88  N   UNL A   1      46.078  29.305  26.871  1.00  0.00    -0.204 NA
ATOM     89  H   UNL A   1      45.891  28.717  27.685  1.00  0.00     0.142 HD
BRANCH  88  90
ATOM     90  S   UNL A   1      46.641  28.248  25.715  1.00  0.00     0.244 S 
ATOM     91  O   UNL A   1      45.744  27.104  25.804  1.00  0.00    -0.207 OA
ATOM     92  O   UNL A   1      46.784  28.950  24.469  1.00  0.00    -0.207 OA
BRANCH  90  93
ATOM     93  C   UNL A   1      48.202  27.683  26.312  1.00  0.00     0.121 A 
ATOM     94  C   UNL A   1      48.571  27.972  27.638  1.00  0.00     0.028 A 
ATOM     95  C   UNL A   1      49.014  26.871  25.524  1.00  0.00     0.181 A 
ATOM     96  C   UNL A   1      49.772  27.473  28.152  1.00  0.00     0.044 A 
ATOM     97  C   UNL A   1      50.204  26.370  26.046  1.00  0.00     0.195 A 
ATOM     98  F   UNL A   1      48.692  26.573  24.259  1.00  0.00    -0.202 F 
ATOM     99  C   UNL A   1      50.583  26.678  27.348  1.00  0.00     0.161 A 
ATOM    100  F   UNL A   1      50.997  25.604  25.285  1.00  0.00    -0.200 F 
ATOM    101  F   UNL A   1      51.751  26.237  27.834  1.00  0.00    -0.204 F 
ENDBRANCH  90  93
ENDBRANCH  88  90
ENDBRANCH  87  88
ENDBRANCH  81  83
ENDBRANCH  80  81
ENDBRANCH  79  80
ENDBRANCH  78  79
ENDBRANCH  77  78
ENDBRANCH  76  77
ENDBRANCH   1  76
TORSDOF 23
ENDMDL
