MODEL 1
REMARK VINA RESULT:      -7.5      0.000      0.000
REMARK SMILES CCOc1c(Br)cc(CNc2cccc(C(=O)OCCOCCOCCOC(=O)c3ccc(-c4c5nc(c(-c6c(F)cc(S(=O)(=O)[O-])cc6F)c6ccc([nH]6)c(-c6c(F)cc(S(=O)(=O)[O-])cc6F)c6nc(c(-c7c(F)cc(S(=O)(=O)[O-])cc7F)c7ccc4[nH]7)C=C6)C=C5)cc3)c2C)cc1OC
REMARK SMILES IDX 22 1 21 2 20 3 19 4 18 5 16 6 17 7 15 8 11 9 12 10 96 11
REMARK SMILES IDX 13 12 97 13 14 14 10 15 9 17 8 18 4 19 5 20 99 21 6 22 7 23
REMARK SMILES IDX 98 24 3 25 2 26 1 27 100 28 101 29 23 30 24 31 25 32 26 33
REMARK SMILES IDX 27 34 28 35 29 36 30 37 31 38 95 39 32 40 94 41 33 42 34 43
REMARK SMILES IDX 35 44 88 45 36 46 93 47 87 48 89 49 37 50 92 51 86 52 85 53
REMARK SMILES IDX 38 55 72 56 51 57 71 58 52 59 55 60 70 61 90 62 53 63 54 64
REMARK SMILES IDX 69 66 91 67 56 68 39 69 40 70 49 71 41 72 42 73 48 74 50 75
REMARK SMILES IDX 43 76 44 77 45 78 46 79 47 80 73 81 74 82 83 83 75 84 76 85
REMARK SMILES IDX 82 86 84 87 77 88 78 89 79 90 80 91 81 92 57 93 58 94 67 95
REMARK SMILES IDX 59 96 60 97 66 98 68 99 61 100 62 101 63 102 64 103 65 104
REMARK H PARENT 10 16 89 54 55 65
REMARK Flexibility Score: inf
ROOT
ATOM      1  C   UNL A   1      39.886  30.389  33.810  1.00  0.00     0.188 C 
ENDROOT
BRANCH   1   2
ATOM      2  O   UNL A   1      40.035  29.865  32.489  1.00  0.00    -0.376 OA
BRANCH   2   3
ATOM      3  C   UNL A   1      41.064  30.373  31.627  1.00  0.00     0.202 C 
BRANCH   3   4
ATOM      4  C   UNL A   1      40.780  30.820  30.136  1.00  0.00     0.261 C 
BRANCH   4   5
ATOM      5  O   UNL A   1      39.533  30.328  29.483  1.00  0.00    -0.460 OA
BRANCH   5   6
ATOM      6  C   UNL A   1      38.985  29.098  29.122  1.00  0.00     0.338 C 
ATOM      7  O   UNL A   1      37.932  28.763  29.661  1.00  0.00    -0.246 OA
BRANCH   6   8
ATOM      8  C   UNL A   1      39.884  27.917  28.002  1.00  0.00     0.065 A 
ATOM      9  C   UNL A   1      41.321  26.602  26.223  1.00  0.00     0.038 A 
ATOM     10  C   UNL A   1      40.539  25.496  26.496  1.00  0.00     0.026 A 
ATOM     11  C   UNL A   1      40.903  27.863  26.811  1.00  0.00    -0.013 A 
ATOM     12  C   UNL A   1      39.534  25.543  27.473  1.00  0.00     0.003 A 
ATOM     13  C   UNL A   1      41.452  28.959  25.814  1.00  0.00     0.047 C 
ATOM     14  C   UNL A   1      39.278  26.679  28.254  1.00  0.00     0.016 A 
BRANCH   9  15
ATOM     15  N   UNL A   1      42.462  26.540  25.416  1.00  0.00    -0.381 N 
ATOM     16  H   UNL A   1      42.276  26.680  24.459  1.00  0.00     0.160 HD
BRANCH  15  17
ATOM     17  C   UNL A   1      43.873  26.311  25.709  1.00  0.00     0.149 C 
BRANCH  17  18
ATOM     18  C   UNL A   1      44.157  26.132  27.219  1.00  0.00    -0.024 A 
ATOM     19  C   UNL A   1      44.907  25.791  29.988  1.00  0.00     0.175 A 
ATOM     20  C   UNL A   1      45.124  26.998  29.301  1.00  0.00     0.064 A 
ATOM     21  C   UNL A   1      44.375  24.712  29.265  1.00  0.00     0.162 A 
ATOM     22  Br  UNL A   1      46.086  28.433  30.090  1.00  0.00    -0.047 Br
ATOM     23  C   UNL A   1      44.735  27.172  27.957  1.00  0.00     0.025 A 
ATOM     24  C   UNL A   1      43.987  24.906  27.903  1.00  0.00     0.056 A 
BRANCH  19  25
ATOM     25  O   UNL A   1      45.365  25.673  31.280  1.00  0.00    -0.489 OA
BRANCH  25  26
ATOM     26  C   UNL A   1      44.350  25.827  32.283  1.00  0.00     0.226 C 
ATOM     27  C   UNL A   1      44.235  24.607  33.178  1.00  0.00     0.049 C 
ENDBRANCH  25  26
ENDBRANCH  19  25
BRANCH  21  28
ATOM     28  O   UNL A   1      44.194  23.417  29.693  1.00  0.00    -0.493 OA
ATOM     29  C   UNL A   1      43.237  22.588  29.044  1.00  0.00     0.278 C 
ENDBRANCH  21  28
ENDBRANCH  17  18
ENDBRANCH  15  17
ENDBRANCH   9  15
ENDBRANCH   6   8
ENDBRANCH   5   6
ENDBRANCH   4   5
ENDBRANCH   3   4
ENDBRANCH   2   3
ENDBRANCH   1   2
BRANCH   1  30
ATOM     30  C   UNL A   1      38.500  30.718  34.334  1.00  0.00     0.188 C 
BRANCH  30  31
ATOM     31  O   UNL A   1      38.324  32.127  34.232  1.00  0.00    -0.376 OA
BRANCH  31  32
ATOM     32  C   UNL A   1      37.558  32.716  35.262  1.00  0.00     0.202 C 
BRANCH  32  33
ATOM     33  C   UNL A   1      37.924  34.182  35.512  1.00  0.00     0.261 C 
BRANCH  33  34
ATOM     34  O   UNL A   1      38.764  34.744  34.474  1.00  0.00    -0.460 OA
BRANCH  34  35
ATOM     35  C   UNL A   1      39.776  35.592  34.859  1.00  0.00     0.338 C 
ATOM     36  O   UNL A   1      39.650  36.384  35.793  1.00  0.00    -0.246 OA
BRANCH  35  37
ATOM     37  C   UNL A   1      41.058  35.239  34.193  1.00  0.00     0.060 A 
ATOM     38  C   UNL A   1      42.257  35.946  34.142  1.00  0.00     0.016 A 
ATOM     39  C   UNL A   1      41.035  34.103  33.469  1.00  0.00     0.016 A 
ATOM     40  C   UNL A   1      43.287  35.691  33.138  1.00  0.00     0.010 A 
ATOM     41  C   UNL A   1      41.988  33.947  32.465  1.00  0.00     0.010 A 
ATOM     42  C   UNL A   1      43.149  34.726  32.123  1.00  0.00    -0.014 A 
BRANCH  42  43
ATOM     43  C   UNL A   1      44.129  34.669  30.655  1.00  0.00     0.031 A 
ATOM     44  C   UNL A   1      45.646  33.820  30.157  1.00  0.00     0.074 A 
ATOM     45  C   UNL A   1      43.683  35.432  29.625  1.00  0.00     0.049 A 
ATOM     46  N   UNL A   1      46.246  34.046  29.003  1.00  0.00    -0.248 NA
ATOM     47  C   UNL A   1      46.572  32.781  30.803  1.00  0.00     0.031 C 
ATOM     48  C   UNL A   1      43.967  35.254  28.207  1.00  0.00     0.029 A 
ATOM     49  N   UNL A   1      42.970  36.628  29.672  1.00  0.00    -0.354 N 
ATOM     50  C   UNL A   1      47.153  33.006  28.746  1.00  0.00     0.074 A 
ATOM     51  C   UNL A   1      47.522  32.437  29.958  1.00  0.00     0.031 C 
ATOM     52  C   UNL A   1      43.631  36.361  27.541  1.00  0.00     0.029 A 
ATOM     53  C   UNL A   1      43.285  37.358  28.524  1.00  0.00     0.049 A 
ATOM     54  H   UNL A   1      42.353  36.908  30.387  1.00  0.00     0.167 HD
ATOM     55  C   UNL A   1      47.389  32.504  27.512  1.00  0.00     0.037 A 
ATOM     56  C   UNL A   1      43.807  38.611  28.615  1.00  0.00     0.037 A 
ATOM     57  C   UNL A   1      47.164  33.552  26.568  1.00  0.00     0.049 A 
ATOM     58  C   UNL A   1      45.157  38.711  27.944  1.00  0.00     0.074 A 
ATOM     59  C   UNL A   1      46.239  33.826  25.591  1.00  0.00     0.029 A 
ATOM     60  N   UNL A   1      47.850  34.724  26.829  1.00  0.00    -0.354 N 
ATOM     61  N   UNL A   1      45.833  37.661  27.550  1.00  0.00    -0.248 NA
ATOM     62  C   UNL A   1      45.845  39.946  27.593  1.00  0.00     0.031 C 
ATOM     63  C   UNL A   1      46.290  35.239  25.372  1.00  0.00     0.029 A 
ATOM     64  C   UNL A   1      47.284  35.784  26.173  1.00  0.00     0.049 A 
ATOM     65  H   UNL A   1      48.641  34.789  27.411  1.00  0.00     0.167 HD
ATOM     66  C   UNL A   1      46.988  38.032  26.918  1.00  0.00     0.074 A 
ATOM     67  C   UNL A   1      46.953  39.479  26.981  1.00  0.00     0.031 C 
ATOM     68  C   UNL A   1      47.857  37.106  26.408  1.00  0.00     0.037 A 
BRANCH  55  69
ATOM     69  C   UNL A   1      47.772  31.058  27.222  1.00  0.00     0.058 A 
ATOM     70  C   UNL A   1      49.113  30.646  27.307  1.00  0.00     0.135 A 
ATOM     71  C   UNL A   1      46.884  30.062  26.723  1.00  0.00     0.135 A 
ATOM     72  F   UNL A   1      50.057  31.497  27.730  1.00  0.00    -0.206 F 
ATOM     73  C   UNL A   1      49.542  29.361  26.937  1.00  0.00     0.059 A 
ATOM     74  C   UNL A   1      47.280  28.757  26.397  1.00  0.00     0.059 A 
ATOM     75  F   UNL A   1      45.594  30.327  26.471  1.00  0.00    -0.206 F 
ATOM     76  C   UNL A   1      48.621  28.420  26.483  1.00  0.00     0.060 A 
BRANCH  76  77
ATOM     77  S   UNL A   1      49.197  26.782  25.976  1.00  0.00     0.124 S 
ATOM     78  O   UNL A   1      49.392  26.962  24.541  1.00  0.00    -0.237 OA
ATOM     79  O   UNL A   1      50.412  26.616  26.766  1.00  0.00    -0.237 OA
ATOM     80  O   UNL A   1      48.094  25.898  26.345  1.00  0.00    -0.744 OA
ENDBRANCH  76  77
ENDBRANCH  55  69
BRANCH  56  81
ATOM     81  C   UNL A   1      43.139  39.392  29.703  1.00  0.00     0.058 A 
ATOM     82  C   UNL A   1      43.929  39.570  30.867  1.00  0.00     0.135 A 
ATOM     83  C   UNL A   1      42.141  40.355  29.471  1.00  0.00     0.135 A 
ATOM     84  F   UNL A   1      44.912  38.697  31.143  1.00  0.00    -0.206 F 
ATOM     85  C   UNL A   1      43.870  40.722  31.643  1.00  0.00     0.059 A 
ATOM     86  C   UNL A   1      42.037  41.511  30.271  1.00  0.00     0.059 A 
ATOM     87  F   UNL A   1      41.358  40.267  28.386  1.00  0.00    -0.206 F 
ATOM     88  C   UNL A   1      42.951  41.710  31.314  1.00  0.00     0.060 A 
BRANCH  88  89
ATOM     89  S   UNL A   1      43.144  43.306  32.152  1.00  0.00     0.124 S 
ATOM     90  O   UNL A   1      42.663  44.247  31.150  1.00  0.00    -0.237 OA
ATOM     91  O   UNL A   1      42.269  43.128  33.310  1.00  0.00    -0.237 OA
ATOM     92  O   UNL A   1      44.573  43.359  32.440  1.00  0.00    -0.744 OA
ENDBRANCH  88  89
ENDBRANCH  56  81
BRANCH  68  93
ATOM     93  C   UNL A   1      49.347  37.300  26.129  1.00  0.00     0.058 A 
ATOM     94  C   UNL A   1      50.282  37.733  27.081  1.00  0.00     0.135 A 
ATOM     95  C   UNL A   1      49.920  36.856  24.901  1.00  0.00     0.135 A 
ATOM     96  F   UNL A   1      49.914  38.124  28.304  1.00  0.00    -0.206 F 
ATOM     97  C   UNL A   1      51.658  37.768  26.829  1.00  0.00     0.059 A 
ATOM     98  C   UNL A   1      51.290  36.811  24.658  1.00  0.00     0.059 A 
ATOM     99  F   UNL A   1      49.164  36.434  23.876  1.00  0.00    -0.206 F 
ATOM    100  C   UNL A   1      52.152  37.310  25.615  1.00  0.00     0.060 A 
BRANCH 100 101
ATOM    101  S   UNL A   1      53.914  37.400  25.276  1.00  0.00     0.124 S 
ATOM    102  O   UNL A   1      54.342  38.386  26.265  1.00  0.00    -0.237 OA
ATOM    103  O   UNL A   1      54.361  36.031  25.515  1.00  0.00    -0.237 OA
ATOM    104  O   UNL A   1      53.971  37.837  23.885  1.00  0.00    -0.744 OA
ENDBRANCH 100 101
ENDBRANCH  68  93
ENDBRANCH  42  43
ENDBRANCH  35  37
ENDBRANCH  34  35
ENDBRANCH  33  34
ENDBRANCH  32  33
ENDBRANCH  31  32
ENDBRANCH  30  31
ENDBRANCH   1  30
TORSDOF 26
ENDMDL
MODEL 2
REMARK VINA RESULT:      -7.4      4.970     12.285
REMARK SMILES CCOc1c(Br)cc(CNc2cccc(C(=O)OCCOCCOCCOC(=O)c3ccc(-c4c5nc(c(-c6c(F)cc(S(=O)(=O)[O-])cc6F)c6ccc([nH]6)c(-c6c(F)cc(S(=O)(=O)[O-])cc6F)c6nc(c(-c7c(F)cc(S(=O)(=O)[O-])cc7F)c7ccc4[nH]7)C=C6)C=C5)cc3)c2C)cc1OC
REMARK SMILES IDX 22 1 21 2 20 3 19 4 18 5 16 6 17 7 15 8 11 9 12 10 96 11
REMARK SMILES IDX 13 12 97 13 14 14 10 15 9 17 8 18 4 19 5 20 99 21 6 22 7 23
REMARK SMILES IDX 98 24 3 25 2 26 1 27 100 28 101 29 23 30 24 31 25 32 26 33
REMARK SMILES IDX 27 34 28 35 29 36 30 37 31 38 95 39 32 40 94 41 33 42 34 43
REMARK SMILES IDX 35 44 88 45 36 46 93 47 87 48 89 49 37 50 92 51 86 52 85 53
REMARK SMILES IDX 38 55 72 56 51 57 71 58 52 59 55 60 70 61 90 62 53 63 54 64
REMARK SMILES IDX 69 66 91 67 56 68 39 69 40 70 49 71 41 72 42 73 48 74 50 75
REMARK SMILES IDX 43 76 44 77 45 78 46 79 47 80 73 81 74 82 83 83 75 84 76 85
REMARK SMILES IDX 82 86 84 87 77 88 78 89 79 90 80 91 81 92 57 93 58 94 67 95
REMARK SMILES IDX 59 96 60 97 66 98 68 99 61 100 62 101 63 102 64 103 65 104
REMARK H PARENT 10 16 89 54 55 65
REMARK Flexibility Score: inf
ROOT
ATOM      1  C   UNL A   1      45.664  26.736  25.153  1.00  0.00     0.188 C 
ENDROOT
BRANCH   1   2
ATOM      2  O   UNL A   1      46.554  27.186  26.176  1.00  0.00    -0.376 OA
BRANCH   2   3
ATOM      3  C   UNL A   1      46.437  26.668  27.509  1.00  0.00     0.202 C 
BRANCH   3   4
ATOM      4  C   UNL A   1      46.390  27.604  28.784  1.00  0.00     0.261 C 
BRANCH   4   5
ATOM      5  O   UNL A   1      45.713  28.927  28.658  1.00  0.00    -0.460 OA
BRANCH   5   6
ATOM      6  C   UNL A   1      44.501  29.412  28.170  1.00  0.00     0.338 C 
ATOM      7  O   UNL A   1      43.782  28.630  27.550  1.00  0.00    -0.246 OA
BRANCH   6   8
ATOM      8  C   UNL A   1      44.047  31.211  28.290  1.00  0.00     0.065 A 
ATOM      9  C   UNL A   1      43.577  33.797  28.061  1.00  0.00     0.038 A 
ATOM     10  C   UNL A   1      43.410  33.828  29.432  1.00  0.00     0.026 A 
ATOM     11  C   UNL A   1      44.077  32.559  27.489  1.00  0.00    -0.013 A 
ATOM     12  C   UNL A   1      43.496  32.657  30.200  1.00  0.00     0.003 A 
ATOM     13  C   UNL A   1      44.827  33.011  26.174  1.00  0.00     0.047 C 
ATOM     14  C   UNL A   1      43.717  31.390  29.641  1.00  0.00     0.016 A 
BRANCH   9  15
ATOM     15  N   UNL A   1      43.293  34.893  27.240  1.00  0.00    -0.381 N 
ATOM     16  H   UNL A   1      43.942  35.017  26.510  1.00  0.00     0.160 HD
BRANCH  15  17
ATOM     17  C   UNL A   1      42.228  35.889  27.249  1.00  0.00     0.149 C 
BRANCH  17  18
ATOM     18  C   UNL A   1      42.672  37.247  27.839  1.00  0.00    -0.024 A 
ATOM     19  C   UNL A   1      43.334  39.768  29.087  1.00  0.00     0.175 A 
ATOM     20  C   UNL A   1      43.570  38.537  29.724  1.00  0.00     0.064 A 
ATOM     21  C   UNL A   1      42.692  39.748  27.840  1.00  0.00     0.162 A 
ATOM     22  Br  UNL A   1      44.176  38.446  31.522  1.00  0.00    -0.047 Br
ATOM     23  C   UNL A   1      43.270  37.306  29.104  1.00  0.00     0.025 A 
ATOM     24  C   UNL A   1      42.394  38.491  27.227  1.00  0.00     0.056 A 
BRANCH  19  25
ATOM     25  O   UNL A   1      43.596  40.930  29.775  1.00  0.00    -0.489 OA
BRANCH  25  26
ATOM     26  C   UNL A   1      42.447  41.511  30.411  1.00  0.00     0.226 C 
ATOM     27  C   UNL A   1      42.826  42.591  31.407  1.00  0.00     0.049 C 
ENDBRANCH  25  26
ENDBRANCH  19  25
BRANCH  21  28
ATOM     28  O   UNL A   1      42.254  40.821  27.098  1.00  0.00    -0.493 OA
ATOM     29  C   UNL A   1      41.046  40.716  26.353  1.00  0.00     0.278 C 
ENDBRANCH  21  28
ENDBRANCH  17  18
ENDBRANCH  15  17
ENDBRANCH   9  15
ENDBRANCH   6   8
ENDBRANCH   5   6
ENDBRANCH   4   5
ENDBRANCH   3   4
ENDBRANCH   2   3
ENDBRANCH   1   2
BRANCH   1  30
ATOM     30  C   UNL A   1      45.101  25.328  25.215  1.00  0.00     0.188 C 
BRANCH  30  31
ATOM     31  O   UNL A   1      43.748  25.424  25.647  1.00  0.00    -0.376 OA
BRANCH  31  32
ATOM     32  C   UNL A   1      43.094  24.190  25.864  1.00  0.00     0.202 C 
BRANCH  32  33
ATOM     33  C   UNL A   1      42.094  24.243  27.022  1.00  0.00     0.261 C 
BRANCH  33  34
ATOM     34  O   UNL A   1      41.597  25.577  27.286  1.00  0.00    -0.460 OA
BRANCH  34  35
ATOM     35  C   UNL A   1      40.244  25.731  27.477  1.00  0.00     0.338 C 
ATOM     36  O   UNL A   1      39.449  24.805  27.314  1.00  0.00    -0.246 OA
BRANCH  35  37
ATOM     37  C   UNL A   1      39.936  27.030  28.131  1.00  0.00     0.060 A 
ATOM     38  C   UNL A   1      40.204  28.328  27.699  1.00  0.00     0.016 A 
ATOM     39  C   UNL A   1      39.380  26.941  29.354  1.00  0.00     0.016 A 
ATOM     40  C   UNL A   1      40.217  29.477  28.600  1.00  0.00     0.010 A 
ATOM     41  C   UNL A   1      39.495  28.036  30.207  1.00  0.00     0.010 A 
ATOM     42  C   UNL A   1      39.980  29.373  29.984  1.00  0.00    -0.014 A 
BRANCH  42  43
ATOM     43  C   UNL A   1      40.403  30.612  31.169  1.00  0.00     0.031 A 
ATOM     44  C   UNL A   1      41.520  30.702  32.588  1.00  0.00     0.074 A 
ATOM     45  C   UNL A   1      39.759  31.798  31.028  1.00  0.00     0.049 A 
ATOM     46  N   UNL A   1      41.564  31.744  33.397  1.00  0.00    -0.248 NA
ATOM     47  C   UNL A   1      42.561  29.764  33.213  1.00  0.00     0.031 C 
ATOM     48  C   UNL A   1      40.197  33.102  31.508  1.00  0.00     0.029 A 
ATOM     49  N   UNL A   1      38.484  32.042  30.522  1.00  0.00    -0.354 N 
ATOM     50  C   UNL A   1      42.747  31.688  34.152  1.00  0.00     0.074 A 
ATOM     51  C   UNL A   1      43.161  30.365  34.220  1.00  0.00     0.031 C 
ATOM     52  C   UNL A   1      39.174  33.959  31.471  1.00  0.00     0.029 A 
ATOM     53  C   UNL A   1      37.996  33.198  31.136  1.00  0.00     0.049 A 
ATOM     54  H   UNL A   1      38.012  31.498  29.850  1.00  0.00     0.167 HD
ATOM     55  C   UNL A   1      43.466  32.780  34.503  1.00  0.00     0.037 A 
ATOM     56  C   UNL A   1      36.827  33.177  31.833  1.00  0.00     0.037 A 
ATOM     57  C   UNL A   1      42.560  33.878  34.610  1.00  0.00     0.049 A 
ATOM     58  C   UNL A   1      37.021  33.592  33.272  1.00  0.00     0.074 A 
ATOM     59  C   UNL A   1      42.319  35.038  33.914  1.00  0.00     0.029 A 
ATOM     60  N   UNL A   1      41.466  33.651  35.425  1.00  0.00    -0.354 N 
ATOM     61  N   UNL A   1      38.203  33.711  33.824  1.00  0.00    -0.248 NA
ATOM     62  C   UNL A   1      35.964  33.968  34.201  1.00  0.00     0.031 C 
ATOM     63  C   UNL A   1      40.979  35.428  34.230  1.00  0.00     0.029 A 
ATOM     64  C   UNL A   1      40.455  34.535  35.155  1.00  0.00     0.049 A 
ATOM     65  H   UNL A   1      41.419  32.946  36.110  1.00  0.00     0.167 HD
ATOM     66  C   UNL A   1      38.099  34.160  35.111  1.00  0.00     0.074 A 
ATOM     67  C   UNL A   1      36.669  34.296  35.303  1.00  0.00     0.031 C 
ATOM     68  C   UNL A   1      39.204  34.373  35.890  1.00  0.00     0.037 A 
BRANCH  55  69
ATOM     69  C   UNL A   1      44.978  32.800  34.686  1.00  0.00     0.058 A 
ATOM     70  C   UNL A   1      45.559  32.296  35.863  1.00  0.00     0.135 A 
ATOM     71  C   UNL A   1      45.900  33.427  33.801  1.00  0.00     0.135 A 
ATOM     72  F   UNL A   1      44.796  31.711  36.798  1.00  0.00    -0.206 F 
ATOM     73  C   UNL A   1      46.931  32.397  36.141  1.00  0.00     0.059 A 
ATOM     74  C   UNL A   1      47.282  33.493  34.032  1.00  0.00     0.059 A 
ATOM     75  F   UNL A   1      45.495  34.061  32.690  1.00  0.00    -0.206 F 
ATOM     76  C   UNL A   1      47.789  32.995  35.221  1.00  0.00     0.060 A 
BRANCH  76  77
ATOM     77  S   UNL A   1      49.548  33.149  35.611  1.00  0.00     0.124 S 
ATOM     78  O   UNL A   1      49.681  34.583  35.844  1.00  0.00    -0.237 OA
ATOM     79  O   UNL A   1      49.685  32.300  36.790  1.00  0.00    -0.237 OA
ATOM     80  O   UNL A   1      50.214  32.650  34.410  1.00  0.00    -0.744 OA
ENDBRANCH  76  77
ENDBRANCH  55  69
BRANCH  56  81
ATOM     81  C   UNL A   1      35.800  32.345  31.132  1.00  0.00     0.058 A 
ATOM     82  C   UNL A   1      35.241  32.952  29.979  1.00  0.00     0.135 A 
ATOM     83  C   UNL A   1      35.772  30.940  31.176  1.00  0.00     0.135 A 
ATOM     84  F   UNL A   1      35.247  34.290  29.862  1.00  0.00    -0.206 F 
ATOM     85  C   UNL A   1      34.860  32.221  28.859  1.00  0.00     0.059 A 
ATOM     86  C   UNL A   1      35.351  30.180  30.066  1.00  0.00     0.059 A 
ATOM     87  F   UNL A   1      36.291  30.288  32.226  1.00  0.00    -0.206 F 
ATOM     88  C   UNL A   1      34.959  30.836  28.892  1.00  0.00     0.060 A 
BRANCH  88  89
ATOM     89  S   UNL A   1      34.760  29.972  27.310  1.00  0.00     0.124 S 
ATOM     90  O   UNL A   1      34.105  28.734  27.709  1.00  0.00    -0.237 OA
ATOM     91  O   UNL A   1      33.918  30.914  26.574  1.00  0.00    -0.237 OA
ATOM     92  O   UNL A   1      36.131  29.841  26.830  1.00  0.00    -0.744 OA
ENDBRANCH  88  89
ENDBRANCH  56  81
BRANCH  68  93
ATOM     93  C   UNL A   1      39.264  34.393  37.416  1.00  0.00     0.058 A 
ATOM     94  C   UNL A   1      39.532  35.536  38.184  1.00  0.00     0.135 A 
ATOM     95  C   UNL A   1      38.851  33.259  38.175  1.00  0.00     0.135 A 
ATOM     96  F   UNL A   1      39.872  36.699  37.622  1.00  0.00    -0.206 F 
ATOM     97  C   UNL A   1      39.444  35.548  39.580  1.00  0.00     0.059 A 
ATOM     98  C   UNL A   1      38.683  33.271  39.556  1.00  0.00     0.059 A 
ATOM     99  F   UNL A   1      38.580  32.078  37.598  1.00  0.00    -0.206 F 
ATOM    100  C   UNL A   1      39.023  34.411  40.257  1.00  0.00     0.060 A 
BRANCH 100 101
ATOM    101  S   UNL A   1      38.957  34.415  42.054  1.00  0.00     0.124 S 
ATOM    102  O   UNL A   1      40.282  34.931  42.385  1.00  0.00    -0.237 OA
ATOM    103  O   UNL A   1      37.841  35.313  42.335  1.00  0.00    -0.237 OA
ATOM    104  O   UNL A   1      38.724  33.014  42.388  1.00  0.00    -0.744 OA
ENDBRANCH 100 101
ENDBRANCH  68  93
ENDBRANCH  42  43
ENDBRANCH  35  37
ENDBRANCH  34  35
ENDBRANCH  33  34
ENDBRANCH  32  33
ENDBRANCH  31  32
ENDBRANCH  30  31
ENDBRANCH   1  30
TORSDOF 26
ENDMDL
MODEL 3
REMARK VINA RESULT:      -7.3      4.779     11.687
REMARK SMILES CCOc1c(Br)cc(CNc2cccc(C(=O)OCCOCCOCCOC(=O)c3ccc(-c4c5nc(c(-c6c(F)cc(S(=O)(=O)[O-])cc6F)c6ccc([nH]6)c(-c6c(F)cc(S(=O)(=O)[O-])cc6F)c6nc(c(-c7c(F)cc(S(=O)(=O)[O-])cc7F)c7ccc4[nH]7)C=C6)C=C5)cc3)c2C)cc1OC
REMARK SMILES IDX 22 1 21 2 20 3 19 4 18 5 16 6 17 7 15 8 11 9 12 10 96 11
REMARK SMILES IDX 13 12 97 13 14 14 10 15 9 17 8 18 4 19 5 20 99 21 6 22 7 23
REMARK SMILES IDX 98 24 3 25 2 26 1 27 100 28 101 29 23 30 24 31 25 32 26 33
REMARK SMILES IDX 27 34 28 35 29 36 30 37 31 38 95 39 32 40 94 41 33 42 34 43
REMARK SMILES IDX 35 44 88 45 36 46 93 47 87 48 89 49 37 50 92 51 86 52 85 53
REMARK SMILES IDX 38 55 72 56 51 57 71 58 52 59 55 60 70 61 90 62 53 63 54 64
REMARK SMILES IDX 69 66 91 67 56 68 39 69 40 70 49 71 41 72 42 73 48 74 50 75
REMARK SMILES IDX 43 76 44 77 45 78 46 79 47 80 73 81 74 82 83 83 75 84 76 85
REMARK SMILES IDX 82 86 84 87 77 88 78 89 79 90 80 91 81 92 57 93 58 94 67 95
REMARK SMILES IDX 59 96 60 97 66 98 68 99 61 100 62 101 63 102 64 103 65 104
REMARK H PARENT 10 16 89 54 55 65
REMARK Flexibility Score: inf
ROOT
ATOM      1  C   UNL A   1      51.939  36.396  26.949  1.00  0.00     0.188 C 
ENDROOT
BRANCH   1   2
ATOM      2  O   UNL A   1      51.186  35.622  26.014  1.00  0.00    -0.376 OA
BRANCH   2   3
ATOM      3  C   UNL A   1      49.785  35.875  25.835  1.00  0.00     0.202 C 
BRANCH   3   4
ATOM      4  C   UNL A   1      48.739  34.718  25.569  1.00  0.00     0.261 C 
BRANCH   4   5
ATOM      5  O   UNL A   1      48.122  34.046  26.748  1.00  0.00    -0.460 OA
BRANCH   5   6
ATOM      6  C   UNL A   1      46.862  33.573  27.111  1.00  0.00     0.338 C 
ATOM      7  O   UNL A   1      46.746  32.368  27.330  1.00  0.00    -0.246 OA
BRANCH   6   8
ATOM      8  C   UNL A   1      45.364  34.674  27.102  1.00  0.00     0.065 A 
ATOM      9  C   UNL A   1      43.365  36.351  27.494  1.00  0.00     0.038 A 
ATOM     10  C   UNL A   1      42.715  35.730  26.444  1.00  0.00     0.026 A 
ATOM     11  C   UNL A   1      44.592  35.732  27.966  1.00  0.00    -0.013 A 
ATOM     12  C   UNL A   1      43.329  34.694  25.724  1.00  0.00     0.003 A 
ATOM     13  C   UNL A   1      44.681  36.151  29.486  1.00  0.00     0.047 C 
ATOM     14  C   UNL A   1      44.631  34.247  25.986  1.00  0.00     0.016 A 
BRANCH   9  15
ATOM     15  N   UNL A   1      42.883  37.517  28.097  1.00  0.00    -0.381 N 
ATOM     16  H   UNL A   1      43.221  37.657  29.011  1.00  0.00     0.160 HD
BRANCH  15  17
ATOM     17  C   UNL A   1      41.978  38.568  27.643  1.00  0.00     0.149 C 
BRANCH  17  18
ATOM     18  C   UNL A   1      42.658  39.587  26.700  1.00  0.00    -0.024 A 
ATOM     19  C   UNL A   1      43.951  41.626  25.113  1.00  0.00     0.175 A 
ATOM     20  C   UNL A   1      44.661  40.837  26.035  1.00  0.00     0.064 A 
ATOM     21  C   UNL A   1      42.562  41.447  25.032  1.00  0.00     0.162 A 
ATOM     22  Br  UNL A   1      46.488  41.173  26.432  1.00  0.00    -0.047 Br
ATOM     23  C   UNL A   1      44.034  39.825  26.791  1.00  0.00     0.025 A 
ATOM     24  C   UNL A   1      41.942  40.418  25.806  1.00  0.00     0.056 A 
BRANCH  19  25
ATOM     25  O   UNL A   1      44.616  42.634  24.454  1.00  0.00    -0.489 OA
BRANCH  25  26
ATOM     26  C   UNL A   1      44.374  43.946  24.986  1.00  0.00     0.226 C 
ATOM     27  C   UNL A   1      45.061  45.030  24.175  1.00  0.00     0.049 C 
ENDBRANCH  25  26
ENDBRANCH  19  25
BRANCH  21  28
ATOM     28  O   UNL A   1      41.657  42.183  24.301  1.00  0.00    -0.493 OA
ATOM     29  C   UNL A   1      41.734  42.183  22.880  1.00  0.00     0.278 C 
ENDBRANCH  21  28
ENDBRANCH  17  18
ENDBRANCH  15  17
ENDBRANCH   9  15
ENDBRANCH   6   8
ENDBRANCH   5   6
ENDBRANCH   4   5
ENDBRANCH   3   4
ENDBRANCH   2   3
ENDBRANCH   1   2
BRANCH   1  30
ATOM     30  C   UNL A   1      51.857  36.071  28.429  1.00  0.00     0.188 C 
BRANCH  30  31
ATOM     31  O   UNL A   1      51.583  34.679  28.550  1.00  0.00    -0.376 OA
BRANCH  31  32
ATOM     32  C   UNL A   1      50.666  34.330  29.565  1.00  0.00     0.202 C 
BRANCH  32  33
ATOM     33  C   UNL A   1      49.571  35.383  29.765  1.00  0.00     0.261 C 
BRANCH  33  34
ATOM     34  O   UNL A   1      49.715  36.126  31.000  1.00  0.00    -0.460 OA
BRANCH  34  35
ATOM     35  C   UNL A   1      50.045  35.423  32.135  1.00  0.00     0.338 C 
ATOM     36  O   UNL A   1      51.099  35.614  32.743  1.00  0.00    -0.246 OA
BRANCH  35  37
ATOM     37  C   UNL A   1      48.887  34.638  32.639  1.00  0.00     0.060 A 
ATOM     38  C   UNL A   1      48.725  33.258  32.737  1.00  0.00     0.016 A 
ATOM     39  C   UNL A   1      47.807  35.364  32.984  1.00  0.00     0.016 A 
ATOM     40  C   UNL A   1      47.417  32.619  32.863  1.00  0.00     0.010 A 
ATOM     41  C   UNL A   1      46.569  34.726  33.007  1.00  0.00     0.010 A 
ATOM     42  C   UNL A   1      46.208  33.339  32.876  1.00  0.00    -0.014 A 
BRANCH  42  43
ATOM     43  C   UNL A   1      44.617  32.630  32.588  1.00  0.00     0.031 A 
ATOM     44  C   UNL A   1      43.722  32.033  31.135  1.00  0.00     0.074 A 
ATOM     45  C   UNL A   1      43.837  32.478  33.689  1.00  0.00     0.049 A 
ATOM     46  N   UNL A   1      42.462  31.641  31.183  1.00  0.00    -0.248 NA
ATOM     47  C   UNL A   1      44.059  31.852  29.649  1.00  0.00     0.031 C 
ATOM     48  C   UNL A   1      42.732  31.546  33.866  1.00  0.00     0.029 A 
ATOM     49  N   UNL A   1      43.809  33.250  34.849  1.00  0.00    -0.354 N 
ATOM     50  C   UNL A   1      42.167  30.905  30.024  1.00  0.00     0.074 A 
ATOM     51  C   UNL A   1      43.044  31.296  29.021  1.00  0.00     0.031 C 
ATOM     52  C   UNL A   1      42.012  31.903  34.932  1.00  0.00     0.029 A 
ATOM     53  C   UNL A   1      42.518  33.178  35.377  1.00  0.00     0.049 A 
ATOM     54  H   UNL A   1      44.565  33.755  35.229  1.00  0.00     0.167 HD
ATOM     55  C   UNL A   1      41.348  29.827  30.008  1.00  0.00     0.037 A 
ATOM     56  C   UNL A   1      41.785  34.305  35.585  1.00  0.00     0.037 A 
ATOM     57  C   UNL A   1      40.389  29.996  31.052  1.00  0.00     0.049 A 
ATOM     58  C   UNL A   1      40.487  34.285  34.813  1.00  0.00     0.074 A 
ATOM     59  C   UNL A   1      40.118  29.396  32.257  1.00  0.00     0.029 A 
ATOM     60  N   UNL A   1      39.715  31.203  31.031  1.00  0.00    -0.354 N 
ATOM     61  N   UNL A   1      40.231  33.405  33.877  1.00  0.00    -0.248 NA
ATOM     62  C   UNL A   1      39.349  35.168  35.034  1.00  0.00     0.031 C 
ATOM     63  C   UNL A   1      39.373  30.347  33.023  1.00  0.00     0.029 A 
ATOM     64  C   UNL A   1      39.154  31.478  32.249  1.00  0.00     0.049 A 
ATOM     65  H   UNL A   1      39.648  31.790  30.243  1.00  0.00     0.167 HD
ATOM     66  C   UNL A   1      38.967  33.569  33.384  1.00  0.00     0.074 A 
ATOM     67  C   UNL A   1      38.458  34.697  34.138  1.00  0.00     0.031 C 
ATOM     68  C   UNL A   1      38.467  32.757  32.402  1.00  0.00     0.037 A 
BRANCH  55  69
ATOM     69  C   UNL A   1      41.494  28.642  29.062  1.00  0.00     0.058 A 
ATOM     70  C   UNL A   1      42.484  27.670  29.286  1.00  0.00     0.135 A 
ATOM     71  C   UNL A   1      40.780  28.479  27.840  1.00  0.00     0.135 A 
ATOM     72  F   UNL A   1      43.251  27.726  30.383  1.00  0.00    -0.206 F 
ATOM     73  C   UNL A   1      42.744  26.623  28.387  1.00  0.00     0.059 A 
ATOM     74  C   UNL A   1      40.987  27.414  26.952  1.00  0.00     0.059 A 
ATOM     75  F   UNL A   1      39.885  29.384  27.418  1.00  0.00    -0.206 F 
ATOM     76  C   UNL A   1      41.992  26.499  27.221  1.00  0.00     0.060 A 
BRANCH  76  77
ATOM     77  S   UNL A   1      42.366  25.167  26.056  1.00  0.00     0.124 S 
ATOM     78  O   UNL A   1      42.351  25.871  24.778  1.00  0.00    -0.237 OA
ATOM     79  O   UNL A   1      43.674  24.707  26.512  1.00  0.00    -0.237 OA
ATOM     80  O   UNL A   1      41.274  24.217  26.254  1.00  0.00    -0.744 OA
ENDBRANCH  76  77
ENDBRANCH  55  69
BRANCH  56  81
ATOM     81  C   UNL A   1      42.638  35.406  36.134  1.00  0.00     0.058 A 
ATOM     82  C   UNL A   1      43.020  35.231  37.489  1.00  0.00     0.135 A 
ATOM     83  C   UNL A   1      43.481  36.206  35.344  1.00  0.00     0.135 A 
ATOM     84  F   UNL A   1      42.269  34.466  38.299  1.00  0.00    -0.206 F 
ATOM     85  C   UNL A   1      44.249  35.655  37.980  1.00  0.00     0.059 A 
ATOM     86  C   UNL A   1      44.714  36.680  35.836  1.00  0.00     0.059 A 
ATOM     87  F   UNL A   1      43.198  36.411  34.049  1.00  0.00    -0.206 F 
ATOM     88  C   UNL A   1      45.112  36.341  37.136  1.00  0.00     0.060 A 
BRANCH  88  89
ATOM     89  S   UNL A   1      46.810  36.575  37.730  1.00  0.00     0.124 S 
ATOM     90  O   UNL A   1      46.719  36.143  39.117  1.00  0.00    -0.237 OA
ATOM     91  O   UNL A   1      47.549  35.677  36.844  1.00  0.00    -0.237 OA
ATOM     92  O   UNL A   1      47.040  38.001  37.521  1.00  0.00    -0.744 OA
ENDBRANCH  88  89
ENDBRANCH  56  81
BRANCH  68  93
ATOM     93  C   UNL A   1      37.330  33.079  31.433  1.00  0.00     0.058 A 
ATOM     94  C   UNL A   1      37.462  33.894  30.299  1.00  0.00     0.135 A 
ATOM     95  C   UNL A   1      36.082  32.395  31.523  1.00  0.00     0.135 A 
ATOM     96  F   UNL A   1      38.592  34.556  30.035  1.00  0.00    -0.206 F 
ATOM     97  C   UNL A   1      36.439  34.057  29.360  1.00  0.00     0.059 A 
ATOM     98  C   UNL A   1      35.081  32.482  30.561  1.00  0.00     0.059 A 
ATOM     99  F   UNL A   1      35.784  31.595  32.558  1.00  0.00    -0.206 F 
ATOM    100  C   UNL A   1      35.251  33.351  29.501  1.00  0.00     0.060 A 
BRANCH 100 101
ATOM    101  S   UNL A   1      33.919  33.598  28.320  1.00  0.00     0.124 S 
ATOM    102  O   UNL A   1      33.627  32.222  27.930  1.00  0.00    -0.237 OA
ATOM    103  O   UNL A   1      32.894  34.259  29.121  1.00  0.00    -0.237 OA
ATOM    104  O   UNL A   1      34.530  34.429  27.287  1.00  0.00    -0.744 OA
ENDBRANCH 100 101
ENDBRANCH  68  93
ENDBRANCH  42  43
ENDBRANCH  35  37
ENDBRANCH  34  35
ENDBRANCH  33  34
ENDBRANCH  32  33
ENDBRANCH  31  32
ENDBRANCH  30  31
ENDBRANCH   1  30
TORSDOF 26
ENDMDL
