MODEL 1
REMARK VINA RESULT:     -10.9      0.000      0.000
REMARK SMILES CC(=O)Nc1cccc(-c2ccc(F)c(C(=O)OCCOCCOCCOC(=O)c3ccc(-c4c5nc(c(-c6c(F)cc(S(=O)(=O)[O-])cc6F)c6ccc([nH]6)c(-c6c(F)cc(S(=O)(=O)[O-])cc6F)c6nc(c(-c7c(F)cc(S(=O)(=O)[O-])cc7F)c7ccc4[nH]7)C=C6)C=C5)cc3)c2)c1
REMARK SMILES IDX 23 1 22 2 21 3 20 4 19 5 18 6 16 7 17 8 15 9 10 10 11 11
REMARK SMILES IDX 96 12 12 13 13 14 14 15 9 16 5 17 6 18 97 19 7 20 8 21 4 22
REMARK SMILES IDX 1 23 2 24 3 25 24 27 25 28 26 29 27 30 28 31 29 32 30 33
REMARK SMILES IDX 31 34 95 35 32 36 94 37 33 38 34 39 35 40 88 41 36 42 93 43
REMARK SMILES IDX 87 44 89 45 37 46 92 47 86 48 85 49 38 51 72 52 51 53 71 54
REMARK SMILES IDX 52 55 55 56 70 57 90 58 53 59 54 60 69 62 91 63 56 64 39 65
REMARK SMILES IDX 40 66 49 67 41 68 42 69 48 70 50 71 43 72 44 73 45 74 46 75
REMARK SMILES IDX 47 76 73 77 74 78 83 79 75 80 76 81 82 82 84 83 77 84 78 85
REMARK SMILES IDX 79 86 80 87 81 88 57 89 58 90 67 91 59 92 60 93 66 94 68 95
REMARK SMILES IDX 61 96 62 97 63 98 64 99 65 100
REMARK H PARENT 4 26 89 50 55 61
REMARK Flexibility Score: inf
ROOT
ATOM      1  C   UNL A   1      45.567  21.773  24.976  1.00  0.00     0.188 C 
ENDROOT
BRANCH   1   2
ATOM      2  C   UNL A   1      45.283  20.354  24.438  1.00  0.00     0.188 C 
BRANCH   2   3
ATOM      3  O   UNL A   1      43.958  19.877  24.367  1.00  0.00    -0.376 OA
BRANCH   3   4
ATOM      4  C   UNL A   1      43.484  18.827  25.189  1.00  0.00     0.202 C 
BRANCH   4   5
ATOM      5  C   UNL A   1      42.206  18.888  26.039  1.00  0.00     0.261 C 
BRANCH   5   6
ATOM      6  O   UNL A   1      41.459  20.099  25.943  1.00  0.00    -0.460 OA
BRANCH   6   7
ATOM      7  C   UNL A   1      40.798  20.471  27.070  1.00  0.00     0.341 C 
ATOM      8  O   UNL A   1      40.884  19.972  28.177  1.00  0.00    -0.246 OA
BRANCH   7   9
ATOM      9  C   UNL A   1      39.982  21.649  26.754  1.00  0.00     0.096 A 
ATOM     10  C   UNL A   1      37.976  22.626  25.765  1.00  0.00    -0.017 A 
ATOM     11  C   UNL A   1      38.464  23.897  26.115  1.00  0.00     0.012 A 
ATOM     12  C   UNL A   1      38.766  21.505  26.077  1.00  0.00     0.027 A 
ATOM     13  C   UNL A   1      39.690  24.040  26.775  1.00  0.00     0.041 A 
ATOM     14  C   UNL A   1      40.439  22.914  27.099  1.00  0.00     0.137 A 
ATOM     15  F   UNL A   1      41.627  23.078  27.695  1.00  0.00    -0.206 F 
BRANCH  10  16
ATOM     16  C   UNL A   1      36.655  22.445  25.137  1.00  0.00    -0.016 A 
ATOM     17  C   UNL A   1      34.513  21.251  25.098  1.00  0.00     0.041 A 
ATOM     18  C   UNL A   1      34.150  21.963  23.953  1.00  0.00     0.026 A 
ATOM     19  C   UNL A   1      35.767  21.486  25.661  1.00  0.00     0.034 A 
ATOM     20  C   UNL A   1      35.002  22.936  23.426  1.00  0.00     0.003 A 
ATOM     21  C   UNL A   1      36.244  23.182  24.019  1.00  0.00     0.009 A 
BRANCH  17  22
ATOM     22  N   UNL A   1      33.619  20.284  25.586  1.00  0.00    -0.326 N 
ATOM     23  C   UNL A   1      34.436  18.241  24.404  1.00  0.00     0.114 C 
ATOM     24  C   UNL A   1      33.417  18.980  25.232  1.00  0.00     0.221 C 
ATOM     25  O   UNL A   1      32.416  18.398  25.658  1.00  0.00    -0.275 OA
ATOM     26  H   UNL A   1      33.035  20.603  26.311  1.00  0.00     0.169 HD
ENDBRANCH  17  22
ENDBRANCH  10  16
ENDBRANCH   7   9
ENDBRANCH   6   7
ENDBRANCH   5   6
ENDBRANCH   4   5
ENDBRANCH   3   4
ENDBRANCH   2   3
ENDBRANCH   1   2
BRANCH   1  27
ATOM     27  O   UNL A   1      44.595  22.470  25.739  1.00  0.00    -0.376 OA
BRANCH  27  28
ATOM     28  C   UNL A   1      43.637  23.269  25.058  1.00  0.00     0.202 C 
BRANCH  28  29
ATOM     29  C   UNL A   1      43.814  24.789  25.051  1.00  0.00     0.261 C 
BRANCH  29  30
ATOM     30  O   UNL A   1      42.621  25.504  25.407  1.00  0.00    -0.460 OA
BRANCH  30  31
ATOM     31  C   UNL A   1      42.691  26.852  25.277  1.00  0.00     0.338 C 
ATOM     32  O   UNL A   1      42.976  27.486  24.276  1.00  0.00    -0.246 OA
BRANCH  31  33
ATOM     33  C   UNL A   1      42.181  27.484  26.508  1.00  0.00     0.060 A 
ATOM     34  C   UNL A   1      42.586  28.795  26.796  1.00  0.00     0.016 A 
ATOM     35  C   UNL A   1      41.348  26.788  27.383  1.00  0.00     0.016 A 
ATOM     36  C   UNL A   1      42.163  29.412  27.973  1.00  0.00     0.010 A 
ATOM     37  C   UNL A   1      40.946  27.399  28.573  1.00  0.00     0.010 A 
ATOM     38  C   UNL A   1      41.366  28.705  28.882  1.00  0.00    -0.014 A 
BRANCH  38  39
ATOM     39  C   UNL A   1      41.073  29.274  30.218  1.00  0.00     0.031 A 
ATOM     40  C   UNL A   1      39.932  30.241  30.361  1.00  0.00     0.074 A 
ATOM     41  C   UNL A   1      41.825  28.948  31.284  1.00  0.00     0.049 A 
ATOM     42  N   UNL A   1      39.550  30.923  31.407  1.00  0.00    -0.248 NA
ATOM     43  C   UNL A   1      39.113  30.469  29.158  1.00  0.00     0.031 C 
ATOM     44  C   UNL A   1      42.924  27.984  31.282  1.00  0.00     0.029 A 
ATOM     45  N   UNL A   1      41.782  29.408  32.576  1.00  0.00    -0.354 N 
ATOM     46  C   UNL A   1      38.454  31.670  30.992  1.00  0.00     0.074 A 
ATOM     47  C   UNL A   1      38.241  31.366  29.593  1.00  0.00     0.031 C 
ATOM     48  C   UNL A   1      43.465  27.938  32.512  1.00  0.00     0.029 A 
ATOM     49  C   UNL A   1      42.774  28.893  33.376  1.00  0.00     0.049 A 
ATOM     50  H   UNL A   1      41.105  30.046  32.900  1.00  0.00     0.167 HD
ATOM     51  C   UNL A   1      37.697  32.531  31.712  1.00  0.00     0.037 A 
ATOM     52  C   UNL A   1      43.102  29.185  34.651  1.00  0.00     0.037 A 
ATOM     53  C   UNL A   1      37.920  32.837  33.099  1.00  0.00     0.049 A 
ATOM     54  C   UNL A   1      42.306  30.222  35.401  1.00  0.00     0.074 A 
ATOM     55  C   UNL A   1      37.188  33.670  33.925  1.00  0.00     0.029 A 
ATOM     56  N   UNL A   1      38.965  32.336  33.861  1.00  0.00    -0.354 N 
ATOM     57  N   UNL A   1      41.253  30.898  35.009  1.00  0.00    -0.248 NA
ATOM     58  C   UNL A   1      42.752  30.545  36.765  1.00  0.00     0.031 C 
ATOM     59  C   UNL A   1      37.819  33.713  35.174  1.00  0.00     0.029 A 
ATOM     60  C   UNL A   1      38.920  32.870  35.138  1.00  0.00     0.049 A 
ATOM     61  H   UNL A   1      39.641  31.695  33.541  1.00  0.00     0.167 HD
ATOM     62  C   UNL A   1      40.893  31.703  36.085  1.00  0.00     0.074 A 
ATOM     63  C   UNL A   1      41.841  31.430  37.146  1.00  0.00     0.031 C 
ATOM     64  C   UNL A   1      39.868  32.586  36.186  1.00  0.00     0.037 A 
BRANCH  51  65
ATOM     65  C   UNL A   1      36.580  33.233  30.992  1.00  0.00     0.058 A 
ATOM     66  C   UNL A   1      36.828  34.233  30.040  1.00  0.00     0.135 A 
ATOM     67  C   UNL A   1      35.244  32.893  31.257  1.00  0.00     0.135 A 
ATOM     68  F   UNL A   1      38.087  34.608  29.764  1.00  0.00    -0.206 F 
ATOM     69  C   UNL A   1      35.787  34.896  29.397  1.00  0.00     0.059 A 
ATOM     70  C   UNL A   1      34.188  33.527  30.609  1.00  0.00     0.059 A 
ATOM     71  F   UNL A   1      34.954  31.946  32.161  1.00  0.00    -0.206 F 
ATOM     72  C   UNL A   1      34.470  34.539  29.693  1.00  0.00     0.060 A 
BRANCH  72  73
ATOM     73  S   UNL A   1      33.130  35.421  28.867  1.00  0.00     0.124 S 
ATOM     74  O   UNL A   1      32.483  34.340  28.128  1.00  0.00    -0.237 OA
ATOM     75  O   UNL A   1      32.371  35.962  29.989  1.00  0.00    -0.237 OA
ATOM     76  O   UNL A   1      33.826  36.410  28.049  1.00  0.00    -0.744 OA
ENDBRANCH  72  73
ENDBRANCH  51  65
BRANCH  52  77
ATOM     77  C   UNL A   1      44.250  28.498  35.299  1.00  0.00     0.058 A 
ATOM     78  C   UNL A   1      44.059  27.321  36.036  1.00  0.00     0.135 A 
ATOM     79  C   UNL A   1      45.555  29.004  35.199  1.00  0.00     0.135 A 
ATOM     80  F   UNL A   1      42.827  26.808  36.172  1.00  0.00    -0.206 F 
ATOM     81  C   UNL A   1      45.120  26.671  36.658  1.00  0.00     0.059 A 
ATOM     82  C   UNL A   1      46.636  28.360  35.794  1.00  0.00     0.059 A 
ATOM     83  F   UNL A   1      45.791  30.127  34.502  1.00  0.00    -0.206 F 
ATOM     84  C   UNL A   1      46.407  27.198  36.531  1.00  0.00     0.060 A 
BRANCH  84  85
ATOM     85  S   UNL A   1      47.783  26.323  37.305  1.00  0.00     0.124 S 
ATOM     86  O   UNL A   1      47.640  24.988  36.733  1.00  0.00    -0.237 OA
ATOM     87  O   UNL A   1      48.935  27.093  36.847  1.00  0.00    -0.237 OA
ATOM     88  O   UNL A   1      47.491  26.432  38.731  1.00  0.00    -0.744 OA
ENDBRANCH  84  85
ENDBRANCH  52  77
BRANCH  64  89
ATOM     89  C   UNL A   1      39.692  33.302  37.497  1.00  0.00     0.058 A 
ATOM     90  C   UNL A   1      38.782  32.853  38.465  1.00  0.00     0.135 A 
ATOM     91  C   UNL A   1      40.497  34.408  37.815  1.00  0.00     0.135 A 
ATOM     92  F   UNL A   1      37.985  31.804  38.208  1.00  0.00    -0.206 F 
ATOM     93  C   UNL A   1      38.669  33.480  39.702  1.00  0.00     0.059 A 
ATOM     94  C   UNL A   1      40.418  35.037  39.054  1.00  0.00     0.059 A 
ATOM     95  F   UNL A   1      41.389  34.873  36.927  1.00  0.00    -0.206 F 
ATOM     96  C   UNL A   1      39.495  34.570  39.989  1.00  0.00     0.060 A 
BRANCH  96  97
ATOM     97  S   UNL A   1      39.379  35.341  41.618  1.00  0.00     0.124 S 
ATOM     98  O   UNL A   1      37.986  35.774  41.640  1.00  0.00    -0.237 OA
ATOM     99  O   UNL A   1      39.715  34.239  42.512  1.00  0.00    -0.237 OA
ATOM    100  O   UNL A   1      40.369  36.413  41.556  1.00  0.00    -0.744 OA
ENDBRANCH  96  97
ENDBRANCH  64  89
ENDBRANCH  38  39
ENDBRANCH  31  33
ENDBRANCH  30  31
ENDBRANCH  29  30
ENDBRANCH  28  29
ENDBRANCH  27  28
ENDBRANCH   1  27
TORSDOF 22
ENDMDL
MODEL 2
REMARK VINA RESULT:     -10.5      1.501      2.130
REMARK SMILES CC(=O)Nc1cccc(-c2ccc(F)c(C(=O)OCCOCCOCCOC(=O)c3ccc(-c4c5nc(c(-c6c(F)cc(S(=O)(=O)[O-])cc6F)c6ccc([nH]6)c(-c6c(F)cc(S(=O)(=O)[O-])cc6F)c6nc(c(-c7c(F)cc(S(=O)(=O)[O-])cc7F)c7ccc4[nH]7)C=C6)C=C5)cc3)c2)c1
REMARK SMILES IDX 23 1 22 2 21 3 20 4 19 5 18 6 16 7 17 8 15 9 10 10 11 11
REMARK SMILES IDX 96 12 12 13 13 14 14 15 9 16 5 17 6 18 97 19 7 20 8 21 4 22
REMARK SMILES IDX 1 23 2 24 3 25 24 27 25 28 26 29 27 30 28 31 29 32 30 33
REMARK SMILES IDX 31 34 95 35 32 36 94 37 33 38 34 39 35 40 88 41 36 42 93 43
REMARK SMILES IDX 87 44 89 45 37 46 92 47 86 48 85 49 38 51 72 52 51 53 71 54
REMARK SMILES IDX 52 55 55 56 70 57 90 58 53 59 54 60 69 62 91 63 56 64 39 65
REMARK SMILES IDX 40 66 49 67 41 68 42 69 48 70 50 71 43 72 44 73 45 74 46 75
REMARK SMILES IDX 47 76 73 77 74 78 83 79 75 80 76 81 82 82 84 83 77 84 78 85
REMARK SMILES IDX 79 86 80 87 81 88 57 89 58 90 67 91 59 92 60 93 66 94 68 95
REMARK SMILES IDX 61 96 62 97 63 98 64 99 65 100
REMARK H PARENT 4 26 89 50 55 61
REMARK Flexibility Score: inf
ROOT
ATOM      1  C   UNL A   1      46.234  21.348  24.512  1.00  0.00     0.188 C 
ENDROOT
BRANCH   1   2
ATOM      2  C   UNL A   1      46.242  19.875  24.976  1.00  0.00     0.188 C 
BRANCH   2   3
ATOM      3  O   UNL A   1      45.054  19.117  24.941  1.00  0.00    -0.376 OA
BRANCH   3   4
ATOM      4  C   UNL A   1      43.774  19.715  24.856  1.00  0.00     0.202 C 
BRANCH   4   5
ATOM      5  C   UNL A   1      42.750  19.758  26.000  1.00  0.00     0.261 C 
BRANCH   5   6
ATOM      6  O   UNL A   1      41.759  20.779  25.902  1.00  0.00    -0.460 OA
BRANCH   6   7
ATOM      7  C   UNL A   1      40.742  20.698  26.798  1.00  0.00     0.341 C 
ATOM      8  O   UNL A   1      40.503  19.782  27.565  1.00  0.00    -0.246 OA
BRANCH   7   9
ATOM      9  C   UNL A   1      39.984  21.953  26.745  1.00  0.00     0.096 A 
ATOM     10  C   UNL A   1      38.068  23.232  25.939  1.00  0.00    -0.017 A 
ATOM     11  C   UNL A   1      38.579  24.356  26.612  1.00  0.00     0.012 A 
ATOM     12  C   UNL A   1      38.803  22.034  26.000  1.00  0.00     0.027 A 
ATOM     13  C   UNL A   1      39.771  24.278  27.341  1.00  0.00     0.041 A 
ATOM     14  C   UNL A   1      40.463  23.074  27.411  1.00  0.00     0.137 A 
ATOM     15  F   UNL A   1      41.622  23.033  28.081  1.00  0.00    -0.206 F 
BRANCH  10  16
ATOM     16  C   UNL A   1      36.778  23.270  25.228  1.00  0.00    -0.016 A 
ATOM     17  C   UNL A   1      34.360  23.667  25.319  1.00  0.00     0.041 A 
ATOM     18  C   UNL A   1      34.257  23.281  23.982  1.00  0.00     0.026 A 
ATOM     19  C   UNL A   1      35.613  23.635  25.929  1.00  0.00     0.034 A 
ATOM     20  C   UNL A   1      35.399  22.938  23.255  1.00  0.00     0.003 A 
ATOM     21  C   UNL A   1      36.654  22.939  23.873  1.00  0.00     0.009 A 
BRANCH  17  22
ATOM     22  N   UNL A   1      33.180  24.003  26.003  1.00  0.00    -0.326 N 
ATOM     23  C   UNL A   1      33.099  22.202  27.731  1.00  0.00     0.114 C 
ATOM     24  C   UNL A   1      32.476  23.344  26.970  1.00  0.00     0.221 C 
ATOM     25  O   UNL A   1      31.344  23.742  27.257  1.00  0.00    -0.275 OA
ATOM     26  H   UNL A   1      32.791  24.868  25.736  1.00  0.00     0.169 HD
ENDBRANCH  17  22
ENDBRANCH  10  16
ENDBRANCH   7   9
ENDBRANCH   6   7
ENDBRANCH   5   6
ENDBRANCH   4   5
ENDBRANCH   3   4
ENDBRANCH   2   3
ENDBRANCH   1   2
BRANCH   1  27
ATOM     27  O   UNL A   1      45.715  22.371  25.345  1.00  0.00    -0.376 OA
BRANCH  27  28
ATOM     28  C   UNL A   1      45.109  23.504  24.739  1.00  0.00     0.202 C 
BRANCH  28  29
ATOM     29  C   UNL A   1      43.725  23.947  25.218  1.00  0.00     0.261 C 
BRANCH  29  30
ATOM     30  O   UNL A   1      43.770  24.980  26.215  1.00  0.00    -0.460 OA
BRANCH  30  31
ATOM     31  C   UNL A   1      42.896  26.001  26.034  1.00  0.00     0.338 C 
ATOM     32  O   UNL A   1      42.214  26.226  25.050  1.00  0.00    -0.246 OA
BRANCH  31  33
ATOM     33  C   UNL A   1      42.738  26.734  27.304  1.00  0.00     0.060 A 
ATOM     34  C   UNL A   1      42.060  26.101  28.355  1.00  0.00     0.016 A 
ATOM     35  C   UNL A   1      43.218  28.036  27.448  1.00  0.00     0.016 A 
ATOM     36  C   UNL A   1      41.849  26.778  29.557  1.00  0.00     0.010 A 
ATOM     37  C   UNL A   1      42.984  28.721  28.643  1.00  0.00     0.010 A 
ATOM     38  C   UNL A   1      42.284  28.102  29.694  1.00  0.00    -0.014 A 
BRANCH  38  39
ATOM     39  C   UNL A   1      41.897  28.895  30.885  1.00  0.00     0.031 A 
ATOM     40  C   UNL A   1      40.680  29.773  30.807  1.00  0.00     0.074 A 
ATOM     41  C   UNL A   1      42.632  28.849  32.010  1.00  0.00     0.049 A 
ATOM     42  N   UNL A   1      40.207  30.613  31.689  1.00  0.00    -0.248 NA
ATOM     43  C   UNL A   1      39.892  29.690  29.566  1.00  0.00     0.031 C 
ATOM     44  C   UNL A   1      43.802  28.000  32.223  1.00  0.00     0.029 A 
ATOM     45  N   UNL A   1      42.505  29.549  33.184  1.00  0.00    -0.354 N 
ATOM     46  C   UNL A   1      39.072  31.168  31.110  1.00  0.00     0.074 A 
ATOM     47  C   UNL A   1      38.936  30.579  29.795  1.00  0.00     0.031 C 
ATOM     48  C   UNL A   1      44.298  28.242  33.449  1.00  0.00     0.029 A 
ATOM     49  C   UNL A   1      43.503  29.287  34.091  1.00  0.00     0.049 A 
ATOM     50  H   UNL A   1      41.768  30.179  33.359  1.00  0.00     0.167 HD
ATOM     51  C   UNL A   1      38.224  32.087  31.628  1.00  0.00     0.037 A 
ATOM     52  C   UNL A   1      43.758  29.850  35.289  1.00  0.00     0.037 A 
ATOM     53  C   UNL A   1      38.369  32.677  32.932  1.00  0.00     0.049 A 
ATOM     54  C   UNL A   1      42.857  30.943  35.801  1.00  0.00     0.074 A 
ATOM     55  C   UNL A   1      37.544  33.592  33.560  1.00  0.00     0.029 A 
ATOM     56  N   UNL A   1      39.421  32.426  33.800  1.00  0.00    -0.354 N 
ATOM     57  N   UNL A   1      41.769  31.438  35.260  1.00  0.00    -0.248 NA
ATOM     58  C   UNL A   1      43.224  31.563  37.083  1.00  0.00     0.031 C 
ATOM     59  C   UNL A   1      38.123  33.932  34.788  1.00  0.00     0.029 A 
ATOM     60  C   UNL A   1      39.286  33.194  34.944  1.00  0.00     0.049 A 
ATOM     61  H   UNL A   1      40.156  31.793  33.628  1.00  0.00     0.167 HD
ATOM     62  C   UNL A   1      41.308  32.405  36.146  1.00  0.00     0.074 A 
ATOM     63  C   UNL A   1      42.233  32.426  37.260  1.00  0.00     0.031 C 
ATOM     64  C   UNL A   1      40.213  33.201  36.048  1.00  0.00     0.037 A 
BRANCH  51  65
ATOM     65  C   UNL A   1      37.084  32.538  30.759  1.00  0.00     0.058 A 
ATOM     66  C   UNL A   1      35.792  32.007  30.901  1.00  0.00     0.135 A 
ATOM     67  C   UNL A   1      37.287  33.519  29.777  1.00  0.00     0.135 A 
ATOM     68  F   UNL A   1      35.549  31.053  31.813  1.00  0.00    -0.206 F 
ATOM     69  C   UNL A   1      34.749  32.412  30.075  1.00  0.00     0.059 A 
ATOM     70  C   UNL A   1      36.252  33.956  28.955  1.00  0.00     0.059 A 
ATOM     71  F   UNL A   1      38.504  34.056  29.599  1.00  0.00    -0.206 F 
ATOM     72  C   UNL A   1      34.989  33.382  29.101  1.00  0.00     0.060 A 
BRANCH  72  73
ATOM     73  S   UNL A   1      33.631  33.883  28.024  1.00  0.00     0.124 S 
ATOM     74  O   UNL A   1      34.320  34.748  27.070  1.00  0.00    -0.237 OA
ATOM     75  O   UNL A   1      33.162  32.607  27.496  1.00  0.00    -0.237 OA
ATOM     76  O   UNL A   1      32.710  34.560  28.931  1.00  0.00    -0.744 OA
ENDBRANCH  72  73
ENDBRANCH  51  65
BRANCH  52  77
ATOM     77  C   UNL A   1      44.931  29.401  36.085  1.00  0.00     0.058 A 
ATOM     78  C   UNL A   1      46.187  30.002  35.915  1.00  0.00     0.135 A 
ATOM     79  C   UNL A   1      44.823  28.365  37.026  1.00  0.00     0.135 A 
ATOM     80  F   UNL A   1      46.343  30.986  35.017  1.00  0.00    -0.206 F 
ATOM     81  C   UNL A   1      47.297  29.587  36.644  1.00  0.00     0.059 A 
ATOM     82  C   UNL A   1      45.913  27.947  37.782  1.00  0.00     0.059 A 
ATOM     83  F   UNL A   1      43.641  27.760  37.227  1.00  0.00    -0.206 F 
ATOM     84  C   UNL A   1      47.150  28.559  37.577  1.00  0.00     0.060 A 
BRANCH  84  85
ATOM     85  S   UNL A   1      48.587  28.059  38.549  1.00  0.00     0.124 S 
ATOM     86  O   UNL A   1      47.982  27.155  39.522  1.00  0.00    -0.237 OA
ATOM     87  O   UNL A   1      49.438  27.433  37.541  1.00  0.00    -0.237 OA
ATOM     88  O   UNL A   1      49.085  29.321  39.085  1.00  0.00    -0.744 OA
ENDBRANCH  84  85
ENDBRANCH  52  77
BRANCH  64  89
ATOM     89  C   UNL A   1      39.933  34.144  37.186  1.00  0.00     0.058 A 
ATOM     90  C   UNL A   1      39.115  33.774  38.264  1.00  0.00     0.135 A 
ATOM     91  C   UNL A   1      40.551  35.404  37.233  1.00  0.00     0.135 A 
ATOM     92  F   UNL A   1      38.496  32.583  38.264  1.00  0.00    -0.206 F 
ATOM     93  C   UNL A   1      38.910  34.625  39.346  1.00  0.00     0.059 A 
ATOM     94  C   UNL A   1      40.379  36.262  38.315  1.00  0.00     0.059 A 
ATOM     95  F   UNL A   1      41.350  35.804  36.231  1.00  0.00    -0.206 F 
ATOM     96  C   UNL A   1      39.550  35.866  39.364  1.00  0.00     0.060 A 
BRANCH  96  97
ATOM     97  S   UNL A   1      39.322  36.939  40.799  1.00  0.00     0.124 S 
ATOM     98  O   UNL A   1      38.233  37.800  40.352  1.00  0.00    -0.237 OA
ATOM     99  O   UNL A   1      38.988  35.987  41.853  1.00  0.00    -0.237 OA
ATOM    100  O   UNL A   1      40.620  37.592  40.943  1.00  0.00    -0.744 OA
ENDBRANCH  96  97
ENDBRANCH  64  89
ENDBRANCH  38  39
ENDBRANCH  31  33
ENDBRANCH  30  31
ENDBRANCH  29  30
ENDBRANCH  28  29
ENDBRANCH  27  28
ENDBRANCH   1  27
TORSDOF 22
ENDMDL
MODEL 3
REMARK VINA RESULT:     -10.5      1.846      8.551
REMARK SMILES CC(=O)Nc1cccc(-c2ccc(F)c(C(=O)OCCOCCOCCOC(=O)c3ccc(-c4c5nc(c(-c6c(F)cc(S(=O)(=O)[O-])cc6F)c6ccc([nH]6)c(-c6c(F)cc(S(=O)(=O)[O-])cc6F)c6nc(c(-c7c(F)cc(S(=O)(=O)[O-])cc7F)c7ccc4[nH]7)C=C6)C=C5)cc3)c2)c1
REMARK SMILES IDX 23 1 22 2 21 3 20 4 19 5 18 6 16 7 17 8 15 9 10 10 11 11
REMARK SMILES IDX 96 12 12 13 13 14 14 15 9 16 5 17 6 18 97 19 7 20 8 21 4 22
REMARK SMILES IDX 1 23 2 24 3 25 24 27 25 28 26 29 27 30 28 31 29 32 30 33
REMARK SMILES IDX 31 34 95 35 32 36 94 37 33 38 34 39 35 40 88 41 36 42 93 43
REMARK SMILES IDX 87 44 89 45 37 46 92 47 86 48 85 49 38 51 72 52 51 53 71 54
REMARK SMILES IDX 52 55 55 56 70 57 90 58 53 59 54 60 69 62 91 63 56 64 39 65
REMARK SMILES IDX 40 66 49 67 41 68 42 69 48 70 50 71 43 72 44 73 45 74 46 75
REMARK SMILES IDX 47 76 73 77 74 78 83 79 75 80 76 81 82 82 84 83 77 84 78 85
REMARK SMILES IDX 79 86 80 87 81 88 57 89 58 90 67 91 59 92 60 93 66 94 68 95
REMARK SMILES IDX 61 96 62 97 63 98 64 99 65 100
REMARK H PARENT 4 26 89 50 55 61
REMARK Flexibility Score: inf
ROOT
ATOM      1  C   UNL A   1      41.431  20.464  26.641  1.00  0.00     0.188 C 
ENDROOT
BRANCH   1   2
ATOM      2  C   UNL A   1      40.054  21.158  26.718  1.00  0.00     0.188 C 
BRANCH   2   3
ATOM      3  O   UNL A   1      39.901  22.477  26.245  1.00  0.00    -0.376 OA
BRANCH   3   4
ATOM      4  C   UNL A   1      38.653  23.145  26.245  1.00  0.00     0.202 C 
BRANCH   4   5
ATOM      5  C   UNL A   1      37.401  22.661  25.498  1.00  0.00     0.261 C 
BRANCH   5   6
ATOM      6  O   UNL A   1      36.171  22.791  26.208  1.00  0.00    -0.460 OA
BRANCH   6   7
ATOM      7  C   UNL A   1      35.310  23.724  25.725  1.00  0.00     0.341 C 
ATOM      8  O   UNL A   1      35.563  24.874  25.415  1.00  0.00    -0.246 OA
BRANCH   7   9
ATOM      9  C   UNL A   1      33.994  23.094  25.567  1.00  0.00     0.096 A 
ATOM     10  C   UNL A   1      32.600  21.316  24.643  1.00  0.00    -0.017 A 
ATOM     11  C   UNL A   1      31.483  21.933  25.234  1.00  0.00     0.012 A 
ATOM     12  C   UNL A   1      33.856  21.928  24.805  1.00  0.00     0.027 A 
ATOM     13  C   UNL A   1      31.621  23.110  25.979  1.00  0.00     0.041 A 
ATOM     14  C   UNL A   1      32.878  23.679  26.149  1.00  0.00     0.137 A 
ATOM     15  F   UNL A   1      32.980  24.826  26.833  1.00  0.00    -0.206 F 
BRANCH  10  16
ATOM     16  C   UNL A   1      32.491  20.038  23.918  1.00  0.00    -0.016 A 
ATOM     17  C   UNL A   1      32.499  17.587  24.003  1.00  0.00     0.041 A 
ATOM     18  C   UNL A   1      32.386  17.550  22.612  1.00  0.00     0.026 A 
ATOM     19  C   UNL A   1      32.571  18.828  24.634  1.00  0.00     0.034 A 
ATOM     20  C   UNL A   1      32.280  18.734  21.879  1.00  0.00     0.003 A 
ATOM     21  C   UNL A   1      32.325  19.971  22.529  1.00  0.00     0.009 A 
BRANCH  17  22
ATOM     22  N   UNL A   1      32.602  16.367  24.691  1.00  0.00    -0.326 N 
ATOM     23  C   UNL A   1      35.054  16.286  25.156  1.00  0.00     0.114 C 
ATOM     24  C   UNL A   1      33.689  15.650  25.103  1.00  0.00     0.221 C 
ATOM     25  O   UNL A   1      33.524  14.492  25.495  1.00  0.00    -0.275 OA
ATOM     26  H   UNL A   1      31.736  15.955  24.915  1.00  0.00     0.169 HD
ENDBRANCH  17  22
ENDBRANCH  10  16
ENDBRANCH   7   9
ENDBRANCH   6   7
ENDBRANCH   5   6
ENDBRANCH   4   5
ENDBRANCH   3   4
ENDBRANCH   2   3
ENDBRANCH   1   2
BRANCH   1  27
ATOM     27  O   UNL A   1      42.425  20.917  25.738  1.00  0.00    -0.376 OA
BRANCH  27  28
ATOM     28  C   UNL A   1      43.497  21.702  26.241  1.00  0.00     0.202 C 
BRANCH  28  29
ATOM     29  C   UNL A   1      43.589  23.175  25.835  1.00  0.00     0.261 C 
BRANCH  29  30
ATOM     30  O   UNL A   1      42.752  24.037  26.621  1.00  0.00    -0.460 OA
BRANCH  30  31
ATOM     31  C   UNL A   1      42.398  25.204  26.027  1.00  0.00     0.338 C 
ATOM     32  O   UNL A   1      42.292  25.425  24.834  1.00  0.00    -0.246 OA
BRANCH  31  33
ATOM     33  C   UNL A   1      41.968  26.163  27.061  1.00  0.00     0.060 A 
ATOM     34  C   UNL A   1      42.532  27.446  27.052  1.00  0.00     0.016 A 
ATOM     35  C   UNL A   1      41.050  25.796  28.046  1.00  0.00     0.016 A 
ATOM     36  C   UNL A   1      42.185  28.367  28.040  1.00  0.00     0.010 A 
ATOM     37  C   UNL A   1      40.723  26.712  29.049  1.00  0.00     0.010 A 
ATOM     38  C   UNL A   1      41.302  27.993  29.061  1.00  0.00    -0.014 A 
BRANCH  38  39
ATOM     39  C   UNL A   1      41.078  28.889  30.220  1.00  0.00     0.031 A 
ATOM     40  C   UNL A   1      41.929  28.716  31.445  1.00  0.00     0.074 A 
ATOM     41  C   UNL A   1      40.116  29.828  30.187  1.00  0.00     0.049 A 
ATOM     42  N   UNL A   1      41.853  29.324  32.599  1.00  0.00    -0.248 NA
ATOM     43  C   UNL A   1      43.012  27.723  31.355  1.00  0.00     0.031 C 
ATOM     44  C   UNL A   1      39.261  30.124  29.039  1.00  0.00     0.029 A 
ATOM     45  N   UNL A   1      39.689  30.698  31.158  1.00  0.00    -0.354 N 
ATOM     46  C   UNL A   1      42.868  28.783  33.379  1.00  0.00     0.074 A 
ATOM     47  C   UNL A   1      43.537  27.787  32.570  1.00  0.00     0.031 C 
ATOM     48  C   UNL A   1      38.397  31.097  29.379  1.00  0.00     0.029 A 
ATOM     49  C   UNL A   1      38.615  31.466  30.776  1.00  0.00     0.049 A 
ATOM     50  H   UNL A   1      40.112  30.766  32.045  1.00  0.00     0.167 HD
ATOM     51  C   UNL A   1      43.208  29.088  34.653  1.00  0.00     0.037 A 
ATOM     52  C   UNL A   1      37.877  32.343  31.486  1.00  0.00     0.037 A 
ATOM     53  C   UNL A   1      42.533  30.071  35.457  1.00  0.00     0.049 A 
ATOM     54  C   UNL A   1      38.212  32.592  32.934  1.00  0.00     0.074 A 
ATOM     55  C   UNL A   1      42.823  30.476  36.747  1.00  0.00     0.029 A 
ATOM     56  N   UNL A   1      41.417  30.791  35.053  1.00  0.00    -0.354 N 
ATOM     57  N   UNL A   1      39.194  32.099  33.651  1.00  0.00    -0.248 NA
ATOM     58  C   UNL A   1      37.332  33.509  33.673  1.00  0.00     0.031 C 
ATOM     59  C   UNL A   1      41.853  31.404  37.142  1.00  0.00     0.029 A 
ATOM     60  C   UNL A   1      40.985  31.611  36.081  1.00  0.00     0.049 A 
ATOM     61  H   UNL A   1      40.995  30.728  34.165  1.00  0.00     0.167 HD
ATOM     62  C   UNL A   1      39.066  32.665  34.915  1.00  0.00     0.074 A 
ATOM     63  C   UNL A   1      37.913  33.540  34.865  1.00  0.00     0.031 C 
ATOM     64  C   UNL A   1      39.837  32.481  36.016  1.00  0.00     0.037 A 
BRANCH  51  65
ATOM     65  C   UNL A   1      44.341  28.315  35.267  1.00  0.00     0.058 A 
ATOM     66  C   UNL A   1      45.675  28.730  35.137  1.00  0.00     0.135 A 
ATOM     67  C   UNL A   1      44.084  27.146  36.001  1.00  0.00     0.135 A 
ATOM     68  F   UNL A   1      45.975  29.830  34.429  1.00  0.00    -0.206 F 
ATOM     69  C   UNL A   1      46.719  27.994  35.686  1.00  0.00     0.059 A 
ATOM     70  C   UNL A   1      45.112  26.406  36.579  1.00  0.00     0.059 A 
ATOM     71  F   UNL A   1      42.826  26.704  36.152  1.00  0.00    -0.206 F 
ATOM     72  C   UNL A   1      46.428  26.831  36.401  1.00  0.00     0.060 A 
BRANCH  72  73
ATOM     73  S   UNL A   1      47.795  25.875  37.092  1.00  0.00     0.124 S 
ATOM     74  O   UNL A   1      48.086  24.952  35.998  1.00  0.00    -0.237 OA
ATOM     75  O   UNL A   1      48.802  26.901  37.339  1.00  0.00    -0.237 OA
ATOM     76  O   UNL A   1      47.215  25.268  38.286  1.00  0.00    -0.744 OA
ENDBRANCH  72  73
ENDBRANCH  51  65
BRANCH  52  77
ATOM     77  C   UNL A   1      36.734  33.043  30.843  1.00  0.00     0.058 A 
ATOM     78  C   UNL A   1      36.951  34.083  29.929  1.00  0.00     0.135 A 
ATOM     79  C   UNL A   1      35.406  32.691  31.132  1.00  0.00     0.135 A 
ATOM     80  F   UNL A   1      38.202  34.466  29.633  1.00  0.00    -0.206 F 
ATOM     81  C   UNL A   1      35.892  34.756  29.327  1.00  0.00     0.059 A 
ATOM     82  C   UNL A   1      34.331  33.335  30.526  1.00  0.00     0.059 A 
ATOM     83  F   UNL A   1      35.146  31.699  31.998  1.00  0.00    -0.206 F 
ATOM     84  C   UNL A   1      34.585  34.374  29.632  1.00  0.00     0.060 A 
BRANCH  84  85
ATOM     85  S   UNL A   1      33.220  35.224  28.811  1.00  0.00     0.124 S 
ATOM     86  O   UNL A   1      33.920  36.294  28.110  1.00  0.00    -0.237 OA
ATOM     87  O   UNL A   1      32.660  34.169  27.971  1.00  0.00    -0.237 OA
ATOM     88  O   UNL A   1      32.372  35.647  29.922  1.00  0.00    -0.744 OA
ENDBRANCH  84  85
ENDBRANCH  52  77
BRANCH  64  89
ATOM     89  C   UNL A   1      39.483  33.260  37.253  1.00  0.00     0.058 A 
ATOM     90  C   UNL A   1      38.555  32.776  38.187  1.00  0.00     0.135 A 
ATOM     91  C   UNL A   1      40.137  34.469  37.542  1.00  0.00     0.135 A 
ATOM     92  F   UNL A   1      37.898  31.630  37.954  1.00  0.00    -0.206 F 
ATOM     93  C   UNL A   1      38.279  33.469  39.362  1.00  0.00     0.059 A 
ATOM     94  C   UNL A   1      39.894  35.166  38.721  1.00  0.00     0.059 A 
ATOM     95  F   UNL A   1      41.041  34.971  36.686  1.00  0.00    -0.206 F 
ATOM     96  C   UNL A   1      38.957  34.662  39.622  1.00  0.00     0.060 A 
BRANCH  96  97
ATOM     97  S   UNL A   1      38.632  35.524  41.176  1.00  0.00     0.124 S 
ATOM     98  O   UNL A   1      38.643  36.918  40.746  1.00  0.00    -0.237 OA
ATOM     99  O   UNL A   1      37.331  34.990  41.565  1.00  0.00    -0.237 OA
ATOM    100  O   UNL A   1      39.747  35.120  42.026  1.00  0.00    -0.744 OA
ENDBRANCH  96  97
ENDBRANCH  64  89
ENDBRANCH  38  39
ENDBRANCH  31  33
ENDBRANCH  30  31
ENDBRANCH  29  30
ENDBRANCH  28  29
ENDBRANCH  27  28
ENDBRANCH   1  27
TORSDOF 22
ENDMDL
