MODEL 1
REMARK VINA RESULT:     -10.8      0.000      0.000
REMARK SMILES Cc1cc(C(=O)N2[C@@H](C(=O)OCCOCCOCCOC(=O)c3ccc(-c4c5nc(c(-c6c(F)cc(S(=O)(=O)[O-])cc6F)c6ccc([nH]6)c(-c6c(F)cc(S(=O)(=O)[O-])cc6F)c6nc(c(-c7c(F)cc(S(=O)(=O)[O-])cc7F)c7ccc4[nH]7)C=C6)C=C5)cc3)C[C@H]3CCCC[C@H]32)c(C)s1
REMARK SMILES IDX 16 1 15 2 14 3 13 4 12 5 11 6 9 7 10 8 8 9 7 10 95 11 89 12
REMARK SMILES IDX 90 13 94 14 91 15 93 16 92 17 5 18 6 19 4 20 1 21 2 22 3 23
REMARK SMILES IDX 98 24 96 25 97 26 17 27 18 28 19 29 20 30 21 31 22 32 23 33
REMARK SMILES IDX 24 34 88 35 25 36 87 37 26 38 27 39 28 40 81 41 29 42 86 43
REMARK SMILES IDX 80 44 82 45 30 46 85 47 79 48 78 49 31 51 65 52 44 53 64 54
REMARK SMILES IDX 45 55 48 56 63 57 83 58 46 59 47 60 62 62 84 63 49 64 32 65
REMARK SMILES IDX 33 66 42 67 34 68 35 69 41 70 43 71 36 72 37 73 38 74 39 75
REMARK SMILES IDX 40 76 66 77 67 78 76 79 68 80 69 81 75 82 77 83 70 84 71 85
REMARK SMILES IDX 72 86 73 87 74 88 50 89 51 90 60 91 52 92 53 93 59 94 61 95
REMARK SMILES IDX 54 96 55 97 56 98 57 99 58 100
REMARK H PARENT 82 50 48 61
REMARK Flexibility Score: inf
ROOT
ATOM      1  C   UNL A   1      34.010  32.784  28.147  1.00  0.00     0.188 C 
ENDROOT
BRANCH   1   2
ATOM      2  C   UNL A   1      34.030  31.338  27.639  1.00  0.00     0.188 C 
BRANCH   2   3
ATOM      3  O   UNL A   1      32.818  30.733  27.200  1.00  0.00    -0.376 OA
BRANCH   3   4
ATOM      4  C   UNL A   1      32.863  29.678  26.256  1.00  0.00     0.202 C 
BRANCH   4   5
ATOM      5  C   UNL A   1      33.184  28.281  26.804  1.00  0.00     0.261 C 
BRANCH   5   6
ATOM      6  O   UNL A   1      34.002  27.433  25.973  1.00  0.00    -0.462 OA
BRANCH   6   7
ATOM      7  C   UNL A   1      33.502  26.190  25.731  1.00  0.00     0.328 C 
ATOM      8  O   UNL A   1      32.477  25.748  26.239  1.00  0.00    -0.250 OA
BRANCH   7   9
ATOM      9  C   UNL A   1      34.290  25.393  24.677  1.00  0.00     0.196 C 
ATOM     10  N   UNL A   1      33.583  24.911  23.469  1.00  0.00    -0.322 N 
ATOM     11  C   UNL A   1      33.772  23.477  23.263  1.00  0.00     0.089 C 
ATOM     12  C   UNL A   1      34.903  24.122  25.282  1.00  0.00     0.043 C 
ATOM     13  C   UNL A   1      35.036  23.185  24.079  1.00  0.00     0.014 C 
ATOM     14  C   UNL A   1      32.538  22.656  23.648  1.00  0.00     0.025 C 
ATOM     15  C   UNL A   1      35.258  21.719  24.426  1.00  0.00     0.006 C 
ATOM     16  C   UNL A   1      32.855  21.183  23.889  1.00  0.00     0.002 C 
ATOM     17  C   UNL A   1      33.993  21.004  24.883  1.00  0.00     0.000 C 
BRANCH  10  18
ATOM     18  C   UNL A   1      33.113  25.685  22.414  1.00  0.00     0.255 C 
ATOM     19  O   UNL A   1      33.609  25.618  21.290  1.00  0.00    -0.269 OA
BRANCH  18  20
ATOM     20  C   UNL A   1      32.064  26.661  22.722  1.00  0.00     0.053 A 
ATOM     21  C   UNL A   1      28.431  27.419  23.497  1.00  0.00     0.056 C 
ATOM     22  C   UNL A   1      29.901  27.416  23.253  1.00  0.00     0.003 A 
ATOM     23  C   UNL A   1      30.729  26.325  23.138  1.00  0.00     0.029 A 
ATOM     24  S   UNL A   1      30.780  28.867  23.110  1.00  0.00    -0.145 S 
ATOM     25  C   UNL A   1      32.250  28.034  22.794  1.00  0.00     0.014 A 
ATOM     26  C   UNL A   1      33.505  28.828  22.638  1.00  0.00     0.057 C 
ENDBRANCH  18  20
ENDBRANCH  10  18
ENDBRANCH   7   9
ENDBRANCH   6   7
ENDBRANCH   5   6
ENDBRANCH   4   5
ENDBRANCH   3   4
ENDBRANCH   2   3
ENDBRANCH   1   2
BRANCH   1  27
ATOM     27  O   UNL A   1      35.114  33.075  28.993  1.00  0.00    -0.376 OA
BRANCH  27  28
ATOM     28  C   UNL A   1      34.803  33.153  30.375  1.00  0.00     0.202 C 
BRANCH  28  29
ATOM     29  C   UNL A   1      35.451  32.007  31.155  1.00  0.00     0.261 C 
BRANCH  29  30
ATOM     30  O   UNL A   1      36.194  31.067  30.356  1.00  0.00    -0.460 OA
BRANCH  30  31
ATOM     31  C   UNL A   1      36.895  30.118  31.008  1.00  0.00     0.338 C 
ATOM     32  O   UNL A   1      36.452  29.323  31.833  1.00  0.00    -0.246 OA
BRANCH  31  33
ATOM     33  C   UNL A   1      38.261  30.063  30.446  1.00  0.00     0.060 A 
ATOM     34  C   UNL A   1      38.434  30.142  29.059  1.00  0.00     0.016 A 
ATOM     35  C   UNL A   1      39.373  29.912  31.280  1.00  0.00     0.016 A 
ATOM     36  C   UNL A   1      39.710  30.037  28.498  1.00  0.00     0.010 A 
ATOM     37  C   UNL A   1      40.649  29.795  30.717  1.00  0.00     0.010 A 
ATOM     38  C   UNL A   1      40.822  29.826  29.322  1.00  0.00    -0.014 A 
BRANCH  38  39
ATOM     39  C   UNL A   1      42.140  29.472  28.733  1.00  0.00     0.031 A 
ATOM     40  C   UNL A   1      42.369  28.057  28.276  1.00  0.00     0.074 A 
ATOM     41  C   UNL A   1      43.125  30.383  28.614  1.00  0.00     0.049 A 
ATOM     42  N   UNL A   1      43.461  27.493  27.830  1.00  0.00    -0.248 NA
ATOM     43  C   UNL A   1      41.207  27.156  28.334  1.00  0.00     0.031 C 
ATOM     44  C   UNL A   1      43.022  31.793  28.979  1.00  0.00     0.029 A 
ATOM     45  N   UNL A   1      44.416  30.243  28.167  1.00  0.00    -0.354 N 
ATOM     46  C   UNL A   1      43.125  26.169  27.573  1.00  0.00     0.074 A 
ATOM     47  C   UNL A   1      41.732  26.010  27.929  1.00  0.00     0.031 C 
ATOM     48  C   UNL A   1      44.210  32.386  28.764  1.00  0.00     0.029 A 
ATOM     49  C   UNL A   1      45.167  31.390  28.284  1.00  0.00     0.049 A 
ATOM     50  H   UNL A   1      44.771  29.402  27.798  1.00  0.00     0.167 HD
ATOM     51  C   UNL A   1      43.906  25.175  27.084  1.00  0.00     0.037 A 
ATOM     52  C   UNL A   1      46.481  31.602  28.062  1.00  0.00     0.037 A 
ATOM     53  C   UNL A   1      45.293  25.335  26.729  1.00  0.00     0.049 A 
ATOM     54  C   UNL A   1      47.348  30.466  27.579  1.00  0.00     0.074 A 
ATOM     55  C   UNL A   1      46.159  24.393  26.203  1.00  0.00     0.029 A 
ATOM     56  N   UNL A   1      46.019  26.507  26.875  1.00  0.00    -0.354 N 
ATOM     57  N   UNL A   1      47.014  29.224  27.318  1.00  0.00    -0.248 NA
ATOM     58  C   UNL A   1      48.772  30.761  27.359  1.00  0.00     0.031 C 
ATOM     59  C   UNL A   1      47.422  24.981  26.079  1.00  0.00     0.029 A 
ATOM     60  C   UNL A   1      47.330  26.305  26.474  1.00  0.00     0.049 A 
ATOM     61  H   UNL A   1      45.656  27.358  27.213  1.00  0.00     0.167 HD
ATOM     62  C   UNL A   1      48.178  28.598  26.880  1.00  0.00     0.074 A 
ATOM     63  C   UNL A   1      49.224  29.600  26.901  1.00  0.00     0.031 C 
ATOM     64  C   UNL A   1      48.363  27.311  26.492  1.00  0.00     0.037 A 
BRANCH  51  65
ATOM     65  C   UNL A   1      43.285  23.813  26.939  1.00  0.00     0.058 A 
ATOM     66  C   UNL A   1      43.168  22.931  28.024  1.00  0.00     0.135 A 
ATOM     67  C   UNL A   1      42.779  23.396  25.698  1.00  0.00     0.135 A 
ATOM     68  F   UNL A   1      43.652  23.273  29.229  1.00  0.00    -0.206 F 
ATOM     69  C   UNL A   1      42.599  21.670  27.877  1.00  0.00     0.059 A 
ATOM     70  C   UNL A   1      42.181  22.151  25.533  1.00  0.00     0.059 A 
ATOM     71  F   UNL A   1      42.867  24.199  24.625  1.00  0.00    -0.206 F 
ATOM     72  C   UNL A   1      42.110  21.288  26.626  1.00  0.00     0.060 A 
BRANCH  72  73
ATOM     73  S   UNL A   1      41.380  19.647  26.449  1.00  0.00     0.124 S 
ATOM     74  O   UNL A   1      42.180  19.090  25.363  1.00  0.00    -0.237 OA
ATOM     75  O   UNL A   1      41.606  19.061  27.767  1.00  0.00    -0.237 OA
ATOM     76  O   UNL A   1      39.986  19.927  26.122  1.00  0.00    -0.744 OA
ENDBRANCH  72  73
ENDBRANCH  51  65
BRANCH  52  77
ATOM     77  C   UNL A   1      47.068  32.945  28.320  1.00  0.00     0.058 A 
ATOM     78  C   UNL A   1      47.584  33.283  29.580  1.00  0.00     0.135 A 
ATOM     79  C   UNL A   1      47.122  33.919  27.310  1.00  0.00     0.135 A 
ATOM     80  F   UNL A   1      47.539  32.394  30.583  1.00  0.00    -0.206 F 
ATOM     81  C   UNL A   1      48.126  34.540  29.833  1.00  0.00     0.059 A 
ATOM     82  C   UNL A   1      47.683  35.173  27.531  1.00  0.00     0.059 A 
ATOM     83  F   UNL A   1      46.645  33.645  26.086  1.00  0.00    -0.206 F 
ATOM     84  C   UNL A   1      48.175  35.477  28.799  1.00  0.00     0.060 A 
BRANCH  84  85
ATOM     85  S   UNL A   1      48.932  37.084  29.124  1.00  0.00     0.124 S 
ATOM     86  O   UNL A   1      49.311  36.952  30.526  1.00  0.00    -0.237 OA
ATOM     87  O   UNL A   1      50.031  37.104  28.165  1.00  0.00    -0.237 OA
ATOM     88  O   UNL A   1      47.852  38.027  28.848  1.00  0.00    -0.744 OA
ENDBRANCH  84  85
ENDBRANCH  52  77
BRANCH  64  89
ATOM     89  C   UNL A   1      49.735  26.911  26.017  1.00  0.00     0.058 A 
ATOM     90  C   UNL A   1      50.176  27.180  24.712  1.00  0.00     0.135 A 
ATOM     91  C   UNL A   1      50.643  26.307  26.902  1.00  0.00     0.135 A 
ATOM     92  F   UNL A   1      49.348  27.751  23.824  1.00  0.00    -0.206 F 
ATOM     93  C   UNL A   1      51.461  26.845  24.294  1.00  0.00     0.059 A 
ATOM     94  C   UNL A   1      51.942  25.988  26.515  1.00  0.00     0.059 A 
ATOM     95  F   UNL A   1      50.279  26.038  28.166  1.00  0.00    -0.206 F 
ATOM     96  C   UNL A   1      52.338  26.251  25.205  1.00  0.00     0.060 A 
BRANCH  96  97
ATOM     97  S   UNL A   1      54.015  25.855  24.663  1.00  0.00     0.124 S 
ATOM     98  O   UNL A   1      54.131  24.457  25.062  1.00  0.00    -0.237 OA
ATOM     99  O   UNL A   1      53.945  26.100  23.225  1.00  0.00    -0.237 OA
ATOM    100  O   UNL A   1      54.845  26.794  25.412  1.00  0.00    -0.744 OA
ENDBRANCH  96  97
ENDBRANCH  64  89
ENDBRANCH  38  39
ENDBRANCH  31  33
ENDBRANCH  30  31
ENDBRANCH  29  30
ENDBRANCH  28  29
ENDBRANCH  27  28
ENDBRANCH   1  27
TORSDOF 22
ENDMDL
MODEL 2
REMARK VINA RESULT:     -10.2      0.925      8.004
REMARK SMILES Cc1cc(C(=O)N2[C@@H](C(=O)OCCOCCOCCOC(=O)c3ccc(-c4c5nc(c(-c6c(F)cc(S(=O)(=O)[O-])cc6F)c6ccc([nH]6)c(-c6c(F)cc(S(=O)(=O)[O-])cc6F)c6nc(c(-c7c(F)cc(S(=O)(=O)[O-])cc7F)c7ccc4[nH]7)C=C6)C=C5)cc3)C[C@H]3CCCC[C@H]32)c(C)s1
REMARK SMILES IDX 16 1 15 2 14 3 13 4 12 5 11 6 9 7 10 8 8 9 7 10 95 11 89 12
REMARK SMILES IDX 90 13 94 14 91 15 93 16 92 17 5 18 6 19 4 20 1 21 2 22 3 23
REMARK SMILES IDX 98 24 96 25 97 26 17 27 18 28 19 29 20 30 21 31 22 32 23 33
REMARK SMILES IDX 24 34 88 35 25 36 87 37 26 38 27 39 28 40 81 41 29 42 86 43
REMARK SMILES IDX 80 44 82 45 30 46 85 47 79 48 78 49 31 51 65 52 44 53 64 54
REMARK SMILES IDX 45 55 48 56 63 57 83 58 46 59 47 60 62 62 84 63 49 64 32 65
REMARK SMILES IDX 33 66 42 67 34 68 35 69 41 70 43 71 36 72 37 73 38 74 39 75
REMARK SMILES IDX 40 76 66 77 67 78 76 79 68 80 69 81 75 82 77 83 70 84 71 85
REMARK SMILES IDX 72 86 73 87 74 88 50 89 51 90 60 91 52 92 53 93 59 94 61 95
REMARK SMILES IDX 54 96 55 97 56 98 57 99 58 100
REMARK H PARENT 82 50 48 61
REMARK Flexibility Score: inf
ROOT
ATOM      1  C   UNL A   1      33.413  32.391  28.041  1.00  0.00     0.188 C 
ENDROOT
BRANCH   1   2
ATOM      2  C   UNL A   1      33.317  31.064  27.280  1.00  0.00     0.188 C 
BRANCH   2   3
ATOM      3  O   UNL A   1      32.312  30.899  26.285  1.00  0.00    -0.376 OA
BRANCH   3   4
ATOM      4  C   UNL A   1      31.763  29.614  26.050  1.00  0.00     0.202 C 
BRANCH   4   5
ATOM      5  C   UNL A   1      31.722  28.657  27.249  1.00  0.00     0.261 C 
BRANCH   5   6
ATOM      6  O   UNL A   1      32.581  27.501  27.184  1.00  0.00    -0.462 OA
BRANCH   6   7
ATOM      7  C   UNL A   1      32.051  26.409  26.567  1.00  0.00     0.328 C 
ATOM      8  O   UNL A   1      31.031  25.837  26.935  1.00  0.00    -0.250 OA
BRANCH   7   9
ATOM      9  C   UNL A   1      32.797  25.990  25.288  1.00  0.00     0.196 C 
ATOM     10  N   UNL A   1      32.213  24.931  24.435  1.00  0.00    -0.322 N 
ATOM     11  C   UNL A   1      33.170  23.860  24.164  1.00  0.00     0.089 C 
ATOM     12  C   UNL A   1      34.207  25.475  25.609  1.00  0.00     0.043 C 
ATOM     13  C   UNL A   1      34.517  24.536  24.439  1.00  0.00     0.014 C 
ATOM     14  C   UNL A   1      32.891  22.596  24.982  1.00  0.00     0.025 C 
ATOM     15  C   UNL A   1      35.684  23.585  24.668  1.00  0.00     0.006 C 
ATOM     16  C   UNL A   1      34.099  21.670  25.077  1.00  0.00     0.002 C 
ATOM     17  C   UNL A   1      35.339  22.404  25.566  1.00  0.00     0.000 C 
BRANCH  10  18
ATOM     18  C   UNL A   1      31.077  25.032  23.640  1.00  0.00     0.255 C 
ATOM     19  O   UNL A   1      30.496  24.038  23.210  1.00  0.00    -0.269 OA
BRANCH  18  20
ATOM     20  C   UNL A   1      30.658  26.382  23.251  1.00  0.00     0.053 A 
ATOM     21  C   UNL A   1      27.984  29.067  23.137  1.00  0.00     0.056 C 
ATOM     22  C   UNL A   1      29.214  28.231  23.070  1.00  0.00     0.003 A 
ATOM     23  C   UNL A   1      29.430  27.009  23.662  1.00  0.00     0.029 A 
ATOM     24  S   UNL A   1      30.593  28.746  22.216  1.00  0.00    -0.145 S 
ATOM     25  C   UNL A   1      31.442  27.290  22.555  1.00  0.00     0.014 A 
ATOM     26  C   UNL A   1      32.856  27.159  22.093  1.00  0.00     0.057 C 
ENDBRANCH  18  20
ENDBRANCH  10  18
ENDBRANCH   7   9
ENDBRANCH   6   7
ENDBRANCH   5   6
ENDBRANCH   4   5
ENDBRANCH   3   4
ENDBRANCH   2   3
ENDBRANCH   1   2
BRANCH   1  27
ATOM     27  O   UNL A   1      34.722  32.634  28.540  1.00  0.00    -0.376 OA
BRANCH  27  28
ATOM     28  C   UNL A   1      34.770  33.318  29.782  1.00  0.00     0.202 C 
BRANCH  28  29
ATOM     29  C   UNL A   1      35.394  32.445  30.873  1.00  0.00     0.261 C 
BRANCH  29  30
ATOM     30  O   UNL A   1      36.042  31.249  30.401  1.00  0.00    -0.460 OA
BRANCH  30  31
ATOM     31  C   UNL A   1      36.729  30.520  31.304  1.00  0.00     0.338 C 
ATOM     32  O   UNL A   1      36.267  29.973  32.302  1.00  0.00    -0.246 OA
BRANCH  31  33
ATOM     33  C   UNL A   1      38.111  30.331  30.813  1.00  0.00     0.060 A 
ATOM     34  C   UNL A   1      38.351  30.322  29.433  1.00  0.00     0.016 A 
ATOM     35  C   UNL A   1      39.168  30.141  31.707  1.00  0.00     0.016 A 
ATOM     36  C   UNL A   1      39.639  30.090  28.942  1.00  0.00     0.010 A 
ATOM     37  C   UNL A   1      40.455  29.897  31.214  1.00  0.00     0.010 A 
ATOM     38  C   UNL A   1      40.693  29.839  29.829  1.00  0.00    -0.014 A 
BRANCH  38  39
ATOM     39  C   UNL A   1      42.004  29.355  29.324  1.00  0.00     0.031 A 
ATOM     40  C   UNL A   1      43.136  30.339  29.199  1.00  0.00     0.074 A 
ATOM     41  C   UNL A   1      42.191  28.070  28.970  1.00  0.00     0.049 A 
ATOM     42  N   UNL A   1      44.330  30.175  28.692  1.00  0.00    -0.248 NA
ATOM     43  C   UNL A   1      42.883  31.695  29.715  1.00  0.00     0.031 C 
ATOM     44  C   UNL A   1      41.195  27.008  29.079  1.00  0.00     0.029 A 
ATOM     45  N   UNL A   1      43.289  27.448  28.426  1.00  0.00    -0.354 N 
ATOM     46  C   UNL A   1      44.964  31.406  28.808  1.00  0.00     0.074 A 
ATOM     47  C   UNL A   1      44.016  32.313  29.419  1.00  0.00     0.031 C 
ATOM     48  C   UNL A   1      41.718  25.869  28.593  1.00  0.00     0.029 A 
ATOM     49  C   UNL A   1      43.071  26.129  28.104  1.00  0.00     0.049 A 
ATOM     50  H   UNL A   1      44.150  27.904  28.281  1.00  0.00     0.167 HD
ATOM     51  C   UNL A   1      46.221  31.751  28.440  1.00  0.00     0.037 A 
ATOM     52  C   UNL A   1      43.859  25.244  27.457  1.00  0.00     0.037 A 
ATOM     53  C   UNL A   1      47.163  30.848  27.832  1.00  0.00     0.049 A 
ATOM     54  C   UNL A   1      45.233  25.667  26.998  1.00  0.00     0.074 A 
ATOM     55  C   UNL A   1      48.469  31.099  27.446  1.00  0.00     0.029 A 
ATOM     56  N   UNL A   1      46.900  29.526  27.509  1.00  0.00    -0.354 N 
ATOM     57  N   UNL A   1      45.830  26.828  27.133  1.00  0.00    -0.248 NA
ATOM     58  C   UNL A   1      46.041  24.657  26.297  1.00  0.00     0.031 C 
ATOM     59  C   UNL A   1      48.978  29.944  26.844  1.00  0.00     0.029 A 
ATOM     60  C   UNL A   1      48.009  28.955  26.906  1.00  0.00     0.049 A 
ATOM     61  H   UNL A   1      46.050  29.060  27.685  1.00  0.00     0.167 HD
ATOM     62  C   UNL A   1      47.089  26.680  26.560  1.00  0.00     0.074 A 
ATOM     63  C   UNL A   1      47.173  25.315  26.084  1.00  0.00     0.031 C 
ATOM     64  C   UNL A   1      48.087  27.592  26.441  1.00  0.00     0.037 A 
BRANCH  51  65
ATOM     65  C   UNL A   1      46.638  33.181  28.651  1.00  0.00     0.058 A 
ATOM     66  C   UNL A   1      46.414  34.172  27.682  1.00  0.00     0.135 A 
ATOM     67  C   UNL A   1      47.250  33.568  29.854  1.00  0.00     0.135 A 
ATOM     68  F   UNL A   1      45.849  33.852  26.507  1.00  0.00    -0.206 F 
ATOM     69  C   UNL A   1      46.811  35.489  27.885  1.00  0.00     0.059 A 
ATOM     70  C   UNL A   1      47.630  34.885  30.090  1.00  0.00     0.059 A 
ATOM     71  F   UNL A   1      47.491  32.660  30.814  1.00  0.00    -0.206 F 
ATOM     72  C   UNL A   1      47.420  35.835  29.092  1.00  0.00     0.060 A 
BRANCH  72  73
ATOM     73  S   UNL A   1      47.935  37.548  29.339  1.00  0.00     0.124 S 
ATOM     74  O   UNL A   1      46.896  38.271  28.612  1.00  0.00    -0.237 OA
ATOM     75  O   UNL A   1      47.898  37.678  30.793  1.00  0.00    -0.237 OA
ATOM     76  O   UNL A   1      49.265  37.594  28.742  1.00  0.00    -0.744 OA
ENDBRANCH  72  73
ENDBRANCH  51  65
BRANCH  52  77
ATOM     77  C   UNL A   1      43.359  23.870  27.181  1.00  0.00     0.058 A 
ATOM     78  C   UNL A   1      43.448  22.856  28.146  1.00  0.00     0.135 A 
ATOM     79  C   UNL A   1      42.784  23.543  25.943  1.00  0.00     0.135 A 
ATOM     80  F   UNL A   1      44.006  23.114  29.338  1.00  0.00    -0.206 F 
ATOM     81  C   UNL A   1      42.993  21.566  27.893  1.00  0.00     0.059 A 
ATOM     82  C   UNL A   1      42.297  22.267  25.675  1.00  0.00     0.059 A 
ATOM     83  F   UNL A   1      42.672  24.477  24.986  1.00  0.00    -0.206 F 
ATOM     84  C   UNL A   1      42.413  21.282  26.655  1.00  0.00     0.060 A 
BRANCH  84  85
ATOM     85  S   UNL A   1      41.774  19.619  26.359  1.00  0.00     0.124 S 
ATOM     86  O   UNL A   1      42.122  18.945  27.604  1.00  0.00    -0.237 OA
ATOM     87  O   UNL A   1      40.353  19.871  26.145  1.00  0.00    -0.237 OA
ATOM     88  O   UNL A   1      42.511  19.181  25.177  1.00  0.00    -0.744 OA
ENDBRANCH  84  85
ENDBRANCH  52  77
BRANCH  64  89
ATOM     89  C   UNL A   1      49.377  27.143  25.808  1.00  0.00     0.058 A 
ATOM     90  C   UNL A   1      49.605  27.255  24.427  1.00  0.00     0.135 A 
ATOM     91  C   UNL A   1      50.425  26.654  26.604  1.00  0.00     0.135 A 
ATOM     92  F   UNL A   1      48.636  27.712  23.618  1.00  0.00    -0.206 F 
ATOM     93  C   UNL A   1      50.817  26.878  23.856  1.00  0.00     0.059 A 
ATOM     94  C   UNL A   1      51.655  26.296  26.060  1.00  0.00     0.059 A 
ATOM     95  F   UNL A   1      50.267  26.537  27.933  1.00  0.00    -0.206 F 
ATOM     96  C   UNL A   1      51.838  26.401  24.682  1.00  0.00     0.060 A 
BRANCH  96  97
ATOM     97  S   UNL A   1      53.419  25.951  23.934  1.00  0.00     0.124 S 
ATOM     98  O   UNL A   1      53.703  24.679  24.591  1.00  0.00    -0.237 OA
ATOM     99  O   UNL A   1      53.083  25.870  22.515  1.00  0.00    -0.237 OA
ATOM    100  O   UNL A   1      54.297  27.058  24.301  1.00  0.00    -0.744 OA
ENDBRANCH  96  97
ENDBRANCH  64  89
ENDBRANCH  38  39
ENDBRANCH  31  33
ENDBRANCH  30  31
ENDBRANCH  29  30
ENDBRANCH  28  29
ENDBRANCH  27  28
ENDBRANCH   1  27
TORSDOF 22
ENDMDL
MODEL 3
REMARK VINA RESULT:      -9.8      1.261      3.078
REMARK SMILES Cc1cc(C(=O)N2[C@@H](C(=O)OCCOCCOCCOC(=O)c3ccc(-c4c5nc(c(-c6c(F)cc(S(=O)(=O)[O-])cc6F)c6ccc([nH]6)c(-c6c(F)cc(S(=O)(=O)[O-])cc6F)c6nc(c(-c7c(F)cc(S(=O)(=O)[O-])cc7F)c7ccc4[nH]7)C=C6)C=C5)cc3)C[C@H]3CCCC[C@H]32)c(C)s1
REMARK SMILES IDX 16 1 15 2 14 3 13 4 12 5 11 6 9 7 10 8 8 9 7 10 95 11 89 12
REMARK SMILES IDX 90 13 94 14 91 15 93 16 92 17 5 18 6 19 4 20 1 21 2 22 3 23
REMARK SMILES IDX 98 24 96 25 97 26 17 27 18 28 19 29 20 30 21 31 22 32 23 33
REMARK SMILES IDX 24 34 88 35 25 36 87 37 26 38 27 39 28 40 81 41 29 42 86 43
REMARK SMILES IDX 80 44 82 45 30 46 85 47 79 48 78 49 31 51 65 52 44 53 64 54
REMARK SMILES IDX 45 55 48 56 63 57 83 58 46 59 47 60 62 62 84 63 49 64 32 65
REMARK SMILES IDX 33 66 42 67 34 68 35 69 41 70 43 71 36 72 37 73 38 74 39 75
REMARK SMILES IDX 40 76 66 77 67 78 76 79 68 80 69 81 75 82 77 83 70 84 71 85
REMARK SMILES IDX 72 86 73 87 74 88 50 89 51 90 60 91 52 92 53 93 59 94 61 95
REMARK SMILES IDX 54 96 55 97 56 98 57 99 58 100
REMARK H PARENT 82 50 48 61
REMARK Flexibility Score: inf
ROOT
ATOM      1  C   UNL A   1      33.649  31.553  28.001  1.00  0.00     0.188 C 
ENDROOT
BRANCH   1   2
ATOM      2  C   UNL A   1      32.874  30.462  27.253  1.00  0.00     0.188 C 
BRANCH   2   3
ATOM      3  O   UNL A   1      33.395  29.138  27.210  1.00  0.00    -0.376 OA
BRANCH   3   4
ATOM      4  C   UNL A   1      32.570  28.048  27.579  1.00  0.00     0.202 C 
BRANCH   4   5
ATOM      5  C   UNL A   1      32.141  27.100  26.450  1.00  0.00     0.261 C 
BRANCH   5   6
ATOM      6  O   UNL A   1      32.375  25.693  26.663  1.00  0.00    -0.462 OA
BRANCH   6   7
ATOM      7  C   UNL A   1      31.379  24.863  26.250  1.00  0.00     0.328 C 
ATOM      8  O   UNL A   1      30.723  24.146  26.998  1.00  0.00    -0.250 OA
BRANCH   7   9
ATOM      9  C   UNL A   1      31.069  24.958  24.746  1.00  0.00     0.196 C 
ATOM     10  N   UNL A   1      32.184  24.846  23.778  1.00  0.00    -0.322 N 
ATOM     11  C   UNL A   1      32.205  25.967  22.840  1.00  0.00     0.089 C 
ATOM     12  C   UNL A   1      30.405  26.297  24.396  1.00  0.00     0.043 C 
ATOM     13  C   UNL A   1      30.771  26.502  22.924  1.00  0.00     0.014 C 
ATOM     14  C   UNL A   1      33.305  26.984  23.159  1.00  0.00     0.025 C 
ATOM     15  C   UNL A   1      30.578  27.919  22.403  1.00  0.00     0.006 C 
ATOM     16  C   UNL A   1      33.059  28.346  22.518  1.00  0.00     0.002 C 
ATOM     17  C   UNL A   1      31.672  28.883  22.843  1.00  0.00     0.000 C 
BRANCH  10  18
ATOM     18  C   UNL A   1      32.911  23.701  23.473  1.00  0.00     0.255 C 
ATOM     19  O   UNL A   1      32.653  23.014  22.486  1.00  0.00    -0.269 OA
BRANCH  18  20
ATOM     20  C   UNL A   1      33.936  23.290  24.436  1.00  0.00     0.053 A 
ATOM     21  C   UNL A   1      37.383  23.766  25.942  1.00  0.00     0.056 C 
ATOM     22  C   UNL A   1      35.994  23.375  25.573  1.00  0.00     0.003 A 
ATOM     23  C   UNL A   1      35.139  24.028  24.717  1.00  0.00     0.029 A 
ATOM     24  S   UNL A   1      35.252  21.995  26.240  1.00  0.00    -0.145 S 
ATOM     25  C   UNL A   1      33.825  22.216  25.307  1.00  0.00     0.014 A 
ATOM     26  C   UNL A   1      32.679  21.284  25.518  1.00  0.00     0.057 C 
ENDBRANCH  18  20
ENDBRANCH  10  18
ENDBRANCH   7   9
ENDBRANCH   6   7
ENDBRANCH   5   6
ENDBRANCH   4   5
ENDBRANCH   3   4
ENDBRANCH   2   3
ENDBRANCH   1   2
BRANCH   1  27
ATOM     27  O   UNL A   1      34.909  31.827  27.404  1.00  0.00    -0.376 OA
BRANCH  27  28
ATOM     28  C   UNL A   1      35.892  32.335  28.291  1.00  0.00     0.202 C 
BRANCH  28  29
ATOM     29  C   UNL A   1      35.486  32.122  29.751  1.00  0.00     0.261 C 
BRANCH  29  30
ATOM     30  O   UNL A   1      36.536  31.643  30.614  1.00  0.00    -0.460 OA
BRANCH  30  31
ATOM     31  C   UNL A   1      36.863  30.338  30.524  1.00  0.00     0.338 C 
ATOM     32  O   UNL A   1      36.110  29.384  30.703  1.00  0.00    -0.246 OA
BRANCH  31  33
ATOM     33  C   UNL A   1      38.242  30.227  30.001  1.00  0.00     0.060 A 
ATOM     34  C   UNL A   1      38.437  29.937  28.646  1.00  0.00     0.016 A 
ATOM     35  C   UNL A   1      39.343  30.386  30.847  1.00  0.00     0.016 A 
ATOM     36  C   UNL A   1      39.728  29.772  28.137  1.00  0.00     0.010 A 
ATOM     37  C   UNL A   1      40.635  30.209  30.340  1.00  0.00     0.010 A 
ATOM     38  C   UNL A   1      40.835  29.870  28.990  1.00  0.00    -0.014 A 
BRANCH  38  39
ATOM     39  C   UNL A   1      42.185  29.462  28.523  1.00  0.00     0.031 A 
ATOM     40  C   UNL A   1      42.410  28.026  28.135  1.00  0.00     0.074 A 
ATOM     41  C   UNL A   1      43.202  30.343  28.451  1.00  0.00     0.049 A 
ATOM     42  N   UNL A   1      43.518  27.418  27.798  1.00  0.00    -0.248 NA
ATOM     43  C   UNL A   1      41.222  27.157  28.131  1.00  0.00     0.031 C 
ATOM     44  C   UNL A   1      43.110  31.768  28.757  1.00  0.00     0.029 A 
ATOM     45  N   UNL A   1      44.520  30.153  28.115  1.00  0.00    -0.354 N 
ATOM     46  C   UNL A   1      43.167  26.094  27.561  1.00  0.00     0.074 A 
ATOM     47  C   UNL A   1      41.745  25.983  27.810  1.00  0.00     0.031 C 
ATOM     48  C   UNL A   1      44.328  32.322  28.619  1.00  0.00     0.029 A 
ATOM     49  C   UNL A   1      45.291  31.284  28.252  1.00  0.00     0.049 A 
ATOM     50  H   UNL A   1      44.880  29.290  27.806  1.00  0.00     0.167 HD
ATOM     51  C   UNL A   1      43.955  25.064  27.172  1.00  0.00     0.037 A 
ATOM     52  C   UNL A   1      46.624  31.455  28.131  1.00  0.00     0.037 A 
ATOM     53  C   UNL A   1      45.370  25.175  26.926  1.00  0.00     0.049 A 
ATOM     54  C   UNL A   1      47.495  30.280  27.759  1.00  0.00     0.074 A 
ATOM     55  C   UNL A   1      46.249  24.192  26.504  1.00  0.00     0.029 A 
ATOM     56  N   UNL A   1      46.115  26.333  27.089  1.00  0.00    -0.354 N 
ATOM     57  N   UNL A   1      47.148  29.038  27.516  1.00  0.00    -0.248 NA
ATOM     58  C   UNL A   1      48.940  30.530  27.645  1.00  0.00     0.031 C 
ATOM     59  C   UNL A   1      47.534  24.743  26.463  1.00  0.00     0.029 A 
ATOM     60  C   UNL A   1      47.448  26.083  26.802  1.00  0.00     0.049 A 
ATOM     61  H   UNL A   1      45.751  27.204  27.367  1.00  0.00     0.167 HD
ATOM     62  C   UNL A   1      48.325  28.367  27.195  1.00  0.00     0.074 A 
ATOM     63  C   UNL A   1      49.393  29.343  27.266  1.00  0.00     0.031 C 
ATOM     64  C   UNL A   1      48.504  27.063  26.869  1.00  0.00     0.037 A 
BRANCH  51  65
ATOM     65  C   UNL A   1      43.310  23.713  27.025  1.00  0.00     0.058 A 
ATOM     66  C   UNL A   1      43.121  22.857  28.121  1.00  0.00     0.135 A 
ATOM     67  C   UNL A   1      42.853  23.281  25.770  1.00  0.00     0.135 A 
ATOM     68  F   UNL A   1      43.556  23.213  29.341  1.00  0.00    -0.206 F 
ATOM     69  C   UNL A   1      42.529  21.607  27.972  1.00  0.00     0.059 A 
ATOM     70  C   UNL A   1      42.234  22.047  25.602  1.00  0.00     0.059 A 
ATOM     71  F   UNL A   1      43.011  24.060  24.687  1.00  0.00    -0.206 F 
ATOM     72  C   UNL A   1      42.091  21.210  26.708  1.00  0.00     0.060 A 
BRANCH  72  73
ATOM     73  S   UNL A   1      41.331  19.582  26.529  1.00  0.00     0.124 S 
ATOM     74  O   UNL A   1      40.088  19.917  25.841  1.00  0.00    -0.237 OA
ATOM     75  O   UNL A   1      42.321  18.862  25.733  1.00  0.00    -0.237 OA
ATOM     76  O   UNL A   1      41.183  19.122  27.905  1.00  0.00    -0.744 OA
ENDBRANCH  72  73
ENDBRANCH  51  65
BRANCH  52  77
ATOM     77  C   UNL A   1      47.227  32.791  28.388  1.00  0.00     0.058 A 
ATOM     78  C   UNL A   1      47.338  33.747  27.368  1.00  0.00     0.135 A 
ATOM     79  C   UNL A   1      47.708  33.137  29.661  1.00  0.00     0.135 A 
ATOM     80  F   UNL A   1      46.909  33.459  26.130  1.00  0.00    -0.206 F 
ATOM     81  C   UNL A   1      47.909  34.995  27.597  1.00  0.00     0.059 A 
ATOM     82  C   UNL A   1      48.260  34.387  29.921  1.00  0.00     0.059 A 
ATOM     83  F   UNL A   1      47.624  32.259  30.672  1.00  0.00    -0.206 F 
ATOM     84  C   UNL A   1      48.363  35.308  28.879  1.00  0.00     0.060 A 
BRANCH  84  85
ATOM     85  S   UNL A   1      49.051  36.952  29.177  1.00  0.00     0.124 S 
ATOM     86  O   UNL A   1      48.566  37.233  30.523  1.00  0.00    -0.237 OA
ATOM     87  O   UNL A   1      50.484  36.711  29.052  1.00  0.00    -0.237 OA
ATOM     88  O   UNL A   1      48.462  37.759  28.112  1.00  0.00    -0.744 OA
ENDBRANCH  84  85
ENDBRANCH  52  77
BRANCH  64  89
ATOM     89  C   UNL A   1      49.898  26.610  26.521  1.00  0.00     0.058 A 
ATOM     90  C   UNL A   1      50.803  26.174  27.501  1.00  0.00     0.135 A 
ATOM     91  C   UNL A   1      50.311  26.553  25.180  1.00  0.00     0.135 A 
ATOM     92  F   UNL A   1      50.462  26.211  28.799  1.00  0.00    -0.206 F 
ATOM     93  C   UNL A   1      52.074  25.716  27.167  1.00  0.00     0.059 A 
ATOM     94  C   UNL A   1      51.566  26.074  24.819  1.00  0.00     0.059 A 
ATOM     95  F   UNL A   1      49.481  26.947  24.199  1.00  0.00    -0.206 F 
ATOM     96  C   UNL A   1      52.446  25.668  25.821  1.00  0.00     0.060 A 
BRANCH  96  97
ATOM     97  S   UNL A   1      54.084  25.037  25.396  1.00  0.00     0.124 S 
ATOM     98  O   UNL A   1      54.497  25.969  24.352  1.00  0.00    -0.237 OA
ATOM     99  O   UNL A   1      54.801  25.148  26.664  1.00  0.00    -0.237 OA
ATOM    100  O   UNL A   1      53.819  23.672  24.951  1.00  0.00    -0.744 OA
ENDBRANCH  96  97
ENDBRANCH  64  89
ENDBRANCH  38  39
ENDBRANCH  31  33
ENDBRANCH  30  31
ENDBRANCH  29  30
ENDBRANCH  28  29
ENDBRANCH  27  28
ENDBRANCH   1  27
TORSDOF 22
ENDMDL
