MODEL 1
REMARK VINA RESULT:     -11.0      0.000      0.000
REMARK SMILES O=C(OCCOCCOCCOC(=O)c1ccc2c(=O)[nH]c(N3CC[NH2+]CC3)nc2c1)c1ccc(-c2c3nc(c(-c4c(F)cc(S(=O)(=O)[O-])cc4F)c4ccc([nH]4)c(-c4c(F)cc(S(=O)(=O)[O-])cc4F)c4nc(c(-c5c(F)cc(S(=O)(=O)[O-])cc5F)c5ccc2[nH]5)C=C4)C=C3)cc1
REMARK SMILES IDX 7 1 6 2 5 3 4 4 3 5 2 6 1 7 32 8 33 9 97 10 34 11 96 12
REMARK SMILES IDX 35 13 36 14 37 15 90 16 38 17 95 18 89 19 91 20 39 21 94 22
REMARK SMILES IDX 88 23 87 24 40 26 74 27 53 28 73 29 54 30 57 31 72 32 92 33
REMARK SMILES IDX 55 34 56 35 71 37 93 38 58 39 41 40 42 41 51 42 43 43 44 44
REMARK SMILES IDX 50 45 52 46 45 47 46 48 47 49 48 50 49 51 75 52 76 53 85 54
REMARK SMILES IDX 77 55 78 56 84 57 86 58 79 59 80 60 81 61 82 62 83 63 59 64
REMARK SMILES IDX 60 65 69 66 61 67 62 68 68 69 70 70 63 71 64 72 65 73 66 74
REMARK SMILES IDX 67 75 8 76 9 77 10 78 11 79 12 80 13 81 14 82 15 83 16 84
REMARK SMILES IDX 31 85 17 86 30 87 18 88 29 89 19 90 22 91 20 92 21 93 23 95
REMARK SMILES IDX 24 96 28 97 25 98 27 99 26 100
REMARK H PARENT 91 25 57 36 21 94 26 101 26 102
REMARK Flexibility Score: inf
ROOT
ATOM      1  C   UNL A   1      36.659  22.916  25.335  1.00  0.00     0.188 C 
ENDROOT
BRANCH   1   2
ATOM      2  O   UNL A   1      37.908  22.258  25.558  1.00  0.00    -0.376 OA
BRANCH   2   3
ATOM      3  C   UNL A   1      38.910  23.079  26.169  1.00  0.00     0.202 C 
BRANCH   3   4
ATOM      4  C   UNL A   1      40.067  22.338  26.872  1.00  0.00     0.261 C 
BRANCH   4   5
ATOM      5  O   UNL A   1      41.225  23.153  27.126  1.00  0.00    -0.460 OA
BRANCH   5   6
ATOM      6  C   UNL A   1      41.433  24.457  26.803  1.00  0.00     0.338 C 
ATOM      7  O   UNL A   1      41.893  24.718  25.691  1.00  0.00    -0.246 OA
BRANCH   6   8
ATOM      8  C   UNL A   1      41.155  25.594  27.733  1.00  0.00     0.060 A 
ATOM      9  C   UNL A   1      41.976  26.707  27.884  1.00  0.00     0.016 A 
ATOM     10  C   UNL A   1      39.956  25.565  28.466  1.00  0.00     0.016 A 
ATOM     11  C   UNL A   1      41.705  27.698  28.808  1.00  0.00     0.010 A 
ATOM     12  C   UNL A   1      39.639  26.593  29.363  1.00  0.00     0.010 A 
ATOM     13  C   UNL A   1      40.541  27.643  29.563  1.00  0.00    -0.014 A 
BRANCH  13  14
ATOM     14  C   UNL A   1      40.411  28.618  30.658  1.00  0.00     0.031 A 
ATOM     15  C   UNL A   1      41.390  28.536  31.788  1.00  0.00     0.074 A 
ATOM     16  C   UNL A   1      39.569  29.661  30.532  1.00  0.00     0.049 A 
ATOM     17  N   UNL A   1      41.471  29.268  32.863  1.00  0.00    -0.248 NA
ATOM     18  C   UNL A   1      42.440  27.506  31.678  1.00  0.00     0.031 C 
ATOM     19  C   UNL A   1      38.713  29.909  29.369  1.00  0.00     0.029 A 
ATOM     20  N   UNL A   1      39.323  30.724  31.355  1.00  0.00    -0.354 N 
ATOM     21  C   UNL A   1      42.570  28.784  33.560  1.00  0.00     0.074 A 
ATOM     22  C   UNL A   1      43.109  27.677  32.806  1.00  0.00     0.031 C 
ATOM     23  C   UNL A   1      38.037  31.053  29.557  1.00  0.00     0.029 A 
ATOM     24  C   UNL A   1      38.350  31.571  30.878  1.00  0.00     0.049 A 
ATOM     25  H   UNL A   1      39.794  30.868  32.207  1.00  0.00     0.167 HD
ATOM     26  C   UNL A   1      43.079  29.239  34.727  1.00  0.00     0.037 A 
ATOM     27  C   UNL A   1      37.748  32.620  31.467  1.00  0.00     0.037 A 
ATOM     28  C   UNL A   1      42.507  30.342  35.450  1.00  0.00     0.049 A 
ATOM     29  C   UNL A   1      38.218  33.000  32.841  1.00  0.00     0.074 A 
ATOM     30  C   UNL A   1      42.869  30.849  36.682  1.00  0.00     0.029 A 
ATOM     31  N   UNL A   1      41.442  31.111  34.992  1.00  0.00    -0.354 N 
ATOM     32  N   UNL A   1      39.200  32.480  33.543  1.00  0.00    -0.248 NA
ATOM     33  C   UNL A   1      37.511  34.098  33.506  1.00  0.00     0.031 C 
ATOM     34  C   UNL A   1      41.989  31.892  36.992  1.00  0.00     0.029 A 
ATOM     35  C   UNL A   1      41.120  32.076  35.926  1.00  0.00     0.049 A 
ATOM     36  H   UNL A   1      40.986  30.986  34.129  1.00  0.00     0.167 HD
ATOM     37  C   UNL A   1      39.248  33.209  34.722  1.00  0.00     0.074 A 
ATOM     38  C   UNL A   1      38.204  34.212  34.630  1.00  0.00     0.031 C 
ATOM     39  C   UNL A   1      40.079  33.065  35.785  1.00  0.00     0.037 A 
BRANCH  26  40
ATOM     40  C   UNL A   1      44.254  28.500  35.298  1.00  0.00     0.058 A 
ATOM     41  C   UNL A   1      45.577  28.806  34.935  1.00  0.00     0.135 A 
ATOM     42  C   UNL A   1      44.053  27.443  36.200  1.00  0.00     0.135 A 
ATOM     43  F   UNL A   1      45.827  29.780  34.045  1.00  0.00    -0.206 F 
ATOM     44  C   UNL A   1      46.654  28.074  35.427  1.00  0.00     0.059 A 
ATOM     45  C   UNL A   1      45.116  26.715  36.726  1.00  0.00     0.059 A 
ATOM     46  F   UNL A   1      42.808  27.095  36.565  1.00  0.00    -0.206 F 
ATOM     47  C   UNL A   1      46.413  27.030  36.323  1.00  0.00     0.060 A 
BRANCH  47  48
ATOM     48  S   UNL A   1      47.819  26.088  36.948  1.00  0.00     0.124 S 
ATOM     49  O   UNL A   1      47.829  26.476  38.356  1.00  0.00    -0.237 OA
ATOM     50  O   UNL A   1      47.417  24.712  36.673  1.00  0.00    -0.237 OA
ATOM     51  O   UNL A   1      48.940  26.581  36.155  1.00  0.00    -0.744 OA
ENDBRANCH  47  48
ENDBRANCH  26  40
BRANCH  27  52
ATOM     52  C   UNL A   1      36.603  33.309  30.811  1.00  0.00     0.058 A 
ATOM     53  C   UNL A   1      36.773  34.130  29.688  1.00  0.00     0.135 A 
ATOM     54  C   UNL A   1      35.301  33.175  31.323  1.00  0.00     0.135 A 
ATOM     55  F   UNL A   1      37.996  34.300  29.162  1.00  0.00    -0.206 F 
ATOM     56  C   UNL A   1      35.703  34.811  29.113  1.00  0.00     0.059 A 
ATOM     57  C   UNL A   1      34.209  33.815  30.745  1.00  0.00     0.059 A 
ATOM     58  F   UNL A   1      35.086  32.404  32.400  1.00  0.00    -0.206 F 
ATOM     59  C   UNL A   1      34.424  34.649  29.651  1.00  0.00     0.060 A 
BRANCH  59  60
ATOM     60  S   UNL A   1      33.048  35.537  28.891  1.00  0.00     0.124 S 
ATOM     61  O   UNL A   1      33.734  36.663  28.266  1.00  0.00    -0.237 OA
ATOM     62  O   UNL A   1      32.505  34.535  27.978  1.00  0.00    -0.237 OA
ATOM     63  O   UNL A   1      32.190  35.871  30.024  1.00  0.00    -0.744 OA
ENDBRANCH  59  60
ENDBRANCH  27  52
BRANCH  39  64
ATOM     64  C   UNL A   1      39.919  34.055  36.900  1.00  0.00     0.058 A 
ATOM     65  C   UNL A   1      40.507  35.327  36.848  1.00  0.00     0.135 A 
ATOM     66  C   UNL A   1      39.127  33.734  38.012  1.00  0.00     0.135 A 
ATOM     67  F   UNL A   1      41.283  35.673  35.808  1.00  0.00    -0.206 F 
ATOM     68  C   UNL A   1      40.332  36.242  37.877  1.00  0.00     0.059 A 
ATOM     69  C   UNL A   1      38.910  34.646  39.036  1.00  0.00     0.059 A 
ATOM     70  F   UNL A   1      38.538  32.529  38.100  1.00  0.00    -0.206 F 
ATOM     71  C   UNL A   1      39.528  35.894  38.964  1.00  0.00     0.060 A 
BRANCH  71  72
ATOM     72  S   UNL A   1      39.275  37.107  40.273  1.00  0.00     0.124 S 
ATOM     73  O   UNL A   1      38.615  38.188  39.547  1.00  0.00    -0.237 OA
ATOM     74  O   UNL A   1      38.439  36.374  41.219  1.00  0.00    -0.237 OA
ATOM     75  O   UNL A   1      40.629  37.396  40.735  1.00  0.00    -0.744 OA
ENDBRANCH  71  72
ENDBRANCH  39  64
ENDBRANCH  13  14
ENDBRANCH   6   8
ENDBRANCH   5   6
ENDBRANCH   4   5
ENDBRANCH   3   4
ENDBRANCH   2   3
ENDBRANCH   1   2
BRANCH   1  76
ATOM     76  C   UNL A   1      36.075  22.679  23.943  1.00  0.00     0.188 C 
BRANCH  76  77
ATOM     77  O   UNL A   1      34.665  22.508  23.860  1.00  0.00    -0.376 OA
BRANCH  77  78
ATOM     78  C   UNL A   1      34.053  21.707  24.863  1.00  0.00     0.202 C 
BRANCH  78  79
ATOM     79  C   UNL A   1      32.951  22.331  25.737  1.00  0.00     0.261 C 
BRANCH  79  80
ATOM     80  O   UNL A   1      33.281  23.543  26.446  1.00  0.00    -0.460 OA
BRANCH  80  81
ATOM     81  C   UNL A   1      32.240  24.402  26.593  1.00  0.00     0.338 C 
ATOM     82  O   UNL A   1      31.210  24.201  27.217  1.00  0.00    -0.246 OA
BRANCH  81  83
ATOM     83  C   UNL A   1      32.419  25.631  25.798  1.00  0.00     0.062 A 
ATOM     84  C   UNL A   1      33.600  25.703  25.051  1.00  0.00     0.016 A 
ATOM     85  C   UNL A   1      31.380  26.562  25.598  1.00  0.00     0.045 A 
ATOM     86  C   UNL A   1      33.732  26.676  24.070  1.00  0.00     0.017 A 
ATOM     87  C   UNL A   1      31.506  27.556  24.611  1.00  0.00     0.081 A 
ATOM     88  C   UNL A   1      32.684  27.574  23.851  1.00  0.00     0.066 A 
ATOM     89  N   UNL A   1      30.431  28.444  24.349  1.00  0.00    -0.214 NA
ATOM     90  C   UNL A   1      32.770  28.532  22.745  1.00  0.00     0.260 A 
ATOM     91  C   UNL A   1      30.532  29.255  23.337  1.00  0.00     0.206 A 
ATOM     92  O   UNL A   1      33.722  28.585  21.986  1.00  0.00    -0.269 OA
ATOM     93  N   UNL A   1      31.669  29.323  22.582  1.00  0.00    -0.292 N 
ATOM     94  H   UNL A   1      31.698  29.996  21.864  1.00  0.00     0.173 HD
BRANCH  91  95
ATOM     95  N   UNL A   1      29.543  30.108  22.915  1.00  0.00    -0.331 N 
ATOM     96  C   UNL A   1      28.868  31.047  23.809  1.00  0.00     0.181 C 
ATOM     97  C   UNL A   1      28.991  30.047  21.557  1.00  0.00     0.181 C 
ATOM     98  C   UNL A   1      28.784  32.441  23.127  1.00  0.00     0.282 C 
ATOM     99  C   UNL A   1      28.929  31.456  20.936  1.00  0.00     0.282 C 
ATOM    100  N   UNL A   1      28.184  32.420  21.770  1.00  0.00    -0.343 N 
ATOM    101  H   UNL A   1      28.243  33.350  21.356  1.00  0.00     0.346 HD
ATOM    102  H   UNL A   1      27.204  32.144  21.829  1.00  0.00     0.346 HD
ENDBRANCH  91  95
ENDBRANCH  81  83
ENDBRANCH  80  81
ENDBRANCH  79  80
ENDBRANCH  78  79
ENDBRANCH  77  78
ENDBRANCH  76  77
ENDBRANCH   1  76
TORSDOF 21
ENDMDL
MODEL 2
REMARK VINA RESULT:     -10.8      4.890      6.216
REMARK SMILES O=C(OCCOCCOCCOC(=O)c1ccc2c(=O)[nH]c(N3CC[NH2+]CC3)nc2c1)c1ccc(-c2c3nc(c(-c4c(F)cc(S(=O)(=O)[O-])cc4F)c4ccc([nH]4)c(-c4c(F)cc(S(=O)(=O)[O-])cc4F)c4nc(c(-c5c(F)cc(S(=O)(=O)[O-])cc5F)c5ccc2[nH]5)C=C4)C=C3)cc1
REMARK SMILES IDX 7 1 6 2 5 3 4 4 3 5 2 6 1 7 32 8 33 9 97 10 34 11 96 12
REMARK SMILES IDX 35 13 36 14 37 15 90 16 38 17 95 18 89 19 91 20 39 21 94 22
REMARK SMILES IDX 88 23 87 24 40 26 74 27 53 28 73 29 54 30 57 31 72 32 92 33
REMARK SMILES IDX 55 34 56 35 71 37 93 38 58 39 41 40 42 41 51 42 43 43 44 44
REMARK SMILES IDX 50 45 52 46 45 47 46 48 47 49 48 50 49 51 75 52 76 53 85 54
REMARK SMILES IDX 77 55 78 56 84 57 86 58 79 59 80 60 81 61 82 62 83 63 59 64
REMARK SMILES IDX 60 65 69 66 61 67 62 68 68 69 70 70 63 71 64 72 65 73 66 74
REMARK SMILES IDX 67 75 8 76 9 77 10 78 11 79 12 80 13 81 14 82 15 83 16 84
REMARK SMILES IDX 31 85 17 86 30 87 18 88 29 89 19 90 22 91 20 92 21 93 23 95
REMARK SMILES IDX 24 96 28 97 25 98 27 99 26 100
REMARK H PARENT 91 25 57 36 21 94 26 101 26 102
REMARK Flexibility Score: inf
ROOT
ATOM      1  C   UNL A   1      34.330  21.273  26.062  1.00  0.00     0.188 C 
ENDROOT
BRANCH   1   2
ATOM      2  O   UNL A   1      35.333  20.429  25.494  1.00  0.00    -0.376 OA
BRANCH   2   3
ATOM      3  C   UNL A   1      36.260  21.104  24.636  1.00  0.00     0.202 C 
BRANCH   3   4
ATOM      4  C   UNL A   1      37.747  21.033  25.043  1.00  0.00     0.261 C 
BRANCH   4   5
ATOM      5  O   UNL A   1      38.182  22.112  25.891  1.00  0.00    -0.460 OA
BRANCH   5   6
ATOM      6  C   UNL A   1      39.431  22.372  26.358  1.00  0.00     0.338 C 
ATOM      7  O   UNL A   1      40.272  21.475  26.312  1.00  0.00    -0.246 OA
BRANCH   6   8
ATOM      8  C   UNL A   1      39.835  23.685  26.948  1.00  0.00     0.060 A 
ATOM      9  C   UNL A   1      39.464  24.926  26.439  1.00  0.00     0.016 A 
ATOM     10  C   UNL A   1      40.596  23.668  28.130  1.00  0.00     0.016 A 
ATOM     11  C   UNL A   1      39.921  26.109  26.986  1.00  0.00     0.010 A 
ATOM     12  C   UNL A   1      41.016  24.862  28.729  1.00  0.00     0.010 A 
ATOM     13  C   UNL A   1      40.710  26.087  28.127  1.00  0.00    -0.014 A 
BRANCH  13  14
ATOM     14  C   UNL A   1      41.321  27.361  28.541  1.00  0.00     0.031 A 
ATOM     15  C   UNL A   1      42.794  27.529  28.337  1.00  0.00     0.074 A 
ATOM     16  C   UNL A   1      40.537  28.397  28.894  1.00  0.00     0.049 A 
ATOM     17  N   UNL A   1      43.556  28.545  28.630  1.00  0.00    -0.248 NA
ATOM     18  C   UNL A   1      43.503  26.410  27.690  1.00  0.00     0.031 C 
ATOM     19  C   UNL A   1      39.073  28.364  28.936  1.00  0.00     0.029 A 
ATOM     20  N   UNL A   1      40.847  29.683  29.240  1.00  0.00    -0.354 N 
ATOM     21  C   UNL A   1      44.831  28.186  28.213  1.00  0.00     0.074 A 
ATOM     22  C   UNL A   1      44.751  26.849  27.674  1.00  0.00     0.031 C 
ATOM     23  C   UNL A   1      38.615  29.575  29.287  1.00  0.00     0.029 A 
ATOM     24  C   UNL A   1      39.747  30.440  29.571  1.00  0.00     0.049 A 
ATOM     25  H   UNL A   1      41.767  30.033  29.252  1.00  0.00     0.167 HD
ATOM     26  C   UNL A   1      45.963  28.923  28.275  1.00  0.00     0.037 A 
ATOM     27  C   UNL A   1      39.671  31.678  30.094  1.00  0.00     0.037 A 
ATOM     28  C   UNL A   1      46.000  30.250  28.825  1.00  0.00     0.049 A 
ATOM     29  C   UNL A   1      40.961  32.412  30.311  1.00  0.00     0.074 A 
ATOM     30  C   UNL A   1      47.091  31.073  29.028  1.00  0.00     0.029 A 
ATOM     31  N   UNL A   1      44.880  30.949  29.263  1.00  0.00    -0.354 N 
ATOM     32  N   UNL A   1      42.181  32.033  30.002  1.00  0.00    -0.248 NA
ATOM     33  C   UNL A   1      40.877  33.731  30.945  1.00  0.00     0.031 C 
ATOM     34  C   UNL A   1      46.636  32.248  29.635  1.00  0.00     0.029 A 
ATOM     35  C   UNL A   1      45.255  32.185  29.754  1.00  0.00     0.049 A 
ATOM     36  H   UNL A   1      43.955  30.612  29.228  1.00  0.00     0.167 HD
ATOM     37  C   UNL A   1      43.008  33.082  30.376  1.00  0.00     0.074 A 
ATOM     38  C   UNL A   1      42.147  34.113  30.923  1.00  0.00     0.031 C 
ATOM     39  C   UNL A   1      44.357  33.186  30.276  1.00  0.00     0.037 A 
BRANCH  26  40
ATOM     40  C   UNL A   1      47.230  28.276  27.797  1.00  0.00     0.058 A 
ATOM     41  C   UNL A   1      47.664  28.379  26.465  1.00  0.00     0.135 A 
ATOM     42  C   UNL A   1      48.008  27.510  28.679  1.00  0.00     0.135 A 
ATOM     43  F   UNL A   1      46.939  29.065  25.567  1.00  0.00    -0.206 F 
ATOM     44  C   UNL A   1      48.811  27.726  26.021  1.00  0.00     0.059 A 
ATOM     45  C   UNL A   1      49.172  26.871  28.264  1.00  0.00     0.059 A 
ATOM     46  F   UNL A   1      47.628  27.361  29.959  1.00  0.00    -0.206 F 
ATOM     47  C   UNL A   1      49.558  26.973  26.929  1.00  0.00     0.060 A 
BRANCH  47  48
ATOM     48  S   UNL A   1      51.038  26.128  26.337  1.00  0.00     0.124 S 
ATOM     49  O   UNL A   1      52.083  27.086  26.690  1.00  0.00    -0.237 OA
ATOM     50  O   UNL A   1      51.023  24.894  27.116  1.00  0.00    -0.237 OA
ATOM     51  O   UNL A   1      50.792  25.968  24.908  1.00  0.00    -0.744 OA
ENDBRANCH  47  48
ENDBRANCH  26  40
BRANCH  27  52
ATOM     52  C   UNL A   1      38.362  32.248  30.516  1.00  0.00     0.058 A 
ATOM     53  C   UNL A   1      37.654  33.156  29.718  1.00  0.00     0.135 A 
ATOM     54  C   UNL A   1      37.803  31.905  31.760  1.00  0.00     0.135 A 
ATOM     55  F   UNL A   1      38.145  33.525  28.525  1.00  0.00    -0.206 F 
ATOM     56  C   UNL A   1      36.456  33.723  30.146  1.00  0.00     0.059 A 
ATOM     57  C   UNL A   1      36.590  32.429  32.194  1.00  0.00     0.059 A 
ATOM     58  F   UNL A   1      38.445  31.043  32.562  1.00  0.00    -0.206 F 
ATOM     59  C   UNL A   1      35.933  33.354  31.388  1.00  0.00     0.060 A 
BRANCH  59  60
ATOM     60  S   UNL A   1      34.377  34.097  31.925  1.00  0.00     0.124 S 
ATOM     61  O   UNL A   1      33.669  34.245  30.658  1.00  0.00    -0.237 OA
ATOM     62  O   UNL A   1      33.852  33.081  32.833  1.00  0.00    -0.237 OA
ATOM     63  O   UNL A   1      34.796  35.341  32.564  1.00  0.00    -0.744 OA
ENDBRANCH  59  60
ENDBRANCH  27  52
BRANCH  39  64
ATOM     64  C   UNL A   1      44.964  34.484  30.719  1.00  0.00     0.058 A 
ATOM     65  C   UNL A   1      45.406  34.681  32.035  1.00  0.00     0.135 A 
ATOM     66  C   UNL A   1      45.145  35.523  29.795  1.00  0.00     0.135 A 
ATOM     67  F   UNL A   1      45.243  33.718  32.957  1.00  0.00    -0.206 F 
ATOM     68  C   UNL A   1      45.988  35.880  32.427  1.00  0.00     0.059 A 
ATOM     69  C   UNL A   1      45.756  36.717  30.155  1.00  0.00     0.059 A 
ATOM     70  F   UNL A   1      44.744  35.375  28.521  1.00  0.00    -0.206 F 
ATOM     71  C   UNL A   1      46.163  36.889  31.478  1.00  0.00     0.060 A 
BRANCH  71  72
ATOM     72  S   UNL A   1      46.958  38.424  31.989  1.00  0.00     0.124 S 
ATOM     73  O   UNL A   1      47.235  38.156  33.396  1.00  0.00    -0.237 OA
ATOM     74  O   UNL A   1      48.124  38.477  31.111  1.00  0.00    -0.237 OA
ATOM     75  O   UNL A   1      45.940  39.437  31.731  1.00  0.00    -0.744 OA
ENDBRANCH  71  72
ENDBRANCH  39  64
ENDBRANCH  13  14
ENDBRANCH   6   8
ENDBRANCH   5   6
ENDBRANCH   4   5
ENDBRANCH   3   4
ENDBRANCH   2   3
ENDBRANCH   1   2
BRANCH   1  76
ATOM     76  C   UNL A   1      32.945  21.092  25.444  1.00  0.00     0.188 C 
BRANCH  76  77
ATOM     77  O   UNL A   1      32.893  20.523  24.141  1.00  0.00    -0.376 OA
BRANCH  77  78
ATOM     78  C   UNL A   1      32.204  21.264  23.142  1.00  0.00     0.202 C 
BRANCH  78  79
ATOM     79  C   UNL A   1      32.036  22.782  23.330  1.00  0.00     0.261 C 
BRANCH  79  80
ATOM     80  O   UNL A   1      32.458  23.630  22.242  1.00  0.00    -0.460 OA
BRANCH  80  81
ATOM     81  C   UNL A   1      33.435  24.512  22.572  1.00  0.00     0.338 C 
ATOM     82  O   UNL A   1      34.604  24.251  22.812  1.00  0.00    -0.246 OA
BRANCH  81  83
ATOM     83  C   UNL A   1      32.914  25.882  22.733  1.00  0.00     0.062 A 
ATOM     84  C   UNL A   1      31.767  26.185  21.991  1.00  0.00     0.016 A 
ATOM     85  C   UNL A   1      33.374  26.755  23.740  1.00  0.00     0.045 A 
ATOM     86  C   UNL A   1      31.049  27.337  22.280  1.00  0.00     0.017 A 
ATOM     87  C   UNL A   1      32.658  27.928  24.036  1.00  0.00     0.081 A 
ATOM     88  C   UNL A   1      31.490  28.181  23.303  1.00  0.00     0.066 A 
ATOM     89  N   UNL A   1      33.069  28.768  25.103  1.00  0.00    -0.214 NA
ATOM     90  C   UNL A   1      30.677  29.339  23.688  1.00  0.00     0.260 A 
ATOM     91  C   UNL A   1      32.303  29.765  25.436  1.00  0.00     0.206 A 
ATOM     92  O   UNL A   1      29.614  29.609  23.158  1.00  0.00    -0.269 OA
ATOM     93  N   UNL A   1      31.168  30.063  24.737  1.00  0.00    -0.292 N 
ATOM     94  H   UNL A   1      30.663  30.863  25.010  1.00  0.00     0.173 HD
BRANCH  91  95
ATOM     95  N   UNL A   1      32.531  30.608  26.495  1.00  0.00    -0.331 N 
ATOM     96  C   UNL A   1      33.652  30.442  27.417  1.00  0.00     0.181 C 
ATOM     97  C   UNL A   1      31.584  31.667  26.862  1.00  0.00     0.181 C 
ATOM     98  C   UNL A   1      34.341  31.815  27.648  1.00  0.00     0.282 C 
ATOM     99  C   UNL A   1      32.324  33.001  27.082  1.00  0.00     0.282 C 
ATOM    100  N   UNL A   1      33.416  32.897  28.070  1.00  0.00    -0.343 N 
ATOM    101  H   UNL A   1      33.923  33.781  28.115  1.00  0.00     0.346 HD
ATOM    102  H   UNL A   1      33.033  32.685  28.991  1.00  0.00     0.346 HD
ENDBRANCH  91  95
ENDBRANCH  81  83
ENDBRANCH  80  81
ENDBRANCH  79  80
ENDBRANCH  78  79
ENDBRANCH  77  78
ENDBRANCH  76  77
ENDBRANCH   1  76
TORSDOF 21
ENDMDL
MODEL 3
REMARK VINA RESULT:     -10.7      6.058     10.627
REMARK SMILES O=C(OCCOCCOCCOC(=O)c1ccc2c(=O)[nH]c(N3CC[NH2+]CC3)nc2c1)c1ccc(-c2c3nc(c(-c4c(F)cc(S(=O)(=O)[O-])cc4F)c4ccc([nH]4)c(-c4c(F)cc(S(=O)(=O)[O-])cc4F)c4nc(c(-c5c(F)cc(S(=O)(=O)[O-])cc5F)c5ccc2[nH]5)C=C4)C=C3)cc1
REMARK SMILES IDX 7 1 6 2 5 3 4 4 3 5 2 6 1 7 32 8 33 9 97 10 34 11 96 12
REMARK SMILES IDX 35 13 36 14 37 15 90 16 38 17 95 18 89 19 91 20 39 21 94 22
REMARK SMILES IDX 88 23 87 24 40 26 74 27 53 28 73 29 54 30 57 31 72 32 92 33
REMARK SMILES IDX 55 34 56 35 71 37 93 38 58 39 41 40 42 41 51 42 43 43 44 44
REMARK SMILES IDX 50 45 52 46 45 47 46 48 47 49 48 50 49 51 75 52 76 53 85 54
REMARK SMILES IDX 77 55 78 56 84 57 86 58 79 59 80 60 81 61 82 62 83 63 59 64
REMARK SMILES IDX 60 65 69 66 61 67 62 68 68 69 70 70 63 71 64 72 65 73 66 74
REMARK SMILES IDX 67 75 8 76 9 77 10 78 11 79 12 80 13 81 14 82 15 83 16 84
REMARK SMILES IDX 31 85 17 86 30 87 18 88 29 89 19 90 22 91 20 92 21 93 23 95
REMARK SMILES IDX 24 96 28 97 25 98 27 99 26 100
REMARK H PARENT 91 25 57 36 21 94 26 101 26 102
REMARK Flexibility Score: inf
ROOT
ATOM      1  C   UNL A   1      35.855  20.703  25.245  1.00  0.00     0.188 C 
ENDROOT
BRANCH   1   2
ATOM      2  O   UNL A   1      37.056  20.249  24.618  1.00  0.00    -0.376 OA
BRANCH   2   3
ATOM      3  C   UNL A   1      38.256  20.572  25.331  1.00  0.00     0.202 C 
BRANCH   3   4
ATOM      4  C   UNL A   1      39.261  19.419  25.536  1.00  0.00     0.261 C 
BRANCH   4   5
ATOM      5  O   UNL A   1      40.343  19.728  26.433  1.00  0.00    -0.460 OA
BRANCH   5   6
ATOM      6  C   UNL A   1      41.665  19.870  26.151  1.00  0.00     0.338 C 
ATOM      7  O   UNL A   1      42.268  18.910  25.673  1.00  0.00    -0.246 OA
BRANCH   6   8
ATOM      8  C   UNL A   1      42.435  21.125  26.412  1.00  0.00     0.060 A 
ATOM      9  C   UNL A   1      42.701  21.637  27.678  1.00  0.00     0.016 A 
ATOM     10  C   UNL A   1      42.976  21.806  25.307  1.00  0.00     0.016 A 
ATOM     11  C   UNL A   1      43.362  22.837  27.859  1.00  0.00     0.010 A 
ATOM     12  C   UNL A   1      43.700  22.992  25.480  1.00  0.00     0.010 A 
ATOM     13  C   UNL A   1      43.855  23.530  26.763  1.00  0.00    -0.014 A 
BRANCH  13  14
ATOM     14  C   UNL A   1      44.371  24.887  27.008  1.00  0.00     0.031 A 
ATOM     15  C   UNL A   1      43.401  25.933  27.462  1.00  0.00     0.074 A 
ATOM     16  C   UNL A   1      45.699  25.108  27.018  1.00  0.00     0.049 A 
ATOM     17  N   UNL A   1      43.610  27.191  27.728  1.00  0.00    -0.248 NA
ATOM     18  C   UNL A   1      42.009  25.495  27.671  1.00  0.00     0.031 C 
ATOM     19  C   UNL A   1      46.720  24.088  26.766  1.00  0.00     0.029 A 
ATOM     20  N   UNL A   1      46.422  26.237  27.287  1.00  0.00    -0.354 N 
ATOM     21  C   UNL A   1      42.380  27.697  28.127  1.00  0.00     0.074 A 
ATOM     22  C   UNL A   1      41.421  26.621  28.040  1.00  0.00     0.031 C 
ATOM     23  C   UNL A   1      47.936  24.640  26.894  1.00  0.00     0.029 A 
ATOM     24  C   UNL A   1      47.779  26.061  27.156  1.00  0.00     0.049 A 
ATOM     25  H   UNL A   1      46.010  27.093  27.549  1.00  0.00     0.167 HD
ATOM     26  C   UNL A   1      42.091  28.953  28.535  1.00  0.00     0.037 A 
ATOM     27  C   UNL A   1      48.779  26.962  27.195  1.00  0.00     0.037 A 
ATOM     28  C   UNL A   1      43.077  29.997  28.601  1.00  0.00     0.049 A 
ATOM     29  C   UNL A   1      48.408  28.387  27.483  1.00  0.00     0.074 A 
ATOM     30  C   UNL A   1      42.904  31.331  28.912  1.00  0.00     0.029 A 
ATOM     31  N   UNL A   1      44.432  29.813  28.347  1.00  0.00    -0.354 N 
ATOM     32  N   UNL A   1      47.226  28.884  27.769  1.00  0.00    -0.248 NA
ATOM     33  C   UNL A   1      49.492  29.374  27.454  1.00  0.00     0.031 C 
ATOM     34  C   UNL A   1      44.146  31.964  28.797  1.00  0.00     0.029 A 
ATOM     35  C   UNL A   1      45.105  31.013  28.475  1.00  0.00     0.049 A 
ATOM     36  H   UNL A   1      44.850  28.953  28.111  1.00  0.00     0.167 HD
ATOM     37  C   UNL A   1      47.428  30.239  27.985  1.00  0.00     0.074 A 
ATOM     38  C   UNL A   1      48.848  30.478  27.807  1.00  0.00     0.031 C 
ATOM     39  C   UNL A   1      46.525  31.200  28.302  1.00  0.00     0.037 A 
BRANCH  26  40
ATOM     40  C   UNL A   1      40.659  29.254  28.866  1.00  0.00     0.058 A 
ATOM     41  C   UNL A   1      39.682  29.425  27.871  1.00  0.00     0.135 A 
ATOM     42  C   UNL A   1      40.261  29.408  30.204  1.00  0.00     0.135 A 
ATOM     43  F   UNL A   1      40.014  29.330  26.573  1.00  0.00    -0.206 F 
ATOM     44  C   UNL A   1      38.370  29.762  28.190  1.00  0.00     0.059 A 
ATOM     45  C   UNL A   1      38.949  29.717  30.547  1.00  0.00     0.059 A 
ATOM     46  F   UNL A   1      41.158  29.276  31.194  1.00  0.00    -0.206 F 
ATOM     47  C   UNL A   1      38.013  29.906  29.532  1.00  0.00     0.060 A 
BRANCH  47  48
ATOM     48  S   UNL A   1      36.308  30.347  29.929  1.00  0.00     0.124 S 
ATOM     49  O   UNL A   1      36.420  31.788  30.136  1.00  0.00    -0.237 OA
ATOM     50  O   UNL A   1      35.593  29.934  28.725  1.00  0.00    -0.237 OA
ATOM     51  O   UNL A   1      36.022  29.562  31.125  1.00  0.00    -0.744 OA
ENDBRANCH  47  48
ENDBRANCH  26  40
BRANCH  27  52
ATOM     52  C   UNL A   1      50.177  26.562  26.875  1.00  0.00     0.058 A 
ATOM     53  C   UNL A   1      51.124  26.304  27.875  1.00  0.00     0.135 A 
ATOM     54  C   UNL A   1      50.601  26.458  25.539  1.00  0.00     0.135 A 
ATOM     55  F   UNL A   1      50.776  26.396  29.168  1.00  0.00    -0.206 F 
ATOM     56  C   UNL A   1      52.443  25.982  27.565  1.00  0.00     0.059 A 
ATOM     57  C   UNL A   1      51.903  26.103  25.202  1.00  0.00     0.059 A 
ATOM     58  F   UNL A   1      49.734  26.701  24.545  1.00  0.00    -0.206 F 
ATOM     59  C   UNL A   1      52.823  25.886  26.225  1.00  0.00     0.060 A 
BRANCH  59  60
ATOM     60  S   UNL A   1      54.538  25.465  25.841  1.00  0.00     0.124 S 
ATOM     61  O   UNL A   1      55.052  25.100  27.156  1.00  0.00    -0.237 OA
ATOM     62  O   UNL A   1      54.376  24.366  24.892  1.00  0.00    -0.237 OA
ATOM     63  O   UNL A   1      55.073  26.698  25.273  1.00  0.00    -0.744 OA
ENDBRANCH  59  60
ENDBRANCH  27  52
BRANCH  39  64
ATOM     64  C   UNL A   1      47.065  32.580  28.530  1.00  0.00     0.058 A 
ATOM     65  C   UNL A   1      47.236  33.490  27.477  1.00  0.00     0.135 A 
ATOM     66  C   UNL A   1      47.370  33.005  29.832  1.00  0.00     0.135 A 
ATOM     67  F   UNL A   1      46.967  33.122  26.214  1.00  0.00    -0.206 F 
ATOM     68  C   UNL A   1      47.716  34.773  27.705  1.00  0.00     0.059 A 
ATOM     69  C   UNL A   1      47.818  34.294  30.087  1.00  0.00     0.059 A 
ATOM     70  F   UNL A   1      47.215  32.170  30.872  1.00  0.00    -0.206 F 
ATOM     71  C   UNL A   1      47.998  35.166  29.015  1.00  0.00     0.060 A 
BRANCH  71  72
ATOM     72  S   UNL A   1      48.580  36.849  29.302  1.00  0.00     0.124 S 
ATOM     73  O   UNL A   1      49.307  37.122  28.067  1.00  0.00    -0.237 OA
ATOM     74  O   UNL A   1      47.331  37.583  29.479  1.00  0.00    -0.237 OA
ATOM     75  O   UNL A   1      49.403  36.724  30.501  1.00  0.00    -0.744 OA
ENDBRANCH  71  72
ENDBRANCH  39  64
ENDBRANCH  13  14
ENDBRANCH   6   8
ENDBRANCH   5   6
ENDBRANCH   4   5
ENDBRANCH   3   4
ENDBRANCH   2   3
ENDBRANCH   1   2
BRANCH   1  76
ATOM     76  C   UNL A   1      35.860  22.192  25.587  1.00  0.00     0.188 C 
BRANCH  76  77
ATOM     77  O   UNL A   1      34.674  22.921  25.295  1.00  0.00    -0.376 OA
BRANCH  77  78
ATOM     78  C   UNL A   1      34.133  22.774  23.988  1.00  0.00     0.202 C 
BRANCH  78  79
ATOM     79  C   UNL A   1      32.757  22.103  23.827  1.00  0.00     0.261 C 
BRANCH  79  80
ATOM     80  O   UNL A   1      31.602  22.966  23.815  1.00  0.00    -0.460 OA
BRANCH  80  81
ATOM     81  C   UNL A   1      31.125  23.272  25.048  1.00  0.00     0.338 C 
ATOM     82  O   UNL A   1      30.625  22.499  25.850  1.00  0.00    -0.246 OA
BRANCH  81  83
ATOM     83  C   UNL A   1      31.163  24.723  25.312  1.00  0.00     0.062 A 
ATOM     84  C   UNL A   1      32.212  25.162  26.127  1.00  0.00     0.016 A 
ATOM     85  C   UNL A   1      30.361  25.643  24.607  1.00  0.00     0.045 A 
ATOM     86  C   UNL A   1      32.495  26.519  26.206  1.00  0.00     0.017 A 
ATOM     87  C   UNL A   1      30.635  27.020  24.687  1.00  0.00     0.081 A 
ATOM     88  C   UNL A   1      31.720  27.424  25.478  1.00  0.00     0.066 A 
ATOM     89  N   UNL A   1      29.884  27.945  23.916  1.00  0.00    -0.214 NA
ATOM     90  C   UNL A   1      32.081  28.845  25.470  1.00  0.00     0.260 A 
ATOM     91  C   UNL A   1      30.258  29.191  23.907  1.00  0.00     0.206 A 
ATOM     92  O   UNL A   1      33.043  29.288  26.071  1.00  0.00    -0.269 OA
ATOM     93  N   UNL A   1      31.294  29.634  24.680  1.00  0.00    -0.292 N 
ATOM     94  H   UNL A   1      31.490  30.599  24.666  1.00  0.00     0.173 HD
BRANCH  91  95
ATOM     95  N   UNL A   1      29.681  30.176  23.147  1.00  0.00    -0.331 N 
ATOM     96  C   UNL A   1      29.620  30.124  21.688  1.00  0.00     0.181 C 
ATOM     97  C   UNL A   1      29.196  31.430  23.738  1.00  0.00     0.181 C 
ATOM     98  C   UNL A   1      28.190  30.503  21.215  1.00  0.00     0.282 C 
ATOM     99  C   UNL A   1      27.778  31.754  23.230  1.00  0.00     0.282 C 
ATOM    100  N   UNL A   1      27.690  31.791  21.756  1.00  0.00    -0.343 N 
ATOM    101  H   UNL A   1      26.719  31.927  21.474  1.00  0.00     0.346 HD
ATOM    102  H   UNL A   1      28.253  32.560  21.394  1.00  0.00     0.346 HD
ENDBRANCH  91  95
ENDBRANCH  81  83
ENDBRANCH  80  81
ENDBRANCH  79  80
ENDBRANCH  78  79
ENDBRANCH  77  78
ENDBRANCH  76  77
ENDBRANCH   1  76
TORSDOF 21
ENDMDL
