MODEL 1
REMARK VINA RESULT:      -8.8      0.000      0.000
REMARK SMILES COc1cc(NC[C@@H](CC(C)C)C(=O)OCCOCCOCCOC(=O)c2ccc(-c3c4nc(c(-c5c(F)cc(S(=O)(=O)[O-])cc5F)c5ccc([nH]5)c(-c5c(F)cc(S(=O)(=O)[O-])cc5F)c5nc(c(-c6c(F)cc(S(=O)(=O)[O-])cc6F)c6ccc3[nH]6)C=C5)C=C4)cc2)nc(C)n1
REMARK SMILES IDX 19 1 18 2 17 3 16 4 15 5 13 6 14 7 8 8 7 9 6 10 5 12 3 13
REMARK SMILES IDX 4 14 96 15 94 16 93 17 95 18 2 19 1 20 9 21 10 22 11 23
REMARK SMILES IDX 12 24 20 25 21 26 22 27 23 28 24 29 25 30 26 31 27 32 28 33
REMARK SMILES IDX 92 34 29 35 91 36 30 37 31 38 32 39 85 40 33 41 90 42 84 43
REMARK SMILES IDX 86 44 34 45 89 46 83 47 82 48 35 50 69 51 48 52 68 53 49 54
REMARK SMILES IDX 52 55 67 56 87 57 50 58 51 59 66 61 88 62 53 63 36 64 37 65
REMARK SMILES IDX 46 66 38 67 39 68 45 69 47 70 40 71 41 72 42 73 43 74 44 75
REMARK SMILES IDX 70 76 71 77 80 78 72 79 73 80 79 81 81 82 74 83 75 84 76 85
REMARK SMILES IDX 77 86 78 87 54 88 55 89 64 90 56 91 57 92 63 93 65 94 58 95
REMARK SMILES IDX 59 96 60 97 61 98 62 99
REMARK H PARENT 6 11 86 49 52 60
REMARK Flexibility Score: inf
ROOT
ATOM      1  C   UNL A   1      39.699  23.153  26.507  1.00  0.00     0.188 C 
ENDROOT
BRANCH   1   2
ATOM      2  O   UNL A   1      38.444  22.669  26.051  1.00  0.00    -0.376 OA
BRANCH   2   3
ATOM      3  C   UNL A   1      37.470  23.655  25.722  1.00  0.00     0.202 C 
BRANCH   3   4
ATOM      4  C   UNL A   1      36.020  23.345  26.120  1.00  0.00     0.261 C 
BRANCH   4   5
ATOM      5  O   UNL A   1      35.493  22.075  25.653  1.00  0.00    -0.463 OA
BRANCH   5   6
ATOM      6  C   UNL A   1      34.140  21.947  25.726  1.00  0.00     0.310 C 
ATOM      7  O   UNL A   1      33.571  21.123  26.436  1.00  0.00    -0.252 OA
BRANCH   6   8
ATOM      8  C   UNL A   1      33.347  22.834  24.776  1.00  0.00     0.118 C 
BRANCH   8   9
ATOM      9  C   UNL A   1      33.826  22.948  23.321  1.00  0.00     0.129 C 
BRANCH   9  10
ATOM     10  N   UNL A   1      32.957  23.848  22.562  1.00  0.00    -0.369 N 
ATOM     11  H   UNL A   1      32.587  23.462  21.735  1.00  0.00     0.162 HD
BRANCH  10  12
ATOM     12  C   UNL A   1      32.573  25.141  22.810  1.00  0.00     0.133 A 
ATOM     13  C   UNL A   1      31.255  27.072  22.602  1.00  0.00     0.218 A 
ATOM     14  C   UNL A   1      31.449  25.740  22.295  1.00  0.00     0.115 A 
ATOM     15  N   UNL A   1      32.073  27.784  23.381  1.00  0.00    -0.199 NA
ATOM     16  C   UNL A   1      33.126  27.124  23.868  1.00  0.00     0.131 A 
ATOM     17  N   UNL A   1      33.408  25.827  23.614  1.00  0.00    -0.216 NA
ATOM     18  C   UNL A   1      34.052  27.904  24.748  1.00  0.00     0.090 C 
BRANCH  13  19
ATOM     19  O   UNL A   1      30.274  27.811  21.996  1.00  0.00    -0.481 OA
ATOM     20  C   UNL A   1      29.681  28.738  22.894  1.00  0.00     0.280 C 
ENDBRANCH  13  19
ENDBRANCH  10  12
ENDBRANCH   9  10
ENDBRANCH   8   9
BRANCH   8  21
ATOM     21  C   UNL A   1      31.852  22.497  24.966  1.00  0.00     0.020 C 
BRANCH  21  22
ATOM     22  C   UNL A   1      30.962  23.462  25.783  1.00  0.00    -0.017 C 
ATOM     23  C   UNL A   1      30.082  22.800  26.844  1.00  0.00     0.007 C 
ATOM     24  C   UNL A   1      31.868  24.486  26.477  1.00  0.00     0.007 C 
ENDBRANCH  21  22
ENDBRANCH   8  21
ENDBRANCH   6   8
ENDBRANCH   5   6
ENDBRANCH   4   5
ENDBRANCH   3   4
ENDBRANCH   2   3
ENDBRANCH   1   2
BRANCH   1  25
ATOM     25  C   UNL A   1      40.481  22.204  27.415  1.00  0.00     0.188 C 
BRANCH  25  26
ATOM     26  O   UNL A   1      41.404  21.332  26.773  1.00  0.00    -0.376 OA
BRANCH  26  27
ATOM     27  C   UNL A   1      41.177  19.932  26.967  1.00  0.00     0.202 C 
BRANCH  27  28
ATOM     28  C   UNL A   1      42.144  18.979  26.224  1.00  0.00     0.261 C 
BRANCH  28  29
ATOM     29  O   UNL A   1      42.723  19.505  25.009  1.00  0.00    -0.460 OA
BRANCH  29  30
ATOM     30  C   UNL A   1      44.072  19.572  24.960  1.00  0.00     0.338 C 
ATOM     31  O   UNL A   1      44.810  18.667  24.608  1.00  0.00    -0.246 OA
BRANCH  30  32
ATOM     32  C   UNL A   1      44.492  20.993  25.106  1.00  0.00     0.060 A 
ATOM     33  C   UNL A   1      44.937  21.438  26.361  1.00  0.00     0.016 A 
ATOM     34  C   UNL A   1      44.528  21.864  24.019  1.00  0.00     0.016 A 
ATOM     35  C   UNL A   1      45.381  22.748  26.551  1.00  0.00     0.010 A 
ATOM     36  C   UNL A   1      44.951  23.185  24.210  1.00  0.00     0.010 A 
ATOM     37  C   UNL A   1      45.350  23.642  25.481  1.00  0.00    -0.014 A 
BRANCH  37  38
ATOM     38  C   UNL A   1      45.484  25.100  25.711  1.00  0.00     0.031 A 
ATOM     39  C   UNL A   1      46.860  25.692  25.579  1.00  0.00     0.074 A 
ATOM     40  C   UNL A   1      44.443  25.881  26.051  1.00  0.00     0.049 A 
ATOM     41  N   UNL A   1      47.306  26.857  25.964  1.00  0.00    -0.248 NA
ATOM     42  C   UNL A   1      47.873  24.838  24.936  1.00  0.00     0.031 C 
ATOM     43  C   UNL A   1      43.046  25.460  26.111  1.00  0.00     0.029 A 
ATOM     44  N   UNL A   1      44.416  27.199  26.437  1.00  0.00    -0.354 N 
ATOM     45  C   UNL A   1      48.658  26.862  25.647  1.00  0.00     0.074 A 
ATOM     46  C   UNL A   1      48.960  25.584  25.039  1.00  0.00     0.031 C 
ATOM     47  C   UNL A   1      42.300  26.494  26.544  1.00  0.00     0.029 A 
ATOM     48  C   UNL A   1      43.174  27.627  26.845  1.00  0.00     0.049 A 
ATOM     49  H   UNL A   1      45.209  27.782  26.423  1.00  0.00     0.167 HD
ATOM     50  C   UNL A   1      49.568  27.840  25.854  1.00  0.00     0.037 A 
ATOM     51  C   UNL A   1      42.801  28.781  27.440  1.00  0.00     0.037 A 
ATOM     52  C   UNL A   1      49.255  29.111  26.445  1.00  0.00     0.049 A 
ATOM     53  C   UNL A   1      43.845  29.831  27.740  1.00  0.00     0.074 A 
ATOM     54  C   UNL A   1      50.107  30.166  26.718  1.00  0.00     0.029 A 
ATOM     55  N   UNL A   1      47.988  29.502  26.852  1.00  0.00    -0.354 N 
ATOM     56  N   UNL A   1      45.133  29.812  27.486  1.00  0.00    -0.248 NA
ATOM     57  C   UNL A   1      43.390  31.055  28.418  1.00  0.00     0.031 C 
ATOM     58  C   UNL A   1      49.362  31.181  27.326  1.00  0.00     0.029 A 
ATOM     59  C   UNL A   1      48.036  30.777  27.383  1.00  0.00     0.049 A 
ATOM     60  H   UNL A   1      47.175  28.952  26.774  1.00  0.00     0.167 HD
ATOM     61  C   UNL A   1      45.631  31.033  27.934  1.00  0.00     0.074 A 
ATOM     62  C   UNL A   1      44.509  31.764  28.483  1.00  0.00     0.031 C 
ATOM     63  C   UNL A   1      46.900  31.508  27.889  1.00  0.00     0.037 A 
BRANCH  50  64
ATOM     64  C   UNL A   1      50.993  27.548  25.486  1.00  0.00     0.058 A 
ATOM     65  C   UNL A   1      51.893  26.971  26.394  1.00  0.00     0.135 A 
ATOM     66  C   UNL A   1      51.460  27.842  24.194  1.00  0.00     0.135 A 
ATOM     67  F   UNL A   1      51.502  26.695  27.649  1.00  0.00    -0.206 F 
ATOM     68  C   UNL A   1      53.216  26.721  26.045  1.00  0.00     0.059 A 
ATOM     69  C   UNL A   1      52.771  27.575  23.814  1.00  0.00     0.059 A 
ATOM     70  F   UNL A   1      50.642  28.403  23.290  1.00  0.00    -0.206 F 
ATOM     71  C   UNL A   1      53.646  27.029  24.752  1.00  0.00     0.060 A 
BRANCH  71  72
ATOM     72  S   UNL A   1      55.365  26.702  24.312  1.00  0.00     0.124 S 
ATOM     73  O   UNL A   1      55.301  26.722  22.854  1.00  0.00    -0.237 OA
ATOM     74  O   UNL A   1      56.065  27.824  24.931  1.00  0.00    -0.237 OA
ATOM     75  O   UNL A   1      55.627  25.396  24.909  1.00  0.00    -0.744 OA
ENDBRANCH  71  72
ENDBRANCH  50  64
BRANCH  51  76
ATOM     76  C   UNL A   1      41.382  28.995  27.836  1.00  0.00     0.058 A 
ATOM     77  C   UNL A   1      40.992  28.965  29.183  1.00  0.00     0.135 A 
ATOM     78  C   UNL A   1      40.383  29.216  26.874  1.00  0.00     0.135 A 
ATOM     79  F   UNL A   1      41.905  28.739  30.140  1.00  0.00    -0.206 F 
ATOM     80  C   UNL A   1      39.663  29.131  29.563  1.00  0.00     0.059 A 
ATOM     81  C   UNL A   1      39.052  29.411  27.231  1.00  0.00     0.059 A 
ATOM     82  F   UNL A   1      40.700  29.255  25.570  1.00  0.00    -0.206 F 
ATOM     83  C   UNL A   1      38.700  29.357  28.579  1.00  0.00     0.060 A 
BRANCH  83  84
ATOM     84  S   UNL A   1      36.985  29.611  29.085  1.00  0.00     0.124 S 
ATOM     85  O   UNL A   1      36.951  28.921  30.369  1.00  0.00    -0.237 OA
ATOM     86  O   UNL A   1      36.894  31.067  29.141  1.00  0.00    -0.237 OA
ATOM     87  O   UNL A   1      36.221  28.983  28.011  1.00  0.00    -0.744 OA
ENDBRANCH  83  84
ENDBRANCH  51  76
BRANCH  63  88
ATOM     88  C   UNL A   1      47.153  32.909  28.371  1.00  0.00     0.058 A 
ATOM     89  C   UNL A   1      47.556  33.182  29.686  1.00  0.00     0.135 A 
ATOM     90  C   UNL A   1      47.105  33.980  27.463  1.00  0.00     0.135 A 
ATOM     91  F   UNL A   1      47.617  32.194  30.595  1.00  0.00    -0.206 F 
ATOM     92  C   UNL A   1      47.903  34.469  30.086  1.00  0.00     0.059 A 
ATOM     93  C   UNL A   1      47.468  35.270  27.834  1.00  0.00     0.059 A 
ATOM     94  F   UNL A   1      46.735  33.770  26.190  1.00  0.00    -0.206 F 
ATOM     95  C   UNL A   1      47.865  35.506  29.149  1.00  0.00     0.060 A 
BRANCH  95  96
ATOM     96  S   UNL A   1      48.396  37.155  29.658  1.00  0.00     0.124 S 
ATOM     97  O   UNL A   1      49.823  36.950  29.882  1.00  0.00    -0.237 OA
ATOM     98  O   UNL A   1      48.047  37.969  28.497  1.00  0.00    -0.237 OA
ATOM     99  O   UNL A   1      47.604  37.414  30.856  1.00  0.00    -0.744 OA
ENDBRANCH  95  96
ENDBRANCH  63  88
ENDBRANCH  37  38
ENDBRANCH  30  32
ENDBRANCH  29  30
ENDBRANCH  28  29
ENDBRANCH  27  28
ENDBRANCH  26  27
ENDBRANCH  25  26
ENDBRANCH   1  25
TORSDOF 26
ENDMDL
MODEL 2
REMARK VINA RESULT:      -8.3      6.880     11.362
REMARK SMILES COc1cc(NC[C@@H](CC(C)C)C(=O)OCCOCCOCCOC(=O)c2ccc(-c3c4nc(c(-c5c(F)cc(S(=O)(=O)[O-])cc5F)c5ccc([nH]5)c(-c5c(F)cc(S(=O)(=O)[O-])cc5F)c5nc(c(-c6c(F)cc(S(=O)(=O)[O-])cc6F)c6ccc3[nH]6)C=C5)C=C4)cc2)nc(C)n1
REMARK SMILES IDX 19 1 18 2 17 3 16 4 15 5 13 6 14 7 8 8 7 9 6 10 5 12 3 13
REMARK SMILES IDX 4 14 96 15 94 16 93 17 95 18 2 19 1 20 9 21 10 22 11 23
REMARK SMILES IDX 12 24 20 25 21 26 22 27 23 28 24 29 25 30 26 31 27 32 28 33
REMARK SMILES IDX 92 34 29 35 91 36 30 37 31 38 32 39 85 40 33 41 90 42 84 43
REMARK SMILES IDX 86 44 34 45 89 46 83 47 82 48 35 50 69 51 48 52 68 53 49 54
REMARK SMILES IDX 52 55 67 56 87 57 50 58 51 59 66 61 88 62 53 63 36 64 37 65
REMARK SMILES IDX 46 66 38 67 39 68 45 69 47 70 40 71 41 72 42 73 43 74 44 75
REMARK SMILES IDX 70 76 71 77 80 78 72 79 73 80 79 81 81 82 74 83 75 84 76 85
REMARK SMILES IDX 77 86 78 87 54 88 55 89 64 90 56 91 57 92 63 93 65 94 58 95
REMARK SMILES IDX 59 96 60 97 61 98 62 99
REMARK H PARENT 6 11 86 49 52 60
REMARK Flexibility Score: inf
ROOT
ATOM      1  C   UNL A   1      40.938  21.398  26.269  1.00  0.00     0.188 C 
ENDROOT
BRANCH   1   2
ATOM      2  O   UNL A   1      39.754  20.891  25.673  1.00  0.00    -0.376 OA
BRANCH   2   3
ATOM      3  C   UNL A   1      38.548  21.586  25.977  1.00  0.00     0.202 C 
BRANCH   3   4
ATOM      4  C   UNL A   1      37.502  21.667  24.856  1.00  0.00     0.261 C 
BRANCH   4   5
ATOM      5  O   UNL A   1      36.321  20.840  25.030  1.00  0.00    -0.463 OA
BRANCH   5   6
ATOM      6  C   UNL A   1      35.148  21.418  24.655  1.00  0.00     0.310 C 
ATOM      7  O   UNL A   1      35.077  22.417  23.943  1.00  0.00    -0.252 OA
BRANCH   6   8
ATOM      8  C   UNL A   1      33.893  20.807  25.263  1.00  0.00     0.118 C 
BRANCH   8   9
ATOM      9  C   UNL A   1      33.090  21.651  26.266  1.00  0.00     0.129 C 
BRANCH   9  10
ATOM     10  N   UNL A   1      31.917  22.240  25.618  1.00  0.00    -0.369 N 
ATOM     11  H   UNL A   1      31.127  21.653  25.587  1.00  0.00     0.162 HD
BRANCH  10  12
ATOM     12  C   UNL A   1      31.735  23.473  25.046  1.00  0.00     0.133 A 
ATOM     13  C   UNL A   1      31.562  25.031  23.298  1.00  0.00     0.218 A 
ATOM     14  C   UNL A   1      31.689  23.713  23.694  1.00  0.00     0.115 A 
ATOM     15  N   UNL A   1      31.457  26.057  24.146  1.00  0.00    -0.199 NA
ATOM     16  C   UNL A   1      31.480  25.739  25.442  1.00  0.00     0.131 A 
ATOM     17  N   UNL A   1      31.613  24.485  25.927  1.00  0.00    -0.216 NA
ATOM     18  C   UNL A   1      31.358  26.876  26.408  1.00  0.00     0.090 C 
BRANCH  13  19
ATOM     19  O   UNL A   1      31.690  25.399  21.985  1.00  0.00    -0.481 OA
ATOM     20  C   UNL A   1      32.952  25.996  21.725  1.00  0.00     0.280 C 
ENDBRANCH  13  19
ENDBRANCH  10  12
ENDBRANCH   9  10
ENDBRANCH   8   9
BRANCH   8  21
ATOM     21  C   UNL A   1      33.079  20.176  24.112  1.00  0.00     0.020 C 
BRANCH  21  22
ATOM     22  C   UNL A   1      32.530  18.741  24.280  1.00  0.00    -0.017 C 
ATOM     23  C   UNL A   1      33.102  17.705  23.313  1.00  0.00     0.007 C 
ATOM     24  C   UNL A   1      32.818  18.276  25.713  1.00  0.00     0.007 C 
ENDBRANCH  21  22
ENDBRANCH   8  21
ENDBRANCH   6   8
ENDBRANCH   5   6
ENDBRANCH   4   5
ENDBRANCH   3   4
ENDBRANCH   2   3
ENDBRANCH   1   2
BRANCH   1  25
ATOM     25  C   UNL A   1      40.732  22.301  27.484  1.00  0.00     0.188 C 
BRANCH  25  26
ATOM     26  O   UNL A   1      41.396  23.559  27.458  1.00  0.00    -0.376 OA
BRANCH  26  27
ATOM     27  C   UNL A   1      41.275  24.304  26.242  1.00  0.00     0.202 C 
BRANCH  27  28
ATOM     28  C   UNL A   1      42.597  24.831  25.635  1.00  0.00     0.261 C 
BRANCH  28  29
ATOM     29  O   UNL A   1      43.656  25.090  26.583  1.00  0.00    -0.460 OA
BRANCH  29  30
ATOM     30  C   UNL A   1      44.097  26.365  26.667  1.00  0.00     0.338 C 
ATOM     31  O   UNL A   1      44.747  26.943  25.813  1.00  0.00    -0.246 OA
BRANCH  30  32
ATOM     32  C   UNL A   1      43.419  27.038  27.809  1.00  0.00     0.060 A 
ATOM     33  C   UNL A   1      43.636  28.411  28.007  1.00  0.00     0.016 A 
ATOM     34  C   UNL A   1      42.520  26.362  28.631  1.00  0.00     0.016 A 
ATOM     35  C   UNL A   1      42.998  29.105  29.037  1.00  0.00     0.010 A 
ATOM     36  C   UNL A   1      41.894  27.048  29.678  1.00  0.00     0.010 A 
ATOM     37  C   UNL A   1      42.152  28.414  29.905  1.00  0.00    -0.014 A 
BRANCH  37  38
ATOM     38  C   UNL A   1      41.729  29.022  31.189  1.00  0.00     0.031 A 
ATOM     39  C   UNL A   1      40.533  29.932  31.157  1.00  0.00     0.074 A 
ATOM     40  C   UNL A   1      42.384  28.808  32.345  1.00  0.00     0.049 A 
ATOM     41  N   UNL A   1      40.106  30.778  32.054  1.00  0.00    -0.248 NA
ATOM     42  C   UNL A   1      39.717  29.885  29.931  1.00  0.00     0.031 C 
ATOM     43  C   UNL A   1      43.489  27.874  32.538  1.00  0.00     0.029 A 
ATOM     44  N   UNL A   1      42.220  29.397  33.575  1.00  0.00    -0.354 N 
ATOM     45  C   UNL A   1      38.997  31.394  31.487  1.00  0.00     0.074 A 
ATOM     46  C   UNL A   1      38.818  30.826  30.169  1.00  0.00     0.031 C 
ATOM     47  C   UNL A   1      43.927  27.976  33.807  1.00  0.00     0.029 A 
ATOM     48  C   UNL A   1      43.171  29.022  34.495  1.00  0.00     0.049 A 
ATOM     49  H   UNL A   1      41.491  30.026  33.780  1.00  0.00     0.167 HD
ATOM     50  C   UNL A   1      38.207  32.356  32.016  1.00  0.00     0.037 A 
ATOM     51  C   UNL A   1      43.430  29.507  35.728  1.00  0.00     0.037 A 
ATOM     52  C   UNL A   1      38.385  32.905  33.331  1.00  0.00     0.049 A 
ATOM     53  C   UNL A   1      42.589  30.639  36.272  1.00  0.00     0.074 A 
ATOM     54  C   UNL A   1      37.651  33.897  33.956  1.00  0.00     0.029 A 
ATOM     55  N   UNL A   1      39.365  32.504  34.227  1.00  0.00    -0.354 N 
ATOM     56  N   UNL A   1      41.574  31.255  35.713  1.00  0.00    -0.248 NA
ATOM     57  C   UNL A   1      42.936  31.151  37.607  1.00  0.00     0.031 C 
ATOM     58  C   UNL A   1      38.212  34.124  35.216  1.00  0.00     0.029 A 
ATOM     59  C   UNL A   1      39.262  33.237  35.396  1.00  0.00     0.049 A 
ATOM     60  H   UNL A   1      40.034  31.803  34.056  1.00  0.00     0.167 HD
ATOM     61  C   UNL A   1      41.137  32.195  36.643  1.00  0.00     0.074 A 
ATOM     62  C   UNL A   1      42.002  32.074  37.797  1.00  0.00     0.031 C 
ATOM     63  C   UNL A   1      40.108  33.075  36.552  1.00  0.00     0.037 A 
BRANCH  50  64
ATOM     64  C   UNL A   1      37.116  32.908  31.146  1.00  0.00     0.058 A 
ATOM     65  C   UNL A   1      37.364  33.883  30.168  1.00  0.00     0.135 A 
ATOM     66  C   UNL A   1      35.798  32.442  31.290  1.00  0.00     0.135 A 
ATOM     67  F   UNL A   1      38.602  34.380  30.009  1.00  0.00    -0.206 F 
ATOM     68  C   UNL A   1      36.340  34.398  29.380  1.00  0.00     0.059 A 
ATOM     69  C   UNL A   1      34.764  32.922  30.494  1.00  0.00     0.059 A 
ATOM     70  F   UNL A   1      35.505  31.517  32.216  1.00  0.00    -0.206 F 
ATOM     71  C   UNL A   1      35.042  33.913  29.553  1.00  0.00     0.060 A 
BRANCH  71  72
ATOM     72  S   UNL A   1      33.722  34.591  28.527  1.00  0.00     0.124 S 
ATOM     73  O   UNL A   1      32.746  33.506  28.554  1.00  0.00    -0.237 OA
ATOM     74  O   UNL A   1      33.348  35.798  29.256  1.00  0.00    -0.237 OA
ATOM     75  O   UNL A   1      34.373  34.816  27.240  1.00  0.00    -0.744 OA
ENDBRANCH  71  72
ENDBRANCH  50  64
BRANCH  51  76
ATOM     76  C   UNL A   1      44.563  28.961  36.527  1.00  0.00     0.058 A 
ATOM     77  C   UNL A   1      45.830  29.561  36.493  1.00  0.00     0.135 A 
ATOM     78  C   UNL A   1      44.405  27.816  37.324  1.00  0.00     0.135 A 
ATOM     79  F   UNL A   1      46.037  30.646  35.732  1.00  0.00    -0.206 F 
ATOM     80  C   UNL A   1      46.905  29.039  37.209  1.00  0.00     0.059 A 
ATOM     81  C   UNL A   1      45.458  27.291  38.069  1.00  0.00     0.059 A 
ATOM     82  F   UNL A   1      43.214  27.201  37.393  1.00  0.00    -0.206 F 
ATOM     83  C   UNL A   1      46.707  27.904  37.997  1.00  0.00     0.060 A 
BRANCH  83  84
ATOM     84  S   UNL A   1      48.098  27.259  38.952  1.00  0.00     0.124 S 
ATOM     85  O   UNL A   1      47.435  26.814  40.173  1.00  0.00    -0.237 OA
ATOM     86  O   UNL A   1      48.606  26.204  38.081  1.00  0.00    -0.237 OA
ATOM     87  O   UNL A   1      48.972  28.419  39.097  1.00  0.00    -0.744 OA
ENDBRANCH  83  84
ENDBRANCH  51  76
BRANCH  63  88
ATOM     88  C   UNL A   1      39.795  33.929  37.748  1.00  0.00     0.058 A 
ATOM     89  C   UNL A   1      38.944  33.492  38.772  1.00  0.00     0.135 A 
ATOM     90  C   UNL A   1      40.455  35.157  37.923  1.00  0.00     0.135 A 
ATOM     91  F   UNL A   1      38.285  32.327  38.654  1.00  0.00    -0.206 F 
ATOM     92  C   UNL A   1      38.757  34.242  39.930  1.00  0.00     0.059 A 
ATOM     93  C   UNL A   1      40.302  35.912  39.080  1.00  0.00     0.059 A 
ATOM     94  F   UNL A   1      41.289  35.616  36.975  1.00  0.00    -0.206 F 
ATOM     95  C   UNL A   1      39.449  35.447  40.079  1.00  0.00     0.060 A 
BRANCH  95  96
ATOM     96  S   UNL A   1      39.262  36.371  41.619  1.00  0.00     0.124 S 
ATOM     97  O   UNL A   1      40.518  36.069  42.298  1.00  0.00    -0.237 OA
ATOM     98  O   UNL A   1      39.112  37.743  41.146  1.00  0.00    -0.237 OA
ATOM     99  O   UNL A   1      38.068  35.789  42.223  1.00  0.00    -0.744 OA
ENDBRANCH  95  96
ENDBRANCH  63  88
ENDBRANCH  37  38
ENDBRANCH  30  32
ENDBRANCH  29  30
ENDBRANCH  28  29
ENDBRANCH  27  28
ENDBRANCH  26  27
ENDBRANCH  25  26
ENDBRANCH   1  25
TORSDOF 26
ENDMDL
MODEL 3
REMARK VINA RESULT:      -8.1      1.279      8.174
REMARK SMILES COc1cc(NC[C@@H](CC(C)C)C(=O)OCCOCCOCCOC(=O)c2ccc(-c3c4nc(c(-c5c(F)cc(S(=O)(=O)[O-])cc5F)c5ccc([nH]5)c(-c5c(F)cc(S(=O)(=O)[O-])cc5F)c5nc(c(-c6c(F)cc(S(=O)(=O)[O-])cc6F)c6ccc3[nH]6)C=C5)C=C4)cc2)nc(C)n1
REMARK SMILES IDX 19 1 18 2 17 3 16 4 15 5 13 6 14 7 8 8 7 9 6 10 5 12 3 13
REMARK SMILES IDX 4 14 96 15 94 16 93 17 95 18 2 19 1 20 9 21 10 22 11 23
REMARK SMILES IDX 12 24 20 25 21 26 22 27 23 28 24 29 25 30 26 31 27 32 28 33
REMARK SMILES IDX 92 34 29 35 91 36 30 37 31 38 32 39 85 40 33 41 90 42 84 43
REMARK SMILES IDX 86 44 34 45 89 46 83 47 82 48 35 50 69 51 48 52 68 53 49 54
REMARK SMILES IDX 52 55 67 56 87 57 50 58 51 59 66 61 88 62 53 63 36 64 37 65
REMARK SMILES IDX 46 66 38 67 39 68 45 69 47 70 40 71 41 72 42 73 43 74 44 75
REMARK SMILES IDX 70 76 71 77 80 78 72 79 73 80 79 81 81 82 74 83 75 84 76 85
REMARK SMILES IDX 77 86 78 87 54 88 55 89 64 90 56 91 57 92 63 93 65 94 58 95
REMARK SMILES IDX 59 96 60 97 61 98 62 99
REMARK H PARENT 6 11 86 49 52 60
REMARK Flexibility Score: inf
ROOT
ATOM      1  C   UNL A   1      40.837  24.093  27.012  1.00  0.00     0.188 C 
ENDROOT
BRANCH   1   2
ATOM      2  O   UNL A   1      39.721  24.435  26.204  1.00  0.00    -0.376 OA
BRANCH   2   3
ATOM      3  C   UNL A   1      38.447  24.005  26.674  1.00  0.00     0.202 C 
BRANCH   3   4
ATOM      4  C   UNL A   1      37.626  23.124  25.722  1.00  0.00     0.261 C 
BRANCH   4   5
ATOM      5  O   UNL A   1      36.411  23.721  25.196  1.00  0.00    -0.463 OA
BRANCH   5   6
ATOM      6  C   UNL A   1      35.549  22.854  24.601  1.00  0.00     0.310 C 
ATOM      7  O   UNL A   1      35.848  21.706  24.282  1.00  0.00    -0.252 OA
BRANCH   6   8
ATOM      8  C   UNL A   1      34.184  23.427  24.244  1.00  0.00     0.118 C 
BRANCH   8   9
ATOM      9  C   UNL A   1      33.807  23.530  22.758  1.00  0.00     0.129 C 
BRANCH   9  10
ATOM     10  N   UNL A   1      32.511  24.192  22.601  1.00  0.00    -0.369 N 
ATOM     11  H   UNL A   1      31.769  23.590  22.364  1.00  0.00     0.162 HD
BRANCH  10  12
ATOM     12  C   UNL A   1      32.159  25.511  22.727  1.00  0.00     0.133 A 
ATOM     13  C   UNL A   1      30.702  27.339  22.941  1.00  0.00     0.218 A 
ATOM     14  C   UNL A   1      30.875  25.969  22.897  1.00  0.00     0.115 A 
ATOM     15  N   UNL A   1      31.702  28.220  22.857  1.00  0.00    -0.199 NA
ATOM     16  C   UNL A   1      32.922  27.696  22.725  1.00  0.00     0.131 A 
ATOM     17  N   UNL A   1      33.192  26.373  22.659  1.00  0.00    -0.216 NA
ATOM     18  C   UNL A   1      34.057  28.668  22.635  1.00  0.00     0.090 C 
BRANCH  13  19
ATOM     19  O   UNL A   1      29.454  27.903  22.922  1.00  0.00    -0.481 OA
ATOM     20  C   UNL A   1      29.463  29.183  22.306  1.00  0.00     0.280 C 
ENDBRANCH  13  19
ENDBRANCH  10  12
ENDBRANCH   9  10
ENDBRANCH   8   9
BRANCH   8  21
ATOM     21  C   UNL A   1      33.141  22.745  25.156  1.00  0.00     0.020 C 
BRANCH  21  22
ATOM     22  C   UNL A   1      32.401  23.593  26.216  1.00  0.00    -0.017 C 
ATOM     23  C   UNL A   1      32.738  25.083  26.212  1.00  0.00     0.007 C 
ATOM     24  C   UNL A   1      30.891  23.438  25.992  1.00  0.00     0.007 C 
ENDBRANCH  21  22
ENDBRANCH   8  21
ENDBRANCH   6   8
ENDBRANCH   5   6
ENDBRANCH   4   5
ENDBRANCH   3   4
ENDBRANCH   2   3
ENDBRANCH   1   2
BRANCH   1  25
ATOM     25  C   UNL A   1      40.742  22.749  27.733  1.00  0.00     0.188 C 
BRANCH  25  26
ATOM     26  O   UNL A   1      41.857  21.876  27.594  1.00  0.00    -0.376 OA
BRANCH  26  27
ATOM     27  C   UNL A   1      41.549  20.519  27.259  1.00  0.00     0.202 C 
BRANCH  27  28
ATOM     28  C   UNL A   1      42.402  19.888  26.133  1.00  0.00     0.261 C 
BRANCH  28  29
ATOM     29  O   UNL A   1      42.964  20.821  25.184  1.00  0.00    -0.460 OA
BRANCH  29  30
ATOM     30  C   UNL A   1      44.297  20.738  24.968  1.00  0.00     0.338 C 
ATOM     31  O   UNL A   1      44.856  19.852  24.345  1.00  0.00    -0.246 OA
BRANCH  30  32
ATOM     32  C   UNL A   1      44.928  22.033  25.343  1.00  0.00     0.060 A 
ATOM     33  C   UNL A   1      45.321  22.230  26.677  1.00  0.00     0.016 A 
ATOM     34  C   UNL A   1      45.209  23.015  24.395  1.00  0.00     0.016 A 
ATOM     35  C   UNL A   1      45.954  23.407  27.080  1.00  0.00     0.010 A 
ATOM     36  C   UNL A   1      45.824  24.206  24.799  1.00  0.00     0.010 A 
ATOM     37  C   UNL A   1      46.172  24.421  26.147  1.00  0.00    -0.014 A 
BRANCH  37  38
ATOM     38  C   UNL A   1      46.522  25.791  26.590  1.00  0.00     0.031 A 
ATOM     39  C   UNL A   1      45.398  26.663  27.080  1.00  0.00     0.074 A 
ATOM     40  C   UNL A   1      47.777  26.271  26.542  1.00  0.00     0.049 A 
ATOM     41  N   UNL A   1      45.371  27.951  27.282  1.00  0.00    -0.248 NA
ATOM     42  C   UNL A   1      44.125  25.978  27.365  1.00  0.00     0.031 C 
ATOM     43  C   UNL A   1      48.970  25.507  26.190  1.00  0.00     0.029 A 
ATOM     44  N   UNL A   1      48.246  27.543  26.771  1.00  0.00    -0.354 N 
ATOM     45  C   UNL A   1      44.072  28.240  27.679  1.00  0.00     0.074 A 
ATOM     46  C   UNL A   1      43.340  26.992  27.688  1.00  0.00     0.031 C 
ATOM     47  C   UNL A   1      50.033  26.333  26.194  1.00  0.00     0.029 A 
ATOM     48  C   UNL A   1      49.584  27.693  26.492  1.00  0.00     0.049 A 
ATOM     49  H   UNL A   1      47.680  28.276  27.104  1.00  0.00     0.167 HD
ATOM     50  C   UNL A   1      43.535  29.440  27.996  1.00  0.00     0.037 A 
ATOM     51  C   UNL A   1      50.343  28.809  26.434  1.00  0.00     0.037 A 
ATOM     52  C   UNL A   1      44.274  30.671  27.997  1.00  0.00     0.049 A 
ATOM     53  C   UNL A   1      49.708  30.152  26.710  1.00  0.00     0.074 A 
ATOM     54  C   UNL A   1      43.821  31.946  28.284  1.00  0.00     0.029 A 
ATOM     55  N   UNL A   1      45.624  30.782  27.700  1.00  0.00    -0.354 N 
ATOM     56  N   UNL A   1      48.467  30.428  27.034  1.00  0.00    -0.248 NA
ATOM     57  C   UNL A   1      50.573  31.338  26.601  1.00  0.00     0.031 C 
ATOM     58  C   UNL A   1      44.888  32.834  28.123  1.00  0.00     0.029 A 
ATOM     59  C   UNL A   1      46.019  32.104  27.786  1.00  0.00     0.049 A 
ATOM     60  H   UNL A   1      46.214  30.030  27.463  1.00  0.00     0.167 HD
ATOM     61  C   UNL A   1      48.413  31.808  27.208  1.00  0.00     0.074 A 
ATOM     62  C   UNL A   1      49.743  32.314  26.945  1.00  0.00     0.031 C 
ATOM     63  C   UNL A   1      47.359  32.586  27.560  1.00  0.00     0.037 A 
BRANCH  50  64
ATOM     64  C   UNL A   1      42.069  29.478  28.314  1.00  0.00     0.058 A 
ATOM     65  C   UNL A   1      41.595  29.631  29.626  1.00  0.00     0.135 A 
ATOM     66  C   UNL A   1      41.123  29.368  27.282  1.00  0.00     0.135 A 
ATOM     67  F   UNL A   1      42.459  29.714  30.651  1.00  0.00    -0.206 F 
ATOM     68  C   UNL A   1      40.234  29.647  29.908  1.00  0.00     0.059 A 
ATOM     69  C   UNL A   1      39.757  29.410  27.537  1.00  0.00     0.059 A 
ATOM     70  F   UNL A   1      41.523  29.211  26.010  1.00  0.00    -0.206 F 
ATOM     71  C   UNL A   1      39.322  29.534  28.857  1.00  0.00     0.060 A 
BRANCH  71  72
ATOM     72  S   UNL A   1      37.558  29.553  29.236  1.00  0.00     0.124 S 
ATOM     73  O   UNL A   1      36.993  28.973  28.021  1.00  0.00    -0.237 OA
ATOM     74  O   UNL A   1      37.485  28.718  30.431  1.00  0.00    -0.237 OA
ATOM     75  O   UNL A   1      37.270  30.969  29.445  1.00  0.00    -0.744 OA
ENDBRANCH  71  72
ENDBRANCH  50  64
BRANCH  51  76
ATOM     76  C   UNL A   1      51.781  28.719  26.057  1.00  0.00     0.058 A 
ATOM     77  C   UNL A   1      52.185  28.791  24.716  1.00  0.00     0.135 A 
ATOM     78  C   UNL A   1      52.778  28.541  27.029  1.00  0.00     0.135 A 
ATOM     79  F   UNL A   1      51.269  28.942  23.747  1.00  0.00    -0.206 F 
ATOM     80  C   UNL A   1      53.524  28.675  24.349  1.00  0.00     0.059 A 
ATOM     81  C   UNL A   1      54.125  28.449  26.689  1.00  0.00     0.059 A 
ATOM     82  F   UNL A   1      52.448  28.466  28.328  1.00  0.00    -0.206 F 
ATOM     83  C   UNL A   1      54.487  28.507  25.344  1.00  0.00     0.060 A 
BRANCH  83  84
ATOM     84  S   UNL A   1      56.224  28.397  24.861  1.00  0.00     0.124 S 
ATOM     85  O   UNL A   1      56.357  29.551  23.979  1.00  0.00    -0.237 OA
ATOM     86  O   UNL A   1      56.907  28.495  26.147  1.00  0.00    -0.237 OA
ATOM     87  O   UNL A   1      56.310  27.093  24.210  1.00  0.00    -0.744 OA
ENDBRANCH  83  84
ENDBRANCH  51  76
BRANCH  63  88
ATOM     88  C   UNL A   1      47.596  34.057  27.762  1.00  0.00     0.058 A 
ATOM     89  C   UNL A   1      48.036  34.577  28.987  1.00  0.00     0.135 A 
ATOM     90  C   UNL A   1      47.492  34.938  26.673  1.00  0.00     0.135 A 
ATOM     91  F   UNL A   1      48.149  33.778  30.061  1.00  0.00    -0.206 F 
ATOM     92  C   UNL A   1      48.366  35.922  29.127  1.00  0.00     0.059 A 
ATOM     93  C   UNL A   1      47.838  36.280  26.783  1.00  0.00     0.059 A 
ATOM     94  F   UNL A   1      47.085  34.487  25.476  1.00  0.00    -0.206 F 
ATOM     95  C   UNL A   1      48.273  36.764  28.015  1.00  0.00     0.060 A 
BRANCH  95  96
ATOM     96  S   UNL A   1      48.783  38.488  28.187  1.00  0.00     0.124 S 
ATOM     97  O   UNL A   1      47.496  39.164  28.319  1.00  0.00    -0.237 OA
ATOM     98  O   UNL A   1      49.606  38.453  29.392  1.00  0.00    -0.237 OA
ATOM     99  O   UNL A   1      49.507  38.755  26.949  1.00  0.00    -0.744 OA
ENDBRANCH  95  96
ENDBRANCH  63  88
ENDBRANCH  37  38
ENDBRANCH  30  32
ENDBRANCH  29  30
ENDBRANCH  28  29
ENDBRANCH  27  28
ENDBRANCH  26  27
ENDBRANCH  25  26
ENDBRANCH   1  25
TORSDOF 26
ENDMDL
