MODEL 1
REMARK VINA RESULT:     -10.6      0.000      0.000
REMARK SMILES O=C(OCCOCCOCCOC(=O)c1sccc1S(=O)(=O)N1CCO[C@@H]2CCCC[C@@H]21)c1ccc(-c2c3nc(c(-c4c(F)cc(S(=O)(=O)[O-])cc4F)c4ccc([nH]4)c(-c4c(F)cc(S(=O)(=O)[O-])cc4F)c4nc(c(-c5c(F)cc(S(=O)(=O)[O-])cc5F)c5ccc2[nH]5)C=C4)C=C3)cc1
REMARK SMILES IDX 7 1 6 2 5 3 4 4 3 5 2 6 1 7 33 8 34 9 98 10 35 11 97 12
REMARK SMILES IDX 36 13 37 14 38 15 91 16 39 17 96 18 90 19 92 20 40 21 95 22
REMARK SMILES IDX 89 23 88 24 41 26 75 27 54 28 74 29 55 30 58 31 73 32 93 33
REMARK SMILES IDX 56 34 57 35 72 37 94 38 59 39 42 40 43 41 52 42 44 43 45 44
REMARK SMILES IDX 51 45 53 46 46 47 47 48 48 49 49 50 50 51 76 52 77 53 86 54
REMARK SMILES IDX 78 55 79 56 85 57 87 58 80 59 81 60 82 61 83 62 84 63 60 64
REMARK SMILES IDX 61 65 70 66 62 67 63 68 69 69 71 70 64 71 65 72 66 73 67 74
REMARK SMILES IDX 68 75 8 76 9 77 10 78 11 79 12 80 13 81 14 82 15 83 16 84
REMARK SMILES IDX 19 85 17 86 18 87 20 88 21 89 22 90 23 91 24 92 32 93 25 94
REMARK SMILES IDX 27 95 31 96 26 97 28 98 30 99 29 100
REMARK H PARENT 92 25 58 36
REMARK Flexibility Score: inf
ROOT
ATOM      1  C   UNL A   1      40.640  22.862  27.036  1.00  0.00     0.188 C 
ENDROOT
BRANCH   1   2
ATOM      2  O   UNL A   1      41.568  22.578  25.981  1.00  0.00    -0.376 OA
BRANCH   2   3
ATOM      3  C   UNL A   1      42.870  23.098  26.227  1.00  0.00     0.202 C 
BRANCH   3   4
ATOM      4  C   UNL A   1      43.292  24.257  25.318  1.00  0.00     0.261 C 
BRANCH   4   5
ATOM      5  O   UNL A   1      42.291  25.257  25.065  1.00  0.00    -0.460 OA
BRANCH   5   6
ATOM      6  C   UNL A   1      42.179  26.528  25.517  1.00  0.00     0.338 C 
ATOM      7  O   UNL A   1      42.255  27.436  24.687  1.00  0.00    -0.246 OA
BRANCH   6   8
ATOM      8  C   UNL A   1      42.008  26.919  26.955  1.00  0.00     0.060 A 
ATOM      9  C   UNL A   1      41.004  26.456  27.805  1.00  0.00     0.016 A 
ATOM     10  C   UNL A   1      42.889  27.904  27.455  1.00  0.00     0.016 A 
ATOM     11  C   UNL A   1      40.855  26.977  29.091  1.00  0.00     0.010 A 
ATOM     12  C   UNL A   1      42.732  28.451  28.736  1.00  0.00     0.010 A 
ATOM     13  C   UNL A   1      41.682  28.013  29.542  1.00  0.00    -0.014 A 
BRANCH  13  14
ATOM     14  C   UNL A   1      41.204  28.796  30.702  1.00  0.00     0.031 A 
ATOM     15  C   UNL A   1      42.046  28.727  31.946  1.00  0.00     0.074 A 
ATOM     16  C   UNL A   1      40.151  29.626  30.621  1.00  0.00     0.049 A 
ATOM     17  N   UNL A   1      42.018  29.479  33.011  1.00  0.00    -0.248 NA
ATOM     18  C   UNL A   1      43.086  27.682  31.968  1.00  0.00     0.031 C 
ATOM     19  C   UNL A   1      39.283  29.774  29.458  1.00  0.00     0.029 A 
ATOM     20  N   UNL A   1      39.656  30.532  31.525  1.00  0.00    -0.354 N 
ATOM     21  C   UNL A   1      43.054  29.020  33.814  1.00  0.00     0.074 A 
ATOM     22  C   UNL A   1      43.688  27.922  33.121  1.00  0.00     0.031 C 
ATOM     23  C   UNL A   1      38.393  30.754  29.695  1.00  0.00     0.029 A 
ATOM     24  C   UNL A   1      38.605  31.277  31.044  1.00  0.00     0.049 A 
ATOM     25  H   UNL A   1      40.020  30.639  32.434  1.00  0.00     0.167 HD
ATOM     26  C   UNL A   1      43.434  29.464  35.033  1.00  0.00     0.037 A 
ATOM     27  C   UNL A   1      37.906  32.268  31.634  1.00  0.00     0.037 A 
ATOM     28  C   UNL A   1      42.727  30.481  35.758  1.00  0.00     0.049 A 
ATOM     29  C   UNL A   1      38.291  32.680  33.038  1.00  0.00     0.074 A 
ATOM     30  C   UNL A   1      42.960  30.950  37.036  1.00  0.00     0.029 A 
ATOM     31  N   UNL A   1      41.618  31.160  35.273  1.00  0.00    -0.354 N 
ATOM     32  N   UNL A   1      39.294  32.263  33.777  1.00  0.00    -0.248 NA
ATOM     33  C   UNL A   1      37.445  33.688  33.691  1.00  0.00     0.031 C 
ATOM     34  C   UNL A   1      41.954  31.871  37.346  1.00  0.00     0.029 A 
ATOM     35  C   UNL A   1      41.135  32.026  36.237  1.00  0.00     0.049 A 
ATOM     36  H   UNL A   1      41.231  31.042  34.375  1.00  0.00     0.167 HD
ATOM     37  C   UNL A   1      39.212  32.974  34.971  1.00  0.00     0.074 A 
ATOM     38  C   UNL A   1      38.072  33.859  34.847  1.00  0.00     0.031 C 
ATOM     39  C   UNL A   1      40.002  32.902  36.073  1.00  0.00     0.037 A 
BRANCH  26  40
ATOM     40  C   UNL A   1      44.604  28.773  35.668  1.00  0.00     0.058 A 
ATOM     41  C   UNL A   1      44.433  27.710  36.570  1.00  0.00     0.135 A 
ATOM     42  C   UNL A   1      45.911  29.216  35.413  1.00  0.00     0.135 A 
ATOM     43  F   UNL A   1      43.201  27.274  36.876  1.00  0.00    -0.206 F 
ATOM     44  C   UNL A   1      45.518  27.130  37.219  1.00  0.00     0.059 A 
ATOM     45  C   UNL A   1      47.011  28.636  36.035  1.00  0.00     0.059 A 
ATOM     46  F   UNL A   1      46.125  30.243  34.576  1.00  0.00    -0.206 F 
ATOM     47  C   UNL A   1      46.804  27.605  36.950  1.00  0.00     0.060 A 
BRANCH  47  48
ATOM     48  S   UNL A   1      48.198  26.862  37.821  1.00  0.00     0.124 S 
ATOM     49  O   UNL A   1      49.295  27.735  37.410  1.00  0.00    -0.237 OA
ATOM     50  O   UNL A   1      47.789  26.973  39.217  1.00  0.00    -0.237 OA
ATOM     51  O   UNL A   1      48.246  25.503  37.290  1.00  0.00    -0.744 OA
ENDBRANCH  47  48
ENDBRANCH  26  40
BRANCH  27  52
ATOM     52  C   UNL A   1      36.773  32.935  30.927  1.00  0.00     0.058 A 
ATOM     53  C   UNL A   1      37.000  33.913  29.945  1.00  0.00     0.135 A 
ATOM     54  C   UNL A   1      35.438  32.642  31.249  1.00  0.00     0.135 A 
ATOM     55  F   UNL A   1      38.256  34.241  29.602  1.00  0.00    -0.206 F 
ATOM     56  C   UNL A   1      35.952  34.595  29.332  1.00  0.00     0.059 A 
ATOM     57  C   UNL A   1      34.372  33.288  30.628  1.00  0.00     0.059 A 
ATOM     58  F   UNL A   1      35.159  31.714  32.177  1.00  0.00    -0.206 F 
ATOM     59  C   UNL A   1      34.638  34.276  29.682  1.00  0.00     0.060 A 
BRANCH  59  60
ATOM     60  S   UNL A   1      33.284  35.165  28.881  1.00  0.00     0.124 S 
ATOM     61  O   UNL A   1      32.488  35.582  30.029  1.00  0.00    -0.237 OA
ATOM     62  O   UNL A   1      33.990  36.230  28.175  1.00  0.00    -0.237 OA
ATOM     63  O   UNL A   1      32.674  34.151  28.027  1.00  0.00    -0.744 OA
ENDBRANCH  59  60
ENDBRANCH  27  52
BRANCH  39  64
ATOM     64  C   UNL A   1      39.690  33.832  37.213  1.00  0.00     0.058 A 
ATOM     65  C   UNL A   1      38.830  33.463  38.258  1.00  0.00     0.135 A 
ATOM     66  C   UNL A   1      40.321  35.085  37.292  1.00  0.00     0.135 A 
ATOM     67  F   UNL A   1      38.203  32.275  38.232  1.00  0.00    -0.206 F 
ATOM     68  C   UNL A   1      38.583  34.315  39.330  1.00  0.00     0.059 A 
ATOM     69  C   UNL A   1      40.113  35.940  38.368  1.00  0.00     0.059 A 
ATOM     70  F   UNL A   1      41.166  35.478  36.326  1.00  0.00    -0.206 F 
ATOM     71  C   UNL A   1      39.231  35.552  39.375  1.00  0.00     0.060 A 
BRANCH  71  72
ATOM     72  S   UNL A   1      38.929  36.638  40.785  1.00  0.00     0.124 S 
ATOM     73  O   UNL A   1      37.978  35.850  41.563  1.00  0.00    -0.237 OA
ATOM     74  O   UNL A   1      40.262  36.777  41.365  1.00  0.00    -0.237 OA
ATOM     75  O   UNL A   1      38.390  37.848  40.172  1.00  0.00    -0.744 OA
ENDBRANCH  71  72
ENDBRANCH  39  64
ENDBRANCH  13  14
ENDBRANCH   6   8
ENDBRANCH   5   6
ENDBRANCH   4   5
ENDBRANCH   3   4
ENDBRANCH   2   3
ENDBRANCH   1   2
BRANCH   1  76
ATOM     76  C   UNL A   1      39.212  23.000  26.524  1.00  0.00     0.188 C 
BRANCH  76  77
ATOM     77  O   UNL A   1      38.808  21.938  25.661  1.00  0.00    -0.376 OA
BRANCH  77  78
ATOM     78  C   UNL A   1      37.568  22.151  24.980  1.00  0.00     0.202 C 
BRANCH  78  79
ATOM     79  C   UNL A   1      36.415  22.530  25.912  1.00  0.00     0.261 C 
BRANCH  79  80
ATOM     80  O   UNL A   1      35.685  21.359  26.320  1.00  0.00    -0.459 OA
BRANCH  80  81
ATOM     81  C   UNL A   1      34.430  21.552  26.812  1.00  0.00     0.349 C 
ATOM     82  O   UNL A   1      34.171  21.773  27.988  1.00  0.00    -0.245 OA
BRANCH  81  83
ATOM     83  C   UNL A   1      33.465  21.506  25.740  1.00  0.00     0.132 A 
ATOM     84  S   UNL A   1      33.419  20.133  24.716  1.00  0.00    -0.136 S 
ATOM     85  C   UNL A   1      32.558  22.463  25.332  1.00  0.00     0.108 A 
ATOM     86  C   UNL A   1      32.224  20.834  23.711  1.00  0.00     0.067 A 
ATOM     87  C   UNL A   1      31.856  22.088  24.145  1.00  0.00     0.034 A 
BRANCH  85  88
ATOM     88  S   UNL A   1      32.341  23.981  26.139  1.00  0.00     0.245 S 
ATOM     89  O   UNL A   1      31.427  23.635  27.202  1.00  0.00    -0.207 OA
ATOM     90  O   UNL A   1      33.684  24.457  26.383  1.00  0.00    -0.207 OA
BRANCH  88  91
ATOM     91  N   UNL A   1      31.564  25.025  25.042  1.00  0.00    -0.190 NA
ATOM     92  C   UNL A   1      30.207  25.441  25.477  1.00  0.00     0.131 C 
ATOM     93  C   UNL A   1      32.391  26.040  24.301  1.00  0.00     0.102 C 
ATOM     94  C   UNL A   1      29.571  26.512  24.601  1.00  0.00     0.177 C 
ATOM     95  C   UNL A   1      31.529  27.002  23.427  1.00  0.00     0.136 C 
ATOM     96  C   UNL A   1      33.500  25.386  23.462  1.00  0.00     0.023 C 
ATOM     97  O   UNL A   1      30.161  26.575  23.306  1.00  0.00    -0.375 OA
ATOM     98  C   UNL A   1      32.072  27.206  22.010  1.00  0.00     0.034 C 
ATOM     99  C   UNL A   1      33.044  24.861  22.108  1.00  0.00     0.002 C 
ATOM    100  C   UNL A   1      32.275  25.884  21.284  1.00  0.00     0.003 C 
ENDBRANCH  88  91
ENDBRANCH  85  88
ENDBRANCH  81  83
ENDBRANCH  80  81
ENDBRANCH  79  80
ENDBRANCH  78  79
ENDBRANCH  77  78
ENDBRANCH  76  77
ENDBRANCH   1  76
TORSDOF 22
ENDMDL
MODEL 2
REMARK VINA RESULT:     -10.4      1.626      2.432
REMARK SMILES O=C(OCCOCCOCCOC(=O)c1sccc1S(=O)(=O)N1CCO[C@@H]2CCCC[C@@H]21)c1ccc(-c2c3nc(c(-c4c(F)cc(S(=O)(=O)[O-])cc4F)c4ccc([nH]4)c(-c4c(F)cc(S(=O)(=O)[O-])cc4F)c4nc(c(-c5c(F)cc(S(=O)(=O)[O-])cc5F)c5ccc2[nH]5)C=C4)C=C3)cc1
REMARK SMILES IDX 7 1 6 2 5 3 4 4 3 5 2 6 1 7 33 8 34 9 98 10 35 11 97 12
REMARK SMILES IDX 36 13 37 14 38 15 91 16 39 17 96 18 90 19 92 20 40 21 95 22
REMARK SMILES IDX 89 23 88 24 41 26 75 27 54 28 74 29 55 30 58 31 73 32 93 33
REMARK SMILES IDX 56 34 57 35 72 37 94 38 59 39 42 40 43 41 52 42 44 43 45 44
REMARK SMILES IDX 51 45 53 46 46 47 47 48 48 49 49 50 50 51 76 52 77 53 86 54
REMARK SMILES IDX 78 55 79 56 85 57 87 58 80 59 81 60 82 61 83 62 84 63 60 64
REMARK SMILES IDX 61 65 70 66 62 67 63 68 69 69 71 70 64 71 65 72 66 73 67 74
REMARK SMILES IDX 68 75 8 76 9 77 10 78 11 79 12 80 13 81 14 82 15 83 16 84
REMARK SMILES IDX 19 85 17 86 18 87 20 88 21 89 22 90 23 91 24 92 32 93 25 94
REMARK SMILES IDX 27 95 31 96 26 97 28 98 30 99 29 100
REMARK H PARENT 92 25 58 36
REMARK Flexibility Score: inf
ROOT
ATOM      1  C   UNL A   1      39.822  21.131  26.529  1.00  0.00     0.188 C 
ENDROOT
BRANCH   1   2
ATOM      2  O   UNL A   1      40.997  20.940  25.732  1.00  0.00    -0.376 OA
BRANCH   2   3
ATOM      3  C   UNL A   1      42.203  21.057  26.480  1.00  0.00     0.202 C 
BRANCH   3   4
ATOM      4  C   UNL A   1      43.234  22.033  25.905  1.00  0.00     0.261 C 
BRANCH   4   5
ATOM      5  O   UNL A   1      42.703  23.186  25.229  1.00  0.00    -0.460 OA
BRANCH   5   6
ATOM      6  C   UNL A   1      43.065  24.489  25.289  1.00  0.00     0.338 C 
ATOM      7  O   UNL A   1      44.016  24.848  24.591  1.00  0.00    -0.246 OA
BRANCH   6   8
ATOM      8  C   UNL A   1      42.424  25.523  26.166  1.00  0.00     0.060 A 
ATOM      9  C   UNL A   1      42.808  26.861  26.253  1.00  0.00     0.016 A 
ATOM     10  C   UNL A   1      41.404  25.074  27.036  1.00  0.00     0.016 A 
ATOM     11  C   UNL A   1      42.230  27.714  27.195  1.00  0.00     0.010 A 
ATOM     12  C   UNL A   1      40.836  25.916  28.001  1.00  0.00     0.010 A 
ATOM     13  C   UNL A   1      41.282  27.234  28.107  1.00  0.00    -0.014 A 
BRANCH  13  14
ATOM     14  C   UNL A   1      41.046  28.047  29.319  1.00  0.00     0.031 A 
ATOM     15  C   UNL A   1      42.079  27.938  30.407  1.00  0.00     0.074 A 
ATOM     16  C   UNL A   1      40.041  28.934  29.402  1.00  0.00     0.049 A 
ATOM     17  N   UNL A   1      42.269  28.696  31.451  1.00  0.00    -0.248 NA
ATOM     18  C   UNL A   1      43.050  26.836  30.271  1.00  0.00     0.031 C 
ATOM     19  C   UNL A   1      39.002  29.125  28.396  1.00  0.00     0.029 A 
ATOM     20  N   UNL A   1      39.753  29.871  30.362  1.00  0.00    -0.354 N 
ATOM     21  C   UNL A   1      43.397  28.184  32.078  1.00  0.00     0.074 A 
ATOM     22  C   UNL A   1      43.847  27.048  31.305  1.00  0.00     0.031 C 
ATOM     23  C   UNL A   1      38.217  30.154  28.764  1.00  0.00     0.029 A 
ATOM     24  C   UNL A   1      38.678  30.671  30.051  1.00  0.00     0.049 A 
ATOM     25  H   UNL A   1      40.268  29.961  31.196  1.00  0.00     0.167 HD
ATOM     26  C   UNL A   1      43.998  28.612  33.210  1.00  0.00     0.037 A 
ATOM     27  C   UNL A   1      38.141  31.702  30.735  1.00  0.00     0.037 A 
ATOM     28  C   UNL A   1      43.477  29.670  34.028  1.00  0.00     0.049 A 
ATOM     29  C   UNL A   1      38.776  32.098  32.050  1.00  0.00     0.074 A 
ATOM     30  C   UNL A   1      43.944  30.131  35.244  1.00  0.00     0.029 A 
ATOM     31  N   UNL A   1      42.341  30.407  33.724  1.00  0.00    -0.354 N 
ATOM     32  N   UNL A   1      39.864  31.630  32.619  1.00  0.00    -0.248 NA
ATOM     33  C   UNL A   1      38.106  33.156  32.820  1.00  0.00     0.031 C 
ATOM     34  C   UNL A   1      43.055  31.108  35.703  1.00  0.00     0.029 A 
ATOM     35  C   UNL A   1      42.072  31.303  34.743  1.00  0.00     0.049 A 
ATOM     36  H   UNL A   1      41.804  30.306  32.905  1.00  0.00     0.167 HD
ATOM     37  C   UNL A   1      40.020  32.350  33.800  1.00  0.00     0.074 A 
ATOM     38  C   UNL A   1      38.925  33.297  33.854  1.00  0.00     0.031 C 
ATOM     39  C   UNL A   1      40.977  32.240  34.757  1.00  0.00     0.037 A 
BRANCH  26  40
ATOM     40  C   UNL A   1      45.218  27.860  33.652  1.00  0.00     0.058 A 
ATOM     41  C   UNL A   1      46.509  28.255  33.266  1.00  0.00     0.135 A 
ATOM     42  C   UNL A   1      45.091  26.696  34.426  1.00  0.00     0.135 A 
ATOM     43  F   UNL A   1      46.682  29.340  32.494  1.00  0.00    -0.206 F 
ATOM     44  C   UNL A   1      47.630  27.505  33.609  1.00  0.00     0.059 A 
ATOM     45  C   UNL A   1      46.199  25.944  34.798  1.00  0.00     0.059 A 
ATOM     46  F   UNL A   1      43.877  26.264  34.801  1.00  0.00    -0.206 F 
ATOM     47  C   UNL A   1      47.463  26.347  34.370  1.00  0.00     0.060 A 
BRANCH  47  48
ATOM     48  S   UNL A   1      48.922  25.368  34.783  1.00  0.00     0.124 S 
ATOM     49  O   UNL A   1      49.800  25.666  33.654  1.00  0.00    -0.237 OA
ATOM     50  O   UNL A   1      49.325  25.935  36.066  1.00  0.00    -0.237 OA
ATOM     51  O   UNL A   1      48.411  24.002  34.837  1.00  0.00    -0.744 OA
ENDBRANCH  47  48
ENDBRANCH  26  40
BRANCH  27  52
ATOM     52  C   UNL A   1      36.945  32.428  30.217  1.00  0.00     0.058 A 
ATOM     53  C   UNL A   1      37.066  33.440  29.251  1.00  0.00     0.135 A 
ATOM     54  C   UNL A   1      35.657  32.155  30.706  1.00  0.00     0.135 A 
ATOM     55  F   UNL A   1      38.274  33.750  28.753  1.00  0.00    -0.206 F 
ATOM     56  C   UNL A   1      35.967  34.174  28.814  1.00  0.00     0.059 A 
ATOM     57  C   UNL A   1      34.537  32.854  30.262  1.00  0.00     0.059 A 
ATOM     58  F   UNL A   1      35.477  31.196  31.627  1.00  0.00    -0.206 F 
ATOM     59  C   UNL A   1      34.704  33.875  29.329  1.00  0.00     0.060 A 
BRANCH  59  60
ATOM     60  S   UNL A   1      33.282  34.832  28.755  1.00  0.00     0.124 S 
ATOM     61  O   UNL A   1      33.932  35.995  28.164  1.00  0.00    -0.237 OA
ATOM     62  O   UNL A   1      32.649  33.911  27.815  1.00  0.00    -0.237 OA
ATOM     63  O   UNL A   1      32.530  35.085  29.980  1.00  0.00    -0.744 OA
ENDBRANCH  59  60
ENDBRANCH  27  52
BRANCH  39  64
ATOM     64  C   UNL A   1      40.909  33.192  35.920  1.00  0.00     0.058 A 
ATOM     65  C   UNL A   1      41.643  34.387  35.943  1.00  0.00     0.135 A 
ATOM     66  C   UNL A   1      40.040  32.932  36.992  1.00  0.00     0.135 A 
ATOM     67  F   UNL A   1      42.486  34.684  34.941  1.00  0.00    -0.206 F 
ATOM     68  C   UNL A   1      41.538  35.281  37.004  1.00  0.00     0.059 A 
ATOM     69  C   UNL A   1      39.897  33.825  38.048  1.00  0.00     0.059 A 
ATOM     70  F   UNL A   1      39.302  31.810  37.009  1.00  0.00    -0.206 F 
ATOM     71  C   UNL A   1      40.662  34.990  38.052  1.00  0.00     0.060 A 
BRANCH  71  72
ATOM     72  S   UNL A   1      40.509  36.170  39.409  1.00  0.00     0.124 S 
ATOM     73  O   UNL A   1      39.613  35.458  40.315  1.00  0.00    -0.237 OA
ATOM     74  O   UNL A   1      41.890  36.309  39.861  1.00  0.00    -0.237 OA
ATOM     75  O   UNL A   1      39.945  37.353  38.769  1.00  0.00    -0.744 OA
ENDBRANCH  71  72
ENDBRANCH  39  64
ENDBRANCH  13  14
ENDBRANCH   6   8
ENDBRANCH   5   6
ENDBRANCH   4   5
ENDBRANCH   3   4
ENDBRANCH   2   3
ENDBRANCH   1   2
BRANCH   1  76
ATOM     76  C   UNL A   1      39.002  22.330  26.068  1.00  0.00     0.188 C 
BRANCH  76  77
ATOM     77  O   UNL A   1      37.641  22.014  25.776  1.00  0.00    -0.376 OA
BRANCH  77  78
ATOM     78  C   UNL A   1      37.384  21.643  24.418  1.00  0.00     0.202 C 
BRANCH  78  79
ATOM     79  C   UNL A   1      36.717  22.750  23.598  1.00  0.00     0.261 C 
BRANCH  79  80
ATOM     80  O   UNL A   1      35.659  23.372  24.350  1.00  0.00    -0.459 OA
BRANCH  80  81
ATOM     81  C   UNL A   1      34.439  23.453  23.751  1.00  0.00     0.349 C 
ATOM     82  O   UNL A   1      34.193  24.134  22.765  1.00  0.00    -0.245 OA
BRANCH  81  83
ATOM     83  C   UNL A   1      33.501  22.584  24.421  1.00  0.00     0.132 A 
ATOM     84  S   UNL A   1      33.342  20.962  23.894  1.00  0.00    -0.136 S 
ATOM     85  C   UNL A   1      32.610  22.869  25.436  1.00  0.00     0.108 A 
ATOM     86  C   UNL A   1      32.060  20.657  24.988  1.00  0.00     0.067 A 
ATOM     87  C   UNL A   1      31.759  21.765  25.750  1.00  0.00     0.034 A 
BRANCH  85  88
ATOM     88  S   UNL A   1      32.497  24.420  26.202  1.00  0.00     0.245 S 
ATOM     89  O   UNL A   1      31.547  24.169  27.260  1.00  0.00    -0.207 OA
ATOM     90  O   UNL A   1      33.869  24.801  26.452  1.00  0.00    -0.207 OA
BRANCH  88  91
ATOM     91  N   UNL A   1      31.813  25.489  25.069  1.00  0.00    -0.190 NA
ATOM     92  C   UNL A   1      30.634  24.929  24.360  1.00  0.00     0.131 C 
ATOM     93  C   UNL A   1      31.791  26.959  25.384  1.00  0.00     0.102 C 
ATOM     94  C   UNL A   1      29.901  25.930  23.477  1.00  0.00     0.177 C 
ATOM     95  C   UNL A   1      31.028  27.798  24.313  1.00  0.00     0.136 C 
ATOM     96  C   UNL A   1      33.202  27.524  25.615  1.00  0.00     0.023 C 
ATOM     97  O   UNL A   1      30.717  27.044  23.128  1.00  0.00    -0.375 OA
ATOM     98  C   UNL A   1      31.768  29.062  23.871  1.00  0.00     0.034 C 
ATOM     99  C   UNL A   1      33.961  27.871  24.343  1.00  0.00     0.002 C 
ATOM    100  C   UNL A   1      33.176  28.754  23.384  1.00  0.00     0.003 C 
ENDBRANCH  88  91
ENDBRANCH  85  88
ENDBRANCH  81  83
ENDBRANCH  80  81
ENDBRANCH  79  80
ENDBRANCH  78  79
ENDBRANCH  77  78
ENDBRANCH  76  77
ENDBRANCH   1  76
TORSDOF 22
ENDMDL
MODEL 3
REMARK VINA RESULT:     -10.3      5.931     11.829
REMARK SMILES O=C(OCCOCCOCCOC(=O)c1sccc1S(=O)(=O)N1CCO[C@@H]2CCCC[C@@H]21)c1ccc(-c2c3nc(c(-c4c(F)cc(S(=O)(=O)[O-])cc4F)c4ccc([nH]4)c(-c4c(F)cc(S(=O)(=O)[O-])cc4F)c4nc(c(-c5c(F)cc(S(=O)(=O)[O-])cc5F)c5ccc2[nH]5)C=C4)C=C3)cc1
REMARK SMILES IDX 7 1 6 2 5 3 4 4 3 5 2 6 1 7 33 8 34 9 98 10 35 11 97 12
REMARK SMILES IDX 36 13 37 14 38 15 91 16 39 17 96 18 90 19 92 20 40 21 95 22
REMARK SMILES IDX 89 23 88 24 41 26 75 27 54 28 74 29 55 30 58 31 73 32 93 33
REMARK SMILES IDX 56 34 57 35 72 37 94 38 59 39 42 40 43 41 52 42 44 43 45 44
REMARK SMILES IDX 51 45 53 46 46 47 47 48 48 49 49 50 50 51 76 52 77 53 86 54
REMARK SMILES IDX 78 55 79 56 85 57 87 58 80 59 81 60 82 61 83 62 84 63 60 64
REMARK SMILES IDX 61 65 70 66 62 67 63 68 69 69 71 70 64 71 65 72 66 73 67 74
REMARK SMILES IDX 68 75 8 76 9 77 10 78 11 79 12 80 13 81 14 82 15 83 16 84
REMARK SMILES IDX 19 85 17 86 18 87 20 88 21 89 22 90 23 91 24 92 32 93 25 94
REMARK SMILES IDX 27 95 31 96 26 97 28 98 30 99 29 100
REMARK H PARENT 92 25 58 36
REMARK Flexibility Score: inf
ROOT
ATOM      1  C   UNL A   1      35.427  32.427  27.997  1.00  0.00     0.188 C 
ENDROOT
BRANCH   1   2
ATOM      2  O   UNL A   1      35.916  33.243  29.069  1.00  0.00    -0.376 OA
BRANCH   2   3
ATOM      3  C   UNL A   1      35.119  33.152  30.246  1.00  0.00     0.202 C 
BRANCH   3   4
ATOM      4  C   UNL A   1      35.781  32.434  31.427  1.00  0.00     0.261 C 
BRANCH   4   5
ATOM      5  O   UNL A   1      35.876  31.003  31.323  1.00  0.00    -0.460 OA
BRANCH   5   6
ATOM      6  C   UNL A   1      36.924  30.171  31.522  1.00  0.00     0.338 C 
ATOM      7  O   UNL A   1      36.819  29.325  32.412  1.00  0.00    -0.246 OA
BRANCH   6   8
ATOM      8  C   UNL A   1      38.221  30.222  30.769  1.00  0.00     0.060 A 
ATOM      9  C   UNL A   1      38.349  30.256  29.381  1.00  0.00     0.016 A 
ATOM     10  C   UNL A   1      39.405  30.144  31.537  1.00  0.00     0.016 A 
ATOM     11  C   UNL A   1      39.604  30.175  28.774  1.00  0.00     0.010 A 
ATOM     12  C   UNL A   1      40.666  30.037  30.936  1.00  0.00     0.010 A 
ATOM     13  C   UNL A   1      40.761  30.011  29.545  1.00  0.00    -0.014 A 
BRANCH  13  14
ATOM     14  C   UNL A   1      41.963  29.504  28.849  1.00  0.00     0.031 A 
ATOM     15  C   UNL A   1      43.135  30.443  28.772  1.00  0.00     0.074 A 
ATOM     16  C   UNL A   1      42.061  28.234  28.421  1.00  0.00     0.049 A 
ATOM     17  N   UNL A   1      44.376  30.198  28.453  1.00  0.00    -0.248 NA
ATOM     18  C   UNL A   1      42.868  31.845  29.141  1.00  0.00     0.031 C 
ATOM     19  C   UNL A   1      40.988  27.246  28.465  1.00  0.00     0.029 A 
ATOM     20  N   UNL A   1      43.127  27.547  27.900  1.00  0.00    -0.354 N 
ATOM     21  C   UNL A   1      45.043  31.406  28.614  1.00  0.00     0.074 A 
ATOM     22  C   UNL A   1      44.073  32.384  29.051  1.00  0.00     0.031 C 
ATOM     23  C   UNL A   1      41.464  26.061  28.041  1.00  0.00     0.029 A 
ATOM     24  C   UNL A   1      42.866  26.218  27.660  1.00  0.00     0.049 A 
ATOM     25  H   UNL A   1      43.999  27.966  27.715  1.00  0.00     0.167 HD
ATOM     26  C   UNL A   1      46.348  31.681  28.399  1.00  0.00     0.037 A 
ATOM     27  C   UNL A   1      43.678  25.248  27.189  1.00  0.00     0.037 A 
ATOM     28  C   UNL A   1      47.277  30.729  27.859  1.00  0.00     0.049 A 
ATOM     29  C   UNL A   1      45.111  25.608  26.865  1.00  0.00     0.074 A 
ATOM     30  C   UNL A   1      48.601  30.916  27.511  1.00  0.00     0.029 A 
ATOM     31  N   UNL A   1      46.959  29.413  27.552  1.00  0.00    -0.354 N 
ATOM     32  N   UNL A   1      45.742  26.745  27.052  1.00  0.00    -0.248 NA
ATOM     33  C   UNL A   1      45.940  24.557  26.257  1.00  0.00     0.031 C 
ATOM     34  C   UNL A   1      49.067  29.729  26.938  1.00  0.00     0.029 A 
ATOM     35  C   UNL A   1      48.054  28.782  26.992  1.00  0.00     0.049 A 
ATOM     36  H   UNL A   1      46.083  28.992  27.710  1.00  0.00     0.167 HD
ATOM     37  C   UNL A   1      47.045  26.539  26.606  1.00  0.00     0.074 A 
ATOM     38  C   UNL A   1      47.115  25.163  26.157  1.00  0.00     0.031 C 
ATOM     39  C   UNL A   1      48.090  27.404  26.566  1.00  0.00     0.037 A 
BRANCH  26  40
ATOM     40  C   UNL A   1      46.793  33.089  28.665  1.00  0.00     0.058 A 
ATOM     41  C   UNL A   1      47.285  33.483  29.920  1.00  0.00     0.135 A 
ATOM     42  C   UNL A   1      46.675  34.068  27.667  1.00  0.00     0.135 A 
ATOM     43  F   UNL A   1      47.382  32.592  30.919  1.00  0.00    -0.206 F 
ATOM     44  C   UNL A   1      47.616  34.808  30.184  1.00  0.00     0.059 A 
ATOM     45  C   UNL A   1      47.020  35.394  27.904  1.00  0.00     0.059 A 
ATOM     46  F   UNL A   1      46.189  33.746  26.458  1.00  0.00    -0.206 F 
ATOM     47  C   UNL A   1      47.474  35.758  29.170  1.00  0.00     0.060 A 
BRANCH  47  48
ATOM     48  S   UNL A   1      47.879  37.478  29.536  1.00  0.00     0.124 S 
ATOM     49  O   UNL A   1      48.955  37.731  28.580  1.00  0.00    -0.237 OA
ATOM     50  O   UNL A   1      46.618  38.160  29.266  1.00  0.00    -0.237 OA
ATOM     51  O   UNL A   1      48.283  37.442  30.939  1.00  0.00    -0.744 OA
ENDBRANCH  47  48
ENDBRANCH  26  40
BRANCH  27  52
ATOM     52  C   UNL A   1      43.175  23.859  26.982  1.00  0.00     0.058 A 
ATOM     53  C   UNL A   1      43.008  22.974  28.059  1.00  0.00     0.135 A 
ATOM     54  C   UNL A   1      42.889  23.370  25.697  1.00  0.00     0.135 A 
ATOM     55  F   UNL A   1      43.274  23.383  29.310  1.00  0.00    -0.206 F 
ATOM     56  C   UNL A   1      42.610  21.653  27.871  1.00  0.00     0.059 A 
ATOM     57  C   UNL A   1      42.460  22.062  25.485  1.00  0.00     0.059 A 
ATOM     58  F   UNL A   1      43.025  24.170  24.628  1.00  0.00    -0.206 F 
ATOM     59  C   UNL A   1      42.340  21.205  26.576  1.00  0.00     0.060 A 
BRANCH  59  60
ATOM     60  S   UNL A   1      41.822  19.489  26.341  1.00  0.00     0.124 S 
ATOM     61  O   UNL A   1      42.559  19.125  25.136  1.00  0.00    -0.237 OA
ATOM     62  O   UNL A   1      42.273  18.858  27.577  1.00  0.00    -0.237 OA
ATOM     63  O   UNL A   1      40.375  19.592  26.186  1.00  0.00    -0.744 OA
ENDBRANCH  59  60
ENDBRANCH  27  52
BRANCH  39  64
ATOM     64  C   UNL A   1      49.407  26.881  26.061  1.00  0.00     0.058 A 
ATOM     65  C   UNL A   1      49.840  27.108  24.747  1.00  0.00     0.135 A 
ATOM     66  C   UNL A   1      50.276  26.204  26.933  1.00  0.00     0.135 A 
ATOM     67  F   UNL A   1      49.048  27.752  23.874  1.00  0.00    -0.206 F 
ATOM     68  C   UNL A   1      51.080  26.657  24.304  1.00  0.00     0.059 A 
ATOM     69  C   UNL A   1      51.531  25.772  26.521  1.00  0.00     0.059 A 
ATOM     70  F   UNL A   1      49.915  25.978  28.206  1.00  0.00    -0.206 F 
ATOM     71  C   UNL A   1      51.918  25.990  25.200  1.00  0.00     0.060 A 
BRANCH  71  72
ATOM     72  S   UNL A   1      53.537  25.436  24.626  1.00  0.00     0.124 S 
ATOM     73  O   UNL A   1      53.399  25.580  23.180  1.00  0.00    -0.237 OA
ATOM     74  O   UNL A   1      54.440  26.382  25.275  1.00  0.00    -0.237 OA
ATOM     75  O   UNL A   1      53.620  24.064  25.116  1.00  0.00    -0.744 OA
ENDBRANCH  71  72
ENDBRANCH  39  64
ENDBRANCH  13  14
ENDBRANCH   6   8
ENDBRANCH   5   6
ENDBRANCH   4   5
ENDBRANCH   3   4
ENDBRANCH   2   3
ENDBRANCH   1   2
BRANCH   1  76
ATOM     76  C   UNL A   1      34.122  31.728  28.355  1.00  0.00     0.188 C 
BRANCH  76  77
ATOM     77  O   UNL A   1      33.409  31.232  27.222  1.00  0.00    -0.376 OA
BRANCH  77  78
ATOM     78  C   UNL A   1      33.742  29.895  26.835  1.00  0.00     0.202 C 
BRANCH  78  79
ATOM     79  C   UNL A   1      32.526  29.052  26.442  1.00  0.00     0.261 C 
BRANCH  79  80
ATOM     80  O   UNL A   1      32.858  28.151  25.370  1.00  0.00    -0.459 OA
BRANCH  80  81
ATOM     81  C   UNL A   1      32.728  26.818  25.619  1.00  0.00     0.349 C 
ATOM     82  O   UNL A   1      33.321  26.216  26.503  1.00  0.00    -0.245 OA
BRANCH  81  83
ATOM     83  C   UNL A   1      31.756  26.240  24.722  1.00  0.00     0.132 A 
ATOM     84  S   UNL A   1      30.101  26.639  24.912  1.00  0.00    -0.136 S 
ATOM     85  C   UNL A   1      31.934  25.316  23.712  1.00  0.00     0.108 A 
ATOM     86  C   UNL A   1      29.624  25.549  23.681  1.00  0.00     0.067 A 
ATOM     87  C   UNL A   1      30.701  24.896  23.125  1.00  0.00     0.034 A 
BRANCH  85  88
ATOM     88  S   UNL A   1      33.483  24.688  23.252  1.00  0.00     0.245 S 
ATOM     89  O   UNL A   1      33.215  24.146  21.940  1.00  0.00    -0.207 OA
ATOM     90  O   UNL A   1      34.400  25.783  23.477  1.00  0.00    -0.207 OA
BRANCH  88  91
ATOM     91  N   UNL A   1      33.847  23.419  24.325  1.00  0.00    -0.190 NA
ATOM     92  C   UNL A   1      32.703  23.020  25.184  1.00  0.00     0.131 C 
ATOM     93  C   UNL A   1      34.776  22.328  23.866  1.00  0.00     0.102 C 
ATOM     94  C   UNL A   1      32.954  21.772  26.020  1.00  0.00     0.177 C 
ATOM     95  C   UNL A   1      34.919  21.176  24.907  1.00  0.00     0.136 C 
ATOM     96  C   UNL A   1      36.155  22.872  23.460  1.00  0.00     0.023 C 
ATOM     97  O   UNL A   1      34.342  21.500  26.184  1.00  0.00    -0.375 OA
ATOM     98  C   UNL A   1      36.365  20.740  25.155  1.00  0.00     0.034 C 
ATOM     99  C   UNL A   1      37.109  23.109  24.622  1.00  0.00     0.002 C 
ATOM    100  C   UNL A   1      37.252  21.912  25.550  1.00  0.00     0.003 C 
ENDBRANCH  88  91
ENDBRANCH  85  88
ENDBRANCH  81  83
ENDBRANCH  80  81
ENDBRANCH  79  80
ENDBRANCH  78  79
ENDBRANCH  77  78
ENDBRANCH  76  77
ENDBRANCH   1  76
TORSDOF 22
ENDMDL
