MODEL 1
REMARK VINA RESULT:     -10.3      0.000      0.000
REMARK SMILES O=Cc1ccc(-c2ccc(C(=O)OCCOCCOCCOC(=O)c3ccc(-c4c5nc(c(-c6c(F)cc(S(=O)(=O)[O-])cc6F)c6ccc([nH]6)c(-c6c(F)cc(S(=O)(=O)[O-])cc6F)c6nc(c(-c7c(F)cc(S(=O)(=O)[O-])cc7F)c7ccc4[nH]7)C=C6)C=C5)cc3)cn2)cc1
REMARK SMILES IDX 18 1 17 2 16 3 15 4 14 5 13 6 11 7 12 8 10 9 7 10 8 11 92 12
REMARK SMILES IDX 9 13 91 14 6 15 3 16 4 17 94 18 5 19 93 20 2 21 1 22 19 23
REMARK SMILES IDX 20 24 21 25 22 26 23 27 24 28 25 29 26 30 90 31 27 32 89 33
REMARK SMILES IDX 28 34 29 35 30 36 83 37 31 38 88 39 82 40 84 41 32 42 87 43
REMARK SMILES IDX 81 44 80 45 33 47 67 48 46 49 66 50 47 51 50 52 65 53 85 54
REMARK SMILES IDX 48 55 49 56 64 58 86 59 51 60 34 61 35 62 44 63 36 64 37 65
REMARK SMILES IDX 43 66 45 67 38 68 39 69 40 70 41 71 42 72 68 73 69 74 78 75
REMARK SMILES IDX 70 76 71 77 77 78 79 79 72 80 73 81 74 82 75 83 76 84 52 85
REMARK SMILES IDX 53 86 62 87 54 88 55 89 61 90 63 91 56 92 57 93 58 94 59 95
REMARK SMILES IDX 60 96
REMARK H PARENT 84 46 50 57
REMARK Flexibility Score: inf
ROOT
ATOM      1  C   UNL A   1      45.409  21.731  24.313  1.00  0.00     0.188 C 
ENDROOT
BRANCH   1   2
ATOM      2  C   UNL A   1      45.342  20.362  25.021  1.00  0.00     0.188 C 
BRANCH   2   3
ATOM      3  O   UNL A   1      44.492  19.381  24.473  1.00  0.00    -0.376 OA
BRANCH   3   4
ATOM      4  C   UNL A   1      43.512  18.732  25.265  1.00  0.00     0.202 C 
BRANCH   4   5
ATOM      5  C   UNL A   1      42.610  19.404  26.317  1.00  0.00     0.261 C 
BRANCH   5   6
ATOM      6  O   UNL A   1      41.722  20.430  25.867  1.00  0.00    -0.460 OA
BRANCH   6   7
ATOM      7  C   UNL A   1      41.417  21.370  26.797  1.00  0.00     0.339 C 
ATOM      8  O   UNL A   1      42.145  21.791  27.679  1.00  0.00    -0.246 OA
BRANCH   7   9
ATOM      9  C   UNL A   1      40.103  21.962  26.508  1.00  0.00     0.078 A 
ATOM     10  C   UNL A   1      37.652  22.921  25.737  1.00  0.00     0.070 A 
ATOM     11  C   UNL A   1      38.514  23.756  26.454  1.00  0.00     0.030 A 
ATOM     12  N   UNL A   1      37.940  21.623  25.484  1.00  0.00    -0.255 NA
ATOM     13  C   UNL A   1      39.758  23.267  26.852  1.00  0.00     0.019 A 
ATOM     14  C   UNL A   1      39.163  21.176  25.857  1.00  0.00     0.127 A 
BRANCH  10  15
ATOM     15  C   UNL A   1      36.501  23.454  25.004  1.00  0.00     0.000 A 
ATOM     16  C   UNL A   1      34.252  24.307  23.551  1.00  0.00     0.014 A 
ATOM     17  C   UNL A   1      34.476  24.800  24.839  1.00  0.00     0.012 A 
ATOM     18  C   UNL A   1      35.135  23.391  22.982  1.00  0.00     0.012 A 
ATOM     19  C   UNL A   1      35.594  24.366  25.566  1.00  0.00     0.011 A 
ATOM     20  C   UNL A   1      36.251  22.974  23.705  1.00  0.00     0.011 A 
BRANCH  16  21
ATOM     21  C   UNL A   1      33.068  24.745  22.786  1.00  0.00     0.260 C 
ATOM     22  O   UNL A   1      32.066  24.048  22.680  1.00  0.00    -0.298 OA
ENDBRANCH  16  21
ENDBRANCH  10  15
ENDBRANCH   7   9
ENDBRANCH   6   7
ENDBRANCH   5   6
ENDBRANCH   4   5
ENDBRANCH   3   4
ENDBRANCH   2   3
ENDBRANCH   1   2
BRANCH   1  23
ATOM     23  O   UNL A   1      44.240  22.314  23.772  1.00  0.00    -0.376 OA
BRANCH  23  24
ATOM     24  C   UNL A   1      43.416  23.126  24.593  1.00  0.00     0.202 C 
BRANCH  24  25
ATOM     25  C   UNL A   1      43.954  24.212  25.543  1.00  0.00     0.261 C 
BRANCH  25  26
ATOM     26  O   UNL A   1      43.007  24.868  26.392  1.00  0.00    -0.460 OA
BRANCH  26  27
ATOM     27  C   UNL A   1      42.601  26.093  25.978  1.00  0.00     0.338 C 
ATOM     28  O   UNL A   1      42.495  26.487  24.825  1.00  0.00    -0.246 OA
BRANCH  27  29
ATOM     29  C   UNL A   1      42.131  26.855  27.146  1.00  0.00     0.060 A 
ATOM     30  C   UNL A   1      42.679  28.119  27.412  1.00  0.00     0.016 A 
ATOM     31  C   UNL A   1      41.167  26.306  27.988  1.00  0.00     0.016 A 
ATOM     32  C   UNL A   1      42.258  28.843  28.528  1.00  0.00     0.010 A 
ATOM     33  C   UNL A   1      40.769  27.018  29.120  1.00  0.00     0.010 A 
ATOM     34  C   UNL A   1      41.326  28.280  29.405  1.00  0.00    -0.014 A 
BRANCH  34  35
ATOM     35  C   UNL A   1      41.037  28.903  30.718  1.00  0.00     0.031 A 
ATOM     36  C   UNL A   1      39.911  29.894  30.798  1.00  0.00     0.074 A 
ATOM     37  C   UNL A   1      41.798  28.645  31.796  1.00  0.00     0.049 A 
ATOM     38  N   UNL A   1      39.591  30.712  31.764  1.00  0.00    -0.248 NA
ATOM     39  C   UNL A   1      39.035  29.980  29.617  1.00  0.00     0.031 C 
ATOM     40  C   UNL A   1      42.882  27.666  31.853  1.00  0.00     0.029 A 
ATOM     41  N   UNL A   1      41.791  29.215  33.045  1.00  0.00    -0.354 N 
ATOM     42  C   UNL A   1      38.495  31.430  31.302  1.00  0.00     0.074 A 
ATOM     43  C   UNL A   1      38.215  30.962  29.962  1.00  0.00     0.031 C 
ATOM     44  C   UNL A   1      43.459  27.727  33.066  1.00  0.00     0.029 A 
ATOM     45  C   UNL A   1      42.818  28.783  33.851  1.00  0.00     0.049 A 
ATOM     46  H   UNL A   1      41.115  29.869  33.337  1.00  0.00     0.167 HD
ATOM     47  C   UNL A   1      37.791  32.394  31.939  1.00  0.00     0.037 A 
ATOM     48  C   UNL A   1      43.221  29.221  35.061  1.00  0.00     0.037 A 
ATOM     49  C   UNL A   1      38.086  32.852  33.271  1.00  0.00     0.049 A 
ATOM     50  C   UNL A   1      42.472  30.354  35.722  1.00  0.00     0.074 A 
ATOM     51  C   UNL A   1      37.424  33.812  34.015  1.00  0.00     0.029 A 
ATOM     52  N   UNL A   1      39.136  32.392  34.053  1.00  0.00    -0.354 N 
ATOM     53  N   UNL A   1      41.429  31.019  35.284  1.00  0.00    -0.248 NA
ATOM     54  C   UNL A   1      42.957  30.800  37.036  1.00  0.00     0.031 C 
ATOM     55  C   UNL A   1      38.109  33.975  35.222  1.00  0.00     0.029 A 
ATOM     56  C   UNL A   1      39.156  33.069  35.261  1.00  0.00     0.049 A 
ATOM     57  H   UNL A   1      39.772  31.689  33.788  1.00  0.00     0.167 HD
ATOM     58  C   UNL A   1      41.109  31.932  36.287  1.00  0.00     0.074 A 
ATOM     59  C   UNL A   1      42.071  31.736  37.350  1.00  0.00     0.031 C 
ATOM     60  C   UNL A   1      40.105  32.843  36.324  1.00  0.00     0.037 A 
BRANCH  47  61
ATOM     61  C   UNL A   1      36.658  33.042  31.193  1.00  0.00     0.058 A 
ATOM     62  C   UNL A   1      35.315  32.761  31.490  1.00  0.00     0.135 A 
ATOM     63  C   UNL A   1      36.922  33.986  30.186  1.00  0.00     0.135 A 
ATOM     64  F   UNL A   1      35.006  31.854  32.429  1.00  0.00    -0.206 F 
ATOM     65  C   UNL A   1      34.275  33.374  30.801  1.00  0.00     0.059 A 
ATOM     66  C   UNL A   1      35.897  34.634  29.504  1.00  0.00     0.059 A 
ATOM     67  F   UNL A   1      38.188  34.288  29.856  1.00  0.00    -0.206 F 
ATOM     68  C   UNL A   1      34.576  34.311  29.810  1.00  0.00     0.060 A 
BRANCH  68  69
ATOM     69  S   UNL A   1      33.213  35.103  28.931  1.00  0.00     0.124 S 
ATOM     70  O   UNL A   1      32.791  34.036  28.028  1.00  0.00    -0.237 OA
ATOM     71  O   UNL A   1      32.287  35.418  30.014  1.00  0.00    -0.237 OA
ATOM     72  O   UNL A   1      33.841  36.254  28.291  1.00  0.00    -0.744 OA
ENDBRANCH  68  69
ENDBRANCH  47  61
BRANCH  48  73
ATOM     73  C   UNL A   1      44.406  28.608  35.721  1.00  0.00     0.058 A 
ATOM     74  C   UNL A   1      44.265  27.526  36.601  1.00  0.00     0.135 A 
ATOM     75  C   UNL A   1      45.704  29.093  35.489  1.00  0.00     0.135 A 
ATOM     76  F   UNL A   1      43.046  27.034  36.869  1.00  0.00    -0.206 F 
ATOM     77  C   UNL A   1      45.361  26.954  37.238  1.00  0.00     0.059 A 
ATOM     78  C   UNL A   1      46.820  28.520  36.092  1.00  0.00     0.059 A 
ATOM     79  F   UNL A   1      45.898  30.123  34.651  1.00  0.00    -0.206 F 
ATOM     80  C   UNL A   1      46.638  27.456  36.974  1.00  0.00     0.060 A 
BRANCH  80  81
ATOM     81  S   UNL A   1      48.057  26.676  37.773  1.00  0.00     0.124 S 
ATOM     82  O   UNL A   1      47.702  25.264  37.691  1.00  0.00    -0.237 OA
ATOM     83  O   UNL A   1      49.161  27.106  36.921  1.00  0.00    -0.237 OA
ATOM     84  O   UNL A   1      48.047  27.253  39.114  1.00  0.00    -0.744 OA
ENDBRANCH  80  81
ENDBRANCH  48  73
BRANCH  60  85
ATOM     85  C   UNL A   1      39.939  33.666  37.573  1.00  0.00     0.058 A 
ATOM     86  C   UNL A   1      40.569  34.908  37.736  1.00  0.00     0.135 A 
ATOM     87  C   UNL A   1      39.044  33.249  38.574  1.00  0.00     0.135 A 
ATOM     88  F   UNL A   1      41.438  35.352  36.814  1.00  0.00    -0.206 F 
ATOM     89  C   UNL A   1      40.318  35.710  38.847  1.00  0.00     0.059 A 
ATOM     90  C   UNL A   1      38.757  34.046  39.677  1.00  0.00     0.059 A 
ATOM     91  F   UNL A   1      38.408  32.072  38.464  1.00  0.00    -0.206 F 
ATOM     92  C   UNL A   1      39.400  35.275  39.806  1.00  0.00     0.060 A 
BRANCH  92  93
ATOM     93  S   UNL A   1      39.023  36.360  41.199  1.00  0.00     0.124 S 
ATOM     94  O   UNL A   1      40.288  36.359  41.926  1.00  0.00    -0.237 OA
ATOM     95  O   UNL A   1      38.677  37.612  40.532  1.00  0.00    -0.237 OA
ATOM     96  O   UNL A   1      37.915  35.686  41.868  1.00  0.00    -0.744 OA
ENDBRANCH  92  93
ENDBRANCH  60  85
ENDBRANCH  34  35
ENDBRANCH  27  29
ENDBRANCH  26  27
ENDBRANCH  25  26
ENDBRANCH  24  25
ENDBRANCH  23  24
ENDBRANCH   1  23
TORSDOF 22
ENDMDL
MODEL 2
REMARK VINA RESULT:     -10.1      4.961     12.016
REMARK SMILES O=Cc1ccc(-c2ccc(C(=O)OCCOCCOCCOC(=O)c3ccc(-c4c5nc(c(-c6c(F)cc(S(=O)(=O)[O-])cc6F)c6ccc([nH]6)c(-c6c(F)cc(S(=O)(=O)[O-])cc6F)c6nc(c(-c7c(F)cc(S(=O)(=O)[O-])cc7F)c7ccc4[nH]7)C=C6)C=C5)cc3)cn2)cc1
REMARK SMILES IDX 18 1 17 2 16 3 15 4 14 5 13 6 11 7 12 8 10 9 7 10 8 11 92 12
REMARK SMILES IDX 9 13 91 14 6 15 3 16 4 17 94 18 5 19 93 20 2 21 1 22 19 23
REMARK SMILES IDX 20 24 21 25 22 26 23 27 24 28 25 29 26 30 90 31 27 32 89 33
REMARK SMILES IDX 28 34 29 35 30 36 83 37 31 38 88 39 82 40 84 41 32 42 87 43
REMARK SMILES IDX 81 44 80 45 33 47 67 48 46 49 66 50 47 51 50 52 65 53 85 54
REMARK SMILES IDX 48 55 49 56 64 58 86 59 51 60 34 61 35 62 44 63 36 64 37 65
REMARK SMILES IDX 43 66 45 67 38 68 39 69 40 70 41 71 42 72 68 73 69 74 78 75
REMARK SMILES IDX 70 76 71 77 77 78 79 79 72 80 73 81 74 82 75 83 76 84 52 85
REMARK SMILES IDX 53 86 62 87 54 88 55 89 61 90 63 91 56 92 57 93 58 94 59 95
REMARK SMILES IDX 60 96
REMARK H PARENT 84 46 50 57
REMARK Flexibility Score: inf
ROOT
ATOM      1  C   UNL A   1      34.701  35.016  31.870  1.00  0.00     0.188 C 
ENDROOT
BRANCH   1   2
ATOM      2  C   UNL A   1      34.476  33.911  32.922  1.00  0.00     0.188 C 
BRANCH   2   3
ATOM      3  O   UNL A   1      34.803  34.203  34.261  1.00  0.00    -0.376 OA
BRANCH   3   4
ATOM      4  C   UNL A   1      36.070  33.868  34.798  1.00  0.00     0.202 C 
BRANCH   4   5
ATOM      5  C   UNL A   1      37.387  33.760  34.009  1.00  0.00     0.261 C 
BRANCH   5   6
ATOM      6  O   UNL A   1      38.248  32.658  34.306  1.00  0.00    -0.460 OA
BRANCH   6   7
ATOM      7  C   UNL A   1      37.908  31.489  33.707  1.00  0.00     0.339 C 
ATOM      8  O   UNL A   1      36.817  31.188  33.256  1.00  0.00    -0.246 OA
BRANCH   7   9
ATOM      9  C   UNL A   1      39.101  30.652  33.514  1.00  0.00     0.078 A 
ATOM     10  C   UNL A   1      41.173  28.878  33.223  1.00  0.00     0.070 A 
ATOM     11  C   UNL A   1      41.444  30.172  33.676  1.00  0.00     0.030 A 
ATOM     12  N   UNL A   1      39.936  28.489  32.834  1.00  0.00    -0.255 NA
ATOM     13  C   UNL A   1      40.392  31.077  33.818  1.00  0.00     0.019 A 
ATOM     14  C   UNL A   1      38.926  29.374  33.003  1.00  0.00     0.127 A 
BRANCH  10  15
ATOM     15  C   UNL A   1      42.146  27.793  33.372  1.00  0.00     0.000 A 
ATOM     16  C   UNL A   1      44.139  25.826  33.598  1.00  0.00     0.014 A 
ATOM     17  C   UNL A   1      43.242  26.032  34.650  1.00  0.00     0.012 A 
ATOM     18  C   UNL A   1      44.054  26.592  32.437  1.00  0.00     0.012 A 
ATOM     19  C   UNL A   1      42.254  27.021  34.539  1.00  0.00     0.011 A 
ATOM     20  C   UNL A   1      43.061  27.564  32.328  1.00  0.00     0.011 A 
BRANCH  16  21
ATOM     21  C   UNL A   1      45.193  24.799  33.714  1.00  0.00     0.260 C 
ATOM     22  O   UNL A   1      44.940  23.600  33.689  1.00  0.00    -0.298 OA
ENDBRANCH  16  21
ENDBRANCH  10  15
ENDBRANCH   7   9
ENDBRANCH   6   7
ENDBRANCH   5   6
ENDBRANCH   4   5
ENDBRANCH   3   4
ENDBRANCH   2   3
ENDBRANCH   1   2
BRANCH   1  23
ATOM     23  O   UNL A   1      34.488  34.751  30.498  1.00  0.00    -0.376 OA
BRANCH  23  24
ATOM     24  C   UNL A   1      34.415  33.408  30.046  1.00  0.00     0.202 C 
BRANCH  24  25
ATOM     25  C   UNL A   1      33.957  33.001  28.633  1.00  0.00     0.261 C 
BRANCH  25  26
ATOM     26  O   UNL A   1      34.857  32.207  27.856  1.00  0.00    -0.460 OA
BRANCH  26  27
ATOM     27  C   UNL A   1      34.678  30.866  27.943  1.00  0.00     0.338 C 
ATOM     28  O   UNL A   1      33.654  30.240  27.707  1.00  0.00    -0.246 OA
BRANCH  27  29
ATOM     29  C   UNL A   1      35.978  30.231  28.210  1.00  0.00     0.060 A 
ATOM     30  C   UNL A   1      36.277  29.787  29.507  1.00  0.00     0.016 A 
ATOM     31  C   UNL A   1      36.909  30.099  27.181  1.00  0.00     0.016 A 
ATOM     32  C   UNL A   1      37.515  29.202  29.778  1.00  0.00     0.010 A 
ATOM     33  C   UNL A   1      38.157  29.542  27.461  1.00  0.00     0.010 A 
ATOM     34  C   UNL A   1      38.472  29.109  28.763  1.00  0.00    -0.014 A 
BRANCH  34  35
ATOM     35  C   UNL A   1      39.871  28.724  29.064  1.00  0.00     0.031 A 
ATOM     36  C   UNL A   1      40.800  29.784  29.581  1.00  0.00     0.074 A 
ATOM     37  C   UNL A   1      40.322  27.481  28.820  1.00  0.00     0.049 A 
ATOM     38  N   UNL A   1      42.097  29.754  29.727  1.00  0.00    -0.248 NA
ATOM     39  C   UNL A   1      40.177  31.060  29.975  1.00  0.00     0.031 C 
ATOM     40  C   UNL A   1      39.503  26.357  28.368  1.00  0.00     0.029 A 
ATOM     41  N   UNL A   1      41.593  26.967  28.889  1.00  0.00    -0.354 N 
ATOM     42  C   UNL A   1      42.452  31.010  30.204  1.00  0.00     0.074 A 
ATOM     43  C   UNL A   1      41.235  31.785  30.307  1.00  0.00     0.031 C 
ATOM     44  C   UNL A   1      40.300  25.293  28.168  1.00  0.00     0.029 A 
ATOM     45  C   UNL A   1      41.688  25.675  28.429  1.00  0.00     0.049 A 
ATOM     46  H   UNL A   1      42.363  27.474  29.236  1.00  0.00     0.167 HD
ATOM     47  C   UNL A   1      43.684  31.472  30.523  1.00  0.00     0.037 A 
ATOM     48  C   UNL A   1      42.774  24.908  28.202  1.00  0.00     0.037 A 
ATOM     49  C   UNL A   1      44.887  30.689  30.409  1.00  0.00     0.049 A 
ATOM     50  C   UNL A   1      44.146  25.470  28.486  1.00  0.00     0.074 A 
ATOM     51  C   UNL A   1      46.183  31.057  30.721  1.00  0.00     0.029 A 
ATOM     52  N   UNL A   1      44.942  29.386  29.935  1.00  0.00    -0.354 N 
ATOM     53  N   UNL A   1      44.473  26.654  28.948  1.00  0.00    -0.248 NA
ATOM     54  C   UNL A   1      45.297  24.596  28.213  1.00  0.00     0.031 C 
ATOM     55  C   UNL A   1      47.029  29.998  30.381  1.00  0.00     0.029 A 
ATOM     56  C   UNL A   1      46.254  28.945  29.923  1.00  0.00     0.049 A 
ATOM     57  H   UNL A   1      44.164  28.854  29.652  1.00  0.00     0.167 HD
ATOM     58  C   UNL A   1      45.862  26.651  29.060  1.00  0.00     0.074 A 
ATOM     59  C   UNL A   1      46.313  25.350  28.614  1.00  0.00     0.031 C 
ATOM     60  C   UNL A   1      46.686  27.634  29.500  1.00  0.00     0.037 A 
BRANCH  47  61
ATOM     61  C   UNL A   1      43.797  32.897  30.988  1.00  0.00     0.058 A 
ATOM     62  C   UNL A   1      43.853  33.231  32.350  1.00  0.00     0.135 A 
ATOM     63  C   UNL A   1      43.887  33.942  30.053  1.00  0.00     0.135 A 
ATOM     64  F   UNL A   1      43.753  32.275  33.286  1.00  0.00    -0.206 F 
ATOM     65  C   UNL A   1      43.969  34.552  32.770  1.00  0.00     0.059 A 
ATOM     66  C   UNL A   1      44.034  35.268  30.450  1.00  0.00     0.059 A 
ATOM     67  F   UNL A   1      43.833  33.680  28.737  1.00  0.00    -0.206 F 
ATOM     68  C   UNL A   1      44.061  35.563  31.811  1.00  0.00     0.060 A 
BRANCH  68  69
ATOM     69  S   UNL A   1      44.219  37.271  32.375  1.00  0.00     0.124 S 
ATOM     70  O   UNL A   1      45.536  37.248  33.005  1.00  0.00    -0.237 OA
ATOM     71  O   UNL A   1      44.127  38.020  31.127  1.00  0.00    -0.237 OA
ATOM     72  O   UNL A   1      43.091  37.435  33.286  1.00  0.00    -0.744 OA
ENDBRANCH  68  69
ENDBRANCH  47  61
BRANCH  48  73
ATOM     73  C   UNL A   1      42.616  23.533  27.653  1.00  0.00     0.058 A 
ATOM     74  C   UNL A   1      42.565  22.417  28.500  1.00  0.00     0.135 A 
ATOM     75  C   UNL A   1      42.515  23.305  26.270  1.00  0.00     0.135 A 
ATOM     76  F   UNL A   1      42.672  22.579  29.828  1.00  0.00    -0.206 F 
ATOM     77  C   UNL A   1      42.435  21.126  28.001  1.00  0.00     0.059 A 
ATOM     78  C   UNL A   1      42.355  22.025  25.748  1.00  0.00     0.059 A 
ATOM     79  F   UNL A   1      42.551  24.338  25.414  1.00  0.00    -0.206 F 
ATOM     80  C   UNL A   1      42.326  20.939  26.621  1.00  0.00     0.060 A 
BRANCH  80  81
ATOM     81  S   UNL A   1      42.113  19.262  25.988  1.00  0.00     0.124 S 
ATOM     82  O   UNL A   1      42.963  19.284  24.803  1.00  0.00    -0.237 OA
ATOM     83  O   UNL A   1      42.595  18.452  27.103  1.00  0.00    -0.237 OA
ATOM     84  O   UNL A   1      40.678  19.177  25.736  1.00  0.00    -0.744 OA
ENDBRANCH  80  81
ENDBRANCH  48  73
BRANCH  60  85
ATOM     85  C   UNL A   1      48.160  27.340  29.588  1.00  0.00     0.058 A 
ATOM     86  C   UNL A   1      49.036  27.600  28.524  1.00  0.00     0.135 A 
ATOM     87  C   UNL A   1      48.715  26.895  30.800  1.00  0.00     0.135 A 
ATOM     88  F   UNL A   1      48.558  28.020  27.341  1.00  0.00    -0.206 F 
ATOM     89  C   UNL A   1      50.411  27.428  28.657  1.00  0.00     0.059 A 
ATOM     90  C   UNL A   1      50.088  26.744  30.964  1.00  0.00     0.059 A 
ATOM     91  F   UNL A   1      47.923  26.639  31.853  1.00  0.00    -0.206 F 
ATOM     92  C   UNL A   1      50.929  27.012  29.886  1.00  0.00     0.060 A 
BRANCH  92  93
ATOM     93  S   UNL A   1      52.720  26.873  30.069  1.00  0.00     0.124 S 
ATOM     94  O   UNL A   1      53.087  28.238  30.427  1.00  0.00    -0.237 OA
ATOM     95  O   UNL A   1      52.847  25.882  31.133  1.00  0.00    -0.237 OA
ATOM     96  O   UNL A   1      53.165  26.429  28.751  1.00  0.00    -0.744 OA
ENDBRANCH  92  93
ENDBRANCH  60  85
ENDBRANCH  34  35
ENDBRANCH  27  29
ENDBRANCH  26  27
ENDBRANCH  25  26
ENDBRANCH  24  25
ENDBRANCH  23  24
ENDBRANCH   1  23
TORSDOF 22
ENDMDL
MODEL 3
REMARK VINA RESULT:      -9.5      6.274     13.109
REMARK SMILES O=Cc1ccc(-c2ccc(C(=O)OCCOCCOCCOC(=O)c3ccc(-c4c5nc(c(-c6c(F)cc(S(=O)(=O)[O-])cc6F)c6ccc([nH]6)c(-c6c(F)cc(S(=O)(=O)[O-])cc6F)c6nc(c(-c7c(F)cc(S(=O)(=O)[O-])cc7F)c7ccc4[nH]7)C=C6)C=C5)cc3)cn2)cc1
REMARK SMILES IDX 18 1 17 2 16 3 15 4 14 5 13 6 11 7 12 8 10 9 7 10 8 11 92 12
REMARK SMILES IDX 9 13 91 14 6 15 3 16 4 17 94 18 5 19 93 20 2 21 1 22 19 23
REMARK SMILES IDX 20 24 21 25 22 26 23 27 24 28 25 29 26 30 90 31 27 32 89 33
REMARK SMILES IDX 28 34 29 35 30 36 83 37 31 38 88 39 82 40 84 41 32 42 87 43
REMARK SMILES IDX 81 44 80 45 33 47 67 48 46 49 66 50 47 51 50 52 65 53 85 54
REMARK SMILES IDX 48 55 49 56 64 58 86 59 51 60 34 61 35 62 44 63 36 64 37 65
REMARK SMILES IDX 43 66 45 67 38 68 39 69 40 70 41 71 42 72 68 73 69 74 78 75
REMARK SMILES IDX 70 76 71 77 77 78 79 79 72 80 73 81 74 82 75 83 76 84 52 85
REMARK SMILES IDX 53 86 62 87 54 88 55 89 61 90 63 91 56 92 57 93 58 94 59 95
REMARK SMILES IDX 60 96
REMARK H PARENT 84 46 50 57
REMARK Flexibility Score: inf
ROOT
ATOM      1  C   UNL A   1      34.362  35.737  32.530  1.00  0.00     0.188 C 
ENDROOT
BRANCH   1   2
ATOM      2  C   UNL A   1      33.071  36.010  31.730  1.00  0.00     0.188 C 
BRANCH   2   3
ATOM      3  O   UNL A   1      33.200  36.620  30.467  1.00  0.00    -0.376 OA
BRANCH   3   4
ATOM      4  C   UNL A   1      33.322  35.846  29.286  1.00  0.00     0.202 C 
BRANCH   4   5
ATOM      5  C   UNL A   1      33.573  34.328  29.222  1.00  0.00     0.261 C 
BRANCH   5   6
ATOM      6  O   UNL A   1      33.886  33.763  27.947  1.00  0.00    -0.460 OA
BRANCH   6   7
ATOM      7  C   UNL A   1      34.818  32.778  27.972  1.00  0.00     0.339 C 
ATOM      8  O   UNL A   1      35.987  32.884  28.299  1.00  0.00    -0.246 OA
BRANCH   7   9
ATOM      9  C   UNL A   1      34.190  31.477  27.699  1.00  0.00     0.078 A 
ATOM     10  C   UNL A   1      33.261  28.966  27.104  1.00  0.00     0.070 A 
ATOM     11  C   UNL A   1      32.411  30.063  26.934  1.00  0.00     0.030 A 
ATOM     12  N   UNL A   1      34.499  29.081  27.638  1.00  0.00    -0.255 NA
ATOM     13  C   UNL A   1      32.880  31.340  27.243  1.00  0.00     0.019 A 
ATOM     14  C   UNL A   1      34.944  30.331  27.907  1.00  0.00     0.127 A 
BRANCH  10  15
ATOM     15  C   UNL A   1      32.968  27.667  26.493  1.00  0.00     0.000 A 
ATOM     16  C   UNL A   1      32.571  25.120  25.375  1.00  0.00     0.014 A 
ATOM     17  C   UNL A   1      31.572  25.697  26.164  1.00  0.00     0.012 A 
ATOM     18  C   UNL A   1      33.766  25.798  25.141  1.00  0.00     0.012 A 
ATOM     19  C   UNL A   1      31.776  26.965  26.729  1.00  0.00     0.011 A 
ATOM     20  C   UNL A   1      33.957  27.062  25.694  1.00  0.00     0.011 A 
BRANCH  16  21
ATOM     21  C   UNL A   1      32.370  23.779  24.791  1.00  0.00     0.260 C 
ATOM     22  O   UNL A   1      33.311  23.055  24.485  1.00  0.00    -0.298 OA
ENDBRANCH  16  21
ENDBRANCH  10  15
ENDBRANCH   7   9
ENDBRANCH   6   7
ENDBRANCH   5   6
ENDBRANCH   4   5
ENDBRANCH   3   4
ENDBRANCH   2   3
ENDBRANCH   1   2
BRANCH   1  23
ATOM     23  O   UNL A   1      34.796  34.411  32.755  1.00  0.00    -0.376 OA
BRANCH  23  24
ATOM     24  C   UNL A   1      35.254  33.628  31.665  1.00  0.00     0.202 C 
BRANCH  24  25
ATOM     25  C   UNL A   1      35.522  32.114  31.748  1.00  0.00     0.261 C 
BRANCH  25  26
ATOM     26  O   UNL A   1      36.888  31.689  31.741  1.00  0.00    -0.460 OA
BRANCH  26  27
ATOM     27  C   UNL A   1      37.096  30.395  31.396  1.00  0.00     0.338 C 
ATOM     28  O   UNL A   1      36.290  29.476  31.448  1.00  0.00    -0.246 OA
BRANCH  27  29
ATOM     29  C   UNL A   1      38.424  30.278  30.772  1.00  0.00     0.060 A 
ATOM     30  C   UNL A   1      38.609  30.726  29.455  1.00  0.00     0.016 A 
ATOM     31  C   UNL A   1      39.476  29.705  31.483  1.00  0.00     0.016 A 
ATOM     32  C   UNL A   1      39.858  30.603  28.844  1.00  0.00     0.010 A 
ATOM     33  C   UNL A   1      40.715  29.555  30.860  1.00  0.00     0.010 A 
ATOM     34  C   UNL A   1      40.906  29.985  29.533  1.00  0.00    -0.014 A 
BRANCH  34  35
ATOM     35  C   UNL A   1      42.164  29.616  28.842  1.00  0.00     0.031 A 
ATOM     36  C   UNL A   1      42.327  28.195  28.382  1.00  0.00     0.074 A 
ATOM     37  C   UNL A   1      43.162  30.503  28.686  1.00  0.00     0.049 A 
ATOM     38  N   UNL A   1      43.392  27.581  27.942  1.00  0.00    -0.248 NA
ATOM     39  C   UNL A   1      41.123  27.349  28.442  1.00  0.00     0.031 C 
ATOM     40  C   UNL A   1      43.100  31.919  29.044  1.00  0.00     0.029 A 
ATOM     41  N   UNL A   1      44.440  30.330  28.214  1.00  0.00    -0.354 N 
ATOM     42  C   UNL A   1      42.997  26.272  27.696  1.00  0.00     0.074 A 
ATOM     43  C   UNL A   1      41.598  26.176  28.052  1.00  0.00     0.031 C 
ATOM     44  C   UNL A   1      44.300  32.479  28.809  1.00  0.00     0.029 A 
ATOM     45  C   UNL A   1      45.226  31.451  28.333  1.00  0.00     0.049 A 
ATOM     46  H   UNL A   1      44.762  29.484  27.826  1.00  0.00     0.167 HD
ATOM     47  C   UNL A   1      43.739  25.245  27.219  1.00  0.00     0.037 A 
ATOM     48  C   UNL A   1      46.548  31.615  28.126  1.00  0.00     0.037 A 
ATOM     49  C   UNL A   1      45.132  25.356  26.874  1.00  0.00     0.049 A 
ATOM     50  C   UNL A   1      47.376  30.437  27.672  1.00  0.00     0.074 A 
ATOM     51  C   UNL A   1      45.971  24.380  26.367  1.00  0.00     0.029 A 
ATOM     52  N   UNL A   1      45.893  26.508  27.012  1.00  0.00    -0.354 N 
ATOM     53  N   UNL A   1      46.993  29.205  27.430  1.00  0.00    -0.248 NA
ATOM     54  C   UNL A   1      48.813  30.666  27.469  1.00  0.00     0.031 C 
ATOM     55  C   UNL A   1      47.252  24.925  26.255  1.00  0.00     0.029 A 
ATOM     56  C   UNL A   1      47.198  26.259  26.625  1.00  0.00     0.049 A 
ATOM     57  H   UNL A   1      45.554  27.374  27.336  1.00  0.00     0.167 HD
ATOM     58  C   UNL A   1      48.134  28.526  27.007  1.00  0.00     0.074 A 
ATOM     59  C   UNL A   1      49.220  29.482  27.030  1.00  0.00     0.031 C 
ATOM     60  C   UNL A   1      48.265  27.231  26.627  1.00  0.00     0.037 A 
BRANCH  47  61
ATOM     61  C   UNL A   1      43.069  23.906  27.078  1.00  0.00     0.058 A 
ATOM     62  C   UNL A   1      42.869  23.057  28.177  1.00  0.00     0.135 A 
ATOM     63  C   UNL A   1      42.589  23.482  25.827  1.00  0.00     0.135 A 
ATOM     64  F   UNL A   1      43.324  23.403  29.391  1.00  0.00    -0.206 F 
ATOM     65  C   UNL A   1      42.239  21.824  28.038  1.00  0.00     0.059 A 
ATOM     66  C   UNL A   1      41.930  22.268  25.670  1.00  0.00     0.059 A 
ATOM     67  F   UNL A   1      42.759  24.253  24.740  1.00  0.00    -0.206 F 
ATOM     68  C   UNL A   1      41.771  21.440  26.779  1.00  0.00     0.060 A 
BRANCH  68  69
ATOM     69  S   UNL A   1      40.949  19.841  26.620  1.00  0.00     0.124 S 
ATOM     70  O   UNL A   1      39.719  20.215  25.926  1.00  0.00    -0.237 OA
ATOM     71  O   UNL A   1      41.910  19.074  25.835  1.00  0.00    -0.237 OA
ATOM     72  O   UNL A   1      40.780  19.404  28.002  1.00  0.00    -0.744 OA
ENDBRANCH  68  69
ENDBRANCH  47  61
BRANCH  48  73
ATOM     73  C   UNL A   1      47.183  32.940  28.368  1.00  0.00     0.058 A 
ATOM     74  C   UNL A   1      47.305  33.883  27.338  1.00  0.00     0.135 A 
ATOM     75  C   UNL A   1      47.685  33.290  29.633  1.00  0.00     0.135 A 
ATOM     76  F   UNL A   1      46.856  33.593  26.107  1.00  0.00    -0.206 F 
ATOM     77  C   UNL A   1      47.912  35.117  27.545  1.00  0.00     0.059 A 
ATOM     78  C   UNL A   1      48.270  34.530  29.872  1.00  0.00     0.059 A 
ATOM     79  F   UNL A   1      47.589  32.428  30.657  1.00  0.00    -0.206 F 
ATOM     80  C   UNL A   1      48.388  35.434  28.819  1.00  0.00     0.060 A 
BRANCH  80  81
ATOM     81  S   UNL A   1      49.133  37.057  29.085  1.00  0.00     0.124 S 
ATOM     82  O   UNL A   1      49.117  37.154  30.540  1.00  0.00    -0.237 OA
ATOM     83  O   UNL A   1      50.447  36.893  28.471  1.00  0.00    -0.237 OA
ATOM     84  O   UNL A   1      48.229  37.962  28.382  1.00  0.00    -0.744 OA
ENDBRANCH  80  81
ENDBRANCH  48  73
BRANCH  60  85
ATOM     85  C   UNL A   1      49.613  26.766  26.141  1.00  0.00     0.058 A 
ATOM     86  C   UNL A   1      49.995  26.868  24.796  1.00  0.00     0.135 A 
ATOM     87  C   UNL A   1      50.573  26.315  27.063  1.00  0.00     0.135 A 
ATOM     88  F   UNL A   1      49.115  27.286  23.872  1.00  0.00    -0.206 F 
ATOM     89  C   UNL A   1      51.282  26.539  24.380  1.00  0.00     0.059 A 
ATOM     90  C   UNL A   1      51.873  26.009  26.675  1.00  0.00     0.059 A 
ATOM     91  F   UNL A   1      50.262  26.206  28.365  1.00  0.00    -0.206 F 
ATOM     92  C   UNL A   1      52.218  26.122  25.330  1.00  0.00     0.060 A 
BRANCH  92  93
ATOM     93  S   UNL A   1      53.906  25.778  24.789  1.00  0.00     0.124 S 
ATOM     94  O   UNL A   1      54.686  26.293  25.909  1.00  0.00    -0.237 OA
ATOM     95  O   UNL A   1      53.894  24.326  24.639  1.00  0.00    -0.237 OA
ATOM     96  O   UNL A   1      54.026  26.529  23.543  1.00  0.00    -0.744 OA
ENDBRANCH  92  93
ENDBRANCH  60  85
ENDBRANCH  34  35
ENDBRANCH  27  29
ENDBRANCH  26  27
ENDBRANCH  25  26
ENDBRANCH  24  25
ENDBRANCH  23  24
ENDBRANCH   1  23
TORSDOF 22
ENDMDL
