MODEL 1
REMARK VINA RESULT:      -9.5      0.000      0.000
REMARK SMILES CC[C@H](C)[C@@H](NC(=O)c1csc(NC(C)=O)n1)C(=O)OCCOCCOCCOC(=O)c1ccc(-c2c3nc(c(-c4c(F)cc(S(=O)(=O)[O-])cc4F)c4ccc([nH]4)c(-c4c(F)cc(S(=O)(=O)[O-])cc4F)c4nc(c(-c5c(F)cc(S(=O)(=O)[O-])cc5F)c5ccc2[nH]5)C=C4)C=C3)cc1
REMARK SMILES IDX 24 1 23 2 22 3 21 4 20 5 18 6 19 7 5 8 3 9 4 10 2 11 1 12
REMARK SMILES IDX 6 13 7 14 8 16 9 17 10 18 17 19 11 20 12 21 13 22 14 23
REMARK SMILES IDX 15 25 16 26 25 27 26 28 27 29 28 30 29 31 30 32 31 33 32 34
REMARK SMILES IDX 33 35 97 36 34 37 96 38 35 39 36 40 37 41 90 42 38 43 95 44
REMARK SMILES IDX 89 45 91 46 39 47 94 48 88 49 87 50 40 52 74 53 53 54 73 55
REMARK SMILES IDX 54 56 57 57 72 58 92 59 55 60 56 61 71 63 93 64 58 65 41 66
REMARK SMILES IDX 42 67 51 68 43 69 44 70 50 71 52 72 45 73 46 74 47 75 48 76
REMARK SMILES IDX 49 77 75 78 76 79 85 80 77 81 78 82 84 83 86 84 79 85 80 86
REMARK SMILES IDX 81 87 82 88 83 89 59 90 60 91 69 92 61 93 62 94 68 95 70 96
REMARK SMILES IDX 63 97 64 98 65 99 66 100 67 101
REMARK H PARENT 6 15 13 24 91 51 57 62
REMARK Flexibility Score: inf
ROOT
ATOM      1  C   UNL A   1      34.674  31.242  27.669  1.00  0.00     0.188 C 
ENDROOT
BRANCH   1   2
ATOM      2  O   UNL A   1      33.509  30.485  28.009  1.00  0.00    -0.376 OA
BRANCH   2   3
ATOM      3  C   UNL A   1      32.423  30.544  27.114  1.00  0.00     0.202 C 
BRANCH   3   4
ATOM      4  C   UNL A   1      32.719  30.179  25.651  1.00  0.00     0.261 C 
BRANCH   4   5
ATOM      5  O   UNL A   1      32.893  28.827  25.174  1.00  0.00    -0.462 OA
BRANCH   5   6
ATOM      6  C   UNL A   1      33.068  28.495  23.864  1.00  0.00     0.329 C 
ATOM      7  O   UNL A   1      33.761  29.075  23.039  1.00  0.00    -0.250 OA
BRANCH   6   8
ATOM      8  C   UNL A   1      32.270  27.233  23.501  1.00  0.00     0.195 C 
BRANCH   8   9
ATOM      9  C   UNL A   1      30.719  27.553  23.588  1.00  0.00     0.019 C 
ATOM     10  C   UNL A   1      30.143  28.299  22.376  1.00  0.00     0.010 C 
BRANCH   9  11
ATOM     11  C   UNL A   1      29.846  26.315  23.954  1.00  0.00     0.002 C 
ATOM     12  C   UNL A   1      30.337  25.400  25.072  1.00  0.00     0.004 C 
ENDBRANCH   9  11
ENDBRANCH   8   9
BRANCH   8  13
ATOM     13  N   UNL A   1      32.638  26.714  22.162  1.00  0.00    -0.337 N 
ATOM     14  C   UNL A   1      32.900  25.459  21.653  1.00  0.00     0.271 C 
ATOM     15  H   UNL A   1      32.714  27.424  21.485  1.00  0.00     0.164 HD
ATOM     16  O   UNL A   1      32.932  25.373  20.422  1.00  0.00    -0.267 OA
BRANCH  14  17
ATOM     17  C   UNL A   1      33.296  24.319  22.488  1.00  0.00     0.141 A 
ATOM     18  C   UNL A   1      32.419  23.281  22.769  1.00  0.00     0.102 A 
ATOM     19  N   UNL A   1      34.545  24.151  23.072  1.00  0.00    -0.215 NA
ATOM     20  S   UNL A   1      33.197  22.073  23.706  1.00  0.00    -0.104 S 
ATOM     21  C   UNL A   1      34.661  22.937  23.569  1.00  0.00     0.190 A 
BRANCH  21  22
ATOM     22  N   UNL A   1      35.894  22.378  23.821  1.00  0.00    -0.302 N 
ATOM     23  C   UNL A   1      36.549  22.341  25.034  1.00  0.00     0.223 C 
ATOM     24  H   UNL A   1      36.355  21.963  23.057  1.00  0.00     0.172 HD
ATOM     25  C   UNL A   1      37.770  21.446  25.035  1.00  0.00     0.114 C 
ATOM     26  O   UNL A   1      36.198  22.881  26.082  1.00  0.00    -0.275 OA
ENDBRANCH  21  22
ENDBRANCH  14  17
ENDBRANCH   8  13
ENDBRANCH   6   8
ENDBRANCH   5   6
ENDBRANCH   4   5
ENDBRANCH   3   4
ENDBRANCH   2   3
ENDBRANCH   1   2
BRANCH   1  27
ATOM     27  C   UNL A   1      34.755  32.716  28.112  1.00  0.00     0.188 C 
BRANCH  27  28
ATOM     28  O   UNL A   1      34.445  32.899  29.485  1.00  0.00    -0.376 OA
BRANCH  28  29
ATOM     29  C   UNL A   1      35.534  33.191  30.343  1.00  0.00     0.202 C 
BRANCH  29  30
ATOM     30  C   UNL A   1      36.019  32.037  31.235  1.00  0.00     0.261 C 
BRANCH  30  31
ATOM     31  O   UNL A   1      36.185  30.750  30.607  1.00  0.00    -0.460 OA
BRANCH  31  32
ATOM     32  C   UNL A   1      37.000  29.844  31.192  1.00  0.00     0.338 C 
ATOM     33  O   UNL A   1      36.660  28.953  31.953  1.00  0.00    -0.246 OA
BRANCH  32  34
ATOM     34  C   UNL A   1      38.345  29.954  30.569  1.00  0.00     0.060 A 
ATOM     35  C   UNL A   1      38.462  29.868  29.173  1.00  0.00     0.016 A 
ATOM     36  C   UNL A   1      39.488  30.131  31.351  1.00  0.00     0.016 A 
ATOM     37  C   UNL A   1      39.721  29.909  28.561  1.00  0.00     0.010 A 
ATOM     38  C   UNL A   1      40.749  30.144  30.739  1.00  0.00     0.010 A 
ATOM     39  C   UNL A   1      40.877  29.991  29.344  1.00  0.00    -0.014 A 
BRANCH  39  40
ATOM     40  C   UNL A   1      42.208  29.667  28.756  1.00  0.00     0.031 A 
ATOM     41  C   UNL A   1      42.462  28.241  28.336  1.00  0.00     0.074 A 
ATOM     42  C   UNL A   1      43.170  30.591  28.577  1.00  0.00     0.049 A 
ATOM     43  N   UNL A   1      43.566  27.675  27.924  1.00  0.00    -0.248 NA
ATOM     44  C   UNL A   1      41.304  27.332  28.393  1.00  0.00     0.031 C 
ATOM     45  C   UNL A   1      43.044  32.017  28.867  1.00  0.00     0.029 A 
ATOM     46  N   UNL A   1      44.460  30.455  28.117  1.00  0.00    -0.354 N 
ATOM     47  C   UNL A   1      43.242  26.341  27.693  1.00  0.00     0.074 A 
ATOM     48  C   UNL A   1      41.846  26.178  28.034  1.00  0.00     0.031 C 
ATOM     49  C   UNL A   1      44.217  32.621  28.601  1.00  0.00     0.029 A 
ATOM     50  C   UNL A   1      45.191  31.620  28.165  1.00  0.00     0.049 A 
ATOM     51  H   UNL A   1      44.825  29.602  27.785  1.00  0.00     0.167 HD
ATOM     52  C   UNL A   1      44.033  25.342  27.236  1.00  0.00     0.037 A 
ATOM     53  C   UNL A   1      46.501  31.844  27.922  1.00  0.00     0.037 A 
ATOM     54  C   UNL A   1      45.421  25.500  26.893  1.00  0.00     0.049 A 
ATOM     55  C   UNL A   1      47.389  30.697  27.497  1.00  0.00     0.074 A 
ATOM     56  C   UNL A   1      46.307  24.545  26.425  1.00  0.00     0.029 A 
ATOM     57  N   UNL A   1      46.130  26.689  26.985  1.00  0.00    -0.354 N 
ATOM     58  N   UNL A   1      47.077  29.438  27.297  1.00  0.00    -0.248 NA
ATOM     59  C   UNL A   1      48.810  31.003  27.267  1.00  0.00     0.031 C 
ATOM     60  C   UNL A   1      47.563  25.143  26.284  1.00  0.00     0.029 A 
ATOM     61  C   UNL A   1      47.446  26.487  26.604  1.00  0.00     0.049 A 
ATOM     62  H   UNL A   1      45.752  27.550  27.277  1.00  0.00     0.167 HD
ATOM     63  C   UNL A   1      48.253  28.811  26.890  1.00  0.00     0.074 A 
ATOM     64  C   UNL A   1      49.281  29.831  26.863  1.00  0.00     0.031 C 
ATOM     65  C   UNL A   1      48.462  27.510  26.567  1.00  0.00     0.037 A 
BRANCH  52  66
ATOM     66  C   UNL A   1      43.420  23.972  27.115  1.00  0.00     0.058 A 
ATOM     67  C   UNL A   1      42.973  23.464  25.885  1.00  0.00     0.135 A 
ATOM     68  C   UNL A   1      43.294  23.150  28.247  1.00  0.00     0.135 A 
ATOM     69  F   UNL A   1      43.048  24.215  24.775  1.00  0.00    -0.206 F 
ATOM     70  C   UNL A   1      42.395  22.202  25.787  1.00  0.00     0.059 A 
ATOM     71  C   UNL A   1      42.748  21.873  28.167  1.00  0.00     0.059 A 
ATOM     72  F   UNL A   1      43.702  23.587  29.449  1.00  0.00    -0.206 F 
ATOM     73  C   UNL A   1      42.286  21.414  26.934  1.00  0.00     0.060 A 
BRANCH  73  74
ATOM     74  S   UNL A   1      41.529  19.782  26.791  1.00  0.00     0.124 S 
ATOM     75  O   UNL A   1      42.626  18.915  27.208  1.00  0.00    -0.237 OA
ATOM     76  O   UNL A   1      40.408  19.877  27.721  1.00  0.00    -0.237 OA
ATOM     77  O   UNL A   1      41.165  19.698  25.380  1.00  0.00    -0.744 OA
ENDBRANCH  73  74
ENDBRANCH  52  66
BRANCH  53  78
ATOM     78  C   UNL A   1      47.071  33.207  28.109  1.00  0.00     0.058 A 
ATOM     79  C   UNL A   1      47.508  33.650  29.368  1.00  0.00     0.135 A 
ATOM     80  C   UNL A   1      47.176  34.104  27.034  1.00  0.00     0.135 A 
ATOM     81  F   UNL A   1      47.409  32.841  30.434  1.00  0.00    -0.206 F 
ATOM     82  C   UNL A   1      48.016  34.931  29.556  1.00  0.00     0.059 A 
ATOM     83  C   UNL A   1      47.709  35.379  27.190  1.00  0.00     0.059 A 
ATOM     84  F   UNL A   1      46.773  33.733  25.808  1.00  0.00    -0.206 F 
ATOM     85  C   UNL A   1      48.119  35.788  28.458  1.00  0.00     0.060 A 
BRANCH  85  86
ATOM     86  S   UNL A   1      48.835  37.429  28.701  1.00  0.00     0.124 S 
ATOM     87  O   UNL A   1      48.771  37.566  30.152  1.00  0.00    -0.237 OA
ATOM     88  O   UNL A   1      50.169  37.266  28.134  1.00  0.00    -0.237 OA
ATOM     89  O   UNL A   1      47.941  38.300  27.946  1.00  0.00    -0.744 OA
ENDBRANCH  85  86
ENDBRANCH  53  78
BRANCH  65  90
ATOM     90  C   UNL A   1      49.840  27.109  26.108  1.00  0.00     0.058 A 
ATOM     91  C   UNL A   1      50.812  26.631  26.999  1.00  0.00     0.135 A 
ATOM     92  C   UNL A   1      50.169  27.143  24.742  1.00  0.00     0.135 A 
ATOM     93  F   UNL A   1      50.554  26.579  28.316  1.00  0.00    -0.206 F 
ATOM     94  C   UNL A   1      52.068  26.223  26.558  1.00  0.00     0.059 A 
ATOM     95  C   UNL A   1      51.407  26.712  24.274  1.00  0.00     0.059 A 
ATOM     96  F   UNL A   1      49.273  27.579  23.841  1.00  0.00    -0.206 F 
ATOM     97  C   UNL A   1      52.355  26.264  25.191  1.00  0.00     0.060 A 
BRANCH  97  98
ATOM     98  S   UNL A   1      53.975  25.698  24.628  1.00  0.00     0.124 S 
ATOM     99  O   UNL A   1      54.064  26.322  23.312  1.00  0.00    -0.237 OA
ATOM    100  O   UNL A   1      54.867  26.240  25.649  1.00  0.00    -0.237 OA
ATOM    101  O   UNL A   1      53.846  24.244  24.626  1.00  0.00    -0.744 OA
ENDBRANCH  97  98
ENDBRANCH  65  90
ENDBRANCH  39  40
ENDBRANCH  32  34
ENDBRANCH  31  32
ENDBRANCH  30  31
ENDBRANCH  29  30
ENDBRANCH  28  29
ENDBRANCH  27  28
ENDBRANCH   1  27
TORSDOF 25
ENDMDL
MODEL 2
REMARK VINA RESULT:      -9.1      6.589     11.001
REMARK SMILES CC[C@H](C)[C@@H](NC(=O)c1csc(NC(C)=O)n1)C(=O)OCCOCCOCCOC(=O)c1ccc(-c2c3nc(c(-c4c(F)cc(S(=O)(=O)[O-])cc4F)c4ccc([nH]4)c(-c4c(F)cc(S(=O)(=O)[O-])cc4F)c4nc(c(-c5c(F)cc(S(=O)(=O)[O-])cc5F)c5ccc2[nH]5)C=C4)C=C3)cc1
REMARK SMILES IDX 24 1 23 2 22 3 21 4 20 5 18 6 19 7 5 8 3 9 4 10 2 11 1 12
REMARK SMILES IDX 6 13 7 14 8 16 9 17 10 18 17 19 11 20 12 21 13 22 14 23
REMARK SMILES IDX 15 25 16 26 25 27 26 28 27 29 28 30 29 31 30 32 31 33 32 34
REMARK SMILES IDX 33 35 97 36 34 37 96 38 35 39 36 40 37 41 90 42 38 43 95 44
REMARK SMILES IDX 89 45 91 46 39 47 94 48 88 49 87 50 40 52 74 53 53 54 73 55
REMARK SMILES IDX 54 56 57 57 72 58 92 59 55 60 56 61 71 63 93 64 58 65 41 66
REMARK SMILES IDX 42 67 51 68 43 69 44 70 50 71 52 72 45 73 46 74 47 75 48 76
REMARK SMILES IDX 49 77 75 78 76 79 85 80 77 81 78 82 84 83 86 84 79 85 80 86
REMARK SMILES IDX 81 87 82 88 83 89 59 90 60 91 69 92 61 93 62 94 68 95 70 96
REMARK SMILES IDX 63 97 64 98 65 99 66 100 67 101
REMARK H PARENT 6 15 13 24 91 51 57 62
REMARK Flexibility Score: inf
ROOT
ATOM      1  C   UNL A   1      34.443  31.006  27.526  1.00  0.00     0.188 C 
ENDROOT
BRANCH   1   2
ATOM      2  O   UNL A   1      33.567  29.879  27.630  1.00  0.00    -0.376 OA
BRANCH   2   3
ATOM      3  C   UNL A   1      32.348  29.948  26.930  1.00  0.00     0.202 C 
BRANCH   3   4
ATOM      4  C   UNL A   1      32.430  29.854  25.398  1.00  0.00     0.261 C 
BRANCH   4   5
ATOM      5  O   UNL A   1      33.002  28.734  24.687  1.00  0.00    -0.462 OA
BRANCH   5   6
ATOM      6  C   UNL A   1      32.825  28.503  23.356  1.00  0.00     0.329 C 
ATOM      7  O   UNL A   1      33.098  29.256  22.430  1.00  0.00    -0.250 OA
BRANCH   6   8
ATOM      8  C   UNL A   1      32.221  27.111  23.110  1.00  0.00     0.195 C 
BRANCH   8   9
ATOM      9  C   UNL A   1      30.640  27.210  23.171  1.00  0.00     0.019 C 
ATOM     10  C   UNL A   1      30.036  27.065  24.574  1.00  0.00     0.010 C 
BRANCH   9  11
ATOM     11  C   UNL A   1      30.064  28.459  22.437  1.00  0.00     0.002 C 
ATOM     12  C   UNL A   1      28.881  29.180  23.076  1.00  0.00     0.004 C 
ENDBRANCH   9  11
ENDBRANCH   8   9
BRANCH   8  13
ATOM     13  N   UNL A   1      32.676  26.532  21.823  1.00  0.00    -0.337 N 
ATOM     14  C   UNL A   1      32.997  25.260  21.398  1.00  0.00     0.271 C 
ATOM     15  H   UNL A   1      32.770  27.207  21.113  1.00  0.00     0.164 HD
ATOM     16  O   UNL A   1      33.099  25.110  20.178  1.00  0.00    -0.267 OA
BRANCH  14  17
ATOM     17  C   UNL A   1      33.375  24.177  22.314  1.00  0.00     0.141 A 
ATOM     18  C   UNL A   1      32.492  23.158  22.643  1.00  0.00     0.102 A 
ATOM     19  N   UNL A   1      34.610  24.050  22.935  1.00  0.00    -0.215 NA
ATOM     20  S   UNL A   1      33.250  22.015  23.674  1.00  0.00    -0.104 S 
ATOM     21  C   UNL A   1      34.716  22.872  23.512  1.00  0.00     0.190 A 
BRANCH  21  22
ATOM     22  N   UNL A   1      35.944  22.332  23.827  1.00  0.00    -0.302 N 
ATOM     23  C   UNL A   1      36.431  22.077  25.091  1.00  0.00     0.223 C 
ATOM     24  H   UNL A   1      36.534  22.107  23.072  1.00  0.00     0.172 HD
ATOM     25  C   UNL A   1      37.707  21.261  25.095  1.00  0.00     0.114 C 
ATOM     26  O   UNL A   1      35.904  22.371  26.162  1.00  0.00    -0.275 OA
ENDBRANCH  21  22
ENDBRANCH  14  17
ENDBRANCH   8  13
ENDBRANCH   6   8
ENDBRANCH   5   6
ENDBRANCH   4   5
ENDBRANCH   3   4
ENDBRANCH   2   3
ENDBRANCH   1   2
BRANCH   1  27
ATOM     27  C   UNL A   1      33.955  32.374  28.041  1.00  0.00     0.188 C 
BRANCH  27  28
ATOM     28  O   UNL A   1      34.806  33.445  27.660  1.00  0.00    -0.376 OA
BRANCH  28  29
ATOM     29  C   UNL A   1      34.779  34.595  28.488  1.00  0.00     0.202 C 
BRANCH  29  30
ATOM     30  C   UNL A   1      33.479  34.833  29.272  1.00  0.00     0.261 C 
BRANCH  30  31
ATOM     31  O   UNL A   1      33.519  35.819  30.322  1.00  0.00    -0.460 OA
BRANCH  31  32
ATOM     32  C   UNL A   1      33.057  35.481  31.546  1.00  0.00     0.338 C 
ATOM     33  O   UNL A   1      31.892  35.493  31.906  1.00  0.00    -0.246 OA
BRANCH  32  34
ATOM     34  C   UNL A   1      34.169  34.857  32.311  1.00  0.00     0.060 A 
ATOM     35  C   UNL A   1      35.458  35.405  32.215  1.00  0.00     0.016 A 
ATOM     36  C   UNL A   1      33.951  33.734  33.110  1.00  0.00     0.016 A 
ATOM     37  C   UNL A   1      36.537  34.806  32.876  1.00  0.00     0.010 A 
ATOM     38  C   UNL A   1      35.037  33.118  33.749  1.00  0.00     0.010 A 
ATOM     39  C   UNL A   1      36.343  33.625  33.603  1.00  0.00    -0.014 A 
BRANCH  39  40
ATOM     40  C   UNL A   1      37.509  32.784  33.994  1.00  0.00     0.031 A 
ATOM     41  C   UNL A   1      38.210  33.113  35.289  1.00  0.00     0.074 A 
ATOM     42  C   UNL A   1      37.943  31.748  33.252  1.00  0.00     0.049 A 
ATOM     43  N   UNL A   1      39.316  32.626  35.788  1.00  0.00    -0.248 NA
ATOM     44  C   UNL A   1      37.569  34.136  36.132  1.00  0.00     0.031 C 
ATOM     45  C   UNL A   1      37.324  31.269  32.018  1.00  0.00     0.029 A 
ATOM     46  N   UNL A   1      39.028  30.921  33.427  1.00  0.00    -0.354 N 
ATOM     47  C   UNL A   1      39.515  33.297  36.991  1.00  0.00     0.074 A 
ATOM     48  C   UNL A   1      38.428  34.241  37.134  1.00  0.00     0.031 C 
ATOM     49  C   UNL A   1      38.053  30.246  31.535  1.00  0.00     0.029 A 
ATOM     50  C   UNL A   1      39.214  30.026  32.398  1.00  0.00     0.049 A 
ATOM     51  H   UNL A   1      39.616  30.964  34.216  1.00  0.00     0.167 HD
ATOM     52  C   UNL A   1      40.508  33.140  37.898  1.00  0.00     0.037 A 
ATOM     53  C   UNL A   1      40.222  29.159  32.161  1.00  0.00     0.037 A 
ATOM     54  C   UNL A   1      41.589  32.200  37.760  1.00  0.00     0.049 A 
ATOM     55  C   UNL A   1      41.369  29.060  33.141  1.00  0.00     0.074 A 
ATOM     56  C   UNL A   1      42.646  31.972  38.624  1.00  0.00     0.029 A 
ATOM     57  N   UNL A   1      41.757  31.335  36.688  1.00  0.00    -0.354 N 
ATOM     58  N   UNL A   1      41.556  29.710  34.266  1.00  0.00    -0.248 NA
ATOM     59  C   UNL A   1      42.446  28.112  32.815  1.00  0.00     0.031 C 
ATOM     60  C   UNL A   1      43.480  31.006  38.050  1.00  0.00     0.029 A 
ATOM     61  C   UNL A   1      42.910  30.587  36.859  1.00  0.00     0.049 A 
ATOM     62  H   UNL A   1      41.144  31.263  35.920  1.00  0.00     0.167 HD
ATOM     63  C   UNL A   1      42.751  29.227  34.794  1.00  0.00     0.074 A 
ATOM     64  C   UNL A   1      43.240  28.224  33.872  1.00  0.00     0.031 C 
ATOM     65  C   UNL A   1      43.385  29.581  35.941  1.00  0.00     0.037 A 
BRANCH  52  66
ATOM     66  C   UNL A   1      40.492  34.037  39.106  1.00  0.00     0.058 A 
ATOM     67  C   UNL A   1      39.890  33.647  40.313  1.00  0.00     0.135 A 
ATOM     68  C   UNL A   1      41.104  35.300  39.059  1.00  0.00     0.135 A 
ATOM     69  F   UNL A   1      39.270  32.460  40.407  1.00  0.00    -0.206 F 
ATOM     70  C   UNL A   1      39.868  34.489  41.420  1.00  0.00     0.059 A 
ATOM     71  C   UNL A   1      41.122  36.147  40.164  1.00  0.00     0.059 A 
ATOM     72  F   UNL A   1      41.692  35.726  37.930  1.00  0.00    -0.206 F 
ATOM     73  C   UNL A   1      40.486  35.737  41.336  1.00  0.00     0.060 A 
BRANCH  73  74
ATOM     74  S   UNL A   1      40.444  36.820  42.779  1.00  0.00     0.124 S 
ATOM     75  O   UNL A   1      41.601  36.346  43.532  1.00  0.00    -0.237 OA
ATOM     76  O   UNL A   1      40.578  38.144  42.179  1.00  0.00    -0.237 OA
ATOM     77  O   UNL A   1      39.145  36.536  43.381  1.00  0.00    -0.744 OA
ENDBRANCH  73  74
ENDBRANCH  52  66
BRANCH  53  78
ATOM     78  C   UNL A   1      40.220  28.333  30.921  1.00  0.00     0.058 A 
ATOM     79  C   UNL A   1      41.074  28.625  29.847  1.00  0.00     0.135 A 
ATOM     80  C   UNL A   1      39.347  27.242  30.779  1.00  0.00     0.135 A 
ATOM     81  F   UNL A   1      41.911  29.671  29.922  1.00  0.00    -0.206 F 
ATOM     82  C   UNL A   1      41.058  27.874  28.675  1.00  0.00     0.059 A 
ATOM     83  C   UNL A   1      39.333  26.458  29.629  1.00  0.00     0.059 A 
ATOM     84  F   UNL A   1      38.508  26.918  31.774  1.00  0.00    -0.206 F 
ATOM     85  C   UNL A   1      40.187  26.787  28.578  1.00  0.00     0.060 A 
BRANCH  85  86
ATOM     86  S   UNL A   1      40.216  25.784  27.076  1.00  0.00     0.124 S 
ATOM     87  O   UNL A   1      41.176  24.746  27.433  1.00  0.00    -0.237 OA
ATOM     88  O   UNL A   1      38.825  25.358  26.967  1.00  0.00    -0.237 OA
ATOM     89  O   UNL A   1      40.658  26.726  26.052  1.00  0.00    -0.744 OA
ENDBRANCH  85  86
ENDBRANCH  53  78
BRANCH  65  90
ATOM     90  C   UNL A   1      44.654  28.853  36.299  1.00  0.00     0.058 A 
ATOM     91  C   UNL A   1      45.920  29.355  35.962  1.00  0.00     0.135 A 
ATOM     92  C   UNL A   1      44.602  27.667  37.051  1.00  0.00     0.135 A 
ATOM     93  F   UNL A   1      46.030  30.484  35.244  1.00  0.00    -0.206 F 
ATOM     94  C   UNL A   1      47.088  28.696  36.336  1.00  0.00     0.059 A 
ATOM     95  C   UNL A   1      45.757  27.007  37.461  1.00  0.00     0.059 A 
ATOM     96  F   UNL A   1      43.418  27.147  37.412  1.00  0.00    -0.206 F 
ATOM     97  C   UNL A   1      46.996  27.523  37.089  1.00  0.00     0.060 A 
BRANCH  97  98
ATOM     98  S   UNL A   1      48.520  26.697  37.597  1.00  0.00     0.124 S 
ATOM     99  O   UNL A   1      48.833  25.902  36.415  1.00  0.00    -0.237 OA
ATOM    100  O   UNL A   1      49.413  27.823  37.859  1.00  0.00    -0.237 OA
ATOM    101  O   UNL A   1      48.118  25.936  38.776  1.00  0.00    -0.744 OA
ENDBRANCH  97  98
ENDBRANCH  65  90
ENDBRANCH  39  40
ENDBRANCH  32  34
ENDBRANCH  31  32
ENDBRANCH  30  31
ENDBRANCH  29  30
ENDBRANCH  28  29
ENDBRANCH  27  28
ENDBRANCH   1  27
TORSDOF 25
ENDMDL
MODEL 3
REMARK VINA RESULT:      -9.0      6.592     10.938
REMARK SMILES CC[C@H](C)[C@@H](NC(=O)c1csc(NC(C)=O)n1)C(=O)OCCOCCOCCOC(=O)c1ccc(-c2c3nc(c(-c4c(F)cc(S(=O)(=O)[O-])cc4F)c4ccc([nH]4)c(-c4c(F)cc(S(=O)(=O)[O-])cc4F)c4nc(c(-c5c(F)cc(S(=O)(=O)[O-])cc5F)c5ccc2[nH]5)C=C4)C=C3)cc1
REMARK SMILES IDX 24 1 23 2 22 3 21 4 20 5 18 6 19 7 5 8 3 9 4 10 2 11 1 12
REMARK SMILES IDX 6 13 7 14 8 16 9 17 10 18 17 19 11 20 12 21 13 22 14 23
REMARK SMILES IDX 15 25 16 26 25 27 26 28 27 29 28 30 29 31 30 32 31 33 32 34
REMARK SMILES IDX 33 35 97 36 34 37 96 38 35 39 36 40 37 41 90 42 38 43 95 44
REMARK SMILES IDX 89 45 91 46 39 47 94 48 88 49 87 50 40 52 74 53 53 54 73 55
REMARK SMILES IDX 54 56 57 57 72 58 92 59 55 60 56 61 71 63 93 64 58 65 41 66
REMARK SMILES IDX 42 67 51 68 43 69 44 70 50 71 52 72 45 73 46 74 47 75 48 76
REMARK SMILES IDX 49 77 75 78 76 79 85 80 77 81 78 82 84 83 86 84 79 85 80 86
REMARK SMILES IDX 81 87 82 88 83 89 59 90 60 91 69 92 61 93 62 94 68 95 70 96
REMARK SMILES IDX 63 97 64 98 65 99 66 100 67 101
REMARK H PARENT 6 15 13 24 91 51 57 62
REMARK Flexibility Score: inf
ROOT
ATOM      1  C   UNL A   1      34.831  31.082  28.218  1.00  0.00     0.188 C 
ENDROOT
BRANCH   1   2
ATOM      2  O   UNL A   1      33.499  30.700  27.862  1.00  0.00    -0.376 OA
BRANCH   2   3
ATOM      3  C   UNL A   1      33.352  29.857  26.744  1.00  0.00     0.202 C 
BRANCH   3   4
ATOM      4  C   UNL A   1      33.923  28.436  26.876  1.00  0.00     0.261 C 
BRANCH   4   5
ATOM      5  O   UNL A   1      33.281  27.255  26.348  1.00  0.00    -0.462 OA
BRANCH   5   6
ATOM      6  C   UNL A   1      32.000  26.888  26.636  1.00  0.00     0.329 C 
ATOM      7  O   UNL A   1      31.250  27.396  27.458  1.00  0.00    -0.250 OA
BRANCH   6   8
ATOM      8  C   UNL A   1      31.553  25.705  25.762  1.00  0.00     0.195 C 
BRANCH   8   9
ATOM      9  C   UNL A   1      31.721  24.358  26.582  1.00  0.00     0.019 C 
ATOM     10  C   UNL A   1      30.427  23.557  26.782  1.00  0.00     0.010 C 
BRANCH   9  11
ATOM     11  C   UNL A   1      32.871  23.447  26.055  1.00  0.00     0.002 C 
ATOM     12  C   UNL A   1      34.234  24.087  25.809  1.00  0.00     0.004 C 
ENDBRANCH   9  11
ENDBRANCH   8   9
BRANCH   8  13
ATOM     13  N   UNL A   1      30.162  25.872  25.278  1.00  0.00    -0.337 N 
ATOM     14  C   UNL A   1      29.582  26.533  24.215  1.00  0.00     0.271 C 
ATOM     15  H   UNL A   1      29.503  25.406  25.842  1.00  0.00     0.164 HD
ATOM     16  O   UNL A   1      28.406  26.247  23.979  1.00  0.00    -0.267 OA
BRANCH  14  17
ATOM     17  C   UNL A   1      30.235  27.639  23.505  1.00  0.00     0.141 A 
ATOM     18  C   UNL A   1      31.510  27.513  22.972  1.00  0.00     0.102 A 
ATOM     19  N   UNL A   1      29.676  28.892  23.290  1.00  0.00    -0.215 NA
ATOM     20  S   UNL A   1      31.963  28.948  22.148  1.00  0.00    -0.104 S 
ATOM     21  C   UNL A   1      30.407  29.583  22.440  1.00  0.00     0.190 A 
BRANCH  21  22
ATOM     22  N   UNL A   1      29.886  30.654  21.748  1.00  0.00    -0.302 N 
ATOM     23  C   UNL A   1      28.611  30.761  21.235  1.00  0.00     0.223 C 
ATOM     24  H   UNL A   1      30.487  31.420  21.604  1.00  0.00     0.172 HD
ATOM     25  C   UNL A   1      28.272  32.153  20.743  1.00  0.00     0.114 C 
ATOM     26  O   UNL A   1      27.744  29.890  21.217  1.00  0.00    -0.275 OA
ENDBRANCH  21  22
ENDBRANCH  14  17
ENDBRANCH   8  13
ENDBRANCH   6   8
ENDBRANCH   5   6
ENDBRANCH   4   5
ENDBRANCH   3   4
ENDBRANCH   2   3
ENDBRANCH   1   2
BRANCH   1  27
ATOM     27  C   UNL A   1      35.312  32.504  27.868  1.00  0.00     0.188 C 
BRANCH  27  28
ATOM     28  O   UNL A   1      34.253  33.448  27.811  1.00  0.00    -0.376 OA
BRANCH  28  29
ATOM     29  C   UNL A   1      34.625  34.815  27.859  1.00  0.00     0.202 C 
BRANCH  29  30
ATOM     30  C   UNL A   1      33.613  35.768  28.512  1.00  0.00     0.261 C 
BRANCH  30  31
ATOM     31  O   UNL A   1      32.758  35.216  29.533  1.00  0.00    -0.460 OA
BRANCH  31  32
ATOM     32  C   UNL A   1      32.752  35.793  30.755  1.00  0.00     0.338 C 
ATOM     33  O   UNL A   1      31.872  36.503  31.213  1.00  0.00    -0.246 OA
BRANCH  32  34
ATOM     34  C   UNL A   1      33.876  35.226  31.546  1.00  0.00     0.060 A 
ATOM     35  C   UNL A   1      34.511  36.029  32.506  1.00  0.00     0.016 A 
ATOM     36  C   UNL A   1      34.310  33.915  31.343  1.00  0.00     0.016 A 
ATOM     37  C   UNL A   1      35.609  35.544  33.227  1.00  0.00     0.010 A 
ATOM     38  C   UNL A   1      35.427  33.439  32.044  1.00  0.00     0.010 A 
ATOM     39  C   UNL A   1      36.109  34.264  32.960  1.00  0.00    -0.014 A 
BRANCH  39  40
ATOM     40  C   UNL A   1      37.468  33.875  33.432  1.00  0.00     0.031 A 
ATOM     41  C   UNL A   1      37.667  33.675  34.915  1.00  0.00     0.074 A 
ATOM     42  C   UNL A   1      38.505  33.685  32.594  1.00  0.00     0.049 A 
ATOM     43  N   UNL A   1      38.767  33.466  35.590  1.00  0.00    -0.248 NA
ATOM     44  C   UNL A   1      36.451  33.721  35.744  1.00  0.00     0.031 C 
ATOM     45  C   UNL A   1      38.446  33.772  31.137  1.00  0.00     0.029 A 
ATOM     46  N   UNL A   1      39.823  33.394  32.861  1.00  0.00    -0.354 N 
ATOM     47  C   UNL A   1      38.379  33.376  36.923  1.00  0.00     0.074 A 
ATOM     48  C   UNL A   1      36.947  33.577  36.963  1.00  0.00     0.031 C 
ATOM     49  C   UNL A   1      39.679  33.562  30.639  1.00  0.00     0.029 A 
ATOM     50  C   UNL A   1      40.622  33.371  31.741  1.00  0.00     0.049 A 
ATOM     51  H   UNL A   1      40.162  33.218  33.769  1.00  0.00     0.167 HD
ATOM     52  C   UNL A   1      39.143  33.143  38.017  1.00  0.00     0.037 A 
ATOM     53  C   UNL A   1      41.962  33.249  31.623  1.00  0.00     0.037 A 
ATOM     54  C   UNL A   1      40.567  32.940  37.981  1.00  0.00     0.049 A 
ATOM     55  C   UNL A   1      42.810  33.078  32.863  1.00  0.00     0.074 A 
ATOM     56  C   UNL A   1      41.429  32.702  39.037  1.00  0.00     0.029 A 
ATOM     57  N   UNL A   1      41.342  32.955  36.830  1.00  0.00    -0.354 N 
ATOM     58  N   UNL A   1      42.436  33.010  34.119  1.00  0.00    -0.248 NA
ATOM     59  C   UNL A   1      44.264  32.971  32.668  1.00  0.00     0.031 C 
ATOM     60  C   UNL A   1      42.731  32.626  38.531  1.00  0.00     0.029 A 
ATOM     61  C   UNL A   1      42.674  32.753  37.152  1.00  0.00     0.049 A 
ATOM     62  H   UNL A   1      40.995  33.089  35.918  1.00  0.00     0.167 HD
ATOM     63  C   UNL A   1      43.603  32.823  34.857  1.00  0.00     0.074 A 
ATOM     64  C   UNL A   1      44.694  32.778  33.907  1.00  0.00     0.031 C 
ATOM     65  C   UNL A   1      43.755  32.697  36.200  1.00  0.00     0.037 A 
BRANCH  52  66
ATOM     66  C   UNL A   1      38.455  33.135  39.355  1.00  0.00     0.058 A 
ATOM     67  C   UNL A   1      37.692  32.040  39.791  1.00  0.00     0.135 A 
ATOM     68  C   UNL A   1      38.575  34.234  40.221  1.00  0.00     0.135 A 
ATOM     69  F   UNL A   1      37.525  30.972  38.995  1.00  0.00    -0.206 F 
ATOM     70  C   UNL A   1      37.047  32.047  41.024  1.00  0.00     0.059 A 
ATOM     71  C   UNL A   1      37.965  34.251  41.472  1.00  0.00     0.059 A 
ATOM     72  F   UNL A   1      39.289  35.310  39.854  1.00  0.00    -0.206 F 
ATOM     73  C   UNL A   1      37.190  33.158  41.857  1.00  0.00     0.060 A 
BRANCH  73  74
ATOM     74  S   UNL A   1      36.343  33.154  43.451  1.00  0.00     0.124 S 
ATOM     75  O   UNL A   1      35.598  31.901  43.382  1.00  0.00    -0.237 OA
ATOM     76  O   UNL A   1      37.456  33.178  44.395  1.00  0.00    -0.237 OA
ATOM     77  O   UNL A   1      35.533  34.367  43.410  1.00  0.00    -0.744 OA
ENDBRANCH  73  74
ENDBRANCH  52  66
BRANCH  53  78
ATOM     78  C   UNL A   1      42.602  33.320  30.279  1.00  0.00     0.058 A 
ATOM     79  C   UNL A   1      42.880  32.159  29.540  1.00  0.00     0.135 A 
ATOM     80  C   UNL A   1      42.965  34.553  29.713  1.00  0.00     0.135 A 
ATOM     81  F   UNL A   1      42.574  30.955  30.044  1.00  0.00    -0.206 F 
ATOM     82  C   UNL A   1      43.502  32.217  28.296  1.00  0.00     0.059 A 
ATOM     83  C   UNL A   1      43.561  34.639  28.459  1.00  0.00     0.059 A 
ATOM     84  F   UNL A   1      42.724  35.694  30.377  1.00  0.00    -0.206 F 
ATOM     85  C   UNL A   1      43.833  33.463  27.760  1.00  0.00     0.060 A 
BRANCH  85  86
ATOM     86  S   UNL A   1      44.587  33.530  26.120  1.00  0.00     0.124 S 
ATOM     87  O   UNL A   1      43.516  34.124  25.328  1.00  0.00    -0.237 OA
ATOM     88  O   UNL A   1      45.752  34.376  26.354  1.00  0.00    -0.237 OA
ATOM     89  O   UNL A   1      44.883  32.131  25.830  1.00  0.00    -0.744 OA
ENDBRANCH  85  86
ENDBRANCH  53  78
BRANCH  65  90
ATOM     90  C   UNL A   1      45.142  32.450  36.733  1.00  0.00     0.058 A 
ATOM     91  C   UNL A   1      45.675  31.157  36.851  1.00  0.00     0.135 A 
ATOM     92  C   UNL A   1      45.975  33.531  37.069  1.00  0.00     0.135 A 
ATOM     93  F   UNL A   1      44.925  30.087  36.546  1.00  0.00    -0.206 F 
ATOM     94  C   UNL A   1      46.974  30.943  37.304  1.00  0.00     0.059 A 
ATOM     95  C   UNL A   1      47.286  33.342  37.495  1.00  0.00     0.059 A 
ATOM     96  F   UNL A   1      45.522  34.791  36.963  1.00  0.00    -0.206 F 
ATOM     97  C   UNL A   1      47.774  32.044  37.621  1.00  0.00     0.060 A 
BRANCH  97  98
ATOM     98  S   UNL A   1      49.469  31.753  38.174  1.00  0.00     0.124 S 
ATOM     99  O   UNL A   1      49.282  30.682  39.147  1.00  0.00    -0.237 OA
ATOM    100  O   UNL A   1      50.141  31.374  36.935  1.00  0.00    -0.237 OA
ATOM    101  O   UNL A   1      49.871  33.042  38.729  1.00  0.00    -0.744 OA
ENDBRANCH  97  98
ENDBRANCH  65  90
ENDBRANCH  39  40
ENDBRANCH  32  34
ENDBRANCH  31  32
ENDBRANCH  30  31
ENDBRANCH  29  30
ENDBRANCH  28  29
ENDBRANCH  27  28
ENDBRANCH   1  27
TORSDOF 25
ENDMDL
