MODEL 1
REMARK VINA RESULT:     -11.0      0.000      0.000
REMARK SMILES CCc1ccc(S(=O)(=O)c2nnn(-c3ccc(C(=O)OCCOCCOCCOC(=O)c4ccc(-c5c6nc(c(-c7c(F)cc(S(=O)(=O)[O-])cc7F)c7ccc([nH]7)c(-c7c(F)cc(S(=O)(=O)[O-])cc7F)c7nc(c(-c8c(F)cc(S(=O)(=O)[O-])cc8F)c8ccc5[nH]8)C=C7)C=C6)cc4)cc3)c2C)cc1
REMARK SMILES IDX 24 1 23 2 22 3 21 4 20 5 18 6 19 7 17 8 14 9 15 10 99 11
REMARK SMILES IDX 16 12 98 13 13 14 10 15 11 16 100 17 12 18 101 19 7 20 8 21
REMARK SMILES IDX 9 22 6 23 3 24 4 25 103 26 5 27 102 28 2 29 1 30 25 31 26 32
REMARK SMILES IDX 27 33 28 34 29 35 30 36 31 37 32 38 33 39 97 40 34 41 96 42
REMARK SMILES IDX 35 43 36 44 37 45 90 46 38 47 95 48 89 49 91 50 39 51 94 52
REMARK SMILES IDX 88 53 87 54 40 56 74 57 53 58 73 59 54 60 57 61 72 62 92 63
REMARK SMILES IDX 55 64 56 65 71 67 93 68 58 69 41 70 42 71 51 72 43 73 44 74
REMARK SMILES IDX 50 75 52 76 45 77 46 78 47 79 48 80 49 81 75 82 76 83 85 84
REMARK SMILES IDX 77 85 78 86 84 87 86 88 79 89 80 90 81 91 82 92 83 93 59 94
REMARK SMILES IDX 60 95 69 96 61 97 62 98 68 99 70 100 63 101 64 102 65 103
REMARK SMILES IDX 66 104 67 105
REMARK H PARENT 91 55 57 66
REMARK Flexibility Score: inf
ROOT
ATOM      1  C   UNL A   1      32.814  36.605  31.869  1.00  0.00     0.188 C 
ENDROOT
BRANCH   1   2
ATOM      2  O   UNL A   1      32.866  37.225  30.594  1.00  0.00    -0.376 OA
BRANCH   2   3
ATOM      3  C   UNL A   1      33.150  36.463  29.431  1.00  0.00     0.202 C 
BRANCH   3   4
ATOM      4  C   UNL A   1      33.216  34.923  29.452  1.00  0.00     0.261 C 
BRANCH   4   5
ATOM      5  O   UNL A   1      32.861  34.269  28.230  1.00  0.00    -0.460 OA
BRANCH   5   6
ATOM      6  C   UNL A   1      33.795  33.444  27.708  1.00  0.00     0.338 C 
ATOM      7  O   UNL A   1      34.980  33.682  27.544  1.00  0.00    -0.246 OA
BRANCH   6   8
ATOM      8  C   UNL A   1      33.211  32.105  27.476  1.00  0.00     0.060 A 
ATOM      9  C   UNL A   1      32.323  29.572  26.785  1.00  0.00     0.067 A 
ATOM     10  C   UNL A   1      33.558  29.702  27.424  1.00  0.00     0.029 A 
ATOM     11  C   UNL A   1      31.464  30.673  26.648  1.00  0.00     0.029 A 
ATOM     12  C   UNL A   1      34.013  30.982  27.738  1.00  0.00     0.018 A 
ATOM     13  C   UNL A   1      31.908  31.946  27.000  1.00  0.00     0.018 A 
BRANCH   9  14
ATOM     14  N   UNL A   1      32.037  28.374  26.093  1.00  0.00    -0.216 N 
ATOM     15  C   UNL A   1      32.133  26.656  24.759  1.00  0.00     0.205 A 
ATOM     16  N   UNL A   1      31.237  26.385  25.757  1.00  0.00    -0.117 NA
ATOM     17  C   UNL A   1      32.719  27.890  24.986  1.00  0.00     0.081 A 
ATOM     18  N   UNL A   1      31.253  27.401  26.610  1.00  0.00    -0.061 NA
ATOM     19  C   UNL A   1      33.912  28.536  24.385  1.00  0.00     0.070 C 
BRANCH  15  20
ATOM     20  S   UNL A   1      32.528  25.518  23.524  1.00  0.00     0.227 S 
ATOM     21  O   UNL A   1      33.094  26.333  22.466  1.00  0.00    -0.217 OA
ATOM     22  O   UNL A   1      31.347  24.700  23.325  1.00  0.00    -0.217 OA
BRANCH  20  23
ATOM     23  C   UNL A   1      33.822  24.458  24.118  1.00  0.00     0.073 A 
ATOM     24  C   UNL A   1      35.868  22.701  24.899  1.00  0.00    -0.048 A 
ATOM     25  C   UNL A   1      34.832  22.260  24.064  1.00  0.00     0.005 A 
ATOM     26  C   UNL A   1      35.850  24.029  25.352  1.00  0.00     0.005 A 
ATOM     27  C   UNL A   1      33.821  23.135  23.662  1.00  0.00     0.021 A 
ATOM     28  C   UNL A   1      34.829  24.906  24.973  1.00  0.00     0.021 A 
BRANCH  24  29
ATOM     29  C   UNL A   1      36.950  21.756  25.369  1.00  0.00     0.032 C 
ATOM     30  C   UNL A   1      36.721  20.300  24.980  1.00  0.00     0.009 C 
ENDBRANCH  24  29
ENDBRANCH  20  23
ENDBRANCH  15  20
ENDBRANCH   9  14
ENDBRANCH   6   8
ENDBRANCH   5   6
ENDBRANCH   4   5
ENDBRANCH   3   4
ENDBRANCH   2   3
ENDBRANCH   1   2
BRANCH   1  31
ATOM     31  C   UNL A   1      34.050  36.562  32.799  1.00  0.00     0.188 C 
BRANCH  31  32
ATOM     32  O   UNL A   1      34.634  35.297  33.024  1.00  0.00    -0.376 OA
BRANCH  32  33
ATOM     33  C   UNL A   1      33.934  34.077  32.825  1.00  0.00     0.202 C 
BRANCH  33  34
ATOM     34  C   UNL A   1      34.567  32.719  32.517  1.00  0.00     0.261 C 
BRANCH  34  35
ATOM     35  O   UNL A   1      35.961  32.725  32.320  1.00  0.00    -0.460 OA
BRANCH  35  36
ATOM     36  C   UNL A   1      36.318  32.925  31.033  1.00  0.00     0.338 C 
ATOM     37  O   UNL A   1      36.232  33.966  30.404  1.00  0.00    -0.246 OA
BRANCH  36  38
ATOM     38  C   UNL A   1      36.829  31.668  30.484  1.00  0.00     0.060 A 
ATOM     39  C   UNL A   1      36.989  30.627  31.398  1.00  0.00     0.016 A 
ATOM     40  C   UNL A   1      37.432  31.667  29.217  1.00  0.00     0.016 A 
ATOM     41  C   UNL A   1      38.018  29.749  31.177  1.00  0.00     0.010 A 
ATOM     42  C   UNL A   1      38.462  30.791  28.998  1.00  0.00     0.010 A 
ATOM     43  C   UNL A   1      38.817  29.949  30.047  1.00  0.00    -0.014 A 
BRANCH  43  44
ATOM     44  C   UNL A   1      40.138  29.371  30.084  1.00  0.00     0.031 A 
ATOM     45  C   UNL A   1      40.676  29.170  31.437  1.00  0.00     0.074 A 
ATOM     46  C   UNL A   1      40.779  29.041  28.948  1.00  0.00     0.049 A 
ATOM     47  N   UNL A   1      41.635  29.812  32.013  1.00  0.00    -0.248 NA
ATOM     48  C   UNL A   1      39.945  28.242  32.310  1.00  0.00     0.031 C 
ATOM     49  C   UNL A   1      40.245  28.949  27.584  1.00  0.00     0.029 A 
ATOM     50  N   UNL A   1      42.056  28.611  28.804  1.00  0.00    -0.354 N 
ATOM     51  C   UNL A   1      41.768  29.224  33.262  1.00  0.00     0.074 A 
ATOM     52  C   UNL A   1      40.601  28.401  33.459  1.00  0.00     0.031 C 
ATOM     53  C   UNL A   1      41.122  28.266  26.813  1.00  0.00     0.029 A 
ATOM     54  C   UNL A   1      42.319  27.997  27.592  1.00  0.00     0.049 A 
ATOM     55  H   UNL A   1      42.739  28.726  29.503  1.00  0.00     0.167 HD
ATOM     56  C   UNL A   1      42.937  29.268  33.952  1.00  0.00     0.037 A 
ATOM     57  C   UNL A   1      43.400  27.226  27.322  1.00  0.00     0.037 A 
ATOM     58  C   UNL A   1      43.839  30.262  33.436  1.00  0.00     0.049 A 
ATOM     59  C   UNL A   1      44.451  27.586  28.316  1.00  0.00     0.074 A 
ATOM     60  C   UNL A   1      43.789  31.637  33.308  1.00  0.00     0.029 A 
ATOM     61  N   UNL A   1      44.851  29.845  32.604  1.00  0.00    -0.354 N 
ATOM     62  N   UNL A   1      45.036  28.755  28.365  1.00  0.00    -0.248 NA
ATOM     63  C   UNL A   1      44.519  26.814  29.549  1.00  0.00     0.031 C 
ATOM     64  C   UNL A   1      44.447  31.921  32.075  1.00  0.00     0.029 A 
ATOM     65  C   UNL A   1      44.889  30.711  31.539  1.00  0.00     0.049 A 
ATOM     66  H   UNL A   1      45.441  29.069  32.746  1.00  0.00     0.167 HD
ATOM     67  C   UNL A   1      45.181  29.035  29.718  1.00  0.00     0.074 A 
ATOM     68  C   UNL A   1      44.924  27.766  30.395  1.00  0.00     0.031 C 
ATOM     69  C   UNL A   1      45.217  30.321  30.183  1.00  0.00     0.037 A 
BRANCH  56  70
ATOM     70  C   UNL A   1      43.372  28.167  34.876  1.00  0.00     0.058 A 
ATOM     71  C   UNL A   1      43.704  28.460  36.208  1.00  0.00     0.135 A 
ATOM     72  C   UNL A   1      43.714  26.874  34.417  1.00  0.00     0.135 A 
ATOM     73  F   UNL A   1      43.444  29.672  36.727  1.00  0.00    -0.206 F 
ATOM     74  C   UNL A   1      44.373  27.544  37.019  1.00  0.00     0.059 A 
ATOM     75  C   UNL A   1      44.322  25.927  35.225  1.00  0.00     0.059 A 
ATOM     76  F   UNL A   1      43.562  26.513  33.137  1.00  0.00    -0.206 F 
ATOM     77  C   UNL A   1      44.688  26.285  36.511  1.00  0.00     0.060 A 
BRANCH  77  78
ATOM     78  S   UNL A   1      45.659  25.144  37.509  1.00  0.00     0.124 S 
ATOM     79  O   UNL A   1      44.876  25.101  38.739  1.00  0.00    -0.237 OA
ATOM     80  O   UNL A   1      45.638  23.934  36.695  1.00  0.00    -0.237 OA
ATOM     81  O   UNL A   1      46.957  25.805  37.608  1.00  0.00    -0.744 OA
ENDBRANCH  77  78
ENDBRANCH  56  70
BRANCH  57  82
ATOM     82  C   UNL A   1      43.378  25.935  26.582  1.00  0.00     0.058 A 
ATOM     83  C   UNL A   1      44.199  25.719  25.464  1.00  0.00     0.135 A 
ATOM     84  C   UNL A   1      42.740  24.793  27.113  1.00  0.00     0.135 A 
ATOM     85  F   UNL A   1      44.871  26.742  24.914  1.00  0.00    -0.206 F 
ATOM     86  C   UNL A   1      44.399  24.443  24.922  1.00  0.00     0.059 A 
ATOM     87  C   UNL A   1      42.912  23.517  26.583  1.00  0.00     0.059 A 
ATOM     88  F   UNL A   1      41.995  24.864  28.226  1.00  0.00    -0.206 F 
ATOM     89  C   UNL A   1      43.761  23.345  25.499  1.00  0.00     0.060 A 
BRANCH  89  90
ATOM     90  S   UNL A   1      44.132  21.678  24.905  1.00  0.00     0.124 S 
ATOM     91  O   UNL A   1      45.356  21.364  25.634  1.00  0.00    -0.237 OA
ATOM     92  O   UNL A   1      42.941  20.937  25.307  1.00  0.00    -0.237 OA
ATOM     93  O   UNL A   1      44.292  21.859  23.464  1.00  0.00    -0.744 OA
ENDBRANCH  89  90
ENDBRANCH  57  82
BRANCH  69  94
ATOM     94  C   UNL A   1      45.354  31.433  29.173  1.00  0.00     0.058 A 
ATOM     95  C   UNL A   1      44.263  32.040  28.524  1.00  0.00     0.135 A 
ATOM     96  C   UNL A   1      46.616  32.011  28.971  1.00  0.00     0.135 A 
ATOM     97  F   UNL A   1      43.010  31.621  28.751  1.00  0.00    -0.206 F 
ATOM     98  C   UNL A   1      44.424  33.138  27.677  1.00  0.00     0.059 A 
ATOM     99  C   UNL A   1      46.796  33.127  28.155  1.00  0.00     0.059 A 
ATOM    100  F   UNL A   1      47.689  31.525  29.615  1.00  0.00    -0.206 F 
ATOM    101  C   UNL A   1      45.696  33.677  27.498  1.00  0.00     0.060 A 
BRANCH 101 102
ATOM    102  S   UNL A   1      45.890  35.146  26.464  1.00  0.00     0.124 S 
ATOM    103  O   UNL A   1      44.535  35.688  26.445  1.00  0.00    -0.237 OA
ATOM    104  O   UNL A   1      46.876  35.928  27.203  1.00  0.00    -0.237 OA
ATOM    105  O   UNL A   1      46.364  34.607  25.191  1.00  0.00    -0.744 OA
ENDBRANCH 101 102
ENDBRANCH  69  94
ENDBRANCH  43  44
ENDBRANCH  36  38
ENDBRANCH  35  36
ENDBRANCH  34  35
ENDBRANCH  33  34
ENDBRANCH  32  33
ENDBRANCH  31  32
ENDBRANCH   1  31
TORSDOF 24
ENDMDL
MODEL 2
REMARK VINA RESULT:     -10.0      2.378      3.429
REMARK SMILES CCc1ccc(S(=O)(=O)c2nnn(-c3ccc(C(=O)OCCOCCOCCOC(=O)c4ccc(-c5c6nc(c(-c7c(F)cc(S(=O)(=O)[O-])cc7F)c7ccc([nH]7)c(-c7c(F)cc(S(=O)(=O)[O-])cc7F)c7nc(c(-c8c(F)cc(S(=O)(=O)[O-])cc8F)c8ccc5[nH]8)C=C7)C=C6)cc4)cc3)c2C)cc1
REMARK SMILES IDX 24 1 23 2 22 3 21 4 20 5 18 6 19 7 17 8 14 9 15 10 99 11
REMARK SMILES IDX 16 12 98 13 13 14 10 15 11 16 100 17 12 18 101 19 7 20 8 21
REMARK SMILES IDX 9 22 6 23 3 24 4 25 103 26 5 27 102 28 2 29 1 30 25 31 26 32
REMARK SMILES IDX 27 33 28 34 29 35 30 36 31 37 32 38 33 39 97 40 34 41 96 42
REMARK SMILES IDX 35 43 36 44 37 45 90 46 38 47 95 48 89 49 91 50 39 51 94 52
REMARK SMILES IDX 88 53 87 54 40 56 74 57 53 58 73 59 54 60 57 61 72 62 92 63
REMARK SMILES IDX 55 64 56 65 71 67 93 68 58 69 41 70 42 71 51 72 43 73 44 74
REMARK SMILES IDX 50 75 52 76 45 77 46 78 47 79 48 80 49 81 75 82 76 83 85 84
REMARK SMILES IDX 77 85 78 86 84 87 86 88 79 89 80 90 81 91 82 92 83 93 59 94
REMARK SMILES IDX 60 95 69 96 61 97 62 98 68 99 70 100 63 101 64 102 65 103
REMARK SMILES IDX 66 104 67 105
REMARK H PARENT 91 55 57 66
REMARK Flexibility Score: inf
ROOT
ATOM      1  C   UNL A   1      34.504  32.886  31.408  1.00  0.00     0.188 C 
ENDROOT
BRANCH   1   2
ATOM      2  O   UNL A   1      34.091  32.827  30.052  1.00  0.00    -0.376 OA
BRANCH   2   3
ATOM      3  C   UNL A   1      34.905  32.194  29.077  1.00  0.00     0.202 C 
BRANCH   3   4
ATOM      4  C   UNL A   1      34.370  31.804  27.686  1.00  0.00     0.261 C 
BRANCH   4   5
ATOM      5  O   UNL A   1      33.465  30.696  27.655  1.00  0.00    -0.460 OA
BRANCH   5   6
ATOM      6  C   UNL A   1      32.285  30.912  27.034  1.00  0.00     0.338 C 
ATOM      7  O   UNL A   1      31.714  31.980  26.889  1.00  0.00    -0.246 OA
BRANCH   6   8
ATOM      8  C   UNL A   1      31.812  29.662  26.400  1.00  0.00     0.060 A 
ATOM      9  C   UNL A   1      31.238  27.219  25.225  1.00  0.00     0.067 A 
ATOM     10  C   UNL A   1      31.480  27.266  26.600  1.00  0.00     0.029 A 
ATOM     11  C   UNL A   1      31.112  28.399  24.476  1.00  0.00     0.029 A 
ATOM     12  C   UNL A   1      31.801  28.493  27.177  1.00  0.00     0.018 A 
ATOM     13  C   UNL A   1      31.396  29.628  25.067  1.00  0.00     0.018 A 
BRANCH   9  14
ATOM     14  N   UNL A   1      31.329  25.977  24.558  1.00  0.00    -0.216 N 
ATOM     15  C   UNL A   1      32.070  24.188  23.562  1.00  0.00     0.205 A 
ATOM     16  N   UNL A   1      30.792  23.953  23.989  1.00  0.00    -0.117 NA
ATOM     17  C   UNL A   1      32.472  25.447  23.975  1.00  0.00     0.081 A 
ATOM     18  N   UNL A   1      30.385  25.016  24.670  1.00  0.00    -0.061 NA
ATOM     19  C   UNL A   1      33.810  26.087  24.016  1.00  0.00     0.070 C 
BRANCH  15  20
ATOM     20  S   UNL A   1      33.024  22.992  22.765  1.00  0.00     0.227 S 
ATOM     21  O   UNL A   1      33.407  23.624  21.518  1.00  0.00    -0.217 OA
ATOM     22  O   UNL A   1      32.259  21.760  22.808  1.00  0.00    -0.217 OA
BRANCH  20  23
ATOM     23  C   UNL A   1      34.510  22.732  23.700  1.00  0.00     0.073 A 
ATOM     24  C   UNL A   1      36.931  22.463  25.096  1.00  0.00    -0.048 A 
ATOM     25  C   UNL A   1      36.925  22.867  23.754  1.00  0.00     0.005 A 
ATOM     26  C   UNL A   1      35.707  22.176  25.720  1.00  0.00     0.005 A 
ATOM     27  C   UNL A   1      35.722  23.016  23.061  1.00  0.00     0.021 A 
ATOM     28  C   UNL A   1      34.499  22.301  25.027  1.00  0.00     0.021 A 
BRANCH  24  29
ATOM     29  C   UNL A   1      38.227  22.264  25.848  1.00  0.00     0.032 C 
ATOM     30  C   UNL A   1      38.785  23.535  26.478  1.00  0.00     0.009 C 
ENDBRANCH  24  29
ENDBRANCH  20  23
ENDBRANCH  15  20
ENDBRANCH   9  14
ENDBRANCH   6   8
ENDBRANCH   5   6
ENDBRANCH   4   5
ENDBRANCH   3   4
ENDBRANCH   2   3
ENDBRANCH   1   2
BRANCH   1  31
ATOM     31  C   UNL A   1      35.380  34.048  31.937  1.00  0.00     0.188 C 
BRANCH  31  32
ATOM     32  O   UNL A   1      36.674  34.169  31.387  1.00  0.00    -0.376 OA
BRANCH  32  33
ATOM     33  C   UNL A   1      37.486  33.048  31.068  1.00  0.00     0.202 C 
BRANCH  33  34
ATOM     34  C   UNL A   1      37.649  31.786  31.916  1.00  0.00     0.261 C 
BRANCH  34  35
ATOM     35  O   UNL A   1      38.669  31.829  32.887  1.00  0.00    -0.460 OA
BRANCH  35  36
ATOM     36  C   UNL A   1      39.235  30.626  33.119  1.00  0.00     0.338 C 
ATOM     37  O   UNL A   1      39.207  29.994  34.162  1.00  0.00    -0.246 OA
BRANCH  36  38
ATOM     38  C   UNL A   1      39.917  30.181  31.903  1.00  0.00     0.060 A 
ATOM     39  C   UNL A   1      39.803  28.823  31.606  1.00  0.00     0.016 A 
ATOM     40  C   UNL A   1      40.886  31.009  31.316  1.00  0.00     0.016 A 
ATOM     41  C   UNL A   1      40.866  28.225  30.982  1.00  0.00     0.010 A 
ATOM     42  C   UNL A   1      41.950  30.410  30.695  1.00  0.00     0.010 A 
ATOM     43  C   UNL A   1      41.975  29.019  30.673  1.00  0.00    -0.014 A 
BRANCH  43  44
ATOM     44  C   UNL A   1      43.228  28.330  30.493  1.00  0.00     0.031 A 
ATOM     45  C   UNL A   1      43.934  28.015  31.743  1.00  0.00     0.074 A 
ATOM     46  C   UNL A   1      43.667  28.003  29.262  1.00  0.00     0.049 A 
ATOM     47  N   UNL A   1      45.021  28.543  32.194  1.00  0.00    -0.248 NA
ATOM     48  C   UNL A   1      43.255  27.110  32.678  1.00  0.00     0.031 C 
ATOM     49  C   UNL A   1      42.936  28.027  27.990  1.00  0.00     0.029 A 
ATOM     50  N   UNL A   1      44.864  27.474  28.915  1.00  0.00    -0.354 N 
ATOM     51  C   UNL A   1      45.278  27.884  33.387  1.00  0.00     0.074 A 
ATOM     52  C   UNL A   1      44.081  27.154  33.723  1.00  0.00     0.031 C 
ATOM     53  C   UNL A   1      43.626  27.311  27.072  1.00  0.00     0.029 A 
ATOM     54  C   UNL A   1      44.893  26.902  27.655  1.00  0.00     0.049 A 
ATOM     55  H   UNL A   1      45.649  27.495  29.510  1.00  0.00     0.167 HD
ATOM     56  C   UNL A   1      46.533  27.792  33.898  1.00  0.00     0.037 A 
ATOM     57  C   UNL A   1      45.849  26.056  27.200  1.00  0.00     0.037 A 
ATOM     58  C   UNL A   1      47.439  28.731  33.292  1.00  0.00     0.049 A 
ATOM     59  C   UNL A   1      47.061  26.275  28.040  1.00  0.00     0.074 A 
ATOM     60  C   UNL A   1      47.498  30.110  33.223  1.00  0.00     0.029 A 
ATOM     61  N   UNL A   1      48.278  28.272  32.304  1.00  0.00    -0.354 N 
ATOM     62  N   UNL A   1      47.751  27.386  28.046  1.00  0.00    -0.248 NA
ATOM     63  C   UNL A   1      47.234  25.438  29.220  1.00  0.00     0.031 C 
ATOM     64  C   UNL A   1      47.994  30.399  31.919  1.00  0.00     0.029 A 
ATOM     65  C   UNL A   1      48.242  29.184  31.278  1.00  0.00     0.049 A 
ATOM     66  H   UNL A   1      48.809  27.442  32.329  1.00  0.00     0.167 HD
ATOM     67  C   UNL A   1      48.114  27.584  29.373  1.00  0.00     0.074 A 
ATOM     68  C   UNL A   1      47.841  26.308  30.032  1.00  0.00     0.031 C 
ATOM     69  C   UNL A   1      48.334  28.836  29.875  1.00  0.00     0.037 A 
BRANCH  56  70
ATOM     70  C   UNL A   1      46.994  26.614  34.705  1.00  0.00     0.058 A 
ATOM     71  C   UNL A   1      47.112  25.352  34.099  1.00  0.00     0.135 A 
ATOM     72  C   UNL A   1      47.079  26.639  36.116  1.00  0.00     0.135 A 
ATOM     73  F   UNL A   1      47.017  25.223  32.766  1.00  0.00    -0.206 F 
ATOM     74  C   UNL A   1      47.261  24.186  34.850  1.00  0.00     0.059 A 
ATOM     75  C   UNL A   1      47.289  25.500  36.877  1.00  0.00     0.059 A 
ATOM     76  F   UNL A   1      46.861  27.758  36.820  1.00  0.00    -0.206 F 
ATOM     77  C   UNL A   1      47.334  24.273  36.239  1.00  0.00     0.060 A 
BRANCH  77  78
ATOM     78  S   UNL A   1      47.401  22.764  37.218  1.00  0.00     0.124 S 
ATOM     79  O   UNL A   1      46.774  21.807  36.314  1.00  0.00    -0.237 OA
ATOM     80  O   UNL A   1      48.836  22.600  37.428  1.00  0.00    -0.237 OA
ATOM     81  O   UNL A   1      46.634  23.104  38.413  1.00  0.00    -0.744 OA
ENDBRANCH  77  78
ENDBRANCH  56  70
BRANCH  57  82
ATOM     82  C   UNL A   1      45.603  24.810  26.424  1.00  0.00     0.058 A 
ATOM     83  C   UNL A   1      46.399  24.468  25.320  1.00  0.00     0.135 A 
ATOM     84  C   UNL A   1      44.743  23.800  26.906  1.00  0.00     0.135 A 
ATOM     85  F   UNL A   1      47.270  25.356  24.816  1.00  0.00    -0.206 F 
ATOM     86  C   UNL A   1      46.368  23.190  24.747  1.00  0.00     0.059 A 
ATOM     87  C   UNL A   1      44.683  22.528  26.345  1.00  0.00     0.059 A 
ATOM     88  F   UNL A   1      43.993  23.987  28.002  1.00  0.00    -0.206 F 
ATOM     89  C   UNL A   1      45.515  22.221  25.277  1.00  0.00     0.060 A 
BRANCH  89  90
ATOM     90  S   UNL A   1      45.578  20.529  24.645  1.00  0.00     0.124 S 
ATOM     91  O   UNL A   1      44.736  20.619  23.457  1.00  0.00    -0.237 OA
ATOM     92  O   UNL A   1      47.005  20.343  24.403  1.00  0.00    -0.237 OA
ATOM     93  O   UNL A   1      45.028  19.736  25.741  1.00  0.00    -0.744 OA
ENDBRANCH  89  90
ENDBRANCH  57  82
BRANCH  69  94
ATOM     94  C   UNL A   1      48.426  29.982  28.898  1.00  0.00     0.058 A 
ATOM     95  C   UNL A   1      47.326  30.766  28.506  1.00  0.00     0.135 A 
ATOM     96  C   UNL A   1      49.692  30.402  28.466  1.00  0.00     0.135 A 
ATOM     97  F   UNL A   1      46.095  30.502  28.966  1.00  0.00    -0.206 F 
ATOM     98  C   UNL A   1      47.470  31.885  27.683  1.00  0.00     0.059 A 
ATOM     99  C   UNL A   1      49.865  31.534  27.670  1.00  0.00     0.059 A 
ATOM    100  F   UNL A   1      50.791  29.740  28.862  1.00  0.00    -0.206 F 
ATOM    101  C   UNL A   1      48.746  32.263  27.270  1.00  0.00     0.060 A 
BRANCH 101 102
ATOM    102  S   UNL A   1      48.939  33.756  26.271  1.00  0.00     0.124 S 
ATOM    103  O   UNL A   1      49.314  34.749  27.272  1.00  0.00    -0.237 OA
ATOM    104  O   UNL A   1      49.987  33.377  25.329  1.00  0.00    -0.237 OA
ATOM    105  O   UNL A   1      47.617  33.941  25.675  1.00  0.00    -0.744 OA
ENDBRANCH 101 102
ENDBRANCH  69  94
ENDBRANCH  43  44
ENDBRANCH  36  38
ENDBRANCH  35  36
ENDBRANCH  34  35
ENDBRANCH  33  34
ENDBRANCH  32  33
ENDBRANCH  31  32
ENDBRANCH   1  31
TORSDOF 24
ENDMDL
MODEL 3
REMARK VINA RESULT:     -10.0      6.508     11.013
REMARK SMILES CCc1ccc(S(=O)(=O)c2nnn(-c3ccc(C(=O)OCCOCCOCCOC(=O)c4ccc(-c5c6nc(c(-c7c(F)cc(S(=O)(=O)[O-])cc7F)c7ccc([nH]7)c(-c7c(F)cc(S(=O)(=O)[O-])cc7F)c7nc(c(-c8c(F)cc(S(=O)(=O)[O-])cc8F)c8ccc5[nH]8)C=C7)C=C6)cc4)cc3)c2C)cc1
REMARK SMILES IDX 24 1 23 2 22 3 21 4 20 5 18 6 19 7 17 8 14 9 15 10 99 11
REMARK SMILES IDX 16 12 98 13 13 14 10 15 11 16 100 17 12 18 101 19 7 20 8 21
REMARK SMILES IDX 9 22 6 23 3 24 4 25 103 26 5 27 102 28 2 29 1 30 25 31 26 32
REMARK SMILES IDX 27 33 28 34 29 35 30 36 31 37 32 38 33 39 97 40 34 41 96 42
REMARK SMILES IDX 35 43 36 44 37 45 90 46 38 47 95 48 89 49 91 50 39 51 94 52
REMARK SMILES IDX 88 53 87 54 40 56 74 57 53 58 73 59 54 60 57 61 72 62 92 63
REMARK SMILES IDX 55 64 56 65 71 67 93 68 58 69 41 70 42 71 51 72 43 73 44 74
REMARK SMILES IDX 50 75 52 76 45 77 46 78 47 79 48 80 49 81 75 82 76 83 85 84
REMARK SMILES IDX 77 85 78 86 84 87 86 88 79 89 80 90 81 91 82 92 83 93 59 94
REMARK SMILES IDX 60 95 69 96 61 97 62 98 68 99 70 100 63 101 64 102 65 103
REMARK SMILES IDX 66 104 67 105
REMARK H PARENT 91 55 57 66
REMARK Flexibility Score: inf
ROOT
ATOM      1  C   UNL A   1      35.923  32.235  33.107  1.00  0.00     0.188 C 
ENDROOT
BRANCH   1   2
ATOM      2  O   UNL A   1      35.206  33.130  32.272  1.00  0.00    -0.376 OA
BRANCH   2   3
ATOM      3  C   UNL A   1      34.812  32.739  30.966  1.00  0.00     0.202 C 
BRANCH   3   4
ATOM      4  C   UNL A   1      34.653  33.753  29.816  1.00  0.00     0.261 C 
BRANCH   4   5
ATOM      5  O   UNL A   1      34.624  33.197  28.497  1.00  0.00    -0.460 OA
BRANCH   5   6
ATOM      6  C   UNL A   1      33.398  33.007  27.962  1.00  0.00     0.338 C 
ATOM      7  O   UNL A   1      32.518  33.839  27.820  1.00  0.00    -0.246 OA
BRANCH   6   8
ATOM      8  C   UNL A   1      33.293  31.635  27.417  1.00  0.00     0.060 A 
ATOM      9  C   UNL A   1      33.304  29.166  26.160  1.00  0.00     0.067 A 
ATOM     10  C   UNL A   1      34.415  29.540  26.920  1.00  0.00     0.029 A 
ATOM     11  C   UNL A   1      32.133  29.938  26.169  1.00  0.00     0.029 A 
ATOM     12  C   UNL A   1      34.416  30.798  27.521  1.00  0.00     0.018 A 
ATOM     13  C   UNL A   1      32.124  31.177  26.805  1.00  0.00     0.018 A 
BRANCH   9  14
ATOM     14  N   UNL A   1      33.442  28.120  25.221  1.00  0.00    -0.216 N 
ATOM     15  C   UNL A   1      33.268  26.226  24.159  1.00  0.00     0.205 A 
ATOM     16  N   UNL A   1      33.740  27.172  23.291  1.00  0.00    -0.117 NA
ATOM     17  C   UNL A   1      32.996  26.815  25.382  1.00  0.00     0.081 A 
ATOM     18  N   UNL A   1      33.757  28.338  23.925  1.00  0.00    -0.061 NA
ATOM     19  C   UNL A   1      32.240  26.326  26.562  1.00  0.00     0.070 C 
BRANCH  15  20
ATOM     20  S   UNL A   1      32.947  24.599  23.684  1.00  0.00     0.227 S 
ATOM     21  O   UNL A   1      32.987  24.643  22.236  1.00  0.00    -0.217 OA
ATOM     22  O   UNL A   1      31.766  24.183  24.415  1.00  0.00    -0.217 OA
BRANCH  20  23
ATOM     23  C   UNL A   1      34.296  23.574  24.215  1.00  0.00     0.073 A 
ATOM     24  C   UNL A   1      36.538  22.060  24.965  1.00  0.00    -0.048 A 
ATOM     25  C   UNL A   1      36.462  22.634  23.689  1.00  0.00     0.005 A 
ATOM     26  C   UNL A   1      35.464  22.239  25.851  1.00  0.00     0.005 A 
ATOM     27  C   UNL A   1      35.355  23.400  23.318  1.00  0.00     0.021 A 
ATOM     28  C   UNL A   1      34.341  22.985  25.479  1.00  0.00     0.021 A 
BRANCH  24  29
ATOM     29  C   UNL A   1      37.714  21.201  25.369  1.00  0.00     0.032 C 
ATOM     30  C   UNL A   1      37.728  19.818  24.727  1.00  0.00     0.009 C 
ENDBRANCH  24  29
ENDBRANCH  20  23
ENDBRANCH  15  20
ENDBRANCH   9  14
ENDBRANCH   6   8
ENDBRANCH   5   6
ENDBRANCH   4   5
ENDBRANCH   3   4
ENDBRANCH   2   3
ENDBRANCH   1   2
BRANCH   1  31
ATOM     31  C   UNL A   1      36.882  31.173  32.519  1.00  0.00     0.188 C 
BRANCH  31  32
ATOM     32  O   UNL A   1      38.173  31.613  32.156  1.00  0.00    -0.376 OA
BRANCH  32  33
ATOM     33  C   UNL A   1      38.919  32.542  32.929  1.00  0.00     0.202 C 
BRANCH  33  34
ATOM     34  C   UNL A   1      38.894  34.063  32.776  1.00  0.00     0.261 C 
BRANCH  34  35
ATOM     35  O   UNL A   1      39.914  34.614  31.976  1.00  0.00    -0.460 OA
BRANCH  35  36
ATOM     36  C   UNL A   1      39.596  34.661  30.665  1.00  0.00     0.338 C 
ATOM     37  O   UNL A   1      38.476  34.686  30.184  1.00  0.00    -0.246 OA
BRANCH  36  38
ATOM     38  C   UNL A   1      40.832  34.669  29.879  1.00  0.00     0.060 A 
ATOM     39  C   UNL A   1      42.018  34.688  30.613  1.00  0.00     0.016 A 
ATOM     40  C   UNL A   1      40.776  34.994  28.516  1.00  0.00     0.016 A 
ATOM     41  C   UNL A   1      43.084  35.354  30.068  1.00  0.00     0.010 A 
ATOM     42  C   UNL A   1      41.842  35.663  27.972  1.00  0.00     0.010 A 
ATOM     43  C   UNL A   1      42.912  35.948  28.814  1.00  0.00    -0.014 A 
BRANCH  43  44
ATOM     44  C   UNL A   1      43.813  37.024  28.484  1.00  0.00     0.031 A 
ATOM     45  C   UNL A   1      45.227  36.630  28.401  1.00  0.00     0.074 A 
ATOM     46  C   UNL A   1      43.350  38.268  28.260  1.00  0.00     0.049 A 
ATOM     47  N   UNL A   1      46.182  36.931  29.214  1.00  0.00    -0.248 NA
ATOM     48  C   UNL A   1      45.582  35.648  27.369  1.00  0.00     0.031 C 
ATOM     49  C   UNL A   1      41.966  38.711  28.055  1.00  0.00     0.029 A 
ATOM     50  N   UNL A   1      44.064  39.403  28.065  1.00  0.00    -0.354 N 
ATOM     51  C   UNL A   1      47.316  36.340  28.676  1.00  0.00     0.074 A 
ATOM     52  C   UNL A   1      46.863  35.424  27.659  1.00  0.00     0.031 C 
ATOM     53  C   UNL A   1      41.976  39.958  27.530  1.00  0.00     0.029 A 
ATOM     54  C   UNL A   1      43.346  40.438  27.492  1.00  0.00     0.049 A 
ATOM     55  H   UNL A   1      45.015  39.484  28.310  1.00  0.00     0.167 HD
ATOM     56  C   UNL A   1      48.562  36.811  28.939  1.00  0.00     0.037 A 
ATOM     57  C   UNL A   1      43.885  41.545  26.925  1.00  0.00     0.037 A 
ATOM     58  C   UNL A   1      48.583  37.697  30.072  1.00  0.00     0.049 A 
ATOM     59  C   UNL A   1      45.259  41.696  27.482  1.00  0.00     0.074 A 
ATOM     60  C   UNL A   1      48.285  37.555  31.414  1.00  0.00     0.029 A 
ATOM     61  N   UNL A   1      48.595  39.051  29.833  1.00  0.00    -0.354 N 
ATOM     62  N   UNL A   1      45.510  41.962  28.737  1.00  0.00    -0.248 NA
ATOM     63  C   UNL A   1      46.364  41.088  26.751  1.00  0.00     0.031 C 
ATOM     64  C   UNL A   1      47.681  38.788  31.795  1.00  0.00     0.029 A 
ATOM     65  C   UNL A   1      47.675  39.624  30.677  1.00  0.00     0.049 A 
ATOM     66  H   UNL A   1      49.159  39.523  29.178  1.00  0.00     0.167 HD
ATOM     67  C   UNL A   1      46.627  41.200  29.057  1.00  0.00     0.074 A 
ATOM     68  C   UNL A   1      47.157  40.751  27.771  1.00  0.00     0.031 C 
ATOM     69  C   UNL A   1      46.857  40.769  30.334  1.00  0.00     0.037 A 
BRANCH  56  70
ATOM     70  C   UNL A   1      49.686  36.724  27.948  1.00  0.00     0.058 A 
ATOM     71  C   UNL A   1      49.609  37.429  26.735  1.00  0.00     0.135 A 
ATOM     72  C   UNL A   1      50.721  35.765  28.047  1.00  0.00     0.135 A 
ATOM     73  F   UNL A   1      48.643  38.341  26.536  1.00  0.00    -0.206 F 
ATOM     74  C   UNL A   1      50.476  37.167  25.675  1.00  0.00     0.059 A 
ATOM     75  C   UNL A   1      51.631  35.533  27.029  1.00  0.00     0.059 A 
ATOM     76  F   UNL A   1      50.827  34.943  29.099  1.00  0.00    -0.206 F 
ATOM     77  C   UNL A   1      51.475  36.208  25.830  1.00  0.00     0.060 A 
BRANCH  77  78
ATOM     78  S   UNL A   1      52.515  35.778  24.425  1.00  0.00     0.124 S 
ATOM     79  O   UNL A   1      51.603  36.006  23.311  1.00  0.00    -0.237 OA
ATOM     80  O   UNL A   1      53.614  36.730  24.558  1.00  0.00    -0.237 OA
ATOM     81  O   UNL A   1      52.868  34.384  24.681  1.00  0.00    -0.744 OA
ENDBRANCH  77  78
ENDBRANCH  56  70
BRANCH  57  82
ATOM     82  C   UNL A   1      43.448  42.158  25.641  1.00  0.00     0.058 A 
ATOM     83  C   UNL A   1      44.190  43.182  25.030  1.00  0.00     0.135 A 
ATOM     84  C   UNL A   1      42.431  41.575  24.855  1.00  0.00     0.135 A 
ATOM     85  F   UNL A   1      45.198  43.770  25.692  1.00  0.00    -0.206 F 
ATOM     86  C   UNL A   1      43.958  43.582  23.707  1.00  0.00     0.059 A 
ATOM     87  C   UNL A   1      42.172  41.966  23.544  1.00  0.00     0.059 A 
ATOM     88  F   UNL A   1      41.710  40.537  25.305  1.00  0.00    -0.206 F 
ATOM     89  C   UNL A   1      42.954  42.957  22.967  1.00  0.00     0.060 A 
BRANCH  89  90
ATOM     90  S   UNL A   1      42.749  43.359  21.217  1.00  0.00     0.124 S 
ATOM     91  O   UNL A   1      41.351  43.773  21.165  1.00  0.00    -0.237 OA
ATOM     92  O   UNL A   1      43.736  44.416  21.026  1.00  0.00    -0.237 OA
ATOM     93  O   UNL A   1      43.051  42.100  20.541  1.00  0.00    -0.744 OA
ENDBRANCH  89  90
ENDBRANCH  57  82
BRANCH  69  94
ATOM     94  C   UNL A   1      46.011  41.352  31.439  1.00  0.00     0.058 A 
ATOM     95  C   UNL A   1      46.329  42.538  32.126  1.00  0.00     0.135 A 
ATOM     96  C   UNL A   1      44.758  40.780  31.704  1.00  0.00     0.135 A 
ATOM     97  F   UNL A   1      47.455  43.210  31.850  1.00  0.00    -0.206 F 
ATOM     98  C   UNL A   1      45.465  43.102  33.067  1.00  0.00     0.059 A 
ATOM     99  C   UNL A   1      43.867  41.342  32.617  1.00  0.00     0.059 A 
ATOM    100  F   UNL A   1      44.363  39.687  31.032  1.00  0.00    -0.206 F 
ATOM    101  C   UNL A   1      44.233  42.496  33.306  1.00  0.00     0.060 A 
BRANCH 101 102
ATOM    102  S   UNL A   1      43.085  43.271  34.466  1.00  0.00     0.124 S 
ATOM    103  O   UNL A   1      42.962  44.619  33.921  1.00  0.00    -0.237 OA
ATOM    104  O   UNL A   1      41.898  42.430  34.350  1.00  0.00    -0.237 OA
ATOM    105  O   UNL A   1      43.780  43.178  35.748  1.00  0.00    -0.744 OA
ENDBRANCH 101 102
ENDBRANCH  69  94
ENDBRANCH  43  44
ENDBRANCH  36  38
ENDBRANCH  35  36
ENDBRANCH  34  35
ENDBRANCH  33  34
ENDBRANCH  32  33
ENDBRANCH  31  32
ENDBRANCH   1  31
TORSDOF 24
ENDMDL
