MODEL 1
REMARK VINA RESULT:     -10.8      0.000      0.000
REMARK SMILES C[C@H](C(=O)OCCOCCOCCOC(=O)c1ccc(-c2c3nc(c(-c4c(F)cc(S(=O)(=O)[O-])cc4F)c4ccc([nH]4)c(-c4c(F)cc(S(=O)(=O)[O-])cc4F)c4nc(c(-c5c(F)cc(S(=O)(=O)[O-])cc5F)c5ccc2[nH]5)C=C4)C=C3)cc1)c1cccc(C(=O)c2ccccc2)c1
REMARK SMILES IDX 9 1 8 2 7 3 6 4 5 5 3 6 4 7 2 8 1 9 83 10 84 11 96 12 85 13
REMARK SMILES IDX 87 14 86 15 88 16 89 17 90 18 91 19 95 20 92 21 94 22 93 23
REMARK SMILES IDX 10 24 11 25 12 26 13 27 14 28 15 29 16 30 17 31 18 32 82 33
REMARK SMILES IDX 19 34 81 35 20 36 21 37 22 38 75 39 23 40 80 41 74 42 76 43
REMARK SMILES IDX 24 44 79 45 73 46 72 47 25 49 59 50 38 51 58 52 39 53 42 54
REMARK SMILES IDX 57 55 77 56 40 57 41 58 56 60 78 61 43 62 26 63 27 64 36 65
REMARK SMILES IDX 28 66 29 67 35 68 37 69 30 70 31 71 32 72 33 73 34 74 60 75
REMARK SMILES IDX 61 76 70 77 62 78 63 79 69 80 71 81 64 82 65 83 66 84 67 85
REMARK SMILES IDX 68 86 44 87 45 88 54 89 46 90 47 91 53 92 55 93 48 94 49 95
REMARK SMILES IDX 50 96 51 97 52 98
REMARK H PARENT 76 48 42 59
REMARK Flexibility Score: inf
ROOT
ATOM      1  C   UNL A   1      33.977  28.650  26.314  1.00  0.00     0.188 C 
ENDROOT
BRANCH   1   2
ATOM      2  O   UNL A   1      33.050  27.672  26.757  1.00  0.00    -0.376 OA
BRANCH   2   3
ATOM      3  C   UNL A   1      31.679  27.843  26.420  1.00  0.00     0.202 C 
BRANCH   3   4
ATOM      4  C   UNL A   1      31.049  26.919  25.369  1.00  0.00     0.261 C 
BRANCH   4   5
ATOM      5  O   UNL A   1      31.950  26.611  24.288  1.00  0.00    -0.463 OA
BRANCH   5   6
ATOM      6  C   UNL A   1      31.429  26.483  23.039  1.00  0.00     0.313 C 
ATOM      7  O   UNL A   1      30.687  27.315  22.526  1.00  0.00    -0.252 OA
BRANCH   6   8
ATOM      8  C   UNL A   1      31.905  25.226  22.285  1.00  0.00     0.126 C 
ATOM      9  C   UNL A   1      32.406  25.670  20.900  1.00  0.00     0.025 C 
BRANCH   8  10
ATOM     10  C   UNL A   1      32.819  24.237  23.026  1.00  0.00    -0.033 A 
ATOM     11  C   UNL A   1      34.200  24.454  23.162  1.00  0.00     0.004 A 
ATOM     12  C   UNL A   1      32.328  23.003  23.483  1.00  0.00     0.016 A 
ATOM     13  C   UNL A   1      35.036  23.487  23.735  1.00  0.00     0.001 A 
ATOM     14  C   UNL A   1      33.149  22.014  24.046  1.00  0.00     0.023 A 
ATOM     15  C   UNL A   1      34.514  22.268  24.172  1.00  0.00     0.012 A 
BRANCH  14  16
ATOM     16  C   UNL A   1      32.597  20.709  24.532  1.00  0.00     0.193 C 
ATOM     17  O   UNL A   1      31.690  20.683  25.359  1.00  0.00    -0.289 OA
BRANCH  16  18
ATOM     18  C   UNL A   1      33.085  19.417  23.985  1.00  0.00     0.022 A 
ATOM     19  C   UNL A   1      34.104  18.751  24.671  1.00  0.00     0.012 A 
ATOM     20  C   UNL A   1      32.520  18.843  22.839  1.00  0.00     0.012 A 
ATOM     21  C   UNL A   1      34.505  17.481  24.254  1.00  0.00     0.001 A 
ATOM     22  C   UNL A   1      32.903  17.561  22.443  1.00  0.00     0.001 A 
ATOM     23  C   UNL A   1      33.890  16.879  23.155  1.00  0.00     0.000 A 
ENDBRANCH  16  18
ENDBRANCH  14  16
ENDBRANCH   8  10
ENDBRANCH   6   8
ENDBRANCH   5   6
ENDBRANCH   4   5
ENDBRANCH   3   4
ENDBRANCH   2   3
ENDBRANCH   1   2
BRANCH   1  24
ATOM     24  C   UNL A   1      34.552  29.660  27.336  1.00  0.00     0.188 C 
BRANCH  24  25
ATOM     25  O   UNL A   1      33.798  30.806  27.644  1.00  0.00    -0.376 OA
BRANCH  25  26
ATOM     26  C   UNL A   1      34.388  31.884  28.344  1.00  0.00     0.202 C 
BRANCH  26  27
ATOM     27  C   UNL A   1      35.802  32.452  28.107  1.00  0.00     0.261 C 
BRANCH  27  28
ATOM     28  O   UNL A   1      36.671  32.618  29.231  1.00  0.00    -0.460 OA
BRANCH  28  29
ATOM     29  C   UNL A   1      36.777  31.549  30.058  1.00  0.00     0.338 C 
ATOM     30  O   UNL A   1      35.940  31.154  30.860  1.00  0.00    -0.246 OA
BRANCH  29  31
ATOM     31  C   UNL A   1      37.992  30.787  29.715  1.00  0.00     0.060 A 
ATOM     32  C   UNL A   1      38.907  30.472  30.731  1.00  0.00     0.016 A 
ATOM     33  C   UNL A   1      38.243  30.406  28.396  1.00  0.00     0.016 A 
ATOM     34  C   UNL A   1      40.088  29.794  30.425  1.00  0.00     0.010 A 
ATOM     35  C   UNL A   1      39.438  29.748  28.090  1.00  0.00     0.010 A 
ATOM     36  C   UNL A   1      40.380  29.462  29.095  1.00  0.00    -0.014 A 
BRANCH  36  37
ATOM     37  C   UNL A   1      41.735  28.981  28.724  1.00  0.00     0.031 A 
ATOM     38  C   UNL A   1      42.864  29.977  28.685  1.00  0.00     0.074 A 
ATOM     39  C   UNL A   1      41.965  27.689  28.424  1.00  0.00     0.049 A 
ATOM     40  N   UNL A   1      44.106  29.811  28.311  1.00  0.00    -0.248 NA
ATOM     41  C   UNL A   1      42.546  31.345  29.128  1.00  0.00     0.031 C 
ATOM     42  C   UNL A   1      40.971  26.619  28.469  1.00  0.00     0.029 A 
ATOM     43  N   UNL A   1      43.114  27.063  28.006  1.00  0.00    -0.354 N 
ATOM     44  C   UNL A   1      44.713  31.054  28.456  1.00  0.00     0.074 A 
ATOM     45  C   UNL A   1      43.698  31.967  28.932  1.00  0.00     0.031 C 
ATOM     46  C   UNL A   1      41.550  25.470  28.078  1.00  0.00     0.029 A 
ATOM     47  C   UNL A   1      42.943  25.729  27.718  1.00  0.00     0.049 A 
ATOM     48  H   UNL A   1      43.979  27.526  27.920  1.00  0.00     0.167 HD
ATOM     49  C   UNL A   1      46.001  31.400  28.216  1.00  0.00     0.037 A 
ATOM     50  C   UNL A   1      43.803  24.830  27.196  1.00  0.00     0.037 A 
ATOM     51  C   UNL A   1      47.007  30.487  27.740  1.00  0.00     0.049 A 
ATOM     52  C   UNL A   1      45.212  25.259  26.863  1.00  0.00     0.074 A 
ATOM     53  C   UNL A   1      48.345  30.738  27.487  1.00  0.00     0.029 A 
ATOM     54  N   UNL A   1      46.787  29.152  27.433  1.00  0.00    -0.354 N 
ATOM     55  N   UNL A   1      45.781  26.430  27.026  1.00  0.00    -0.248 NA
ATOM     56  C   UNL A   1      46.097  24.243  26.273  1.00  0.00     0.031 C 
ATOM     57  C   UNL A   1      48.919  29.573  26.970  1.00  0.00     0.029 A 
ATOM     58  C   UNL A   1      47.957  28.576  26.964  1.00  0.00     0.049 A 
ATOM     59  H   UNL A   1      45.928  28.684  27.534  1.00  0.00     0.167 HD
ATOM     60  C   UNL A   1      47.096  26.281  26.594  1.00  0.00     0.074 A 
ATOM     61  C   UNL A   1      47.241  24.904  26.170  1.00  0.00     0.031 C 
ATOM     62  C   UNL A   1      48.095  27.199  26.555  1.00  0.00     0.037 A 
BRANCH  49  63
ATOM     63  C   UNL A   1      46.388  32.839  28.428  1.00  0.00     0.058 A 
ATOM     64  C   UNL A   1      46.806  33.319  29.679  1.00  0.00     0.135 A 
ATOM     65  C   UNL A   1      46.379  33.740  27.351  1.00  0.00     0.135 A 
ATOM     66  F   UNL A   1      46.816  32.507  30.748  1.00  0.00    -0.206 F 
ATOM     67  C   UNL A   1      47.177  34.649  29.860  1.00  0.00     0.059 A 
ATOM     68  C   UNL A   1      46.775  35.065  27.502  1.00  0.00     0.059 A 
ATOM     69  F   UNL A   1      45.985  33.335  26.133  1.00  0.00    -0.206 F 
ATOM     70  C   UNL A   1      47.160  35.513  28.764  1.00  0.00     0.060 A 
BRANCH  70  71
ATOM     71  S   UNL A   1      47.653  37.231  29.015  1.00  0.00     0.124 S 
ATOM     72  O   UNL A   1      46.466  37.785  29.656  1.00  0.00    -0.237 OA
ATOM     73  O   UNL A   1      48.829  37.096  29.868  1.00  0.00    -0.237 OA
ATOM     74  O   UNL A   1      47.916  37.711  27.662  1.00  0.00    -0.744 OA
ENDBRANCH  70  71
ENDBRANCH  49  63
BRANCH  50  75
ATOM     75  C   UNL A   1      43.362  23.431  26.938  1.00  0.00     0.058 A 
ATOM     76  C   UNL A   1      43.197  22.517  27.990  1.00  0.00     0.135 A 
ATOM     77  C   UNL A   1      43.116  22.973  25.633  1.00  0.00     0.135 A 
ATOM     78  F   UNL A   1      43.436  22.899  29.254  1.00  0.00    -0.206 F 
ATOM     79  C   UNL A   1      42.822  21.197  27.759  1.00  0.00     0.059 A 
ATOM     80  C   UNL A   1      42.711  21.666  25.379  1.00  0.00     0.059 A 
ATOM     81  F   UNL A   1      43.254  23.806  24.591  1.00  0.00    -0.206 F 
ATOM     82  C   UNL A   1      42.578  20.782  26.449  1.00  0.00     0.060 A 
BRANCH  82  83
ATOM     83  S   UNL A   1      42.049  19.078  26.166  1.00  0.00     0.124 S 
ATOM     84  O   UNL A   1      42.952  18.664  25.097  1.00  0.00    -0.237 OA
ATOM     85  O   UNL A   1      42.281  18.466  27.470  1.00  0.00    -0.237 OA
ATOM     86  O   UNL A   1      40.646  19.219  25.787  1.00  0.00    -0.744 OA
ENDBRANCH  82  83
ENDBRANCH  50  75
BRANCH  62  87
ATOM     87  C   UNL A   1      49.452  26.743  26.086  1.00  0.00     0.058 A 
ATOM     88  C   UNL A   1      49.867  26.887  24.753  1.00  0.00     0.135 A 
ATOM     89  C   UNL A   1      50.375  26.208  27.002  1.00  0.00     0.135 A 
ATOM     90  F   UNL A   1      49.025  27.388  23.834  1.00  0.00    -0.206 F 
ATOM     91  C   UNL A   1      51.137  26.496  24.338  1.00  0.00     0.059 A 
ATOM     92  C   UNL A   1      51.661  25.840  26.616  1.00  0.00     0.059 A 
ATOM     93  F   UNL A   1      50.038  26.058  28.292  1.00  0.00    -0.206 F 
ATOM     94  C   UNL A   1      52.029  25.976  25.279  1.00  0.00     0.060 A 
BRANCH  94  95
ATOM     95  S   UNL A   1      53.685  25.506  24.736  1.00  0.00     0.124 S 
ATOM     96  O   UNL A   1      53.620  24.050  24.818  1.00  0.00    -0.237 OA
ATOM     97  O   UNL A   1      53.740  26.061  23.387  1.00  0.00    -0.237 OA
ATOM     98  O   UNL A   1      54.560  26.151  25.710  1.00  0.00    -0.744 OA
ENDBRANCH  94  95
ENDBRANCH  62  87
ENDBRANCH  36  37
ENDBRANCH  29  31
ENDBRANCH  28  29
ENDBRANCH  27  28
ENDBRANCH  26  27
ENDBRANCH  25  26
ENDBRANCH  24  25
ENDBRANCH   1  24
TORSDOF 23
ENDMDL
MODEL 2
REMARK VINA RESULT:     -10.4      6.158     11.038
REMARK SMILES C[C@H](C(=O)OCCOCCOCCOC(=O)c1ccc(-c2c3nc(c(-c4c(F)cc(S(=O)(=O)[O-])cc4F)c4ccc([nH]4)c(-c4c(F)cc(S(=O)(=O)[O-])cc4F)c4nc(c(-c5c(F)cc(S(=O)(=O)[O-])cc5F)c5ccc2[nH]5)C=C4)C=C3)cc1)c1cccc(C(=O)c2ccccc2)c1
REMARK SMILES IDX 9 1 8 2 7 3 6 4 5 5 3 6 4 7 2 8 1 9 83 10 84 11 96 12 85 13
REMARK SMILES IDX 87 14 86 15 88 16 89 17 90 18 91 19 95 20 92 21 94 22 93 23
REMARK SMILES IDX 10 24 11 25 12 26 13 27 14 28 15 29 16 30 17 31 18 32 82 33
REMARK SMILES IDX 19 34 81 35 20 36 21 37 22 38 75 39 23 40 80 41 74 42 76 43
REMARK SMILES IDX 24 44 79 45 73 46 72 47 25 49 59 50 38 51 58 52 39 53 42 54
REMARK SMILES IDX 57 55 77 56 40 57 41 58 56 60 78 61 43 62 26 63 27 64 36 65
REMARK SMILES IDX 28 66 29 67 35 68 37 69 30 70 31 71 32 72 33 73 34 74 60 75
REMARK SMILES IDX 61 76 70 77 62 78 63 79 69 80 71 81 64 82 65 83 66 84 67 85
REMARK SMILES IDX 68 86 44 87 45 88 54 89 46 90 47 91 53 92 55 93 48 94 49 95
REMARK SMILES IDX 50 96 51 97 52 98
REMARK H PARENT 76 48 42 59
REMARK Flexibility Score: inf
ROOT
ATOM      1  C   UNL A   1      33.674  27.830  26.210  1.00  0.00     0.188 C 
ENDROOT
BRANCH   1   2
ATOM      2  O   UNL A   1      32.750  26.792  26.493  1.00  0.00    -0.376 OA
BRANCH   2   3
ATOM      3  C   UNL A   1      31.394  26.971  26.098  1.00  0.00     0.202 C 
BRANCH   3   4
ATOM      4  C   UNL A   1      30.403  25.816  26.293  1.00  0.00     0.261 C 
BRANCH   4   5
ATOM      5  O   UNL A   1      30.931  24.550  25.855  1.00  0.00    -0.463 OA
BRANCH   5   6
ATOM      6  C   UNL A   1      31.328  23.661  26.805  1.00  0.00     0.313 C 
ATOM      7  O   UNL A   1      30.561  23.141  27.609  1.00  0.00    -0.252 OA
BRANCH   6   8
ATOM      8  C   UNL A   1      32.826  23.305  26.745  1.00  0.00     0.126 C 
ATOM      9  C   UNL A   1      33.049  22.062  27.623  1.00  0.00     0.025 C 
BRANCH   8  10
ATOM     10  C   UNL A   1      33.509  23.266  25.369  1.00  0.00    -0.033 A 
ATOM     11  C   UNL A   1      34.672  22.515  25.134  1.00  0.00     0.004 A 
ATOM     12  C   UNL A   1      33.071  24.093  24.321  1.00  0.00     0.016 A 
ATOM     13  C   UNL A   1      35.349  22.585  23.908  1.00  0.00     0.001 A 
ATOM     14  C   UNL A   1      33.741  24.190  23.092  1.00  0.00     0.023 A 
ATOM     15  C   UNL A   1      34.889  23.423  22.891  1.00  0.00     0.012 A 
BRANCH  14  16
ATOM     16  C   UNL A   1      33.248  25.075  21.988  1.00  0.00     0.193 C 
ATOM     17  O   UNL A   1      33.286  24.697  20.820  1.00  0.00    -0.289 OA
BRANCH  16  18
ATOM     18  C   UNL A   1      32.644  26.400  22.278  1.00  0.00     0.022 A 
ATOM     19  C   UNL A   1      33.500  27.475  22.532  1.00  0.00     0.012 A 
ATOM     20  C   UNL A   1      31.257  26.599  22.257  1.00  0.00     0.012 A 
ATOM     21  C   UNL A   1      32.973  28.758  22.691  1.00  0.00     0.001 A 
ATOM     22  C   UNL A   1      30.738  27.887  22.387  1.00  0.00     0.001 A 
ATOM     23  C   UNL A   1      31.596  28.966  22.596  1.00  0.00     0.000 A 
ENDBRANCH  16  18
ENDBRANCH  14  16
ENDBRANCH   8  10
ENDBRANCH   6   8
ENDBRANCH   5   6
ENDBRANCH   4   5
ENDBRANCH   3   4
ENDBRANCH   2   3
ENDBRANCH   1   2
BRANCH   1  24
ATOM     24  C   UNL A   1      33.901  28.943  27.260  1.00  0.00     0.188 C 
BRANCH  24  25
ATOM     25  O   UNL A   1      33.770  30.283  26.856  1.00  0.00    -0.376 OA
BRANCH  25  26
ATOM     26  C   UNL A   1      32.516  30.934  26.933  1.00  0.00     0.202 C 
BRANCH  26  27
ATOM     27  C   UNL A   1      32.286  32.418  27.282  1.00  0.00     0.261 C 
BRANCH  27  28
ATOM     28  O   UNL A   1      33.423  33.276  27.413  1.00  0.00    -0.460 OA
BRANCH  28  29
ATOM     29  C   UNL A   1      33.383  34.154  28.446  1.00  0.00     0.338 C 
ATOM     30  O   UNL A   1      32.496  34.964  28.689  1.00  0.00    -0.246 OA
BRANCH  29  31
ATOM     31  C   UNL A   1      34.491  33.863  29.376  1.00  0.00     0.060 A 
ATOM     32  C   UNL A   1      35.781  34.314  29.059  1.00  0.00     0.016 A 
ATOM     33  C   UNL A   1      34.266  33.129  30.540  1.00  0.00     0.016 A 
ATOM     34  C   UNL A   1      36.855  34.011  29.897  1.00  0.00     0.010 A 
ATOM     35  C   UNL A   1      35.348  32.806  31.365  1.00  0.00     0.010 A 
ATOM     36  C   UNL A   1      36.652  33.220  31.036  1.00  0.00    -0.014 A 
BRANCH  36  37
ATOM     37  C   UNL A   1      37.812  32.676  31.786  1.00  0.00     0.031 A 
ATOM     38  C   UNL A   1      38.558  31.504  31.203  1.00  0.00     0.074 A 
ATOM     39  C   UNL A   1      38.200  33.203  32.962  1.00  0.00     0.049 A 
ATOM     40  N   UNL A   1      39.542  30.809  31.710  1.00  0.00    -0.248 NA
ATOM     41  C   UNL A   1      38.132  31.057  29.866  1.00  0.00     0.031 C 
ATOM     42  C   UNL A   1      37.594  34.364  33.610  1.00  0.00     0.029 A 
ATOM     43  N   UNL A   1      39.194  32.815  33.827  1.00  0.00    -0.354 N 
ATOM     44  C   UNL A   1      39.843  29.834  30.766  1.00  0.00     0.074 A 
ATOM     45  C   UNL A   1      38.922  30.014  29.664  1.00  0.00     0.031 C 
ATOM     46  C   UNL A   1      38.219  34.585  34.780  1.00  0.00     0.029 A 
ATOM     47  C   UNL A   1      39.242  33.561  34.982  1.00  0.00     0.049 A 
ATOM     48  H   UNL A   1      39.813  32.074  33.639  1.00  0.00     0.167 HD
ATOM     49  C   UNL A   1      40.800  28.877  30.812  1.00  0.00     0.037 A 
ATOM     50  C   UNL A   1      40.004  33.413  36.087  1.00  0.00     0.037 A 
ATOM     51  C   UNL A   1      41.712  28.700  31.911  1.00  0.00     0.049 A 
ATOM     52  C   UNL A   1      41.011  32.290  36.148  1.00  0.00     0.074 A 
ATOM     53  C   UNL A   1      42.732  27.773  32.042  1.00  0.00     0.029 A 
ATOM     54  N   UNL A   1      41.710  29.456  33.074  1.00  0.00    -0.354 N 
ATOM     55  N   UNL A   1      41.302  31.389  35.238  1.00  0.00    -0.248 NA
ATOM     56  C   UNL A   1      41.795  32.163  37.385  1.00  0.00     0.031 C 
ATOM     57  C   UNL A   1      43.306  27.927  33.307  1.00  0.00     0.029 A 
ATOM     58  C   UNL A   1      42.690  28.996  33.939  1.00  0.00     0.049 A 
ATOM     59  H   UNL A   1      41.104  30.208  33.257  1.00  0.00     0.167 HD
ATOM     60  C   UNL A   1      42.325  30.614  35.781  1.00  0.00     0.074 A 
ATOM     61  C   UNL A   1      42.607  31.157  37.093  1.00  0.00     0.031 C 
ATOM     62  C   UNL A   1      42.973  29.551  35.241  1.00  0.00     0.037 A 
BRANCH  49  63
ATOM     63  C   UNL A   1      40.887  27.920  29.654  1.00  0.00     0.058 A 
ATOM     64  C   UNL A   1      39.961  26.879  29.477  1.00  0.00     0.135 A 
ATOM     65  C   UNL A   1      41.891  28.074  28.683  1.00  0.00     0.135 A 
ATOM     66  F   UNL A   1      38.993  26.674  30.384  1.00  0.00    -0.206 F 
ATOM     67  C   UNL A   1      40.043  26.010  28.393  1.00  0.00     0.059 A 
ATOM     68  C   UNL A   1      41.973  27.236  27.576  1.00  0.00     0.059 A 
ATOM     69  F   UNL A   1      42.804  29.050  28.803  1.00  0.00    -0.206 F 
ATOM     70  C   UNL A   1      41.052  26.198  27.447  1.00  0.00     0.060 A 
BRANCH  70  71
ATOM     71  S   UNL A   1      41.137  25.067  26.042  1.00  0.00     0.124 S 
ATOM     72  O   UNL A   1      39.752  24.618  25.945  1.00  0.00    -0.237 OA
ATOM     73  O   UNL A   1      41.596  25.941  24.967  1.00  0.00    -0.237 OA
ATOM     74  O   UNL A   1      42.094  24.056  26.477  1.00  0.00    -0.744 OA
ENDBRANCH  70  71
ENDBRANCH  49  63
BRANCH  50  75
ATOM     75  C   UNL A   1      39.842  34.341  37.240  1.00  0.00     0.058 A 
ATOM     76  C   UNL A   1      39.048  33.995  38.343  1.00  0.00     0.135 A 
ATOM     77  C   UNL A   1      40.461  35.602  37.254  1.00  0.00     0.135 A 
ATOM     78  F   UNL A   1      38.420  32.809  38.372  1.00  0.00    -0.206 F 
ATOM     79  C   UNL A   1      38.858  34.869  39.410  1.00  0.00     0.059 A 
ATOM     80  C   UNL A   1      40.310  36.481  38.322  1.00  0.00     0.059 A 
ATOM     81  F   UNL A   1      41.235  35.983  36.226  1.00  0.00    -0.206 F 
ATOM     82  C   UNL A   1      39.496  36.109  39.391  1.00  0.00     0.060 A 
BRANCH  82  83
ATOM     83  S   UNL A   1      39.277  37.216  40.801  1.00  0.00     0.124 S 
ATOM     84  O   UNL A   1      38.470  38.281  40.216  1.00  0.00    -0.237 OA
ATOM     85  O   UNL A   1      38.597  36.354  41.763  1.00  0.00    -0.237 OA
ATOM     86  O   UNL A   1      40.645  37.584  41.157  1.00  0.00    -0.744 OA
ENDBRANCH  82  83
ENDBRANCH  50  75
BRANCH  62  87
ATOM     87  C   UNL A   1      44.089  28.929  36.037  1.00  0.00     0.058 A 
ATOM     88  C   UNL A   1      45.398  29.435  36.010  1.00  0.00     0.135 A 
ATOM     89  C   UNL A   1      43.829  27.841  36.890  1.00  0.00     0.135 A 
ATOM     90  F   UNL A   1      45.705  30.469  35.211  1.00  0.00    -0.206 F 
ATOM     91  C   UNL A   1      46.413  28.873  36.779  1.00  0.00     0.059 A 
ATOM     92  C   UNL A   1      44.821  27.284  37.692  1.00  0.00     0.059 A 
ATOM     93  F   UNL A   1      42.594  27.322  36.966  1.00  0.00    -0.206 F 
ATOM     94  C   UNL A   1      46.114  27.799  37.620  1.00  0.00     0.060 A 
BRANCH  94  95
ATOM     95  S   UNL A   1      47.432  27.103  38.639  1.00  0.00     0.124 S 
ATOM     96  O   UNL A   1      48.105  28.308  39.113  1.00  0.00    -0.237 OA
ATOM     97  O   UNL A   1      46.685  26.357  39.648  1.00  0.00    -0.237 OA
ATOM     98  O   UNL A   1      48.194  26.286  37.700  1.00  0.00    -0.744 OA
ENDBRANCH  94  95
ENDBRANCH  62  87
ENDBRANCH  36  37
ENDBRANCH  29  31
ENDBRANCH  28  29
ENDBRANCH  27  28
ENDBRANCH  26  27
ENDBRANCH  25  26
ENDBRANCH  24  25
ENDBRANCH   1  24
TORSDOF 23
ENDMDL
MODEL 3
REMARK VINA RESULT:     -10.3      6.108     10.629
REMARK SMILES C[C@H](C(=O)OCCOCCOCCOC(=O)c1ccc(-c2c3nc(c(-c4c(F)cc(S(=O)(=O)[O-])cc4F)c4ccc([nH]4)c(-c4c(F)cc(S(=O)(=O)[O-])cc4F)c4nc(c(-c5c(F)cc(S(=O)(=O)[O-])cc5F)c5ccc2[nH]5)C=C4)C=C3)cc1)c1cccc(C(=O)c2ccccc2)c1
REMARK SMILES IDX 9 1 8 2 7 3 6 4 5 5 3 6 4 7 2 8 1 9 83 10 84 11 96 12 85 13
REMARK SMILES IDX 87 14 86 15 88 16 89 17 90 18 91 19 95 20 92 21 94 22 93 23
REMARK SMILES IDX 10 24 11 25 12 26 13 27 14 28 15 29 16 30 17 31 18 32 82 33
REMARK SMILES IDX 19 34 81 35 20 36 21 37 22 38 75 39 23 40 80 41 74 42 76 43
REMARK SMILES IDX 24 44 79 45 73 46 72 47 25 49 59 50 38 51 58 52 39 53 42 54
REMARK SMILES IDX 57 55 77 56 40 57 41 58 56 60 78 61 43 62 26 63 27 64 36 65
REMARK SMILES IDX 28 66 29 67 35 68 37 69 30 70 31 71 32 72 33 73 34 74 60 75
REMARK SMILES IDX 61 76 70 77 62 78 63 79 69 80 71 81 64 82 65 83 66 84 67 85
REMARK SMILES IDX 68 86 44 87 45 88 54 89 46 90 47 91 53 92 55 93 48 94 49 95
REMARK SMILES IDX 50 96 51 97 52 98
REMARK H PARENT 76 48 42 59
REMARK Flexibility Score: inf
ROOT
ATOM      1  C   UNL A   1      33.855  27.925  25.969  1.00  0.00     0.188 C 
ENDROOT
BRANCH   1   2
ATOM      2  O   UNL A   1      32.741  27.224  25.439  1.00  0.00    -0.376 OA
BRANCH   2   3
ATOM      3  C   UNL A   1      31.628  27.979  24.976  1.00  0.00     0.202 C 
BRANCH   3   4
ATOM      4  C   UNL A   1      30.545  27.277  24.146  1.00  0.00     0.261 C 
BRANCH   4   5
ATOM      5  O   UNL A   1      31.092  26.454  23.098  1.00  0.00    -0.463 OA
BRANCH   5   6
ATOM      6  C   UNL A   1      31.114  25.108  23.289  1.00  0.00     0.313 C 
ATOM      7  O   UNL A   1      30.330  24.514  24.021  1.00  0.00    -0.252 OA
BRANCH   6   8
ATOM      8  C   UNL A   1      32.176  24.373  22.448  1.00  0.00     0.126 C 
ATOM      9  C   UNL A   1      32.658  25.338  21.352  1.00  0.00     0.025 C 
BRANCH   8  10
ATOM     10  C   UNL A   1      33.289  23.612  23.186  1.00  0.00    -0.033 A 
ATOM     11  C   UNL A   1      34.642  23.968  23.069  1.00  0.00     0.004 A 
ATOM     12  C   UNL A   1      33.006  22.438  23.905  1.00  0.00     0.016 A 
ATOM     13  C   UNL A   1      35.652  23.192  23.652  1.00  0.00     0.001 A 
ATOM     14  C   UNL A   1      34.003  21.638  24.484  1.00  0.00     0.023 A 
ATOM     15  C   UNL A   1      35.336  22.027  24.354  1.00  0.00     0.012 A 
BRANCH  14  16
ATOM     16  C   UNL A   1      33.674  20.395  25.253  1.00  0.00     0.193 C 
ATOM     17  O   UNL A   1      33.457  20.446  26.461  1.00  0.00    -0.289 OA
BRANCH  16  18
ATOM     18  C   UNL A   1      33.538  19.083  24.570  1.00  0.00     0.022 A 
ATOM     19  C   UNL A   1      32.796  19.027  23.388  1.00  0.00     0.012 A 
ATOM     20  C   UNL A   1      34.169  17.931  25.058  1.00  0.00     0.012 A 
ATOM     21  C   UNL A   1      32.746  17.838  22.657  1.00  0.00     0.001 A 
ATOM     22  C   UNL A   1      34.140  16.754  24.309  1.00  0.00     0.001 A 
ATOM     23  C   UNL A   1      33.435  16.710  23.107  1.00  0.00     0.000 A 
ENDBRANCH  16  18
ENDBRANCH  14  16
ENDBRANCH   8  10
ENDBRANCH   6   8
ENDBRANCH   5   6
ENDBRANCH   4   5
ENDBRANCH   3   4
ENDBRANCH   2   3
ENDBRANCH   1   2
BRANCH   1  24
ATOM     24  C   UNL A   1      33.676  28.758  27.259  1.00  0.00     0.188 C 
BRANCH  24  25
ATOM     25  O   UNL A   1      33.708  30.160  27.163  1.00  0.00    -0.376 OA
BRANCH  25  26
ATOM     26  C   UNL A   1      32.506  30.897  27.045  1.00  0.00     0.202 C 
BRANCH  26  27
ATOM     27  C   UNL A   1      32.327  32.394  27.369  1.00  0.00     0.261 C 
BRANCH  27  28
ATOM     28  O   UNL A   1      33.490  33.221  27.458  1.00  0.00    -0.460 OA
BRANCH  28  29
ATOM     29  C   UNL A   1      33.487  34.138  28.457  1.00  0.00     0.338 C 
ATOM     30  O   UNL A   1      32.637  34.995  28.666  1.00  0.00    -0.246 OA
BRANCH  29  31
ATOM     31  C   UNL A   1      34.578  33.832  29.401  1.00  0.00     0.060 A 
ATOM     32  C   UNL A   1      35.855  34.363  29.161  1.00  0.00     0.016 A 
ATOM     33  C   UNL A   1      34.353  33.007  30.503  1.00  0.00     0.016 A 
ATOM     34  C   UNL A   1      36.915  34.050  30.012  1.00  0.00     0.010 A 
ATOM     35  C   UNL A   1      35.423  32.676  31.340  1.00  0.00     0.010 A 
ATOM     36  C   UNL A   1      36.715  33.172  31.086  1.00  0.00    -0.014 A 
BRANCH  36  37
ATOM     37  C   UNL A   1      37.877  32.629  31.835  1.00  0.00     0.031 A 
ATOM     38  C   UNL A   1      38.630  31.465  31.246  1.00  0.00     0.074 A 
ATOM     39  C   UNL A   1      38.259  33.150  33.015  1.00  0.00     0.049 A 
ATOM     40  N   UNL A   1      39.616  30.772  31.752  1.00  0.00    -0.248 NA
ATOM     41  C   UNL A   1      38.210  31.025  29.905  1.00  0.00     0.031 C 
ATOM     42  C   UNL A   1      37.645  34.304  33.669  1.00  0.00     0.029 A 
ATOM     43  N   UNL A   1      39.253  32.763  33.881  1.00  0.00    -0.354 N 
ATOM     44  C   UNL A   1      39.925  29.804  30.802  1.00  0.00     0.074 A 
ATOM     45  C   UNL A   1      39.006  29.987  29.699  1.00  0.00     0.031 C 
ATOM     46  C   UNL A   1      38.266  34.521  34.843  1.00  0.00     0.029 A 
ATOM     47  C   UNL A   1      39.294  33.501  35.041  1.00  0.00     0.049 A 
ATOM     48  H   UNL A   1      39.876  32.026  33.689  1.00  0.00     0.167 HD
ATOM     49  C   UNL A   1      40.887  28.852  30.844  1.00  0.00     0.037 A 
ATOM     50  C   UNL A   1      40.054  33.351  36.146  1.00  0.00     0.037 A 
ATOM     51  C   UNL A   1      41.798  28.674  31.945  1.00  0.00     0.049 A 
ATOM     52  C   UNL A   1      41.067  32.232  36.202  1.00  0.00     0.074 A 
ATOM     53  C   UNL A   1      42.822  27.751  32.072  1.00  0.00     0.029 A 
ATOM     54  N   UNL A   1      41.789  29.422  33.113  1.00  0.00    -0.354 N 
ATOM     55  N   UNL A   1      41.365  31.339  35.288  1.00  0.00    -0.248 NA
ATOM     56  C   UNL A   1      41.848  32.102  37.441  1.00  0.00     0.031 C 
ATOM     57  C   UNL A   1      43.392  27.900  33.340  1.00  0.00     0.029 A 
ATOM     58  C   UNL A   1      42.769  28.961  33.977  1.00  0.00     0.049 A 
ATOM     59  H   UNL A   1      41.178  30.170  33.299  1.00  0.00     0.167 HD
ATOM     60  C   UNL A   1      42.390  30.566  35.828  1.00  0.00     0.074 A 
ATOM     61  C   UNL A   1      42.666  31.102  37.144  1.00  0.00     0.031 C 
ATOM     62  C   UNL A   1      43.046  29.510  35.283  1.00  0.00     0.037 A 
BRANCH  49  63
ATOM     63  C   UNL A   1      40.982  27.903  29.680  1.00  0.00     0.058 A 
ATOM     64  C   UNL A   1      40.051  26.871  29.484  1.00  0.00     0.135 A 
ATOM     65  C   UNL A   1      42.000  28.057  28.724  1.00  0.00     0.135 A 
ATOM     66  F   UNL A   1      39.069  26.667  30.375  1.00  0.00    -0.206 F 
ATOM     67  C   UNL A   1      40.141  26.009  28.394  1.00  0.00     0.059 A 
ATOM     68  C   UNL A   1      42.090  27.226  27.612  1.00  0.00     0.059 A 
ATOM     69  F   UNL A   1      42.919  29.025  28.864  1.00  0.00    -0.206 F 
ATOM     70  C   UNL A   1      41.163  26.197  27.463  1.00  0.00     0.060 A 
BRANCH  70  71
ATOM     71  S   UNL A   1      41.258  25.076  26.051  1.00  0.00     0.124 S 
ATOM     72  O   UNL A   1      39.846  24.842  25.769  1.00  0.00    -0.237 OA
ATOM     73  O   UNL A   1      41.977  25.877  25.065  1.00  0.00    -0.237 OA
ATOM     74  O   UNL A   1      41.990  23.928  26.576  1.00  0.00    -0.744 OA
ENDBRANCH  70  71
ENDBRANCH  49  63
BRANCH  50  75
ATOM     75  C   UNL A   1      39.884  34.270  37.305  1.00  0.00     0.058 A 
ATOM     76  C   UNL A   1      39.112  33.901  38.416  1.00  0.00     0.135 A 
ATOM     77  C   UNL A   1      40.472  35.546  37.315  1.00  0.00     0.135 A 
ATOM     78  F   UNL A   1      38.515  32.700  38.448  1.00  0.00    -0.206 F 
ATOM     79  C   UNL A   1      38.915  34.766  39.489  1.00  0.00     0.059 A 
ATOM     80  C   UNL A   1      40.314  36.417  38.389  1.00  0.00     0.059 A 
ATOM     81  F   UNL A   1      41.223  35.949  36.279  1.00  0.00    -0.206 F 
ATOM     82  C   UNL A   1      39.523  36.022  39.467  1.00  0.00     0.060 A 
BRANCH  82  83
ATOM     83  S   UNL A   1      39.295  37.118  40.884  1.00  0.00     0.124 S 
ATOM     84  O   UNL A   1      38.510  38.198  40.296  1.00  0.00    -0.237 OA
ATOM     85  O   UNL A   1      38.589  36.256  41.826  1.00  0.00    -0.237 OA
ATOM     86  O   UNL A   1      40.661  37.466  41.264  1.00  0.00    -0.744 OA
ENDBRANCH  82  83
ENDBRANCH  50  75
BRANCH  62  87
ATOM     87  C   UNL A   1      44.163  28.888  36.078  1.00  0.00     0.058 A 
ATOM     88  C   UNL A   1      45.470  29.401  36.057  1.00  0.00     0.135 A 
ATOM     89  C   UNL A   1      43.907  27.794  36.924  1.00  0.00     0.135 A 
ATOM     90  F   UNL A   1      45.773  30.441  35.264  1.00  0.00    -0.206 F 
ATOM     91  C   UNL A   1      46.486  28.840  36.825  1.00  0.00     0.059 A 
ATOM     92  C   UNL A   1      44.900  27.238  37.725  1.00  0.00     0.059 A 
ATOM     93  F   UNL A   1      42.674  27.270  36.994  1.00  0.00    -0.206 F 
ATOM     94  C   UNL A   1      46.190  27.760  37.659  1.00  0.00     0.060 A 
BRANCH  94  95
ATOM     95  S   UNL A   1      47.509  27.064  38.677  1.00  0.00     0.124 S 
ATOM     96  O   UNL A   1      46.855  25.889  39.244  1.00  0.00    -0.237 OA
ATOM     97  O   UNL A   1      48.553  26.794  37.693  1.00  0.00    -0.237 OA
ATOM     98  O   UNL A   1      47.809  28.133  39.623  1.00  0.00    -0.744 OA
ENDBRANCH  94  95
ENDBRANCH  62  87
ENDBRANCH  36  37
ENDBRANCH  29  31
ENDBRANCH  28  29
ENDBRANCH  27  28
ENDBRANCH  26  27
ENDBRANCH  25  26
ENDBRANCH  24  25
ENDBRANCH   1  24
TORSDOF 23
ENDMDL
