MODEL 1
REMARK VINA RESULT:     -10.1      0.000      0.000
REMARK SMILES O=C(C[C@H]1C[N@@H+](CCSc2ccccc2F)CCO1)OCCOCCOCCOC(=O)c1ccc(-c2c3nc(c(-c4c(F)cc(S(=O)(=O)[O-])cc4F)c4ccc([nH]4)c(-c4c(F)cc(S(=O)(=O)[O-])cc4F)c4nc(c(-c5c(F)cc(S(=O)(=O)[O-])cc5F)c5ccc2[nH]5)C=C4)C=C3)cc1
REMARK SMILES IDX 24 1 23 2 22 3 21 4 20 5 2 6 1 7 3 8 4 9 5 10 19 11 6 12
REMARK SMILES IDX 18 13 17 14 7 16 8 17 9 18 10 19 11 20 15 21 12 22 14 23
REMARK SMILES IDX 16 24 13 25 25 26 26 27 27 28 28 29 29 30 30 31 31 32 32 33
REMARK SMILES IDX 33 34 97 35 34 36 96 37 35 38 36 39 37 40 90 41 38 42 95 43
REMARK SMILES IDX 89 44 91 45 39 46 94 47 88 48 87 49 40 51 74 52 53 53 73 54
REMARK SMILES IDX 54 55 57 56 72 57 92 58 55 59 56 60 71 62 93 63 58 64 41 65
REMARK SMILES IDX 42 66 51 67 43 68 44 69 50 70 52 71 45 72 46 73 47 74 48 75
REMARK SMILES IDX 49 76 75 77 76 78 85 79 77 80 78 81 84 82 86 83 79 84 80 85
REMARK SMILES IDX 81 86 82 87 83 88 59 89 60 90 69 91 61 92 62 93 68 94 70 95
REMARK SMILES IDX 63 96 64 97 65 98 66 99 67 100
REMARK H PARENT 6 15 91 50 57 61
REMARK Flexibility Score: inf
ROOT
ATOM      1  C   UNL A   1      39.125  21.781  26.209  1.00  0.00     0.188 C 
ENDROOT
BRANCH   1   2
ATOM      2  O   UNL A   1      38.392  21.464  25.018  1.00  0.00    -0.376 OA
BRANCH   2   3
ATOM      3  C   UNL A   1      37.120  20.877  25.282  1.00  0.00     0.202 C 
BRANCH   3   4
ATOM      4  C   UNL A   1      35.995  21.846  25.630  1.00  0.00     0.261 C 
BRANCH   4   5
ATOM      5  O   UNL A   1      35.519  22.637  24.533  1.00  0.00    -0.463 OA
BRANCH   5   6
ATOM      6  C   UNL A   1      34.223  22.884  24.226  1.00  0.00     0.308 C 
ATOM      7  O   UNL A   1      33.629  22.094  23.495  1.00  0.00    -0.252 OA
BRANCH   6   8
ATOM      8  C   UNL A   1      33.555  24.153  24.702  1.00  0.00     0.160 C 
BRANCH   8   9
ATOM      9  C   UNL A   1      33.074  24.063  26.144  1.00  0.00     0.184 C 
ATOM     10  C   UNL A   1      32.163  25.262  26.576  1.00  0.00     0.295 C 
ATOM     11  O   UNL A   1      32.469  22.783  26.393  1.00  0.00    -0.366 OA
ATOM     12  N   UNL A   1      30.734  25.161  26.269  1.00  0.00    -0.330 N 
ATOM     13  C   UNL A   1      31.121  22.722  25.920  1.00  0.00     0.222 C 
ATOM     14  C   UNL A   1      30.304  23.815  26.603  1.00  0.00     0.291 C 
ATOM     15  H   UNL A   1      30.199  25.792  26.865  1.00  0.00     0.348 HD
BRANCH  12  16
ATOM     16  C   UNL A   1      30.276  25.786  25.015  1.00  0.00     0.273 C 
BRANCH  16  17
ATOM     17  C   UNL A   1      30.825  27.124  24.437  1.00  0.00     0.136 C 
BRANCH  17  18
ATOM     18  S   UNL A   1      30.631  27.444  22.630  1.00  0.00    -0.117 SA
BRANCH  18  19
ATOM     19  C   UNL A   1      29.401  28.741  22.587  1.00  0.00     0.043 A 
ATOM     20  C   UNL A   1      29.828  30.013  22.174  1.00  0.00     0.018 A 
ATOM     21  C   UNL A   1      28.102  28.600  23.094  1.00  0.00     0.136 A 
ATOM     22  C   UNL A   1      29.022  31.136  22.394  1.00  0.00     0.001 A 
ATOM     23  C   UNL A   1      27.283  29.717  23.284  1.00  0.00     0.040 A 
ATOM     24  F   UNL A   1      27.664  27.411  23.535  1.00  0.00    -0.206 F 
ATOM     25  C   UNL A   1      27.761  30.991  22.970  1.00  0.00     0.003 A 
ENDBRANCH  18  19
ENDBRANCH  17  18
ENDBRANCH  16  17
ENDBRANCH  12  16
ENDBRANCH   8   9
ENDBRANCH   6   8
ENDBRANCH   5   6
ENDBRANCH   4   5
ENDBRANCH   3   4
ENDBRANCH   2   3
ENDBRANCH   1   2
BRANCH   1  26
ATOM     26  C   UNL A   1      40.351  20.892  26.427  1.00  0.00     0.188 C 
BRANCH  26  27
ATOM     27  O   UNL A   1      41.543  21.227  25.725  1.00  0.00    -0.376 OA
BRANCH  27  28
ATOM     28  C   UNL A   1      42.508  22.041  26.376  1.00  0.00     0.202 C 
BRANCH  28  29
ATOM     29  C   UNL A   1      42.592  23.541  26.068  1.00  0.00     0.261 C 
BRANCH  29  30
ATOM     30  O   UNL A   1      41.344  24.242  25.983  1.00  0.00    -0.460 OA
BRANCH  30  31
ATOM     31  C   UNL A   1      41.468  25.585  25.987  1.00  0.00     0.338 C 
ATOM     32  O   UNL A   1      41.563  26.326  25.000  1.00  0.00    -0.246 OA
BRANCH  31  33
ATOM     33  C   UNL A   1      41.505  26.119  27.348  1.00  0.00     0.060 A 
ATOM     34  C   UNL A   1      40.433  25.889  28.218  1.00  0.00     0.016 A 
ATOM     35  C   UNL A   1      42.500  27.043  27.676  1.00  0.00     0.016 A 
ATOM     36  C   UNL A   1      40.321  26.638  29.389  1.00  0.00     0.010 A 
ATOM     37  C   UNL A   1      42.392  27.782  28.856  1.00  0.00     0.010 A 
ATOM     38  C   UNL A   1      41.274  27.622  29.692  1.00  0.00    -0.014 A 
BRANCH  38  39
ATOM     39  C   UNL A   1      41.028  28.591  30.790  1.00  0.00     0.031 A 
ATOM     40  C   UNL A   1      41.876  28.529  32.036  1.00  0.00     0.074 A 
ATOM     41  C   UNL A   1      40.075  29.533  30.673  1.00  0.00     0.049 A 
ATOM     42  N   UNL A   1      41.794  29.243  33.129  1.00  0.00    -0.248 NA
ATOM     43  C   UNL A   1      42.962  27.534  32.050  1.00  0.00     0.031 C 
ATOM     44  C   UNL A   1      39.217  29.726  29.506  1.00  0.00     0.029 A 
ATOM     45  N   UNL A   1      39.666  30.501  31.555  1.00  0.00    -0.354 N 
ATOM     46  C   UNL A   1      42.818  28.793  33.955  1.00  0.00     0.074 A 
ATOM     47  C   UNL A   1      43.482  27.715  33.256  1.00  0.00     0.031 C 
ATOM     48  C   UNL A   1      38.377  30.748  29.746  1.00  0.00     0.029 A 
ATOM     49  C   UNL A   1      38.616  31.259  31.093  1.00  0.00     0.049 A 
ATOM     50  H   UNL A   1      40.085  30.641  32.435  1.00  0.00     0.167 HD
ATOM     51  C   UNL A   1      43.184  29.249  35.177  1.00  0.00     0.037 A 
ATOM     52  C   UNL A   1      37.917  32.241  31.695  1.00  0.00     0.037 A 
ATOM     53  C   UNL A   1      42.527  30.325  35.872  1.00  0.00     0.049 A 
ATOM     54  C   UNL A   1      38.285  32.668  33.092  1.00  0.00     0.074 A 
ATOM     55  C   UNL A   1      42.832  30.858  37.113  1.00  0.00     0.029 A 
ATOM     56  N   UNL A   1      41.440  31.037  35.389  1.00  0.00    -0.354 N 
ATOM     57  N   UNL A   1      39.254  32.232  33.862  1.00  0.00    -0.248 NA
ATOM     58  C   UNL A   1      37.464  33.724  33.704  1.00  0.00     0.031 C 
ATOM     59  C   UNL A   1      41.907  31.867  37.397  1.00  0.00     0.029 A 
ATOM     60  C   UNL A   1      41.053  31.994  36.314  1.00  0.00     0.049 A 
ATOM     61  H   UNL A   1      41.008  30.885  34.518  1.00  0.00     0.167 HD
ATOM     62  C   UNL A   1      39.179  32.981  35.030  1.00  0.00     0.074 A 
ATOM     63  C   UNL A   1      38.073  33.902  34.868  1.00  0.00     0.031 C 
ATOM     64  C   UNL A   1      39.959  32.915  36.137  1.00  0.00     0.037 A 
BRANCH  51  65
ATOM     65  C   UNL A   1      44.360  28.598  35.849  1.00  0.00     0.058 A 
ATOM     66  C   UNL A   1      44.177  27.538  36.750  1.00  0.00     0.135 A 
ATOM     67  C   UNL A   1      45.664  29.088  35.670  1.00  0.00     0.135 A 
ATOM     68  F   UNL A   1      42.952  27.027  36.954  1.00  0.00    -0.206 F 
ATOM     69  C   UNL A   1      45.241  27.003  37.469  1.00  0.00     0.059 A 
ATOM     70  C   UNL A   1      46.746  28.553  36.362  1.00  0.00     0.059 A 
ATOM     71  F   UNL A   1      45.895  30.087  34.802  1.00  0.00    -0.206 F 
ATOM     72  C   UNL A   1      46.521  27.523  37.274  1.00  0.00     0.060 A 
BRANCH  72  73
ATOM     73  S   UNL A   1      47.891  26.817  38.216  1.00  0.00     0.124 S 
ATOM     74  O   UNL A   1      48.915  27.846  38.074  1.00  0.00    -0.237 OA
ATOM     75  O   UNL A   1      47.307  26.677  39.546  1.00  0.00    -0.237 OA
ATOM     76  O   UNL A   1      48.163  25.559  37.526  1.00  0.00    -0.744 OA
ENDBRANCH  72  73
ENDBRANCH  51  65
BRANCH  52  77
ATOM     77  C   UNL A   1      36.794  32.897  30.977  1.00  0.00     0.058 A 
ATOM     78  C   UNL A   1      35.463  32.521  31.208  1.00  0.00     0.135 A 
ATOM     79  C   UNL A   1      37.033  33.920  30.047  1.00  0.00     0.135 A 
ATOM     80  F   UNL A   1      35.179  31.547  32.087  1.00  0.00    -0.206 F 
ATOM     81  C   UNL A   1      34.407  33.126  30.535  1.00  0.00     0.059 A 
ATOM     82  C   UNL A   1      35.993  34.559  29.379  1.00  0.00     0.059 A 
ATOM     83  F   UNL A   1      38.289  34.326  29.806  1.00  0.00    -0.206 F 
ATOM     84  C   UNL A   1      34.683  34.145  29.621  1.00  0.00     0.060 A 
BRANCH  84  85
ATOM     85  S   UNL A   1      33.297  34.928  28.771  1.00  0.00     0.124 S 
ATOM     86  O   UNL A   1      33.974  35.977  28.014  1.00  0.00    -0.237 OA
ATOM     87  O   UNL A   1      32.758  33.825  27.983  1.00  0.00    -0.237 OA
ATOM     88  O   UNL A   1      32.446  35.388  29.864  1.00  0.00    -0.744 OA
ENDBRANCH  84  85
ENDBRANCH  52  77
BRANCH  64  89
ATOM     89  C   UNL A   1      39.680  33.884  37.253  1.00  0.00     0.058 A 
ATOM     90  C   UNL A   1      40.215  35.182  37.218  1.00  0.00     0.135 A 
ATOM     91  C   UNL A   1      38.939  33.511  38.385  1.00  0.00     0.135 A 
ATOM     92  F   UNL A   1      40.935  35.589  36.160  1.00  0.00    -0.206 F 
ATOM     93  C   UNL A   1      40.038  36.071  38.272  1.00  0.00     0.059 A 
ATOM     94  C   UNL A   1      38.728  34.394  39.442  1.00  0.00     0.059 A 
ATOM     95  F   UNL A   1      38.397  32.285  38.464  1.00  0.00    -0.206 F 
ATOM     96  C   UNL A   1      39.295  35.668  39.383  1.00  0.00     0.060 A 
BRANCH  96  97
ATOM     97  S   UNL A   1      39.056  36.840  40.734  1.00  0.00     0.124 S 
ATOM     98  O   UNL A   1      40.429  37.109  41.145  1.00  0.00    -0.237 OA
ATOM     99  O   UNL A   1      38.364  37.942  40.071  1.00  0.00    -0.237 OA
ATOM    100  O   UNL A   1      38.248  36.092  41.693  1.00  0.00    -0.744 OA
ENDBRANCH  96  97
ENDBRANCH  64  89
ENDBRANCH  38  39
ENDBRANCH  31  33
ENDBRANCH  30  31
ENDBRANCH  29  30
ENDBRANCH  28  29
ENDBRANCH  27  28
ENDBRANCH  26  27
ENDBRANCH   1  26
TORSDOF 25
ENDMDL
MODEL 2
REMARK VINA RESULT:     -10.0      3.178      4.276
REMARK SMILES O=C(C[C@H]1C[N@@H+](CCSc2ccccc2F)CCO1)OCCOCCOCCOC(=O)c1ccc(-c2c3nc(c(-c4c(F)cc(S(=O)(=O)[O-])cc4F)c4ccc([nH]4)c(-c4c(F)cc(S(=O)(=O)[O-])cc4F)c4nc(c(-c5c(F)cc(S(=O)(=O)[O-])cc5F)c5ccc2[nH]5)C=C4)C=C3)cc1
REMARK SMILES IDX 24 1 23 2 22 3 21 4 20 5 2 6 1 7 3 8 4 9 5 10 19 11 6 12
REMARK SMILES IDX 18 13 17 14 7 16 8 17 9 18 10 19 11 20 15 21 12 22 14 23
REMARK SMILES IDX 16 24 13 25 25 26 26 27 27 28 28 29 29 30 30 31 31 32 32 33
REMARK SMILES IDX 33 34 97 35 34 36 96 37 35 38 36 39 37 40 90 41 38 42 95 43
REMARK SMILES IDX 89 44 91 45 39 46 94 47 88 48 87 49 40 51 74 52 53 53 73 54
REMARK SMILES IDX 54 55 57 56 72 57 92 58 55 59 56 60 71 62 93 63 58 64 41 65
REMARK SMILES IDX 42 66 51 67 43 68 44 69 50 70 52 71 45 72 46 73 47 74 48 75
REMARK SMILES IDX 49 76 75 77 76 78 85 79 77 80 78 81 84 82 86 83 79 84 80 85
REMARK SMILES IDX 81 86 82 87 83 88 59 89 60 90 69 91 61 92 62 93 68 94 70 95
REMARK SMILES IDX 63 96 64 97 65 98 66 99 67 100
REMARK H PARENT 6 15 91 50 57 61
REMARK Flexibility Score: inf
ROOT
ATOM      1  C   UNL A   1      33.961  20.700  25.904  1.00  0.00     0.188 C 
ENDROOT
BRANCH   1   2
ATOM      2  O   UNL A   1      32.687  20.656  25.248  1.00  0.00    -0.376 OA
BRANCH   2   3
ATOM      3  C   UNL A   1      31.909  21.832  25.453  1.00  0.00     0.202 C 
BRANCH   3   4
ATOM      4  C   UNL A   1      32.359  22.742  26.591  1.00  0.00     0.261 C 
BRANCH   4   5
ATOM      5  O   UNL A   1      32.671  24.086  26.201  1.00  0.00    -0.463 OA
BRANCH   5   6
ATOM      6  C   UNL A   1      33.830  24.511  25.644  1.00  0.00     0.308 C 
ATOM      7  O   UNL A   1      34.891  24.079  26.089  1.00  0.00    -0.252 OA
BRANCH   6   8
ATOM      8  C   UNL A   1      33.814  25.561  24.558  1.00  0.00     0.160 C 
BRANCH   8   9
ATOM      9  C   UNL A   1      34.095  24.987  23.176  1.00  0.00     0.184 C 
ATOM     10  C   UNL A   1      33.038  23.927  22.713  1.00  0.00     0.295 C 
ATOM     11  O   UNL A   1      34.282  26.043  22.220  1.00  0.00    -0.366 OA
ATOM     12  N   UNL A   1      31.821  24.431  22.072  1.00  0.00    -0.330 N 
ATOM     13  C   UNL A   1      33.040  26.584  21.763  1.00  0.00     0.222 C 
ATOM     14  C   UNL A   1      32.212  25.467  21.134  1.00  0.00     0.291 C 
ATOM     15  H   UNL A   1      31.380  23.694  21.522  1.00  0.00     0.348 HD
BRANCH  12  16
ATOM     16  C   UNL A   1      30.646  24.633  22.940  1.00  0.00     0.273 C 
BRANCH  16  17
ATOM     17  C   UNL A   1      30.496  25.785  23.977  1.00  0.00     0.136 C 
BRANCH  17  18
ATOM     18  S   UNL A   1      28.814  26.484  24.275  1.00  0.00    -0.117 SA
BRANCH  18  19
ATOM     19  C   UNL A   1      28.784  27.916  23.205  1.00  0.00     0.043 A 
ATOM     20  C   UNL A   1      30.012  28.345  22.678  1.00  0.00     0.018 A 
ATOM     21  C   UNL A   1      27.651  28.717  23.006  1.00  0.00     0.136 A 
ATOM     22  C   UNL A   1      30.127  29.609  22.088  1.00  0.00     0.001 A 
ATOM     23  C   UNL A   1      27.757  29.966  22.388  1.00  0.00     0.040 A 
ATOM     24  F   UNL A   1      26.464  28.365  23.523  1.00  0.00    -0.206 F 
ATOM     25  C   UNL A   1      29.005  30.428  21.965  1.00  0.00     0.003 A 
ENDBRANCH  18  19
ENDBRANCH  17  18
ENDBRANCH  16  17
ENDBRANCH  12  16
ENDBRANCH   8   9
ENDBRANCH   6   8
ENDBRANCH   5   6
ENDBRANCH   4   5
ENDBRANCH   3   4
ENDBRANCH   2   3
ENDBRANCH   1   2
BRANCH   1  26
ATOM     26  C   UNL A   1      35.137  20.900  24.946  1.00  0.00     0.188 C 
BRANCH  26  27
ATOM     27  O   UNL A   1      36.177  19.928  24.965  1.00  0.00    -0.376 OA
BRANCH  27  28
ATOM     28  C   UNL A   1      37.525  20.377  24.958  1.00  0.00     0.202 C 
BRANCH  28  29
ATOM     29  C   UNL A   1      37.843  21.874  25.047  1.00  0.00     0.261 C 
BRANCH  29  30
ATOM     30  O   UNL A   1      38.185  22.373  26.348  1.00  0.00    -0.460 OA
BRANCH  30  31
ATOM     31  C   UNL A   1      39.428  22.890  26.428  1.00  0.00     0.338 C 
ATOM     32  O   UNL A   1      40.490  22.319  26.148  1.00  0.00    -0.246 OA
BRANCH  31  33
ATOM     33  C   UNL A   1      39.409  24.264  26.929  1.00  0.00     0.060 A 
ATOM     34  C   UNL A   1      40.153  25.254  26.276  1.00  0.00     0.016 A 
ATOM     35  C   UNL A   1      38.841  24.511  28.180  1.00  0.00     0.016 A 
ATOM     36  C   UNL A   1      40.385  26.474  26.911  1.00  0.00     0.010 A 
ATOM     37  C   UNL A   1      39.063  25.739  28.807  1.00  0.00     0.010 A 
ATOM     38  C   UNL A   1      39.882  26.706  28.200  1.00  0.00    -0.014 A 
BRANCH  38  39
ATOM     39  C   UNL A   1      40.336  27.886  28.981  1.00  0.00     0.031 A 
ATOM     40  C   UNL A   1      41.714  27.884  29.591  1.00  0.00     0.074 A 
ATOM     41  C   UNL A   1      39.538  28.959  29.126  1.00  0.00     0.049 A 
ATOM     42  N   UNL A   1      42.286  28.785  30.349  1.00  0.00    -0.248 NA
ATOM     43  C   UNL A   1      42.564  26.715  29.308  1.00  0.00     0.031 C 
ATOM     44  C   UNL A   1      38.203  29.104  28.551  1.00  0.00     0.029 A 
ATOM     45  N   UNL A   1      39.739  30.132  29.810  1.00  0.00    -0.354 N 
ATOM     46  C   UNL A   1      43.559  28.299  30.625  1.00  0.00     0.074 A 
ATOM     47  C   UNL A   1      43.664  27.004  29.989  1.00  0.00     0.031 C 
ATOM     48  C   UNL A   1      37.699  30.296  28.912  1.00  0.00     0.029 A 
ATOM     49  C   UNL A   1      38.662  30.984  29.768  1.00  0.00     0.049 A 
ATOM     50  H   UNL A   1      40.575  30.343  30.286  1.00  0.00     0.167 HD
ATOM     51  C   UNL A   1      44.556  28.887  31.328  1.00  0.00     0.037 A 
ATOM     52  C   UNL A   1      38.468  32.177  30.366  1.00  0.00     0.037 A 
ATOM     53  C   UNL A   1      44.455  30.178  31.956  1.00  0.00     0.049 A 
ATOM     54  C   UNL A   1      39.559  32.767  31.220  1.00  0.00     0.074 A 
ATOM     55  C   UNL A   1      45.417  30.855  32.686  1.00  0.00     0.029 A 
ATOM     56  N   UNL A   1      43.332  30.990  31.927  1.00  0.00    -0.354 N 
ATOM     57  N   UNL A   1      40.757  32.296  31.473  1.00  0.00    -0.248 NA
ATOM     58  C   UNL A   1      39.274  34.056  31.868  1.00  0.00     0.031 C 
ATOM     59  C   UNL A   1      44.865  32.060  33.130  1.00  0.00     0.029 A 
ATOM     60  C   UNL A   1      43.573  32.155  32.639  1.00  0.00     0.049 A 
ATOM     61  H   UNL A   1      42.489  30.772  31.469  1.00  0.00     0.167 HD
ATOM     62  C   UNL A   1      41.377  33.243  32.280  1.00  0.00     0.074 A 
ATOM     63  C   UNL A   1      40.426  34.318  32.471  1.00  0.00     0.031 C 
ATOM     64  C   UNL A   1      42.624  33.226  32.812  1.00  0.00     0.037 A 
BRANCH  51  65
ATOM     65  C   UNL A   1      45.861  28.150  31.451  1.00  0.00     0.058 A 
ATOM     66  C   UNL A   1      46.844  28.260  30.457  1.00  0.00     0.135 A 
ATOM     67  C   UNL A   1      46.098  27.262  32.513  1.00  0.00     0.135 A 
ATOM     68  F   UNL A   1      46.671  29.099  29.423  1.00  0.00    -0.206 F 
ATOM     69  C   UNL A   1      48.006  27.496  30.496  1.00  0.00     0.059 A 
ATOM     70  C   UNL A   1      47.263  26.504  32.583  1.00  0.00     0.059 A 
ATOM     71  F   UNL A   1      45.197  27.138  33.502  1.00  0.00    -0.206 F 
ATOM     72  C   UNL A   1      48.203  26.615  31.560  1.00  0.00     0.060 A 
BRANCH  72  73
ATOM     73  S   UNL A   1      49.717  25.630  31.595  1.00  0.00     0.124 S 
ATOM     74  O   UNL A   1      50.711  26.621  31.988  1.00  0.00    -0.237 OA
ATOM     75  O   UNL A   1      49.397  24.616  32.596  1.00  0.00    -0.237 OA
ATOM     76  O   UNL A   1      49.829  25.133  30.227  1.00  0.00    -0.744 OA
ENDBRANCH  72  73
ENDBRANCH  51  65
BRANCH  52  77
ATOM     77  C   UNL A   1      37.184  32.900  30.176  1.00  0.00     0.058 A 
ATOM     78  C   UNL A   1      36.142  32.791  31.109  1.00  0.00     0.135 A 
ATOM     79  C   UNL A   1      36.978  33.721  29.057  1.00  0.00     0.135 A 
ATOM     80  F   UNL A   1      36.287  32.018  32.196  1.00  0.00    -0.206 F 
ATOM     81  C   UNL A   1      34.935  33.459  30.934  1.00  0.00     0.059 A 
ATOM     82  C   UNL A   1      35.789  34.420  28.873  1.00  0.00     0.059 A 
ATOM     83  F   UNL A   1      37.953  33.869  28.147  1.00  0.00    -0.206 F 
ATOM     84  C   UNL A   1      34.769  34.273  29.812  1.00  0.00     0.060 A 
BRANCH  84  85
ATOM     85  S   UNL A   1      33.201  35.144  29.614  1.00  0.00     0.124 S 
ATOM     86  O   UNL A   1      33.655  36.488  29.270  1.00  0.00    -0.237 OA
ATOM     87  O   UNL A   1      32.567  34.394  28.534  1.00  0.00    -0.237 OA
ATOM     88  O   UNL A   1      32.570  35.007  30.923  1.00  0.00    -0.744 OA
ENDBRANCH  84  85
ENDBRANCH  52  77
BRANCH  64  89
ATOM     89  C   UNL A   1      43.058  34.415  33.623  1.00  0.00     0.058 A 
ATOM     90  C   UNL A   1      43.795  35.452  33.027  1.00  0.00     0.135 A 
ATOM     91  C   UNL A   1      42.804  34.501  35.001  1.00  0.00     0.135 A 
ATOM     92  F   UNL A   1      44.070  35.417  31.713  1.00  0.00    -0.206 F 
ATOM     93  C   UNL A   1      44.277  36.523  33.770  1.00  0.00     0.059 A 
ATOM     94  C   UNL A   1      43.256  35.578  35.760  1.00  0.00     0.059 A 
ATOM     95  F   UNL A   1      42.096  33.542  35.618  1.00  0.00    -0.206 F 
ATOM     96  C   UNL A   1      44.005  36.577  35.138  1.00  0.00     0.060 A 
BRANCH  96  97
ATOM     97  S   UNL A   1      44.619  37.986  36.085  1.00  0.00     0.124 S 
ATOM     98  O   UNL A   1      44.095  39.112  35.323  1.00  0.00    -0.237 OA
ATOM     99  O   UNL A   1      44.012  37.767  37.395  1.00  0.00    -0.237 OA
ATOM    100  O   UNL A   1      46.069  37.817  36.042  1.00  0.00    -0.744 OA
ENDBRANCH  96  97
ENDBRANCH  64  89
ENDBRANCH  38  39
ENDBRANCH  31  33
ENDBRANCH  30  31
ENDBRANCH  29  30
ENDBRANCH  28  29
ENDBRANCH  27  28
ENDBRANCH  26  27
ENDBRANCH   1  26
TORSDOF 25
ENDMDL
MODEL 3
REMARK VINA RESULT:     -10.0      1.530      8.254
REMARK SMILES O=C(C[C@H]1C[N@@H+](CCSc2ccccc2F)CCO1)OCCOCCOCCOC(=O)c1ccc(-c2c3nc(c(-c4c(F)cc(S(=O)(=O)[O-])cc4F)c4ccc([nH]4)c(-c4c(F)cc(S(=O)(=O)[O-])cc4F)c4nc(c(-c5c(F)cc(S(=O)(=O)[O-])cc5F)c5ccc2[nH]5)C=C4)C=C3)cc1
REMARK SMILES IDX 24 1 23 2 22 3 21 4 20 5 2 6 1 7 3 8 4 9 5 10 19 11 6 12
REMARK SMILES IDX 18 13 17 14 7 16 8 17 9 18 10 19 11 20 15 21 12 22 14 23
REMARK SMILES IDX 16 24 13 25 25 26 26 27 27 28 28 29 29 30 30 31 31 32 32 33
REMARK SMILES IDX 33 34 97 35 34 36 96 37 35 38 36 39 37 40 90 41 38 42 95 43
REMARK SMILES IDX 89 44 91 45 39 46 94 47 88 48 87 49 40 51 74 52 53 53 73 54
REMARK SMILES IDX 54 55 57 56 72 57 92 58 55 59 56 60 71 62 93 63 58 64 41 65
REMARK SMILES IDX 42 66 51 67 43 68 44 69 50 70 52 71 45 72 46 73 47 74 48 75
REMARK SMILES IDX 49 76 75 77 76 78 85 79 77 80 78 81 84 82 86 83 79 84 80 85
REMARK SMILES IDX 81 86 82 87 83 88 59 89 60 90 69 91 61 92 62 93 68 94 70 95
REMARK SMILES IDX 63 96 64 97 65 98 66 99 67 100
REMARK H PARENT 6 15 91 50 57 61
REMARK Flexibility Score: inf
ROOT
ATOM      1  C   UNL A   1      39.795  22.696  26.605  1.00  0.00     0.188 C 
ENDROOT
BRANCH   1   2
ATOM      2  O   UNL A   1      38.787  22.051  25.815  1.00  0.00    -0.376 OA
BRANCH   2   3
ATOM      3  C   UNL A   1      37.750  22.935  25.400  1.00  0.00     0.202 C 
BRANCH   3   4
ATOM      4  C   UNL A   1      36.762  22.377  24.380  1.00  0.00     0.261 C 
BRANCH   4   5
ATOM      5  O   UNL A   1      36.163  21.126  24.742  1.00  0.00    -0.463 OA
BRANCH   5   6
ATOM      6  C   UNL A   1      34.850  20.909  24.993  1.00  0.00     0.308 C 
ATOM      7  O   UNL A   1      34.407  19.769  24.871  1.00  0.00    -0.252 OA
BRANCH   6   8
ATOM      8  C   UNL A   1      33.936  22.066  25.325  1.00  0.00     0.160 C 
BRANCH   8   9
ATOM      9  C   UNL A   1      32.462  21.715  25.173  1.00  0.00     0.184 C 
ATOM     10  C   UNL A   1      31.497  22.828  25.707  1.00  0.00     0.295 C 
ATOM     11  O   UNL A   1      32.173  21.329  23.819  1.00  0.00    -0.366 OA
ATOM     12  N   UNL A   1      31.160  23.919  24.790  1.00  0.00    -0.330 N 
ATOM     13  C   UNL A   1      32.013  22.459  22.958  1.00  0.00     0.222 C 
ATOM     14  C   UNL A   1      30.883  23.335  23.490  1.00  0.00     0.291 C 
ATOM     15  H   UNL A   1      30.301  24.380  25.089  1.00  0.00     0.348 HD
BRANCH  12  16
ATOM     16  C   UNL A   1      31.975  25.144  24.884  1.00  0.00     0.273 C 
BRANCH  16  17
ATOM     17  C   UNL A   1      32.121  26.203  23.752  1.00  0.00     0.136 C 
BRANCH  17  18
ATOM     18  S   UNL A   1      33.644  27.245  23.716  1.00  0.00    -0.117 SA
BRANCH  18  19
ATOM     19  C   UNL A   1      33.303  28.489  24.954  1.00  0.00     0.043 A 
ATOM     20  C   UNL A   1      34.097  28.470  26.112  1.00  0.00     0.018 A 
ATOM     21  C   UNL A   1      32.201  29.353  24.909  1.00  0.00     0.136 A 
ATOM     22  C   UNL A   1      33.713  29.198  27.245  1.00  0.00     0.001 A 
ATOM     23  C   UNL A   1      31.834  30.106  26.029  1.00  0.00     0.040 A 
ATOM     24  F   UNL A   1      31.393  29.377  23.838  1.00  0.00    -0.206 F 
ATOM     25  C   UNL A   1      32.569  29.996  27.211  1.00  0.00     0.003 A 
ENDBRANCH  18  19
ENDBRANCH  17  18
ENDBRANCH  16  17
ENDBRANCH  12  16
ENDBRANCH   8   9
ENDBRANCH   6   8
ENDBRANCH   5   6
ENDBRANCH   4   5
ENDBRANCH   3   4
ENDBRANCH   2   3
ENDBRANCH   1   2
BRANCH   1  26
ATOM     26  C   UNL A   1      41.127  21.942  26.630  1.00  0.00     0.188 C 
BRANCH  26  27
ATOM     27  O   UNL A   1      42.044  22.186  25.568  1.00  0.00    -0.376 OA
BRANCH  27  28
ATOM     28  C   UNL A   1      43.167  23.018  25.820  1.00  0.00     0.202 C 
BRANCH  28  29
ATOM     29  C   UNL A   1      43.215  24.445  25.260  1.00  0.00     0.261 C 
BRANCH  29  30
ATOM     30  O   UNL A   1      42.003  25.206  25.357  1.00  0.00    -0.460 OA
BRANCH  30  31
ATOM     31  C   UNL A   1      42.199  26.532  25.507  1.00  0.00     0.338 C 
ATOM     32  O   UNL A   1      42.349  27.368  24.607  1.00  0.00    -0.246 OA
BRANCH  31  33
ATOM     33  C   UNL A   1      42.242  26.914  26.918  1.00  0.00     0.060 A 
ATOM     34  C   UNL A   1      41.287  26.408  27.808  1.00  0.00     0.016 A 
ATOM     35  C   UNL A   1      43.088  27.957  27.302  1.00  0.00     0.016 A 
ATOM     36  C   UNL A   1      41.134  26.995  29.064  1.00  0.00     0.010 A 
ATOM     37  C   UNL A   1      42.942  28.533  28.565  1.00  0.00     0.010 A 
ATOM     38  C   UNL A   1      41.927  28.092  29.432  1.00  0.00    -0.014 A 
BRANCH  38  39
ATOM     39  C   UNL A   1      41.600  28.878  30.649  1.00  0.00     0.031 A 
ATOM     40  C   UNL A   1      40.444  29.845  30.616  1.00  0.00     0.074 A 
ATOM     41  C   UNL A   1      42.310  28.717  31.780  1.00  0.00     0.049 A 
ATOM     42  N   UNL A   1      40.022  30.663  31.546  1.00  0.00    -0.248 NA
ATOM     43  C   UNL A   1      39.655  29.895  29.373  1.00  0.00     0.031 C 
ATOM     44  C   UNL A   1      43.422  27.787  31.955  1.00  0.00     0.029 A 
ATOM     45  N   UNL A   1      42.200  29.343  32.997  1.00  0.00    -0.354 N 
ATOM     46  C   UNL A   1      38.919  31.316  31.008  1.00  0.00     0.074 A 
ATOM     47  C   UNL A   1      38.760  30.831  29.654  1.00  0.00     0.031 C 
ATOM     48  C   UNL A   1      43.898  27.905  33.206  1.00  0.00     0.029 A 
ATOM     49  C   UNL A   1      43.146  28.942  33.909  1.00  0.00     0.049 A 
ATOM     50  H   UNL A   1      41.508  30.015  33.198  1.00  0.00     0.167 HD
ATOM     51  C   UNL A   1      38.101  32.223  31.594  1.00  0.00     0.037 A 
ATOM     52  C   UNL A   1      43.389  29.373  35.163  1.00  0.00     0.037 A 
ATOM     53  C   UNL A   1      38.254  32.702  32.943  1.00  0.00     0.049 A 
ATOM     54  C   UNL A   1      42.521  30.450  35.760  1.00  0.00     0.074 A 
ATOM     55  C   UNL A   1      37.470  33.618  33.623  1.00  0.00     0.029 A 
ATOM     56  N   UNL A   1      39.252  32.303  33.819  1.00  0.00    -0.354 N 
ATOM     57  N   UNL A   1      41.483  31.059  35.239  1.00  0.00    -0.248 NA
ATOM     58  C   UNL A   1      42.857  30.897  37.120  1.00  0.00     0.031 C 
ATOM     59  C   UNL A   1      38.014  33.802  34.898  1.00  0.00     0.029 A 
ATOM     60  C   UNL A   1      39.112  32.967  35.028  1.00  0.00     0.049 A 
ATOM     61  H   UNL A   1      39.956  31.647  33.613  1.00  0.00     0.167 HD
ATOM     62  C   UNL A   1      41.024  31.935  36.216  1.00  0.00     0.074 A 
ATOM     63  C   UNL A   1      41.893  31.775  37.364  1.00  0.00     0.031 C 
ATOM     64  C   UNL A   1      39.974  32.791  36.169  1.00  0.00     0.037 A 
BRANCH  51  65
ATOM     65  C   UNL A   1      36.948  32.756  30.790  1.00  0.00     0.058 A 
ATOM     66  C   UNL A   1      37.122  33.842  29.919  1.00  0.00     0.135 A 
ATOM     67  C   UNL A   1      35.649  32.248  30.954  1.00  0.00     0.135 A 
ATOM     68  F   UNL A   1      38.344  34.362  29.721  1.00  0.00    -0.206 F 
ATOM     69  C   UNL A   1      36.045  34.423  29.258  1.00  0.00     0.059 A 
ATOM     70  C   UNL A   1      34.561  32.800  30.286  1.00  0.00     0.059 A 
ATOM     71  F   UNL A   1      35.434  31.195  31.760  1.00  0.00    -0.206 F 
ATOM     72  C   UNL A   1      34.767  33.899  29.453  1.00  0.00     0.060 A 
BRANCH  72  73
ATOM     73  S   UNL A   1      33.379  34.666  28.587  1.00  0.00     0.124 S 
ATOM     74  O   UNL A   1      32.460  34.949  29.683  1.00  0.00    -0.237 OA
ATOM     75  O   UNL A   1      34.010  35.827  27.968  1.00  0.00    -0.237 OA
ATOM     76  O   UNL A   1      32.947  33.627  27.655  1.00  0.00    -0.744 OA
ENDBRANCH  72  73
ENDBRANCH  51  65
BRANCH  52  77
ATOM     77  C   UNL A   1      44.505  28.783  35.946  1.00  0.00     0.058 A 
ATOM     78  C   UNL A   1      45.795  29.332  35.903  1.00  0.00     0.135 A 
ATOM     79  C   UNL A   1      44.299  27.658  36.759  1.00  0.00     0.135 A 
ATOM     80  F   UNL A   1      46.046  30.407  35.140  1.00  0.00    -0.206 F 
ATOM     81  C   UNL A   1      46.846  28.780  36.627  1.00  0.00     0.059 A 
ATOM     82  C   UNL A   1      45.328  27.103  37.513  1.00  0.00     0.059 A 
ATOM     83  F   UNL A   1      43.077  27.109  36.845  1.00  0.00    -0.206 F 
ATOM     84  C   UNL A   1      46.601  27.664  37.431  1.00  0.00     0.060 A 
BRANCH  84  85
ATOM     85  S   UNL A   1      47.976  26.975  38.376  1.00  0.00     0.124 S 
ATOM     86  O   UNL A   1      49.123  27.422  37.591  1.00  0.00    -0.237 OA
ATOM     87  O   UNL A   1      47.808  27.618  39.675  1.00  0.00    -0.237 OA
ATOM     88  O   UNL A   1      47.716  25.539  38.352  1.00  0.00    -0.744 OA
ENDBRANCH  84  85
ENDBRANCH  52  77
BRANCH  64  89
ATOM     89  C   UNL A   1      39.672  33.601  37.400  1.00  0.00     0.058 A 
ATOM     90  C   UNL A   1      40.319  34.829  37.619  1.00  0.00     0.135 A 
ATOM     91  C   UNL A   1      38.797  33.135  38.393  1.00  0.00     0.135 A 
ATOM     92  F   UNL A   1      41.170  35.318  36.703  1.00  0.00    -0.206 F 
ATOM     93  C   UNL A   1      40.119  35.559  38.785  1.00  0.00     0.059 A 
ATOM     94  C   UNL A   1      38.562  33.863  39.558  1.00  0.00     0.059 A 
ATOM     95  F   UNL A   1      38.146  31.973  38.228  1.00  0.00    -0.206 F 
ATOM     96  C   UNL A   1      39.239  35.067  39.751  1.00  0.00     0.060 A 
BRANCH  96  97
ATOM     97  S   UNL A   1      38.973  36.037  41.250  1.00  0.00     0.124 S 
ATOM     98  O   UNL A   1      37.766  35.426  41.793  1.00  0.00    -0.237 OA
ATOM     99  O   UNL A   1      40.202  35.792  42.001  1.00  0.00    -0.237 OA
ATOM    100  O   UNL A   1      38.818  37.400  40.749  1.00  0.00    -0.744 OA
ENDBRANCH  96  97
ENDBRANCH  64  89
ENDBRANCH  38  39
ENDBRANCH  31  33
ENDBRANCH  30  31
ENDBRANCH  29  30
ENDBRANCH  28  29
ENDBRANCH  27  28
ENDBRANCH  26  27
ENDBRANCH   1  26
TORSDOF 25
ENDMDL
