MODEL 1
REMARK VINA RESULT:      -9.4      0.000      0.000
REMARK SMILES C[C@@H](Sc1nc(-c2ccc3c(c2)OCO3)ccc1C#N)C(=O)OCCOCCOCCOC(=O)c1ccc(-c2c3nc(c(-c4c(F)cc(S(=O)(=O)[O-])cc4F)c4ccc([nH]4)c(-c4c(F)cc(S(=O)(=O)[O-])cc4F)c4nc(c(-c5c(F)cc(S(=O)(=O)[O-])cc5F)c5ccc2[nH]5)C=C4)C=C3)cc1
REMARK SMILES IDX 27 1 26 2 25 3 24 4 23 5 21 6 22 7 2 8 1 9 3 10 4 11 5 12
REMARK SMILES IDX 18 13 6 14 17 15 16 16 19 17 20 18 7 19 8 20 12 21 9 22
REMARK SMILES IDX 11 23 10 24 13 25 15 26 14 27 28 28 29 29 30 30 31 31 32 32
REMARK SMILES IDX 33 33 34 34 35 35 36 36 100 37 37 38 99 39 38 40 39 41 40 42
REMARK SMILES IDX 93 43 41 44 98 45 92 46 94 47 42 48 97 49 91 50 90 51 43 53
REMARK SMILES IDX 77 54 56 55 76 56 57 57 60 58 75 59 95 60 58 61 59 62 74 64
REMARK SMILES IDX 96 65 61 66 44 67 45 68 54 69 46 70 47 71 53 72 55 73 48 74
REMARK SMILES IDX 49 75 50 76 51 77 52 78 78 79 79 80 88 81 80 82 81 83 87 84
REMARK SMILES IDX 89 85 82 86 83 87 84 88 85 89 86 90 62 91 63 92 72 93 64 94
REMARK SMILES IDX 65 95 71 96 73 97 66 98 67 99 68 100 69 101 70 102
REMARK H PARENT 94 52 60 63
REMARK Flexibility Score: inf
ROOT
ATOM      1  C   UNL A   1      34.823  33.899  28.764  1.00  0.00     0.188 C 
ENDROOT
BRANCH   1   2
ATOM      2  O   UNL A   1      33.620  33.249  28.374  1.00  0.00    -0.376 OA
BRANCH   2   3
ATOM      3  C   UNL A   1      33.707  31.843  28.165  1.00  0.00     0.202 C 
BRANCH   3   4
ATOM      4  C   UNL A   1      33.355  31.321  26.759  1.00  0.00     0.261 C 
BRANCH   4   5
ATOM      5  O   UNL A   1      32.298  30.335  26.700  1.00  0.00    -0.462 OA
BRANCH   5   6
ATOM      6  C   UNL A   1      32.424  29.368  25.741  1.00  0.00     0.319 C 
ATOM      7  O   UNL A   1      32.711  29.599  24.571  1.00  0.00    -0.251 OA
BRANCH   6   8
ATOM      8  C   UNL A   1      32.198  27.944  26.266  1.00  0.00     0.160 C 
ATOM      9  C   UNL A   1      32.109  27.823  27.786  1.00  0.00     0.032 C 
BRANCH   8  10
ATOM     10  S   UNL A   1      30.698  27.261  25.454  1.00  0.00    -0.090 SA
BRANCH  10  11
ATOM     11  C   UNL A   1      31.454  26.353  24.108  1.00  0.00     0.115 A 
ATOM     12  N   UNL A   1      32.290  25.353  24.490  1.00  0.00    -0.240 NA
ATOM     13  C   UNL A   1      31.273  26.707  22.768  1.00  0.00     0.084 A 
ATOM     14  C   UNL A   1      32.966  24.678  23.527  1.00  0.00     0.072 A 
ATOM     15  C   UNL A   1      31.902  25.936  21.788  1.00  0.00     0.024 A 
ATOM     16  C   UNL A   1      32.759  24.912  22.170  1.00  0.00     0.030 A 
BRANCH  13  17
ATOM     17  C   UNL A   1      30.507  27.842  22.362  1.00  0.00     0.102 C 
ATOM     18  N   UNL A   1      29.872  28.750  22.008  1.00  0.00    -0.192 NA
ENDBRANCH  13  17
BRANCH  14  19
ATOM     19  C   UNL A   1      34.077  23.827  23.969  1.00  0.00     0.004 A 
ATOM     20  C   UNL A   1      33.899  22.416  23.964  1.00  0.00     0.014 A 
ATOM     21  C   UNL A   1      35.301  24.353  24.413  1.00  0.00     0.061 A 
ATOM     22  C   UNL A   1      34.898  21.544  24.404  1.00  0.00     0.051 A 
ATOM     23  C   UNL A   1      36.267  23.467  24.857  1.00  0.00     0.166 A 
ATOM     24  C   UNL A   1      36.070  22.105  24.853  1.00  0.00     0.165 A 
ATOM     25  O   UNL A   1      37.490  23.802  25.347  1.00  0.00    -0.454 OA
ATOM     26  O   UNL A   1      37.139  21.417  25.336  1.00  0.00    -0.454 OA
ATOM     27  C   UNL A   1      38.019  22.506  25.688  1.00  0.00     0.468 C 
ENDBRANCH  14  19
ENDBRANCH  10  11
ENDBRANCH   8  10
ENDBRANCH   6   8
ENDBRANCH   5   6
ENDBRANCH   4   5
ENDBRANCH   3   4
ENDBRANCH   2   3
ENDBRANCH   1   2
BRANCH   1  28
ATOM     28  C   UNL A   1      34.796  34.553  30.143  1.00  0.00     0.188 C 
BRANCH  28  29
ATOM     29  O   UNL A   1      34.043  33.916  31.157  1.00  0.00    -0.376 OA
BRANCH  29  30
ATOM     30  C   UNL A   1      34.740  32.964  31.968  1.00  0.00     0.202 C 
BRANCH  30  31
ATOM     31  C   UNL A   1      35.112  31.555  31.421  1.00  0.00     0.261 C 
BRANCH  31  32
ATOM     32  O   UNL A   1      36.453  31.314  30.929  1.00  0.00    -0.460 OA
BRANCH  32  33
ATOM     33  C   UNL A   1      37.121  30.228  31.389  1.00  0.00     0.338 C 
ATOM     34  O   UNL A   1      36.604  29.253  31.908  1.00  0.00    -0.246 OA
BRANCH  33  35
ATOM     35  C   UNL A   1      38.546  30.264  30.912  1.00  0.00     0.060 A 
ATOM     36  C   UNL A   1      38.770  30.328  29.526  1.00  0.00     0.016 A 
ATOM     37  C   UNL A   1      39.648  30.277  31.774  1.00  0.00     0.016 A 
ATOM     38  C   UNL A   1      40.069  30.326  29.001  1.00  0.00     0.010 A 
ATOM     39  C   UNL A   1      40.954  30.251  31.244  1.00  0.00     0.010 A 
ATOM     40  C   UNL A   1      41.174  30.222  29.852  1.00  0.00    -0.014 A 
BRANCH  40  41
ATOM     41  C   UNL A   1      42.509  29.852  29.287  1.00  0.00     0.031 A 
ATOM     42  C   UNL A   1      42.709  28.438  28.789  1.00  0.00     0.074 A 
ATOM     43  C   UNL A   1      43.513  30.743  29.147  1.00  0.00     0.049 A 
ATOM     44  N   UNL A   1      43.769  27.874  28.266  1.00  0.00    -0.248 NA
ATOM     45  C   UNL A   1      41.548  27.539  28.898  1.00  0.00     0.031 C 
ATOM     46  C   UNL A   1      43.453  32.153  29.525  1.00  0.00     0.029 A 
ATOM     47  N   UNL A   1      44.786  30.585  28.647  1.00  0.00    -0.354 N 
ATOM     48  C   UNL A   1      43.409  26.556  28.002  1.00  0.00     0.074 A 
ATOM     49  C   UNL A   1      42.044  26.396  28.454  1.00  0.00     0.031 C 
ATOM     50  C   UNL A   1      44.636  32.730  29.245  1.00  0.00     0.029 A 
ATOM     51  C   UNL A   1      45.553  31.726  28.703  1.00  0.00     0.049 A 
ATOM     52  H   UNL A   1      45.118  29.732  28.283  1.00  0.00     0.167 HD
ATOM     53  C   UNL A   1      44.140  25.567  27.430  1.00  0.00     0.037 A 
ATOM     54  C   UNL A   1      46.846  31.937  28.372  1.00  0.00     0.037 A 
ATOM     55  C   UNL A   1      45.500  25.723  26.979  1.00  0.00     0.049 A 
ATOM     56  C   UNL A   1      47.670  30.799  27.816  1.00  0.00     0.074 A 
ATOM     57  C   UNL A   1      46.314  24.785  26.368  1.00  0.00     0.029 A 
ATOM     58  N   UNL A   1      46.252  26.882  27.102  1.00  0.00    -0.354 N 
ATOM     59  N   UNL A   1      47.308  29.565  27.551  1.00  0.00    -0.248 NA
ATOM     60  C   UNL A   1      49.080  31.085  27.508  1.00  0.00     0.031 C 
ATOM     61  C   UNL A   1      47.581  25.352  26.192  1.00  0.00     0.029 A 
ATOM     62  C   UNL A   1      47.532  26.671  26.613  1.00  0.00     0.049 A 
ATOM     63  H   UNL A   1      45.926  27.729  27.482  1.00  0.00     0.167 HD
ATOM     64  C   UNL A   1      48.431  28.945  27.007  1.00  0.00     0.074 A 
ATOM     65  C   UNL A   1      49.481  29.940  26.973  1.00  0.00     0.031 C 
ATOM     66  C   UNL A   1      48.576  27.667  26.571  1.00  0.00     0.037 A 
BRANCH  53  67
ATOM     67  C   UNL A   1      43.497  24.209  27.298  1.00  0.00     0.058 A 
ATOM     68  C   UNL A   1      43.379  23.326  28.384  1.00  0.00     0.135 A 
ATOM     69  C   UNL A   1      42.970  23.794  26.063  1.00  0.00     0.135 A 
ATOM     70  F   UNL A   1      43.876  23.660  29.586  1.00  0.00    -0.206 F 
ATOM     71  C   UNL A   1      42.799  22.069  28.242  1.00  0.00     0.059 A 
ATOM     72  C   UNL A   1      42.352  22.556  25.906  1.00  0.00     0.059 A 
ATOM     73  F   UNL A   1      43.050  24.595  24.989  1.00  0.00    -0.206 F 
ATOM     74  C   UNL A   1      42.290  21.691  26.998  1.00  0.00     0.060 A 
BRANCH  74  75
ATOM     75  S   UNL A   1      41.553  20.053  26.828  1.00  0.00     0.124 S 
ATOM     76  O   UNL A   1      41.810  19.762  25.422  1.00  0.00    -0.237 OA
ATOM     77  O   UNL A   1      42.319  19.267  27.789  1.00  0.00    -0.237 OA
ATOM     78  O   UNL A   1      40.152  20.271  27.177  1.00  0.00    -0.744 OA
ENDBRANCH  74  75
ENDBRANCH  53  67
BRANCH  54  79
ATOM     79  C   UNL A   1      47.460  33.284  28.557  1.00  0.00     0.058 A 
ATOM     80  C   UNL A   1      48.049  33.654  29.777  1.00  0.00     0.135 A 
ATOM     81  C   UNL A   1      47.450  34.239  27.527  1.00  0.00     0.135 A 
ATOM     82  F   UNL A   1      48.066  32.788  30.802  1.00  0.00    -0.206 F 
ATOM     83  C   UNL A   1      48.593  34.920  29.974  1.00  0.00     0.059 A 
ATOM     84  C   UNL A   1      48.018  35.501  27.689  1.00  0.00     0.059 A 
ATOM     85  F   UNL A   1      46.899  33.943  26.340  1.00  0.00    -0.206 F 
ATOM     86  C   UNL A   1      48.580  35.834  28.920  1.00  0.00     0.060 A 
BRANCH  86  87
ATOM     87  S   UNL A   1      49.338  37.455  29.172  1.00  0.00     0.124 S 
ATOM     88  O   UNL A   1      49.632  37.426  30.600  1.00  0.00    -0.237 OA
ATOM     89  O   UNL A   1      50.492  37.391  28.281  1.00  0.00    -0.237 OA
ATOM     90  O   UNL A   1      48.289  38.384  28.764  1.00  0.00    -0.744 OA
ENDBRANCH  86  87
ENDBRANCH  54  79
BRANCH  66  91
ATOM     91  C   UNL A   1      49.900  27.277  25.958  1.00  0.00     0.058 A 
ATOM     92  C   UNL A   1      50.970  26.791  26.727  1.00  0.00     0.135 A 
ATOM     93  C   UNL A   1      50.084  27.355  24.566  1.00  0.00     0.135 A 
ATOM     94  F   UNL A   1      50.854  26.694  28.061  1.00  0.00    -0.206 F 
ATOM     95  C   UNL A   1      52.184  26.435  26.145  1.00  0.00     0.059 A 
ATOM     96  C   UNL A   1      51.275  26.968  23.959  1.00  0.00     0.059 A 
ATOM     97  F   UNL A   1      49.093  27.799  23.775  1.00  0.00    -0.206 F 
ATOM     98  C   UNL A   1      52.327  26.526  24.759  1.00  0.00     0.060 A 
BRANCH  98  99
ATOM     99  S   UNL A   1      53.901  26.046  24.016  1.00  0.00     0.124 S 
ATOM    100  O   UNL A   1      54.734  27.206  24.317  1.00  0.00    -0.237 OA
ATOM    101  O   UNL A   1      54.228  24.824  24.744  1.00  0.00    -0.237 OA
ATOM    102  O   UNL A   1      53.571  25.861  22.606  1.00  0.00    -0.744 OA
ENDBRANCH  98  99
ENDBRANCH  66  91
ENDBRANCH  40  41
ENDBRANCH  33  35
ENDBRANCH  32  33
ENDBRANCH  31  32
ENDBRANCH  30  31
ENDBRANCH  29  30
ENDBRANCH  28  29
ENDBRANCH   1  28
TORSDOF 24
ENDMDL
MODEL 2
REMARK VINA RESULT:      -9.4      3.435      9.249
REMARK SMILES C[C@@H](Sc1nc(-c2ccc3c(c2)OCO3)ccc1C#N)C(=O)OCCOCCOCCOC(=O)c1ccc(-c2c3nc(c(-c4c(F)cc(S(=O)(=O)[O-])cc4F)c4ccc([nH]4)c(-c4c(F)cc(S(=O)(=O)[O-])cc4F)c4nc(c(-c5c(F)cc(S(=O)(=O)[O-])cc5F)c5ccc2[nH]5)C=C4)C=C3)cc1
REMARK SMILES IDX 27 1 26 2 25 3 24 4 23 5 21 6 22 7 2 8 1 9 3 10 4 11 5 12
REMARK SMILES IDX 18 13 6 14 17 15 16 16 19 17 20 18 7 19 8 20 12 21 9 22
REMARK SMILES IDX 11 23 10 24 13 25 15 26 14 27 28 28 29 29 30 30 31 31 32 32
REMARK SMILES IDX 33 33 34 34 35 35 36 36 100 37 37 38 99 39 38 40 39 41 40 42
REMARK SMILES IDX 93 43 41 44 98 45 92 46 94 47 42 48 97 49 91 50 90 51 43 53
REMARK SMILES IDX 77 54 56 55 76 56 57 57 60 58 75 59 95 60 58 61 59 62 74 64
REMARK SMILES IDX 96 65 61 66 44 67 45 68 54 69 46 70 47 71 53 72 55 73 48 74
REMARK SMILES IDX 49 75 50 76 51 77 52 78 78 79 79 80 88 81 80 82 81 83 87 84
REMARK SMILES IDX 89 85 82 86 83 87 84 88 85 89 86 90 62 91 63 92 72 93 64 94
REMARK SMILES IDX 65 95 71 96 73 97 66 98 67 99 68 100 69 101 70 102
REMARK H PARENT 94 52 60 63
REMARK Flexibility Score: inf
ROOT
ATOM      1  C   UNL A   1      34.810  31.145  27.920  1.00  0.00     0.188 C 
ENDROOT
BRANCH   1   2
ATOM      2  O   UNL A   1      34.024  29.994  27.643  1.00  0.00    -0.376 OA
BRANCH   2   3
ATOM      3  C   UNL A   1      32.752  30.231  27.049  1.00  0.00     0.202 C 
BRANCH   3   4
ATOM      4  C   UNL A   1      31.912  28.994  26.675  1.00  0.00     0.261 C 
BRANCH   4   5
ATOM      5  O   UNL A   1      32.437  27.721  27.115  1.00  0.00    -0.462 OA
BRANCH   5   6
ATOM      6  C   UNL A   1      31.759  26.608  26.698  1.00  0.00     0.319 C 
ATOM      7  O   UNL A   1      30.545  26.571  26.527  1.00  0.00    -0.251 OA
BRANCH   6   8
ATOM      8  C   UNL A   1      32.664  25.398  26.430  1.00  0.00     0.160 C 
ATOM      9  C   UNL A   1      31.946  24.166  25.882  1.00  0.00     0.032 C 
BRANCH   8  10
ATOM     10  S   UNL A   1      34.024  25.930  25.315  1.00  0.00    -0.090 SA
BRANCH  10  11
ATOM     11  C   UNL A   1      33.132  26.050  23.766  1.00  0.00     0.115 A 
ATOM     12  N   UNL A   1      32.245  27.077  23.693  1.00  0.00    -0.240 NA
ATOM     13  C   UNL A   1      33.266  25.104  22.746  1.00  0.00     0.084 A 
ATOM     14  C   UNL A   1      31.471  27.179  22.584  1.00  0.00     0.072 A 
ATOM     15  C   UNL A   1      32.531  25.283  21.573  1.00  0.00     0.024 A 
ATOM     16  C   UNL A   1      31.622  26.330  21.490  1.00  0.00     0.030 A 
BRANCH  13  17
ATOM     17  C   UNL A   1      34.091  23.944  22.868  1.00  0.00     0.102 C 
ATOM     18  N   UNL A   1      34.749  22.992  22.994  1.00  0.00    -0.192 NA
ENDBRANCH  13  17
BRANCH  14  19
ATOM     19  C   UNL A   1      30.325  28.093  22.657  1.00  0.00     0.004 A 
ATOM     20  C   UNL A   1      29.079  27.589  23.121  1.00  0.00     0.014 A 
ATOM     21  C   UNL A   1      30.408  29.440  22.270  1.00  0.00     0.061 A 
ATOM     22  C   UNL A   1      27.936  28.390  23.185  1.00  0.00     0.051 A 
ATOM     23  C   UNL A   1      29.257  30.207  22.330  1.00  0.00     0.166 A 
ATOM     24  C   UNL A   1      28.058  29.696  22.772  1.00  0.00     0.165 A 
ATOM     25  O   UNL A   1      29.149  31.512  21.966  1.00  0.00    -0.454 OA
ATOM     26  O   UNL A   1      27.053  30.611  22.744  1.00  0.00    -0.454 OA
ATOM     27  C   UNL A   1      27.745  31.749  22.189  1.00  0.00     0.468 C 
ENDBRANCH  14  19
ENDBRANCH  10  11
ENDBRANCH   8  10
ENDBRANCH   6   8
ENDBRANCH   5   6
ENDBRANCH   4   5
ENDBRANCH   3   4
ENDBRANCH   2   3
ENDBRANCH   1   2
BRANCH   1  28
ATOM     28  C   UNL A   1      34.032  32.369  28.395  1.00  0.00     0.188 C 
BRANCH  28  29
ATOM     29  O   UNL A   1      34.758  33.562  28.622  1.00  0.00    -0.376 OA
BRANCH  29  30
ATOM     30  C   UNL A   1      34.787  34.046  29.969  1.00  0.00     0.202 C 
BRANCH  30  31
ATOM     31  C   UNL A   1      34.304  33.163  31.156  1.00  0.00     0.261 C 
BRANCH  31  32
ATOM     32  O   UNL A   1      35.025  31.948  31.478  1.00  0.00    -0.460 OA
BRANCH  32  33
ATOM     33  C   UNL A   1      36.034  32.020  32.380  1.00  0.00     0.338 C 
ATOM     34  O   UNL A   1      35.896  32.011  33.591  1.00  0.00    -0.246 OA
BRANCH  33  35
ATOM     35  C   UNL A   1      37.353  31.820  31.688  1.00  0.00     0.060 A 
ATOM     36  C   UNL A   1      38.490  31.622  32.491  1.00  0.00     0.016 A 
ATOM     37  C   UNL A   1      37.497  31.781  30.297  1.00  0.00     0.016 A 
ATOM     38  C   UNL A   1      39.761  31.468  31.923  1.00  0.00     0.010 A 
ATOM     39  C   UNL A   1      38.780  31.649  29.727  1.00  0.00     0.010 A 
ATOM     40  C   UNL A   1      39.928  31.545  30.537  1.00  0.00    -0.014 A 
BRANCH  40  41
ATOM     41  C   UNL A   1      41.298  31.748  29.969  1.00  0.00     0.031 A 
ATOM     42  C   UNL A   1      41.937  33.111  30.111  1.00  0.00     0.074 A 
ATOM     43  C   UNL A   1      42.003  30.752  29.394  1.00  0.00     0.049 A 
ATOM     44  N   UNL A   1      43.104  33.539  29.699  1.00  0.00    -0.248 NA
ATOM     45  C   UNL A   1      41.144  34.131  30.819  1.00  0.00     0.031 C 
ATOM     46  C   UNL A   1      41.548  29.373  29.236  1.00  0.00     0.029 A 
ATOM     47  N   UNL A   1      43.261  30.754  28.833  1.00  0.00    -0.354 N 
ATOM     48  C   UNL A   1      43.177  34.875  30.080  1.00  0.00     0.074 A 
ATOM     49  C   UNL A   1      41.923  35.197  30.725  1.00  0.00     0.031 C 
ATOM     50  C   UNL A   1      42.511  28.664  28.618  1.00  0.00     0.029 A 
ATOM     51  C   UNL A   1      43.637  29.542  28.302  1.00  0.00     0.049 A 
ATOM     52  H   UNL A   1      43.839  31.552  28.815  1.00  0.00     0.167 HD
ATOM     53  C   UNL A   1      44.195  35.757  29.917  1.00  0.00     0.037 A 
ATOM     54  C   UNL A   1      44.750  29.183  27.625  1.00  0.00     0.037 A 
ATOM     55  C   UNL A   1      45.445  35.441  29.275  1.00  0.00     0.049 A 
ATOM     56  C   UNL A   1      45.836  30.204  27.378  1.00  0.00     0.074 A 
ATOM     57  C   UNL A   1      46.543  36.262  29.083  1.00  0.00     0.029 A 
ATOM     58  N   UNL A   1      45.762  34.216  28.707  1.00  0.00    -0.354 N 
ATOM     59  N   UNL A   1      45.900  31.457  27.765  1.00  0.00    -0.248 NA
ATOM     60  C   UNL A   1      47.007  29.759  26.606  1.00  0.00     0.031 C 
ATOM     61  C   UNL A   1      47.491  35.558  28.333  1.00  0.00     0.029 A 
ATOM     62  C   UNL A   1      47.022  34.270  28.132  1.00  0.00     0.049 A 
ATOM     63  H   UNL A   1      45.177  33.423  28.711  1.00  0.00     0.167 HD
ATOM     64  C   UNL A   1      47.133  31.933  27.320  1.00  0.00     0.074 A 
ATOM     65  C   UNL A   1      47.785  30.832  26.645  1.00  0.00     0.031 C 
ATOM     66  C   UNL A   1      47.676  33.169  27.465  1.00  0.00     0.037 A 
BRANCH  53  67
ATOM     67  C   UNL A   1      43.981  37.169  30.405  1.00  0.00     0.058 A 
ATOM     68  C   UNL A   1      44.224  37.548  31.736  1.00  0.00     0.135 A 
ATOM     69  C   UNL A   1      43.545  38.165  29.514  1.00  0.00     0.135 A 
ATOM     70  F   UNL A   1      44.628  36.637  32.636  1.00  0.00    -0.206 F 
ATOM     71  C   UNL A   1      44.004  38.851  32.174  1.00  0.00     0.059 A 
ATOM     72  C   UNL A   1      43.354  39.483  29.923  1.00  0.00     0.059 A 
ATOM     73  F   UNL A   1      43.298  37.865  28.230  1.00  0.00    -0.206 F 
ATOM     74  C   UNL A   1      43.567  39.811  31.260  1.00  0.00     0.060 A 
BRANCH  74  75
ATOM     75  S   UNL A   1      43.276  41.492  31.849  1.00  0.00     0.124 S 
ATOM     76  O   UNL A   1      44.506  41.760  32.587  1.00  0.00    -0.237 OA
ATOM     77  O   UNL A   1      43.110  42.233  30.603  1.00  0.00    -0.237 OA
ATOM     78  O   UNL A   1      42.071  41.364  32.664  1.00  0.00    -0.744 OA
ENDBRANCH  74  75
ENDBRANCH  53  67
BRANCH  54  79
ATOM     79  C   UNL A   1      44.907  27.788  27.120  1.00  0.00     0.058 A 
ATOM     80  C   UNL A   1      44.250  27.356  25.957  1.00  0.00     0.135 A 
ATOM     81  C   UNL A   1      45.698  26.849  27.803  1.00  0.00     0.135 A 
ATOM     82  F   UNL A   1      43.463  28.206  25.278  1.00  0.00    -0.206 F 
ATOM     83  C   UNL A   1      44.359  26.047  25.496  1.00  0.00     0.059 A 
ATOM     84  C   UNL A   1      45.850  25.543  27.343  1.00  0.00     0.059 A 
ATOM     85  F   UNL A   1      46.347  27.203  28.923  1.00  0.00    -0.206 F 
ATOM     86  C   UNL A   1      45.169  25.150  26.192  1.00  0.00     0.060 A 
BRANCH  86  87
ATOM     87  S   UNL A   1      45.344  23.469  25.553  1.00  0.00     0.124 S 
ATOM     88  O   UNL A   1      44.864  23.621  24.184  1.00  0.00    -0.237 OA
ATOM     89  O   UNL A   1      46.777  23.236  25.704  1.00  0.00    -0.237 OA
ATOM     90  O   UNL A   1      44.490  22.681  26.436  1.00  0.00    -0.744 OA
ENDBRANCH  86  87
ENDBRANCH  54  79
BRANCH  66  91
ATOM     91  C   UNL A   1      49.072  33.392  26.937  1.00  0.00     0.058 A 
ATOM     92  C   UNL A   1      49.323  34.099  25.750  1.00  0.00     0.135 A 
ATOM     93  C   UNL A   1      50.183  32.921  27.659  1.00  0.00     0.135 A 
ATOM     94  F   UNL A   1      48.303  34.572  25.017  1.00  0.00    -0.206 F 
ATOM     95  C   UNL A   1      50.618  34.296  25.278  1.00  0.00     0.059 A 
ATOM     96  C   UNL A   1      51.488  33.140  27.226  1.00  0.00     0.059 A 
ATOM     97  F   UNL A   1      50.010  32.251  28.809  1.00  0.00    -0.206 F 
ATOM     98  C   UNL A   1      51.695  33.814  26.024  1.00  0.00     0.060 A 
BRANCH  98  99
ATOM     99  S   UNL A   1      53.370  34.090  25.409  1.00  0.00     0.124 S 
ATOM    100  O   UNL A   1      53.706  35.365  26.035  1.00  0.00    -0.237 OA
ATOM    101  O   UNL A   1      54.086  32.925  25.919  1.00  0.00    -0.237 OA
ATOM    102  O   UNL A   1      53.199  34.130  23.960  1.00  0.00    -0.744 OA
ENDBRANCH  98  99
ENDBRANCH  66  91
ENDBRANCH  40  41
ENDBRANCH  33  35
ENDBRANCH  32  33
ENDBRANCH  31  32
ENDBRANCH  30  31
ENDBRANCH  29  30
ENDBRANCH  28  29
ENDBRANCH   1  28
TORSDOF 24
ENDMDL
MODEL 3
REMARK VINA RESULT:      -9.1      1.869      8.191
REMARK SMILES C[C@@H](Sc1nc(-c2ccc3c(c2)OCO3)ccc1C#N)C(=O)OCCOCCOCCOC(=O)c1ccc(-c2c3nc(c(-c4c(F)cc(S(=O)(=O)[O-])cc4F)c4ccc([nH]4)c(-c4c(F)cc(S(=O)(=O)[O-])cc4F)c4nc(c(-c5c(F)cc(S(=O)(=O)[O-])cc5F)c5ccc2[nH]5)C=C4)C=C3)cc1
REMARK SMILES IDX 27 1 26 2 25 3 24 4 23 5 21 6 22 7 2 8 1 9 3 10 4 11 5 12
REMARK SMILES IDX 18 13 6 14 17 15 16 16 19 17 20 18 7 19 8 20 12 21 9 22
REMARK SMILES IDX 11 23 10 24 13 25 15 26 14 27 28 28 29 29 30 30 31 31 32 32
REMARK SMILES IDX 33 33 34 34 35 35 36 36 100 37 37 38 99 39 38 40 39 41 40 42
REMARK SMILES IDX 93 43 41 44 98 45 92 46 94 47 42 48 97 49 91 50 90 51 43 53
REMARK SMILES IDX 77 54 56 55 76 56 57 57 60 58 75 59 95 60 58 61 59 62 74 64
REMARK SMILES IDX 96 65 61 66 44 67 45 68 54 69 46 70 47 71 53 72 55 73 48 74
REMARK SMILES IDX 49 75 50 76 51 77 52 78 78 79 79 80 88 81 80 82 81 83 87 84
REMARK SMILES IDX 89 85 82 86 83 87 84 88 85 89 86 90 62 91 63 92 72 93 64 94
REMARK SMILES IDX 65 95 71 96 73 97 66 98 67 99 68 100 69 101 70 102
REMARK H PARENT 94 52 60 63
REMARK Flexibility Score: inf
ROOT
ATOM      1  C   UNL A   1      34.140  34.661  28.306  1.00  0.00     0.188 C 
ENDROOT
BRANCH   1   2
ATOM      2  O   UNL A   1      33.617  33.342  28.395  1.00  0.00    -0.376 OA
BRANCH   2   3
ATOM      3  C   UNL A   1      34.543  32.324  28.760  1.00  0.00     0.202 C 
BRANCH   3   4
ATOM      4  C   UNL A   1      34.936  31.311  27.668  1.00  0.00     0.261 C 
BRANCH   4   5
ATOM      5  O   UNL A   1      33.869  30.888  26.788  1.00  0.00    -0.462 OA
BRANCH   5   6
ATOM      6  C   UNL A   1      33.699  29.538  26.646  1.00  0.00     0.319 C 
ATOM      7  O   UNL A   1      34.393  28.698  27.210  1.00  0.00    -0.251 OA
BRANCH   6   8
ATOM      8  C   UNL A   1      32.531  29.156  25.727  1.00  0.00     0.160 C 
ATOM      9  C   UNL A   1      31.422  30.201  25.625  1.00  0.00     0.032 C 
BRANCH   8  10
ATOM     10  S   UNL A   1      33.212  28.742  24.071  1.00  0.00    -0.090 SA
BRANCH  10  11
ATOM     11  C   UNL A   1      32.496  27.117  23.833  1.00  0.00     0.115 A 
ATOM     12  N   UNL A   1      33.241  26.087  24.314  1.00  0.00    -0.240 NA
ATOM     13  C   UNL A   1      31.309  26.916  23.124  1.00  0.00     0.084 A 
ATOM     14  C   UNL A   1      32.804  24.822  24.093  1.00  0.00     0.072 A 
ATOM     15  C   UNL A   1      30.827  25.611  22.993  1.00  0.00     0.024 A 
ATOM     16  C   UNL A   1      31.582  24.553  23.480  1.00  0.00     0.030 A 
BRANCH  13  17
ATOM     17  C   UNL A   1      30.591  27.979  22.496  1.00  0.00     0.102 C 
ATOM     18  N   UNL A   1      30.023  28.865  22.000  1.00  0.00    -0.192 NA
ENDBRANCH  13  17
BRANCH  14  19
ATOM     19  C   UNL A   1      33.760  23.737  24.342  1.00  0.00     0.004 A 
ATOM     20  C   UNL A   1      35.142  24.057  24.452  1.00  0.00     0.014 A 
ATOM     21  C   UNL A   1      33.366  22.394  24.456  1.00  0.00     0.061 A 
ATOM     22  C   UNL A   1      36.114  23.074  24.654  1.00  0.00     0.051 A 
ATOM     23  C   UNL A   1      34.352  21.440  24.640  1.00  0.00     0.166 A 
ATOM     24  C   UNL A   1      35.684  21.771  24.735  1.00  0.00     0.165 A 
ATOM     25  O   UNL A   1      34.153  20.099  24.740  1.00  0.00    -0.454 OA
ATOM     26  O   UNL A   1      36.486  20.687  24.906  1.00  0.00    -0.454 OA
ATOM     27  C   UNL A   1      35.509  19.624  24.864  1.00  0.00     0.468 C 
ENDBRANCH  14  19
ENDBRANCH  10  11
ENDBRANCH   8  10
ENDBRANCH   6   8
ENDBRANCH   5   6
ENDBRANCH   4   5
ENDBRANCH   3   4
ENDBRANCH   2   3
ENDBRANCH   1   2
BRANCH   1  28
ATOM     28  C   UNL A   1      33.268  35.753  28.919  1.00  0.00     0.188 C 
BRANCH  28  29
ATOM     29  O   UNL A   1      32.760  35.534  30.221  1.00  0.00    -0.376 OA
BRANCH  29  30
ATOM     30  C   UNL A   1      33.676  35.718  31.305  1.00  0.00     0.202 C 
BRANCH  30  31
ATOM     31  C   UNL A   1      34.296  34.503  32.055  1.00  0.00     0.261 C 
BRANCH  31  32
ATOM     32  O   UNL A   1      35.568  33.968  31.614  1.00  0.00    -0.460 OA
BRANCH  32  33
ATOM     33  C   UNL A   1      35.850  32.671  31.889  1.00  0.00     0.338 C 
ATOM     34  O   UNL A   1      35.022  31.800  32.090  1.00  0.00    -0.246 OA
BRANCH  33  35
ATOM     35  C   UNL A   1      37.304  32.398  31.625  1.00  0.00     0.060 A 
ATOM     36  C   UNL A   1      37.817  32.745  30.364  1.00  0.00     0.016 A 
ATOM     37  C   UNL A   1      38.173  31.856  32.579  1.00  0.00     0.016 A 
ATOM     38  C   UNL A   1      39.152  32.486  30.027  1.00  0.00     0.010 A 
ATOM     39  C   UNL A   1      39.510  31.575  32.232  1.00  0.00     0.010 A 
ATOM     40  C   UNL A   1      39.996  31.839  30.936  1.00  0.00    -0.014 A 
BRANCH  40  41
ATOM     41  C   UNL A   1      41.281  31.243  30.454  1.00  0.00     0.031 A 
ATOM     42  C   UNL A   1      42.542  32.069  30.572  1.00  0.00     0.074 A 
ATOM     43  C   UNL A   1      41.367  29.983  29.980  1.00  0.00     0.049 A 
ATOM     44  N   UNL A   1      43.770  31.781  30.221  1.00  0.00    -0.248 NA
ATOM     45  C   UNL A   1      42.391  33.405  31.172  1.00  0.00     0.031 C 
ATOM     46  C   UNL A   1      40.253  29.045  29.859  1.00  0.00     0.029 A 
ATOM     47  N   UNL A   1      42.450  29.276  29.507  1.00  0.00    -0.354 N 
ATOM     48  C   UNL A   1      44.531  32.903  30.539  1.00  0.00     0.074 A 
ATOM     49  C   UNL A   1      43.620  33.887  31.079  1.00  0.00     0.031 C 
ATOM     50  C   UNL A   1      40.710  27.888  29.345  1.00  0.00     0.029 A 
ATOM     51  C   UNL A   1      42.141  28.010  29.064  1.00  0.00     0.049 A 
ATOM     52  H   UNL A   1      43.364  29.643  29.489  1.00  0.00     0.167 HD
ATOM     53  C   UNL A   1      45.866  33.098  30.402  1.00  0.00     0.037 A 
ATOM     54  C   UNL A   1      42.913  27.066  28.484  1.00  0.00     0.037 A 
ATOM     55  C   UNL A   1      46.777  32.119  29.864  1.00  0.00     0.049 A 
ATOM     56  C   UNL A   1      44.383  27.336  28.261  1.00  0.00     0.074 A 
ATOM     57  C   UNL A   1      48.149  32.218  29.707  1.00  0.00     0.029 A 
ATOM     58  N   UNL A   1      46.411  30.871  29.381  1.00  0.00    -0.354 N 
ATOM     59  N   UNL A   1      45.091  28.392  28.589  1.00  0.00    -0.248 NA
ATOM     60  C   UNL A   1      45.162  26.281  27.595  1.00  0.00     0.031 C 
ATOM     61  C   UNL A   1      48.601  31.063  29.060  1.00  0.00     0.029 A 
ATOM     62  C   UNL A   1      47.525  30.206  28.892  1.00  0.00     0.049 A 
ATOM     63  H   UNL A   1      45.495  30.511  29.384  1.00  0.00     0.167 HD
ATOM     64  C   UNL A   1      46.402  28.108  28.207  1.00  0.00     0.074 A 
ATOM     65  C   UNL A   1      46.389  26.780  27.633  1.00  0.00     0.031 C 
ATOM     66  C   UNL A   1      47.514  28.878  28.327  1.00  0.00     0.037 A 
BRANCH  53  67
ATOM     67  C   UNL A   1      46.421  34.442  30.803  1.00  0.00     0.058 A 
ATOM     68  C   UNL A   1      46.799  34.735  32.124  1.00  0.00     0.135 A 
ATOM     69  C   UNL A   1      46.596  35.450  29.838  1.00  0.00     0.135 A 
ATOM     70  F   UNL A   1      46.641  33.817  33.092  1.00  0.00    -0.206 F 
ATOM     71  C   UNL A   1      47.291  35.987  32.481  1.00  0.00     0.059 A 
ATOM     72  C   UNL A   1      47.122  36.697  30.166  1.00  0.00     0.059 A 
ATOM     73  F   UNL A   1      46.256  35.229  28.559  1.00  0.00    -0.206 F 
ATOM     74  C   UNL A   1      47.448  36.962  31.495  1.00  0.00     0.060 A 
BRANCH  74  75
ATOM     75  S   UNL A   1      48.076  38.584  31.978  1.00  0.00     0.124 S 
ATOM     76  O   UNL A   1      48.639  39.064  30.721  1.00  0.00    -0.237 OA
ATOM     77  O   UNL A   1      46.867  39.263  32.432  1.00  0.00    -0.237 OA
ATOM     78  O   UNL A   1      49.049  38.275  33.023  1.00  0.00    -0.744 OA
ENDBRANCH  74  75
ENDBRANCH  53  67
BRANCH  54  79
ATOM     79  C   UNL A   1      42.320  25.763  28.061  1.00  0.00     0.058 A 
ATOM     80  C   UNL A   1      41.498  25.672  26.927  1.00  0.00     0.135 A 
ATOM     81  C   UNL A   1      42.542  24.587  28.797  1.00  0.00     0.135 A 
ATOM     82  F   UNL A   1      41.235  26.770  26.200  1.00  0.00    -0.206 F 
ATOM     83  C   UNL A   1      40.910  24.471  26.542  1.00  0.00     0.059 A 
ATOM     84  C   UNL A   1      41.991  23.367  28.414  1.00  0.00     0.059 A 
ATOM     85  F   UNL A   1      43.315  24.615  29.892  1.00  0.00    -0.206 F 
ATOM     86  C   UNL A   1      41.169  23.321  27.289  1.00  0.00     0.060 A 
BRANCH  86  87
ATOM     87  S   UNL A   1      40.442  21.758  26.748  1.00  0.00     0.124 S 
ATOM     88  O   UNL A   1      40.512  20.961  27.967  1.00  0.00    -0.237 OA
ATOM     89  O   UNL A   1      39.105  22.174  26.333  1.00  0.00    -0.237 OA
ATOM     90  O   UNL A   1      41.324  21.333  25.665  1.00  0.00    -0.744 OA
ENDBRANCH  86  87
ENDBRANCH  54  79
BRANCH  66  91
ATOM     91  C   UNL A   1      48.831  28.287  27.886  1.00  0.00     0.058 A 
ATOM     92  C   UNL A   1      49.762  27.762  28.797  1.00  0.00     0.135 A 
ATOM     93  C   UNL A   1      49.148  28.211  26.518  1.00  0.00     0.135 A 
ATOM     94  F   UNL A   1      49.516  27.806  30.116  1.00  0.00    -0.206 F 
ATOM     95  C   UNL A   1      50.972  27.219  28.372  1.00  0.00     0.059 A 
ATOM     96  C   UNL A   1      50.334  27.639  26.069  1.00  0.00     0.059 A 
ATOM     97  F   UNL A   1      48.293  28.684  25.597  1.00  0.00    -0.206 F 
ATOM     98  C   UNL A   1      51.249  27.161  27.005  1.00  0.00     0.060 A 
BRANCH  98  99
ATOM     99  S   UNL A   1      52.815  26.441  26.467  1.00  0.00     0.124 S 
ATOM    100  O   UNL A   1      53.736  26.953  27.477  1.00  0.00    -0.237 OA
ATOM    101  O   UNL A   1      52.537  25.010  26.530  1.00  0.00    -0.237 OA
ATOM    102  O   UNL A   1      52.997  26.981  25.123  1.00  0.00    -0.744 OA
ENDBRANCH  98  99
ENDBRANCH  66  91
ENDBRANCH  40  41
ENDBRANCH  33  35
ENDBRANCH  32  33
ENDBRANCH  31  32
ENDBRANCH  30  31
ENDBRANCH  29  30
ENDBRANCH  28  29
ENDBRANCH   1  28
TORSDOF 24
ENDMDL
