MODEL 1
REMARK VINA RESULT:     -10.7      0.000      0.000
REMARK SMILES COCCNC(=O)c1cccc(NC(=O)[C@@H]2CCCC[C@H]2C(=O)OCCOCCOCCOC(=O)c2ccc(-c3c4nc(c(-c5c(F)cc(S(=O)(=O)[O-])cc5F)c5ccc([nH]5)c(-c5c(F)cc(S(=O)(=O)[O-])cc5F)c5nc(c(-c6c(F)cc(S(=O)(=O)[O-])cc6F)c6ccc3[nH]6)C=C5)C=C4)cc2)c1
REMARK SMILES IDX 27 1 26 2 25 3 24 4 22 5 23 6 21 7 16 8 17 9 18 10 20 11
REMARK SMILES IDX 19 12 14 13 13 14 15 16 12 17 8 18 9 19 102 20 10 21 11 22
REMARK SMILES IDX 6 23 5 24 7 26 4 27 3 28 2 29 1 30 28 31 29 32 30 33 31 34
REMARK SMILES IDX 32 35 33 36 34 37 35 38 36 39 37 40 101 41 38 42 100 43
REMARK SMILES IDX 39 44 40 45 41 46 94 47 42 48 99 49 93 50 95 51 43 52 98 53
REMARK SMILES IDX 92 54 91 55 44 57 78 58 57 59 77 60 58 61 61 62 76 63 96 64
REMARK SMILES IDX 59 65 60 66 75 68 97 69 62 70 45 71 46 72 55 73 47 74 48 75
REMARK SMILES IDX 54 76 56 77 49 78 50 79 51 80 52 81 53 82 79 83 80 84 89 85
REMARK SMILES IDX 81 86 82 87 88 88 90 89 83 90 84 91 85 92 86 93 87 94 63 95
REMARK SMILES IDX 64 96 73 97 65 98 66 99 72 100 74 101 67 102 68 103 69 104
REMARK SMILES IDX 70 105 71 106
REMARK H PARENT 13 15 5 25 95 56 61 67
REMARK Flexibility Score: inf
ROOT
ATOM      1  O   UNL A   1      32.126  29.073  23.680  1.00  0.00    -0.376 OA
ENDROOT
BRANCH   1   2
ATOM      2  C   UNL A   1      31.016  28.193  23.709  1.00  0.00     0.202 C 
BRANCH   2   3
ATOM      3  C   UNL A   1      31.334  26.704  23.869  1.00  0.00     0.261 C 
BRANCH   3   4
ATOM      4  O   UNL A   1      32.737  26.360  23.902  1.00  0.00    -0.463 OA
BRANCH   4   5
ATOM      5  C   UNL A   1      33.139  25.663  25.002  1.00  0.00     0.309 C 
ATOM      6  O   UNL A   1      32.987  26.050  26.154  1.00  0.00    -0.252 OA
BRANCH   5   7
ATOM      7  C   UNL A   1      33.994  24.446  24.667  1.00  0.00     0.111 C 
ATOM      8  C   UNL A   1      34.428  24.247  23.191  1.00  0.00     0.093 C 
ATOM      9  C   UNL A   1      35.400  23.048  23.098  1.00  0.00     0.014 C 
ATOM     10  C   UNL A   1      36.602  23.187  24.018  1.00  0.00     0.001 C 
ATOM     11  C   UNL A   1      35.223  24.566  25.588  1.00  0.00     0.016 C 
ATOM     12  C   UNL A   1      36.160  23.376  25.461  1.00  0.00     0.001 C 
BRANCH   8  13
ATOM     13  C   UNL A   1      33.281  23.890  22.260  1.00  0.00     0.228 C 
ATOM     14  N   UNL A   1      32.444  22.822  22.453  1.00  0.00    -0.326 N 
ATOM     15  H   UNL A   1      31.697  22.816  21.811  1.00  0.00     0.169 HD
ATOM     16  O   UNL A   1      33.050  24.607  21.280  1.00  0.00    -0.274 OA
BRANCH  14  17
ATOM     17  C   UNL A   1      32.387  21.727  23.345  1.00  0.00     0.041 A 
ATOM     18  C   UNL A   1      32.514  19.290  23.588  1.00  0.00     0.041 A 
ATOM     19  C   UNL A   1      32.391  19.420  24.973  1.00  0.00     0.014 A 
ATOM     20  C   UNL A   1      32.500  20.439  22.779  1.00  0.00     0.040 A 
ATOM     21  C   UNL A   1      32.247  20.681  25.538  1.00  0.00     0.003 A 
ATOM     22  C   UNL A   1      32.235  21.820  24.728  1.00  0.00     0.026 A 
BRANCH  18  23
ATOM     23  C   UNL A   1      32.469  17.916  23.034  1.00  0.00     0.251 C 
ATOM     24  N   UNL A   1      32.655  16.805  23.807  1.00  0.00    -0.350 N 
ATOM     25  H   UNL A   1      32.911  15.996  23.306  1.00  0.00     0.163 HD
ATOM     26  O   UNL A   1      32.256  17.771  21.832  1.00  0.00    -0.269 OA
BRANCH  24  27
ATOM     27  C   UNL A   1      32.541  16.612  25.244  1.00  0.00     0.144 C 
BRANCH  27  28
ATOM     28  C   UNL A   1      33.040  15.231  25.698  1.00  0.00     0.181 C 
BRANCH  28  29
ATOM     29  O   UNL A   1      34.337  14.896  25.195  1.00  0.00    -0.383 OA
ATOM     30  C   UNL A   1      35.316  15.908  25.379  1.00  0.00     0.194 C 
ENDBRANCH  28  29
ENDBRANCH  27  28
ENDBRANCH  24  27
ENDBRANCH  18  23
ENDBRANCH  14  17
ENDBRANCH   8  13
ENDBRANCH   5   7
ENDBRANCH   4   5
ENDBRANCH   3   4
ENDBRANCH   2   3
ENDBRANCH   1   2
BRANCH   1  31
ATOM     31  C   UNL A   1      32.741  29.464  24.906  1.00  0.00     0.188 C 
BRANCH  31  32
ATOM     32  C   UNL A   1      31.851  29.941  26.054  1.00  0.00     0.188 C 
BRANCH  32  33
ATOM     33  O   UNL A   1      31.564  31.333  25.955  1.00  0.00    -0.376 OA
BRANCH  33  34
ATOM     34  C   UNL A   1      31.645  32.024  27.191  1.00  0.00     0.202 C 
BRANCH  34  35
ATOM     35  C   UNL A   1      33.111  32.283  27.543  1.00  0.00     0.261 C 
BRANCH  35  36
ATOM     36  O   UNL A   1      33.524  33.654  27.384  1.00  0.00    -0.460 OA
BRANCH  36  37
ATOM     37  C   UNL A   1      33.451  34.441  28.480  1.00  0.00     0.338 C 
ATOM     38  O   UNL A   1      32.519  35.177  28.785  1.00  0.00    -0.246 OA
BRANCH  37  39
ATOM     39  C   UNL A   1      34.588  34.124  29.367  1.00  0.00     0.060 A 
ATOM     40  C   UNL A   1      35.884  34.327  28.882  1.00  0.00     0.016 A 
ATOM     41  C   UNL A   1      34.395  33.621  30.655  1.00  0.00     0.016 A 
ATOM     42  C   UNL A   1      36.993  34.017  29.670  1.00  0.00     0.010 A 
ATOM     43  C   UNL A   1      35.507  33.285  31.436  1.00  0.00     0.010 A 
ATOM     44  C   UNL A   1      36.812  33.458  30.939  1.00  0.00    -0.014 A 
BRANCH  44  45
ATOM     45  C   UNL A   1      37.972  32.896  31.674  1.00  0.00     0.031 A 
ATOM     46  C   UNL A   1      38.659  31.685  31.103  1.00  0.00     0.074 A 
ATOM     47  C   UNL A   1      38.418  33.448  32.817  1.00  0.00     0.049 A 
ATOM     48  N   UNL A   1      39.599  30.940  31.622  1.00  0.00    -0.248 NA
ATOM     49  C   UNL A   1      38.223  31.255  29.763  1.00  0.00     0.031 C 
ATOM     50  C   UNL A   1      37.881  34.655  33.443  1.00  0.00     0.029 A 
ATOM     51  N   UNL A   1      39.422  33.047  33.667  1.00  0.00    -0.354 N 
ATOM     52  C   UNL A   1      39.844  29.938  30.693  1.00  0.00     0.074 A 
ATOM     53  C   UNL A   1      38.954  30.165  29.575  1.00  0.00     0.031 C 
ATOM     54  C   UNL A   1      38.543  34.882  34.592  1.00  0.00     0.029 A 
ATOM     55  C   UNL A   1      39.522  33.815  34.803  1.00  0.00     0.049 A 
ATOM     56  H   UNL A   1      40.012  32.282  33.480  1.00  0.00     0.167 HD
ATOM     57  C   UNL A   1      40.731  28.917  30.765  1.00  0.00     0.037 A 
ATOM     58  C   UNL A   1      40.287  33.653  35.902  1.00  0.00     0.037 A 
ATOM     59  C   UNL A   1      41.637  28.711  31.863  1.00  0.00     0.049 A 
ATOM     60  C   UNL A   1      41.235  32.481  35.979  1.00  0.00     0.074 A 
ATOM     61  C   UNL A   1      42.591  27.719  32.013  1.00  0.00     0.029 A 
ATOM     62  N   UNL A   1      41.704  29.506  32.995  1.00  0.00    -0.354 N 
ATOM     63  N   UNL A   1      41.458  31.539  35.093  1.00  0.00    -0.248 NA
ATOM     64  C   UNL A   1      42.035  32.348  37.207  1.00  0.00     0.031 C 
ATOM     65  C   UNL A   1      43.205  27.890  33.258  1.00  0.00     0.029 A 
ATOM     66  C   UNL A   1      42.668  29.017  33.861  1.00  0.00     0.049 A 
ATOM     67  H   UNL A   1      41.149  30.303  33.161  1.00  0.00     0.167 HD
ATOM     68  C   UNL A   1      42.437  30.718  35.648  1.00  0.00     0.074 A 
ATOM     69  C   UNL A   1      42.773  31.280  36.937  1.00  0.00     0.031 C 
ATOM     70  C   UNL A   1      43.005  29.598  35.135  1.00  0.00     0.037 A 
BRANCH  57  71
ATOM     71  C   UNL A   1      40.745  27.920  29.641  1.00  0.00     0.058 A 
ATOM     72  C   UNL A   1      41.724  27.945  28.638  1.00  0.00     0.135 A 
ATOM     73  C   UNL A   1      39.791  26.890  29.606  1.00  0.00     0.135 A 
ATOM     74  F   UNL A   1      42.644  28.922  28.614  1.00  0.00    -0.206 F 
ATOM     75  C   UNL A   1      41.753  26.986  27.631  1.00  0.00     0.059 A 
ATOM     76  C   UNL A   1      39.815  25.907  28.621  1.00  0.00     0.059 A 
ATOM     77  F   UNL A   1      38.828  26.828  30.539  1.00  0.00    -0.206 F 
ATOM     78  C   UNL A   1      40.796  25.969  27.634  1.00  0.00     0.060 A 
BRANCH  78  79
ATOM     79  S   UNL A   1      40.865  24.714  26.337  1.00  0.00     0.124 S 
ATOM     80  O   UNL A   1      41.438  25.471  25.229  1.00  0.00    -0.237 OA
ATOM     81  O   UNL A   1      41.733  23.701  26.928  1.00  0.00    -0.237 OA
ATOM     82  O   UNL A   1      39.469  24.320  26.171  1.00  0.00    -0.744 OA
ENDBRANCH  78  79
ENDBRANCH  57  71
BRANCH  58  83
ATOM     83  C   UNL A   1      40.159  34.591  37.052  1.00  0.00     0.058 A 
ATOM     84  C   UNL A   1      39.192  34.398  38.049  1.00  0.00     0.135 A 
ATOM     85  C   UNL A   1      40.982  35.725  37.153  1.00  0.00     0.135 A 
ATOM     86  F   UNL A   1      38.369  33.339  37.989  1.00  0.00    -0.206 F 
ATOM     87  C   UNL A   1      39.026  35.306  39.091  1.00  0.00     0.059 A 
ATOM     88  C   UNL A   1      40.854  36.632  38.200  1.00  0.00     0.059 A 
ATOM     89  F   UNL A   1      41.925  35.956  36.227  1.00  0.00    -0.206 F 
ATOM     90  C   UNL A   1      39.862  36.423  39.157  1.00  0.00     0.060 A 
BRANCH  90  91
ATOM     91  S   UNL A   1      39.653  37.588  40.521  1.00  0.00     0.124 S 
ATOM     92  O   UNL A   1      38.307  38.092  40.273  1.00  0.00    -0.237 OA
ATOM     93  O   UNL A   1      39.808  36.728  41.689  1.00  0.00    -0.237 OA
ATOM     94  O   UNL A   1      40.734  38.547  40.310  1.00  0.00    -0.744 OA
ENDBRANCH  90  91
ENDBRANCH  58  83
BRANCH  70  95
ATOM     95  C   UNL A   1      44.079  28.925  35.944  1.00  0.00     0.058 A 
ATOM     96  C   UNL A   1      45.414  29.355  35.902  1.00  0.00     0.135 A 
ATOM     97  C   UNL A   1      43.755  27.878  36.821  1.00  0.00     0.135 A 
ATOM     98  F   UNL A   1      45.778  30.351  35.078  1.00  0.00    -0.206 F 
ATOM     99  C   UNL A   1      46.395  28.757  36.687  1.00  0.00     0.059 A 
ATOM    100  C   UNL A   1      44.714  27.281  37.634  1.00  0.00     0.059 A 
ATOM    101  F   UNL A   1      42.490  27.437  36.910  1.00  0.00    -0.206 F 
ATOM    102  C   UNL A   1      46.035  27.721  37.551  1.00  0.00     0.060 A 
BRANCH 102 103
ATOM    103  S   UNL A   1      47.309  26.976  38.593  1.00  0.00     0.124 S 
ATOM    104  O   UNL A   1      46.902  27.425  39.920  1.00  0.00    -0.237 OA
ATOM    105  O   UNL A   1      47.139  25.551  38.327  1.00  0.00    -0.237 OA
ATOM    106  O   UNL A   1      48.547  27.559  38.085  1.00  0.00    -0.744 OA
ENDBRANCH 102 103
ENDBRANCH  70  95
ENDBRANCH  44  45
ENDBRANCH  37  39
ENDBRANCH  36  37
ENDBRANCH  35  36
ENDBRANCH  34  35
ENDBRANCH  33  34
ENDBRANCH  32  33
ENDBRANCH  31  32
ENDBRANCH   1  31
TORSDOF 26
ENDMDL
MODEL 2
REMARK VINA RESULT:     -10.3      0.638      7.841
REMARK SMILES COCCNC(=O)c1cccc(NC(=O)[C@@H]2CCCC[C@H]2C(=O)OCCOCCOCCOC(=O)c2ccc(-c3c4nc(c(-c5c(F)cc(S(=O)(=O)[O-])cc5F)c5ccc([nH]5)c(-c5c(F)cc(S(=O)(=O)[O-])cc5F)c5nc(c(-c6c(F)cc(S(=O)(=O)[O-])cc6F)c6ccc3[nH]6)C=C5)C=C4)cc2)c1
REMARK SMILES IDX 27 1 26 2 25 3 24 4 22 5 23 6 21 7 16 8 17 9 18 10 20 11
REMARK SMILES IDX 19 12 14 13 13 14 15 16 12 17 8 18 9 19 102 20 10 21 11 22
REMARK SMILES IDX 6 23 5 24 7 26 4 27 3 28 2 29 1 30 28 31 29 32 30 33 31 34
REMARK SMILES IDX 32 35 33 36 34 37 35 38 36 39 37 40 101 41 38 42 100 43
REMARK SMILES IDX 39 44 40 45 41 46 94 47 42 48 99 49 93 50 95 51 43 52 98 53
REMARK SMILES IDX 92 54 91 55 44 57 78 58 57 59 77 60 58 61 61 62 76 63 96 64
REMARK SMILES IDX 59 65 60 66 75 68 97 69 62 70 45 71 46 72 55 73 47 74 48 75
REMARK SMILES IDX 54 76 56 77 49 78 50 79 51 80 52 81 53 82 79 83 80 84 89 85
REMARK SMILES IDX 81 86 82 87 88 88 90 89 83 90 84 91 85 92 86 93 87 94 63 95
REMARK SMILES IDX 64 96 73 97 65 98 66 99 72 100 74 101 67 102 68 103 69 104
REMARK SMILES IDX 70 105 71 106
REMARK H PARENT 13 15 5 25 95 56 61 67
REMARK Flexibility Score: inf
ROOT
ATOM      1  O   UNL A   1      32.092  29.027  23.584  1.00  0.00    -0.376 OA
ENDROOT
BRANCH   1   2
ATOM      2  C   UNL A   1      31.004  28.145  23.797  1.00  0.00     0.202 C 
BRANCH   2   3
ATOM      3  C   UNL A   1      31.361  26.688  24.106  1.00  0.00     0.261 C 
BRANCH   3   4
ATOM      4  O   UNL A   1      32.771  26.401  24.240  1.00  0.00    -0.463 OA
BRANCH   4   5
ATOM      5  C   UNL A   1      33.094  25.524  25.231  1.00  0.00     0.309 C 
ATOM      6  O   UNL A   1      32.848  25.708  26.417  1.00  0.00    -0.252 OA
BRANCH   5   7
ATOM      7  C   UNL A   1      33.986  24.381  24.762  1.00  0.00     0.111 C 
ATOM      8  C   UNL A   1      34.370  24.330  23.259  1.00  0.00     0.093 C 
ATOM      9  C   UNL A   1      35.389  23.189  23.027  1.00  0.00     0.014 C 
ATOM     10  C   UNL A   1      36.618  23.304  23.913  1.00  0.00     0.001 C 
ATOM     11  C   UNL A   1      35.244  24.478  25.645  1.00  0.00     0.016 C 
ATOM     12  C   UNL A   1      36.226  23.348  25.381  1.00  0.00     0.001 C 
BRANCH   8  13
ATOM     13  C   UNL A   1      33.204  24.002  22.341  1.00  0.00     0.228 C 
ATOM     14  N   UNL A   1      32.380  22.920  22.509  1.00  0.00    -0.326 N 
ATOM     15  H   UNL A   1      31.619  22.934  21.886  1.00  0.00     0.169 HD
ATOM     16  O   UNL A   1      32.944  24.757  21.398  1.00  0.00    -0.274 OA
BRANCH  14  17
ATOM     17  C   UNL A   1      32.354  21.788  23.356  1.00  0.00     0.041 A 
ATOM     18  C   UNL A   1      32.491  19.343  23.493  1.00  0.00     0.041 A 
ATOM     19  C   UNL A   1      32.413  19.415  24.885  1.00  0.00     0.014 A 
ATOM     20  C   UNL A   1      32.450  20.526  22.733  1.00  0.00     0.040 A 
ATOM     21  C   UNL A   1      32.285  20.650  25.507  1.00  0.00     0.003 A 
ATOM     22  C   UNL A   1      32.246  21.823  24.746  1.00  0.00     0.026 A 
BRANCH  18  23
ATOM     23  C   UNL A   1      32.431  17.994  22.883  1.00  0.00     0.251 C 
ATOM     24  N   UNL A   1      32.652  16.852  23.600  1.00  0.00    -0.350 N 
ATOM     25  H   UNL A   1      32.891  16.067  23.056  1.00  0.00     0.163 HD
ATOM     26  O   UNL A   1      32.172  17.898  21.685  1.00  0.00    -0.269 OA
BRANCH  24  27
ATOM     27  C   UNL A   1      32.594  16.599  25.031  1.00  0.00     0.144 C 
BRANCH  27  28
ATOM     28  C   UNL A   1      32.927  15.141  25.388  1.00  0.00     0.181 C 
BRANCH  28  29
ATOM     29  O   UNL A   1      34.331  14.872  25.448  1.00  0.00    -0.383 OA
ATOM     30  C   UNL A   1      35.156  15.986  25.137  1.00  0.00     0.194 C 
ENDBRANCH  28  29
ENDBRANCH  27  28
ENDBRANCH  24  27
ENDBRANCH  18  23
ENDBRANCH  14  17
ENDBRANCH   8  13
ENDBRANCH   5   7
ENDBRANCH   4   5
ENDBRANCH   3   4
ENDBRANCH   2   3
ENDBRANCH   1   2
BRANCH   1  31
ATOM     31  C   UNL A   1      32.807  29.539  24.707  1.00  0.00     0.188 C 
BRANCH  31  32
ATOM     32  C   UNL A   1      32.018  29.973  25.942  1.00  0.00     0.188 C 
BRANCH  32  33
ATOM     33  O   UNL A   1      31.758  31.374  25.938  1.00  0.00    -0.376 OA
BRANCH  33  34
ATOM     34  C   UNL A   1      31.711  31.953  27.232  1.00  0.00     0.202 C 
BRANCH  34  35
ATOM     35  C   UNL A   1      33.113  32.405  27.646  1.00  0.00     0.261 C 
BRANCH  35  36
ATOM     36  O   UNL A   1      33.351  33.816  27.483  1.00  0.00    -0.460 OA
BRANCH  36  37
ATOM     37  C   UNL A   1      33.387  34.562  28.609  1.00  0.00     0.338 C 
ATOM     38  O   UNL A   1      32.567  35.409  28.947  1.00  0.00    -0.246 OA
BRANCH  37  39
ATOM     39  C   UNL A   1      34.464  34.050  29.480  1.00  0.00     0.060 A 
ATOM     40  C   UNL A   1      35.790  34.286  29.102  1.00  0.00     0.016 A 
ATOM     41  C   UNL A   1      34.187  33.338  30.648  1.00  0.00     0.016 A 
ATOM     42  C   UNL A   1      36.845  33.801  29.875  1.00  0.00     0.010 A 
ATOM     43  C   UNL A   1      35.245  32.828  31.411  1.00  0.00     0.010 A 
ATOM     44  C   UNL A   1      36.579  33.036  31.015  1.00  0.00    -0.014 A 
BRANCH  44  45
ATOM     45  C   UNL A   1      37.681  32.310  31.695  1.00  0.00     0.031 A 
ATOM     46  C   UNL A   1      38.105  32.775  33.062  1.00  0.00     0.074 A 
ATOM     47  C   UNL A   1      38.288  31.254  31.124  1.00  0.00     0.049 A 
ATOM     48  N   UNL A   1      39.118  32.392  33.793  1.00  0.00    -0.248 NA
ATOM     49  C   UNL A   1      37.273  33.817  33.687  1.00  0.00     0.031 C 
ATOM     50  C   UNL A   1      37.932  30.666  29.833  1.00  0.00     0.029 A 
ATOM     51  N   UNL A   1      39.351  30.497  31.556  1.00  0.00    -0.354 N 
ATOM     52  C   UNL A   1      39.066  33.165  34.946  1.00  0.00     0.074 A 
ATOM     53  C   UNL A   1      37.923  34.043  34.819  1.00  0.00     0.031 C 
ATOM     54  C   UNL A   1      38.780  29.657  29.565  1.00  0.00     0.029 A 
ATOM     55  C   UNL A   1      39.763  29.553  30.644  1.00  0.00     0.049 A 
ATOM     56  H   UNL A   1      39.778  30.620  32.434  1.00  0.00     0.167 HD
ATOM     57  C   UNL A   1      39.899  33.147  36.013  1.00  0.00     0.037 A 
ATOM     58  C   UNL A   1      40.830  28.730  30.662  1.00  0.00     0.037 A 
ATOM     59  C   UNL A   1      41.016  32.251  36.151  1.00  0.00     0.049 A 
ATOM     60  C   UNL A   1      41.770  28.760  31.842  1.00  0.00     0.074 A 
ATOM     61  C   UNL A   1      41.902  32.140  37.209  1.00  0.00     0.029 A 
ATOM     62  N   UNL A   1      41.403  31.315  35.205  1.00  0.00    -0.354 N 
ATOM     63  N   UNL A   1      41.712  29.496  32.927  1.00  0.00    -0.248 NA
ATOM     64  C   UNL A   1      42.925  27.848  31.800  1.00  0.00     0.031 C 
ATOM     65  C   UNL A   1      42.851  31.166  36.883  1.00  0.00     0.029 A 
ATOM     66  C   UNL A   1      42.527  30.636  35.644  1.00  0.00     0.049 A 
ATOM     67  H   UNL A   1      40.946  31.155  34.347  1.00  0.00     0.167 HD
ATOM     68  C   UNL A   1      42.805  29.120  33.703  1.00  0.00     0.074 A 
ATOM     69  C   UNL A   1      43.500  28.083  32.972  1.00  0.00     0.031 C 
ATOM     70  C   UNL A   1      43.198  29.592  34.912  1.00  0.00     0.037 A 
BRANCH  57  71
ATOM     71  C   UNL A   1      39.658  34.147  37.107  1.00  0.00     0.058 A 
ATOM     72  C   UNL A   1      38.943  33.820  38.268  1.00  0.00     0.135 A 
ATOM     73  C   UNL A   1      40.203  35.438  37.010  1.00  0.00     0.135 A 
ATOM     74  F   UNL A   1      38.382  32.607  38.400  1.00  0.00    -0.206 F 
ATOM     75  C   UNL A   1      38.769  34.743  39.295  1.00  0.00     0.059 A 
ATOM     76  C   UNL A   1      40.061  36.369  38.034  1.00  0.00     0.059 A 
ATOM     77  F   UNL A   1      40.888  35.802  35.915  1.00  0.00    -0.206 F 
ATOM     78  C   UNL A   1      39.335  36.013  39.170  1.00  0.00     0.060 A 
BRANCH  78  79
ATOM     79  S   UNL A   1      39.126  37.189  40.524  1.00  0.00     0.124 S 
ATOM     80  O   UNL A   1      38.583  36.333  41.573  1.00  0.00    -0.237 OA
ATOM     81  O   UNL A   1      40.490  37.665  40.738  1.00  0.00    -0.237 OA
ATOM     82  O   UNL A   1      38.200  38.176  39.977  1.00  0.00    -0.744 OA
ENDBRANCH  78  79
ENDBRANCH  57  71
BRANCH  58  83
ATOM     83  C   UNL A   1      41.110  27.837  29.503  1.00  0.00     0.058 A 
ATOM     84  C   UNL A   1      40.311  26.716  29.234  1.00  0.00     0.135 A 
ATOM     85  C   UNL A   1      42.210  28.070  28.661  1.00  0.00     0.135 A 
ATOM     86  F   UNL A   1      39.258  26.439  30.018  1.00  0.00    -0.206 F 
ATOM     87  C   UNL A   1      40.605  25.843  28.190  1.00  0.00     0.059 A 
ATOM     88  C   UNL A   1      42.508  27.228  27.595  1.00  0.00     0.059 A 
ATOM     89  F   UNL A   1      43.005  29.130  28.872  1.00  0.00    -0.206 F 
ATOM     90  C   UNL A   1      41.709  26.107  27.376  1.00  0.00     0.060 A 
BRANCH  90  91
ATOM     91  S   UNL A   1      42.075  24.980  26.013  1.00  0.00     0.124 S 
ATOM     92  O   UNL A   1      41.419  25.649  24.895  1.00  0.00    -0.237 OA
ATOM     93  O   UNL A   1      43.534  24.983  25.992  1.00  0.00    -0.237 OA
ATOM     94  O   UNL A   1      41.464  23.725  26.443  1.00  0.00    -0.744 OA
ENDBRANCH  90  91
ENDBRANCH  58  83
BRANCH  70  95
ATOM     95  C   UNL A   1      44.411  28.968  35.546  1.00  0.00     0.058 A 
ATOM     96  C   UNL A   1      44.309  27.864  36.405  1.00  0.00     0.135 A 
ATOM     97  C   UNL A   1      45.696  29.443  35.238  1.00  0.00     0.135 A 
ATOM     98  F   UNL A   1      43.104  27.372  36.735  1.00  0.00    -0.206 F 
ATOM     99  C   UNL A   1      45.439  27.263  36.954  1.00  0.00     0.059 A 
ATOM    100  C   UNL A   1      46.841  28.843  35.754  1.00  0.00     0.059 A 
ATOM    101  F   UNL A   1      45.850  30.488  34.409  1.00  0.00    -0.206 F 
ATOM    102  C   UNL A   1      46.701  27.760  36.621  1.00  0.00     0.060 A 
BRANCH 102 103
ATOM    103  S   UNL A   1      48.162  26.950  37.307  1.00  0.00     0.124 S 
ATOM    104  O   UNL A   1      48.512  27.852  38.399  1.00  0.00    -0.237 OA
ATOM    105  O   UNL A   1      47.641  25.646  37.705  1.00  0.00    -0.237 OA
ATOM    106  O   UNL A   1      49.097  26.929  36.186  1.00  0.00    -0.744 OA
ENDBRANCH 102 103
ENDBRANCH  70  95
ENDBRANCH  44  45
ENDBRANCH  37  39
ENDBRANCH  36  37
ENDBRANCH  35  36
ENDBRANCH  34  35
ENDBRANCH  33  34
ENDBRANCH  32  33
ENDBRANCH  31  32
ENDBRANCH   1  31
TORSDOF 26
ENDMDL
MODEL 3
REMARK VINA RESULT:      -9.6      3.264      9.230
REMARK SMILES COCCNC(=O)c1cccc(NC(=O)[C@@H]2CCCC[C@H]2C(=O)OCCOCCOCCOC(=O)c2ccc(-c3c4nc(c(-c5c(F)cc(S(=O)(=O)[O-])cc5F)c5ccc([nH]5)c(-c5c(F)cc(S(=O)(=O)[O-])cc5F)c5nc(c(-c6c(F)cc(S(=O)(=O)[O-])cc6F)c6ccc3[nH]6)C=C5)C=C4)cc2)c1
REMARK SMILES IDX 27 1 26 2 25 3 24 4 22 5 23 6 21 7 16 8 17 9 18 10 20 11
REMARK SMILES IDX 19 12 14 13 13 14 15 16 12 17 8 18 9 19 102 20 10 21 11 22
REMARK SMILES IDX 6 23 5 24 7 26 4 27 3 28 2 29 1 30 28 31 29 32 30 33 31 34
REMARK SMILES IDX 32 35 33 36 34 37 35 38 36 39 37 40 101 41 38 42 100 43
REMARK SMILES IDX 39 44 40 45 41 46 94 47 42 48 99 49 93 50 95 51 43 52 98 53
REMARK SMILES IDX 92 54 91 55 44 57 78 58 57 59 77 60 58 61 61 62 76 63 96 64
REMARK SMILES IDX 59 65 60 66 75 68 97 69 62 70 45 71 46 72 55 73 47 74 48 75
REMARK SMILES IDX 54 76 56 77 49 78 50 79 51 80 52 81 53 82 79 83 80 84 89 85
REMARK SMILES IDX 81 86 82 87 88 88 90 89 83 90 84 91 85 92 86 93 87 94 63 95
REMARK SMILES IDX 64 96 73 97 65 98 66 99 72 100 74 101 67 102 68 103 69 104
REMARK SMILES IDX 70 105 71 106
REMARK H PARENT 13 15 5 25 95 56 61 67
REMARK Flexibility Score: inf
ROOT
ATOM      1  O   UNL A   1      32.681  28.523  22.577  1.00  0.00    -0.376 OA
ENDROOT
BRANCH   1   2
ATOM      2  C   UNL A   1      31.291  28.270  22.695  1.00  0.00     0.202 C 
BRANCH   2   3
ATOM      3  C   UNL A   1      30.828  26.852  22.348  1.00  0.00     0.261 C 
BRANCH   3   4
ATOM      4  O   UNL A   1      31.655  25.779  22.848  1.00  0.00    -0.463 OA
BRANCH   4   5
ATOM      5  C   UNL A   1      30.996  24.816  23.550  1.00  0.00     0.309 C 
ATOM      6  O   UNL A   1      29.898  24.975  24.070  1.00  0.00    -0.252 OA
BRANCH   5   7
ATOM      7  C   UNL A   1      31.842  23.576  23.818  1.00  0.00     0.111 C 
ATOM      8  C   UNL A   1      31.704  22.889  25.202  1.00  0.00     0.093 C 
ATOM      9  C   UNL A   1      32.530  21.581  25.211  1.00  0.00     0.014 C 
ATOM     10  C   UNL A   1      32.155  20.636  24.081  1.00  0.00     0.001 C 
ATOM     11  C   UNL A   1      31.477  22.600  22.684  1.00  0.00     0.016 C 
ATOM     12  C   UNL A   1      32.300  21.323  22.732  1.00  0.00     0.001 C 
BRANCH   8  13
ATOM     13  C   UNL A   1      32.267  23.710  26.351  1.00  0.00     0.228 C 
ATOM     14  N   UNL A   1      33.575  24.109  26.437  1.00  0.00    -0.326 N 
ATOM     15  H   UNL A   1      33.726  24.724  27.191  1.00  0.00     0.169 HD
ATOM     16  O   UNL A   1      31.513  24.078  27.259  1.00  0.00    -0.274 OA
BRANCH  14  17
ATOM     17  C   UNL A   1      34.761  23.857  25.710  1.00  0.00     0.041 A 
ATOM     18  C   UNL A   1      37.193  23.563  25.820  1.00  0.00     0.041 A 
ATOM     19  C   UNL A   1      37.223  23.282  24.453  1.00  0.00     0.014 A 
ATOM     20  C   UNL A   1      35.967  23.861  26.442  1.00  0.00     0.040 A 
ATOM     21  C   UNL A   1      36.046  23.307  23.717  1.00  0.00     0.003 A 
ATOM     22  C   UNL A   1      34.830  23.603  24.340  1.00  0.00     0.026 A 
BRANCH  18  23
ATOM     23  C   UNL A   1      38.499  23.710  26.507  1.00  0.00     0.251 C 
ATOM     24  N   UNL A   1      39.327  22.651  26.744  1.00  0.00    -0.350 N 
ATOM     25  H   UNL A   1      39.991  22.802  27.456  1.00  0.00     0.163 HD
ATOM     26  O   UNL A   1      38.849  24.829  26.876  1.00  0.00    -0.269 OA
BRANCH  24  27
ATOM     27  C   UNL A   1      39.397  21.336  26.126  1.00  0.00     0.144 C 
BRANCH  27  28
ATOM     28  C   UNL A   1      40.827  20.773  26.092  1.00  0.00     0.181 C 
BRANCH  28  29
ATOM     29  O   UNL A   1      40.885  19.373  25.801  1.00  0.00    -0.383 OA
ATOM     30  C   UNL A   1      41.970  18.692  26.414  1.00  0.00     0.194 C 
ENDBRANCH  28  29
ENDBRANCH  27  28
ENDBRANCH  24  27
ENDBRANCH  18  23
ENDBRANCH  14  17
ENDBRANCH   8  13
ENDBRANCH   5   7
ENDBRANCH   4   5
ENDBRANCH   3   4
ENDBRANCH   2   3
ENDBRANCH   1   2
BRANCH   1  31
ATOM     31  C   UNL A   1      33.435  28.846  23.743  1.00  0.00     0.188 C 
BRANCH  31  32
ATOM     32  C   UNL A   1      33.035  28.209  25.074  1.00  0.00     0.188 C 
BRANCH  32  33
ATOM     33  O   UNL A   1      32.565  29.180  26.004  1.00  0.00    -0.376 OA
BRANCH  33  34
ATOM     34  C   UNL A   1      33.174  29.092  27.282  1.00  0.00     0.202 C 
BRANCH  34  35
ATOM     35  C   UNL A   1      34.624  29.574  27.197  1.00  0.00     0.261 C 
BRANCH  35  36
ATOM     36  O   UNL A   1      34.793  30.984  27.437  1.00  0.00    -0.460 OA
BRANCH  36  37
ATOM     37  C   UNL A   1      35.149  31.351  28.688  1.00  0.00     0.338 C 
ATOM     38  O   UNL A   1      34.450  31.955  29.494  1.00  0.00    -0.246 OA
BRANCH  37  39
ATOM     39  C   UNL A   1      36.447  30.727  29.012  1.00  0.00     0.060 A 
ATOM     40  C   UNL A   1      36.464  29.670  29.927  1.00  0.00     0.016 A 
ATOM     41  C   UNL A   1      37.639  31.175  28.440  1.00  0.00     0.016 A 
ATOM     42  C   UNL A   1      37.667  29.064  30.288  1.00  0.00     0.010 A 
ATOM     43  C   UNL A   1      38.850  30.585  28.821  1.00  0.00     0.010 A 
ATOM     44  C   UNL A   1      38.873  29.542  29.766  1.00  0.00    -0.014 A 
BRANCH  44  45
ATOM     45  C   UNL A   1      40.164  29.077  30.332  1.00  0.00     0.031 A 
ATOM     46  C   UNL A   1      40.681  29.748  31.576  1.00  0.00     0.074 A 
ATOM     47  C   UNL A   1      40.862  28.074  29.768  1.00  0.00     0.049 A 
ATOM     48  N   UNL A   1      41.833  29.611  32.177  1.00  0.00    -0.248 NA
ATOM     49  C   UNL A   1      39.773  30.708  32.228  1.00  0.00     0.031 C 
ATOM     50  C   UNL A   1      40.443  27.301  28.600  1.00  0.00     0.029 A 
ATOM     51  N   UNL A   1      42.087  27.546  30.098  1.00  0.00    -0.354 N 
ATOM     52  C   UNL A   1      41.804  30.487  33.255  1.00  0.00     0.074 A 
ATOM     53  C   UNL A   1      40.521  31.154  33.227  1.00  0.00     0.031 C 
ATOM     54  C   UNL A   1      41.408  26.416  28.294  1.00  0.00     0.029 A 
ATOM     55  C   UNL A   1      42.529  26.586  29.218  1.00  0.00     0.049 A 
ATOM     56  H   UNL A   1      42.600  27.830  30.889  1.00  0.00     0.167 HD
ATOM     57  C   UNL A   1      42.762  30.716  34.183  1.00  0.00     0.037 A 
ATOM     58  C   UNL A   1      43.715  25.948  29.145  1.00  0.00     0.037 A 
ATOM     59  C   UNL A   1      44.025  30.028  34.227  1.00  0.00     0.049 A 
ATOM     60  C   UNL A   1      44.785  26.254  30.165  1.00  0.00     0.074 A 
ATOM     61  C   UNL A   1      45.050  30.174  35.146  1.00  0.00     0.029 A 
ATOM     62  N   UNL A   1      44.436  29.068  33.317  1.00  0.00    -0.354 N 
ATOM     63  N   UNL A   1      44.746  27.085  31.180  1.00  0.00    -0.248 NA
ATOM     64  C   UNL A   1      46.063  25.537  30.028  1.00  0.00     0.031 C 
ATOM     65  C   UNL A   1      46.100  29.332  34.766  1.00  0.00     0.029 A 
ATOM     66  C   UNL A   1      45.709  28.627  33.638  1.00  0.00     0.049 A 
ATOM     67  H   UNL A   1      43.903  28.746  32.553  1.00  0.00     0.167 HD
ATOM     68  C   UNL A   1      45.981  26.973  31.813  1.00  0.00     0.074 A 
ATOM     69  C   UNL A   1      46.741  25.986  31.077  1.00  0.00     0.031 C 
ATOM     70  C   UNL A   1      46.446  27.629  32.905  1.00  0.00     0.037 A 
BRANCH  57  71
ATOM     71  C   UNL A   1      42.501  31.778  35.212  1.00  0.00     0.058 A 
ATOM     72  C   UNL A   1      41.824  31.503  36.409  1.00  0.00     0.135 A 
ATOM     73  C   UNL A   1      42.990  33.080  35.016  1.00  0.00     0.135 A 
ATOM     74  F   UNL A   1      41.317  30.280  36.634  1.00  0.00    -0.206 F 
ATOM     75  C   UNL A   1      41.631  32.486  37.375  1.00  0.00     0.059 A 
ATOM     76  C   UNL A   1      42.829  34.072  35.978  1.00  0.00     0.059 A 
ATOM     77  F   UNL A   1      43.637  33.396  33.884  1.00  0.00    -0.206 F 
ATOM     78  C   UNL A   1      42.142  33.767  37.151  1.00  0.00     0.060 A 
BRANCH  78  79
ATOM     79  S   UNL A   1      41.911  35.023  38.427  1.00  0.00     0.124 S 
ATOM     80  O   UNL A   1      41.556  36.190  37.626  1.00  0.00    -0.237 OA
ATOM     81  O   UNL A   1      40.832  34.457  39.231  1.00  0.00    -0.237 OA
ATOM     82  O   UNL A   1      43.213  35.085  39.083  1.00  0.00    -0.744 OA
ENDBRANCH  78  79
ENDBRANCH  57  71
BRANCH  58  83
ATOM     83  C   UNL A   1      43.986  24.990  28.038  1.00  0.00     0.058 A 
ATOM     84  C   UNL A   1      44.521  25.420  26.814  1.00  0.00     0.135 A 
ATOM     85  C   UNL A   1      43.678  23.626  28.172  1.00  0.00     0.135 A 
ATOM     86  F   UNL A   1      44.816  26.715  26.629  1.00  0.00    -0.206 F 
ATOM     87  C   UNL A   1      44.717  24.539  25.754  1.00  0.00     0.059 A 
ATOM     88  C   UNL A   1      43.890  22.722  27.136  1.00  0.00     0.059 A 
ATOM     89  F   UNL A   1      43.167  23.162  29.322  1.00  0.00    -0.206 F 
ATOM     90  C   UNL A   1      44.396  23.191  25.924  1.00  0.00     0.060 A 
BRANCH  90  91
ATOM     91  S   UNL A   1      44.669  22.050  24.550  1.00  0.00     0.124 S 
ATOM     92  O   UNL A   1      46.101  22.205  24.320  1.00  0.00    -0.237 OA
ATOM     93  O   UNL A   1      44.249  20.774  25.119  1.00  0.00    -0.237 OA
ATOM     94  O   UNL A   1      43.801  22.577  23.501  1.00  0.00    -0.744 OA
ENDBRANCH  90  91
ENDBRANCH  58  83
BRANCH  70  95
ATOM     95  C   UNL A   1      47.821  27.276  33.401  1.00  0.00     0.058 A 
ATOM     96  C   UNL A   1      48.962  27.973  32.974  1.00  0.00     0.135 A 
ATOM     97  C   UNL A   1      47.990  26.270  34.366  1.00  0.00     0.135 A 
ATOM     98  F   UNL A   1      48.856  28.942  32.051  1.00  0.00    -0.206 F 
ATOM     99  C   UNL A   1      50.226  27.671  33.471  1.00  0.00     0.059 A 
ATOM    100  C   UNL A   1      49.241  25.968  34.896  1.00  0.00     0.059 A 
ATOM    101  F   UNL A   1      46.930  25.583  34.820  1.00  0.00    -0.206 F 
ATOM    102  C   UNL A   1      50.355  26.667  34.433  1.00  0.00     0.060 A 
BRANCH 102 103
ATOM    103  S   UNL A   1      51.995  26.308  35.100  1.00  0.00     0.124 S 
ATOM    104  O   UNL A   1      51.670  25.835  36.441  1.00  0.00    -0.237 OA
ATOM    105  O   UNL A   1      52.496  25.295  34.176  1.00  0.00    -0.237 OA
ATOM    106  O   UNL A   1      52.677  27.597  35.037  1.00  0.00    -0.744 OA
ENDBRANCH 102 103
ENDBRANCH  70  95
ENDBRANCH  44  45
ENDBRANCH  37  39
ENDBRANCH  36  37
ENDBRANCH  35  36
ENDBRANCH  34  35
ENDBRANCH  33  34
ENDBRANCH  32  33
ENDBRANCH  31  32
ENDBRANCH   1  31
TORSDOF 26
ENDMDL
