MODEL 1
REMARK VINA RESULT:      -9.5      0.000      0.000
REMARK SMILES CC(C)[C@H](NC(N)=O)C(=O)N[C@H](C)C(=O)OCCOCCOCCOC(=O)c1ccc(-c2c3nc(c(-c4c(F)cc(S(=O)(=O)[O-])cc4F)c4ccc([nH]4)c(-c4c(F)cc(S(=O)(=O)[O-])cc4F)c4nc(c(-c5c(F)cc(S(=O)(=O)[O-])cc5F)c5ccc2[nH]5)C=C4)C=C3)cc1
REMARK SMILES IDX 20 1 19 2 18 3 17 4 16 5 14 6 15 7 12 8 13 9 11 10 9 11
REMARK SMILES IDX 10 12 4 14 2 15 1 16 3 17 5 18 6 19 7 21 8 22 21 25 22 26
REMARK SMILES IDX 23 27 24 28 25 29 26 30 27 31 28 32 29 33 93 34 30 35 92 36
REMARK SMILES IDX 31 37 32 38 33 39 86 40 34 41 91 42 85 43 87 44 35 45 90 46
REMARK SMILES IDX 84 47 83 48 36 50 70 51 49 52 69 53 50 54 53 55 68 56 88 57
REMARK SMILES IDX 51 58 52 59 67 61 89 62 54 63 37 64 38 65 47 66 39 67 40 68
REMARK SMILES IDX 46 69 48 70 41 71 42 72 43 73 44 74 45 75 71 76 72 77 81 78
REMARK SMILES IDX 73 79 74 80 80 81 82 82 75 83 76 84 77 85 78 86 79 87 55 88
REMARK SMILES IDX 56 89 65 90 57 91 58 92 64 93 66 94 59 95 60 96 61 97 62 98
REMARK SMILES IDX 63 99
REMARK H PARENT 11 13 5 20 7 23 7 24 87 49 53 60
REMARK Flexibility Score: inf
ROOT
ATOM      1  C   UNL A   1      43.629  41.902  25.390  1.00  0.00     0.188 C 
ENDROOT
BRANCH   1   2
ATOM      2  O   UNL A   1      43.418  41.945  23.989  1.00  0.00    -0.376 OA
BRANCH   2   3
ATOM      3  C   UNL A   1      42.614  43.031  23.564  1.00  0.00     0.202 C 
BRANCH   3   4
ATOM      4  C   UNL A   1      41.551  42.609  22.562  1.00  0.00     0.261 C 
BRANCH   4   5
ATOM      5  O   UNL A   1      41.408  43.365  21.335  1.00  0.00    -0.462 OA
BRANCH   5   6
ATOM      6  C   UNL A   1      42.212  43.138  20.261  1.00  0.00     0.328 C 
ATOM      7  O   UNL A   1      43.407  42.882  20.344  1.00  0.00    -0.250 OA
BRANCH   6   8
ATOM      8  C   UNL A   1      41.492  43.390  18.922  1.00  0.00     0.189 C 
ATOM      9  C   UNL A   1      40.476  44.525  18.868  1.00  0.00     0.043 C 
BRANCH   8  10
ATOM     10  N   UNL A   1      42.316  43.313  17.708  1.00  0.00    -0.341 N 
ATOM     11  C   UNL A   1      43.115  44.184  17.033  1.00  0.00     0.243 C 
ATOM     12  O   UNL A   1      43.488  43.818  15.910  1.00  0.00    -0.273 OA
ATOM     13  H   UNL A   1      42.283  42.424  17.286  1.00  0.00     0.164 HD
BRANCH  11  14
ATOM     14  C   UNL A   1      43.776  45.429  17.678  1.00  0.00     0.175 C 
BRANCH  14  15
ATOM     15  C   UNL A   1      43.267  46.739  16.994  1.00  0.00     0.015 C 
ATOM     16  C   UNL A   1      41.906  46.630  16.299  1.00  0.00     0.010 C 
ATOM     17  C   UNL A   1      43.275  47.959  17.919  1.00  0.00     0.010 C 
ENDBRANCH  14  15
BRANCH  14  18
ATOM     18  N   UNL A   1      45.236  45.351  17.634  1.00  0.00    -0.326 N 
ATOM     19  C   UNL A   1      46.037  45.371  18.732  1.00  0.00     0.312 C 
ATOM     20  H   UNL A   1      45.667  45.279  16.751  1.00  0.00     0.166 HD
ATOM     21  N   UNL A   1      47.338  45.145  18.410  1.00  0.00    -0.352 N 
ATOM     22  O   UNL A   1      45.669  45.502  19.887  1.00  0.00    -0.249 OA
ATOM     23  H   UNL A   1      47.601  45.045  17.467  1.00  0.00     0.161 HD
ATOM     24  H   UNL A   1      48.017  45.081  19.121  1.00  0.00     0.161 HD
ENDBRANCH  14  18
ENDBRANCH  11  14
ENDBRANCH   8  10
ENDBRANCH   6   8
ENDBRANCH   5   6
ENDBRANCH   4   5
ENDBRANCH   3   4
ENDBRANCH   2   3
ENDBRANCH   1   2
BRANCH   1  25
ATOM     25  C   UNL A   1      42.968  40.709  26.111  1.00  0.00     0.188 C 
BRANCH  25  26
ATOM     26  O   UNL A   1      43.732  39.617  26.599  1.00  0.00    -0.376 OA
BRANCH  26  27
ATOM     27  C   UNL A   1      45.148  39.706  26.608  1.00  0.00     0.202 C 
BRANCH  27  28
ATOM     28  C   UNL A   1      45.951  39.264  27.844  1.00  0.00     0.261 C 
BRANCH  28  29
ATOM     29  O   UNL A   1      46.274  37.868  27.905  1.00  0.00    -0.460 OA
BRANCH  29  30
ATOM     30  C   UNL A   1      46.215  37.301  29.138  1.00  0.00     0.338 C 
ATOM     31  O   UNL A   1      45.953  37.866  30.187  1.00  0.00    -0.246 OA
BRANCH  30  32
ATOM     32  C   UNL A   1      46.244  35.823  28.988  1.00  0.00     0.060 A 
ATOM     33  C   UNL A   1      46.051  35.292  27.703  1.00  0.00     0.016 A 
ATOM     34  C   UNL A   1      46.534  34.972  30.059  1.00  0.00     0.016 A 
ATOM     35  C   UNL A   1      46.124  33.918  27.487  1.00  0.00     0.010 A 
ATOM     36  C   UNL A   1      46.567  33.588  29.852  1.00  0.00     0.010 A 
ATOM     37  C   UNL A   1      46.322  33.056  28.572  1.00  0.00    -0.014 A 
BRANCH  37  38
ATOM     38  C   UNL A   1      45.947  31.631  28.408  1.00  0.00     0.031 A 
ATOM     39  C   UNL A   1      44.505  31.273  28.661  1.00  0.00     0.074 A 
ATOM     40  C   UNL A   1      46.818  30.695  27.990  1.00  0.00     0.049 A 
ATOM     41  N   UNL A   1      43.902  30.121  28.552  1.00  0.00    -0.248 NA
ATOM     42  C   UNL A   1      43.626  32.375  29.092  1.00  0.00     0.031 C 
ATOM     43  C   UNL A   1      48.228  30.920  27.679  1.00  0.00     0.029 A 
ATOM     44  N   UNL A   1      46.631  29.355  27.756  1.00  0.00    -0.354 N 
ATOM     45  C   UNL A   1      42.576  30.359  28.895  1.00  0.00     0.074 A 
ATOM     46  C   UNL A   1      42.467  31.756  29.248  1.00  0.00     0.031 C 
ATOM     47  C   UNL A   1      48.784  29.751  27.307  1.00  0.00     0.029 A 
ATOM     48  C   UNL A   1      47.773  28.695  27.366  1.00  0.00     0.049 A 
ATOM     49  H   UNL A   1      45.761  28.908  27.858  1.00  0.00     0.167 HD
ATOM     50  C   UNL A   1      41.535  29.496  28.906  1.00  0.00     0.037 A 
ATOM     51  C   UNL A   1      47.974  27.388  27.102  1.00  0.00     0.037 A 
ATOM     52  C   UNL A   1      41.642  28.105  28.566  1.00  0.00     0.049 A 
ATOM     53  C   UNL A   1      46.808  26.430  27.177  1.00  0.00     0.074 A 
ATOM     54  C   UNL A   1      40.644  27.147  28.538  1.00  0.00     0.029 A 
ATOM     55  N   UNL A   1      42.820  27.469  28.207  1.00  0.00    -0.354 N 
ATOM     56  N   UNL A   1      45.553  26.676  27.471  1.00  0.00    -0.248 NA
ATOM     57  C   UNL A   1      47.086  25.018  26.874  1.00  0.00     0.031 C 
ATOM     58  C   UNL A   1      41.229  25.921  28.204  1.00  0.00     0.029 A 
ATOM     59  C   UNL A   1      42.580  26.126  27.976  1.00  0.00     0.049 A 
ATOM     60  H   UNL A   1      43.698  27.908  28.128  1.00  0.00     0.167 HD
ATOM     61  C   UNL A   1      44.889  25.456  27.364  1.00  0.00     0.074 A 
ATOM     62  C   UNL A   1      45.879  24.478  26.963  1.00  0.00     0.031 C 
ATOM     63  C   UNL A   1      43.580  25.168  27.576  1.00  0.00     0.037 A 
BRANCH  50  64
ATOM     64  C   UNL A   1      40.199  30.036  29.330  1.00  0.00     0.058 A 
ATOM     65  C   UNL A   1      39.144  30.194  28.417  1.00  0.00     0.135 A 
ATOM     66  C   UNL A   1      39.969  30.391  30.668  1.00  0.00     0.135 A 
ATOM     67  F   UNL A   1      39.322  29.899  27.119  1.00  0.00    -0.206 F 
ATOM     68  C   UNL A   1      37.913  30.704  28.813  1.00  0.00     0.059 A 
ATOM     69  C   UNL A   1      38.738  30.878  31.091  1.00  0.00     0.059 A 
ATOM     70  F   UNL A   1      40.951  30.272  31.576  1.00  0.00    -0.206 F 
ATOM     71  C   UNL A   1      37.719  31.041  30.154  1.00  0.00     0.060 A 
BRANCH  71  72
ATOM     72  S   UNL A   1      36.111  31.689  30.656  1.00  0.00     0.124 S 
ATOM     73  O   UNL A   1      35.824  30.876  31.832  1.00  0.00    -0.237 OA
ATOM     74  O   UNL A   1      36.407  33.095  30.913  1.00  0.00    -0.237 OA
ATOM     75  O   UNL A   1      35.265  31.433  29.495  1.00  0.00    -0.744 OA
ENDBRANCH  71  72
ENDBRANCH  50  64
BRANCH  51  76
ATOM     76  C   UNL A   1      49.333  26.893  26.751  1.00  0.00     0.058 A 
ATOM     77  C   UNL A   1      49.749  26.782  25.416  1.00  0.00     0.135 A 
ATOM     78  C   UNL A   1      50.235  26.492  27.749  1.00  0.00     0.135 A 
ATOM     79  F   UNL A   1      48.918  27.137  24.423  1.00  0.00    -0.206 F 
ATOM     80  C   UNL A   1      51.002  26.277  25.080  1.00  0.00     0.059 A 
ATOM     81  C   UNL A   1      51.502  26.007  27.440  1.00  0.00     0.059 A 
ATOM     82  F   UNL A   1      49.889  26.581  29.043  1.00  0.00    -0.206 F 
ATOM     83  C   UNL A   1      51.873  25.891  26.101  1.00  0.00     0.060 A 
BRANCH  83  84
ATOM     84  S   UNL A   1      53.513  25.275  25.660  1.00  0.00     0.124 S 
ATOM     85  O   UNL A   1      54.223  25.399  26.929  1.00  0.00    -0.237 OA
ATOM     86  O   UNL A   1      53.222  23.914  25.221  1.00  0.00    -0.237 OA
ATOM     87  O   UNL A   1      53.941  26.188  24.605  1.00  0.00    -0.744 OA
ENDBRANCH  83  84
ENDBRANCH  51  76
BRANCH  63  88
ATOM     88  C   UNL A   1      43.136  23.749  27.352  1.00  0.00     0.058 A 
ATOM     89  C   UNL A   1      42.906  22.868  28.420  1.00  0.00     0.135 A 
ATOM     90  C   UNL A   1      42.902  23.275  26.050  1.00  0.00     0.135 A 
ATOM     91  F   UNL A   1      43.113  23.271  29.685  1.00  0.00    -0.206 F 
ATOM     92  C   UNL A   1      42.497  21.556  28.205  1.00  0.00     0.059 A 
ATOM     93  C   UNL A   1      42.464  21.975  25.813  1.00  0.00     0.059 A 
ATOM     94  F   UNL A   1      43.088  24.081  24.993  1.00  0.00    -0.206 F 
ATOM     95  C   UNL A   1      42.283  21.118  26.896  1.00  0.00     0.060 A 
BRANCH  95  96
ATOM     96  S   UNL A   1      41.748  19.414  26.628  1.00  0.00     0.124 S 
ATOM     97  O   UNL A   1      42.598  18.690  27.568  1.00  0.00    -0.237 OA
ATOM     98  O   UNL A   1      40.330  19.472  26.969  1.00  0.00    -0.237 OA
ATOM     99  O   UNL A   1      42.038  19.187  25.215  1.00  0.00    -0.744 OA
ENDBRANCH  95  96
ENDBRANCH  63  88
ENDBRANCH  37  38
ENDBRANCH  30  32
ENDBRANCH  29  30
ENDBRANCH  28  29
ENDBRANCH  27  28
ENDBRANCH  26  27
ENDBRANCH  25  26
ENDBRANCH   1  25
TORSDOF 24
ENDMDL
MODEL 2
REMARK VINA RESULT:      -9.4      6.950     13.734
REMARK SMILES CC(C)[C@H](NC(N)=O)C(=O)N[C@H](C)C(=O)OCCOCCOCCOC(=O)c1ccc(-c2c3nc(c(-c4c(F)cc(S(=O)(=O)[O-])cc4F)c4ccc([nH]4)c(-c4c(F)cc(S(=O)(=O)[O-])cc4F)c4nc(c(-c5c(F)cc(S(=O)(=O)[O-])cc5F)c5ccc2[nH]5)C=C4)C=C3)cc1
REMARK SMILES IDX 20 1 19 2 18 3 17 4 16 5 14 6 15 7 12 8 13 9 11 10 9 11
REMARK SMILES IDX 10 12 4 14 2 15 1 16 3 17 5 18 6 19 7 21 8 22 21 25 22 26
REMARK SMILES IDX 23 27 24 28 25 29 26 30 27 31 28 32 29 33 93 34 30 35 92 36
REMARK SMILES IDX 31 37 32 38 33 39 86 40 34 41 91 42 85 43 87 44 35 45 90 46
REMARK SMILES IDX 84 47 83 48 36 50 70 51 49 52 69 53 50 54 53 55 68 56 88 57
REMARK SMILES IDX 51 58 52 59 67 61 89 62 54 63 37 64 38 65 47 66 39 67 40 68
REMARK SMILES IDX 46 69 48 70 41 71 42 72 43 73 44 74 45 75 71 76 72 77 81 78
REMARK SMILES IDX 73 79 74 80 80 81 82 82 75 83 76 84 77 85 78 86 79 87 55 88
REMARK SMILES IDX 56 89 65 90 57 91 58 92 64 93 66 94 59 95 60 96 61 97 62 98
REMARK SMILES IDX 63 99
REMARK H PARENT 11 13 5 20 7 23 7 24 87 49 53 60
REMARK Flexibility Score: inf
ROOT
ATOM      1  C   UNL A   1      35.005  21.452  25.557  1.00  0.00     0.188 C 
ENDROOT
BRANCH   1   2
ATOM      2  O   UNL A   1      34.174  21.720  24.441  1.00  0.00    -0.376 OA
BRANCH   2   3
ATOM      3  C   UNL A   1      32.978  20.960  24.421  1.00  0.00     0.202 C 
BRANCH   3   4
ATOM      4  C   UNL A   1      31.939  21.489  25.395  1.00  0.00     0.261 C 
BRANCH   4   5
ATOM      5  O   UNL A   1      31.582  22.892  25.343  1.00  0.00    -0.462 OA
BRANCH   5   6
ATOM      6  C   UNL A   1      31.760  23.712  26.414  1.00  0.00     0.328 C 
ATOM      7  O   UNL A   1      31.938  23.313  27.559  1.00  0.00    -0.250 OA
BRANCH   6   8
ATOM      8  C   UNL A   1      31.561  25.198  26.058  1.00  0.00     0.189 C 
ATOM      9  C   UNL A   1      32.809  26.040  25.818  1.00  0.00     0.043 C 
BRANCH   8  10
ATOM     10  N   UNL A   1      30.481  25.509  25.114  1.00  0.00    -0.341 N 
ATOM     11  C   UNL A   1      30.339  26.367  24.065  1.00  0.00     0.243 C 
ATOM     12  O   UNL A   1      29.187  26.504  23.630  1.00  0.00    -0.273 OA
ATOM     13  H   UNL A   1      29.672  24.972  25.275  1.00  0.00     0.164 HD
BRANCH  11  14
ATOM     14  C   UNL A   1      31.526  26.941  23.250  1.00  0.00     0.175 C 
BRANCH  14  15
ATOM     15  C   UNL A   1      31.543  28.502  23.327  1.00  0.00     0.015 C 
ATOM     16  C   UNL A   1      30.660  29.218  22.299  1.00  0.00     0.010 C 
ATOM     17  C   UNL A   1      31.253  29.053  24.725  1.00  0.00     0.010 C 
ENDBRANCH  14  15
BRANCH  14  18
ATOM     18  N   UNL A   1      31.499  26.486  21.860  1.00  0.00    -0.326 N 
ATOM     19  C   UNL A   1      32.595  26.083  21.165  1.00  0.00     0.312 C 
ATOM     20  H   UNL A   1      30.629  26.472  21.397  1.00  0.00     0.166 HD
ATOM     21  N   UNL A   1      32.261  25.584  19.946  1.00  0.00    -0.352 N 
ATOM     22  O   UNL A   1      33.744  26.084  21.572  1.00  0.00    -0.249 OA
ATOM     23  H   UNL A   1      31.324  25.599  19.647  1.00  0.00     0.161 HD
ATOM     24  H   UNL A   1      32.959  25.208  19.361  1.00  0.00     0.161 HD
ENDBRANCH  14  18
ENDBRANCH  11  14
ENDBRANCH   8  10
ENDBRANCH   6   8
ENDBRANCH   5   6
ENDBRANCH   4   5
ENDBRANCH   3   4
ENDBRANCH   2   3
ENDBRANCH   1   2
BRANCH   1  25
ATOM     25  C   UNL A   1      35.754  22.677  26.121  1.00  0.00     0.188 C 
BRANCH  25  26
ATOM     26  O   UNL A   1      37.053  23.029  25.671  1.00  0.00    -0.376 OA
BRANCH  26  27
ATOM     27  C   UNL A   1      37.971  22.005  25.325  1.00  0.00     0.202 C 
BRANCH  27  28
ATOM     28  C   UNL A   1      39.135  21.648  26.267  1.00  0.00     0.261 C 
BRANCH  28  29
ATOM     29  O   UNL A   1      39.892  20.486  25.902  1.00  0.00    -0.460 OA
BRANCH  29  30
ATOM     30  C   UNL A   1      40.917  20.163  26.733  1.00  0.00     0.338 C 
ATOM     31  O   UNL A   1      41.178  19.054  27.169  1.00  0.00    -0.246 OA
BRANCH  30  32
ATOM     32  C   UNL A   1      41.849  21.317  26.816  1.00  0.00     0.060 A 
ATOM     33  C   UNL A   1      42.182  21.797  28.093  1.00  0.00     0.016 A 
ATOM     34  C   UNL A   1      42.451  21.871  25.683  1.00  0.00     0.016 A 
ATOM     35  C   UNL A   1      43.095  22.838  28.242  1.00  0.00     0.010 A 
ATOM     36  C   UNL A   1      43.338  22.945  25.827  1.00  0.00     0.010 A 
ATOM     37  C   UNL A   1      43.630  23.456  27.106  1.00  0.00    -0.014 A 
BRANCH  37  38
ATOM     38  C   UNL A   1      44.214  24.811  27.259  1.00  0.00     0.031 A 
ATOM     39  C   UNL A   1      43.268  25.921  27.642  1.00  0.00     0.074 A 
ATOM     40  C   UNL A   1      45.532  25.052  27.132  1.00  0.00     0.049 A 
ATOM     41  N   UNL A   1      43.516  27.180  27.879  1.00  0.00    -0.248 NA
ATOM     42  C   UNL A   1      41.848  25.549  27.778  1.00  0.00     0.031 C 
ATOM     43  C   UNL A   1      46.552  24.059  26.801  1.00  0.00     0.029 A 
ATOM     44  N   UNL A   1      46.234  26.223  27.274  1.00  0.00    -0.354 N 
ATOM     45  C   UNL A   1      42.287  27.749  28.197  1.00  0.00     0.074 A 
ATOM     46  C   UNL A   1      41.291  26.707  28.089  1.00  0.00     0.031 C 
ATOM     47  C   UNL A   1      47.752  24.669  26.751  1.00  0.00     0.029 A 
ATOM     48  C   UNL A   1      47.581  26.095  27.032  1.00  0.00     0.049 A 
ATOM     49  H   UNL A   1      45.812  27.076  27.524  1.00  0.00     0.167 HD
ATOM     50  C   UNL A   1      42.011  29.022  28.556  1.00  0.00     0.037 A 
ATOM     51  C   UNL A   1      48.556  27.027  27.030  1.00  0.00     0.037 A 
ATOM     52  C   UNL A   1      42.997  30.061  28.653  1.00  0.00     0.049 A 
ATOM     53  C   UNL A   1      48.215  28.456  27.378  1.00  0.00     0.074 A 
ATOM     54  C   UNL A   1      42.820  31.384  29.019  1.00  0.00     0.029 A 
ATOM     55  N   UNL A   1      44.345  29.899  28.372  1.00  0.00    -0.354 N 
ATOM     56  N   UNL A   1      47.054  28.973  27.708  1.00  0.00    -0.248 NA
ATOM     57  C   UNL A   1      49.319  29.427  27.363  1.00  0.00     0.031 C 
ATOM     58  C   UNL A   1      44.055  32.032  28.914  1.00  0.00     0.029 A 
ATOM     59  C   UNL A   1      45.009  31.102  28.533  1.00  0.00     0.049 A 
ATOM     60  H   UNL A   1      44.766  29.052  28.098  1.00  0.00     0.167 HD
ATOM     61  C   UNL A   1      47.294  30.321  27.963  1.00  0.00     0.074 A 
ATOM     62  C   UNL A   1      48.712  30.535  27.765  1.00  0.00     0.031 C 
ATOM     63  C   UNL A   1      46.422  31.294  28.331  1.00  0.00     0.037 A 
BRANCH  50  64
ATOM     64  C   UNL A   1      40.575  29.360  28.841  1.00  0.00     0.058 A 
ATOM     65  C   UNL A   1      40.106  29.541  30.152  1.00  0.00     0.135 A 
ATOM     66  C   UNL A   1      39.660  29.512  27.788  1.00  0.00     0.135 A 
ATOM     67  F   UNL A   1      40.934  29.375  31.197  1.00  0.00    -0.206 F 
ATOM     68  C   UNL A   1      38.774  29.843  30.410  1.00  0.00     0.059 A 
ATOM     69  C   UNL A   1      38.329  29.840  28.022  1.00  0.00     0.059 A 
ATOM     70  F   UNL A   1      40.057  29.334  26.518  1.00  0.00    -0.206 F 
ATOM     71  C   UNL A   1      37.893  29.992  29.337  1.00  0.00     0.060 A 
BRANCH  71  72
ATOM     72  S   UNL A   1      36.169  30.398  29.686  1.00  0.00     0.124 S 
ATOM     73  O   UNL A   1      36.211  31.856  29.702  1.00  0.00    -0.237 OA
ATOM     74  O   UNL A   1      35.472  29.795  28.555  1.00  0.00    -0.237 OA
ATOM     75  O   UNL A   1      35.927  29.763  30.978  1.00  0.00    -0.744 OA
ENDBRANCH  71  72
ENDBRANCH  50  64
BRANCH  51  76
ATOM     76  C   UNL A   1      49.953  26.652  26.675  1.00  0.00     0.058 A 
ATOM     77  C   UNL A   1      50.380  26.602  25.340  1.00  0.00     0.135 A 
ATOM     78  C   UNL A   1      50.882  26.307  27.670  1.00  0.00     0.135 A 
ATOM     79  F   UNL A   1      49.526  26.906  24.351  1.00  0.00    -0.206 F 
ATOM     80  C   UNL A   1      51.671  26.208  25.001  1.00  0.00     0.059 A 
ATOM     81  C   UNL A   1      52.186  25.934  27.357  1.00  0.00     0.059 A 
ATOM     82  F   UNL A   1      50.526  26.343  28.964  1.00  0.00    -0.206 F 
ATOM     83  C   UNL A   1      52.568  25.875  26.017  1.00  0.00     0.060 A 
BRANCH  83  84
ATOM     84  S   UNL A   1      54.254  25.405  25.573  1.00  0.00     0.124 S 
ATOM     85  O   UNL A   1      54.796  24.998  26.865  1.00  0.00    -0.237 OA
ATOM     86  O   UNL A   1      54.030  24.333  24.608  1.00  0.00    -0.237 OA
ATOM     87  O   UNL A   1      54.808  26.635  25.014  1.00  0.00    -0.744 OA
ENDBRANCH  83  84
ENDBRANCH  51  76
BRANCH  63  88
ATOM     88  C   UNL A   1      46.980  32.671  28.569  1.00  0.00     0.058 A 
ATOM     89  C   UNL A   1      47.052  33.627  27.544  1.00  0.00     0.135 A 
ATOM     90  C   UNL A   1      47.415  33.049  29.850  1.00  0.00     0.135 A 
ATOM     91  F   UNL A   1      46.649  33.317  26.301  1.00  0.00    -0.206 F 
ATOM     92  C   UNL A   1      47.571  34.898  27.772  1.00  0.00     0.059 A 
ATOM     93  C   UNL A   1      47.910  34.324  30.107  1.00  0.00     0.059 A 
ATOM     94  F   UNL A   1      47.351  32.180  30.871  1.00  0.00    -0.206 F 
ATOM     95  C   UNL A   1      48.001  35.235  29.057  1.00  0.00     0.060 A 
BRANCH  95  96
ATOM     96  S   UNL A   1      48.669  36.889  29.342  1.00  0.00     0.124 S 
ATOM     97  O   UNL A   1      47.638  37.477  30.192  1.00  0.00    -0.237 OA
ATOM     98  O   UNL A   1      49.944  36.606  29.994  1.00  0.00    -0.237 OA
ATOM     99  O   UNL A   1      48.771  37.449  27.998  1.00  0.00    -0.744 OA
ENDBRANCH  95  96
ENDBRANCH  63  88
ENDBRANCH  37  38
ENDBRANCH  30  32
ENDBRANCH  29  30
ENDBRANCH  28  29
ENDBRANCH  27  28
ENDBRANCH  26  27
ENDBRANCH  25  26
ENDBRANCH   1  25
TORSDOF 24
ENDMDL
MODEL 3
REMARK VINA RESULT:      -8.7      8.251     13.949
REMARK SMILES CC(C)[C@H](NC(N)=O)C(=O)N[C@H](C)C(=O)OCCOCCOCCOC(=O)c1ccc(-c2c3nc(c(-c4c(F)cc(S(=O)(=O)[O-])cc4F)c4ccc([nH]4)c(-c4c(F)cc(S(=O)(=O)[O-])cc4F)c4nc(c(-c5c(F)cc(S(=O)(=O)[O-])cc5F)c5ccc2[nH]5)C=C4)C=C3)cc1
REMARK SMILES IDX 20 1 19 2 18 3 17 4 16 5 14 6 15 7 12 8 13 9 11 10 9 11
REMARK SMILES IDX 10 12 4 14 2 15 1 16 3 17 5 18 6 19 7 21 8 22 21 25 22 26
REMARK SMILES IDX 23 27 24 28 25 29 26 30 27 31 28 32 29 33 93 34 30 35 92 36
REMARK SMILES IDX 31 37 32 38 33 39 86 40 34 41 91 42 85 43 87 44 35 45 90 46
REMARK SMILES IDX 84 47 83 48 36 50 70 51 49 52 69 53 50 54 53 55 68 56 88 57
REMARK SMILES IDX 51 58 52 59 67 61 89 62 54 63 37 64 38 65 47 66 39 67 40 68
REMARK SMILES IDX 46 69 48 70 41 71 42 72 43 73 44 74 45 75 71 76 72 77 81 78
REMARK SMILES IDX 73 79 74 80 80 81 82 82 75 83 76 84 77 85 78 86 79 87 55 88
REMARK SMILES IDX 56 89 65 90 57 91 58 92 64 93 66 94 59 95 60 96 61 97 62 98
REMARK SMILES IDX 63 99
REMARK H PARENT 11 13 5 20 7 23 7 24 87 49 53 60
REMARK Flexibility Score: inf
ROOT
ATOM      1  C   UNL A   1      34.636  21.444  25.637  1.00  0.00     0.188 C 
ENDROOT
BRANCH   1   2
ATOM      2  O   UNL A   1      33.651  21.731  24.658  1.00  0.00    -0.376 OA
BRANCH   2   3
ATOM      3  C   UNL A   1      32.503  20.905  24.742  1.00  0.00     0.202 C 
BRANCH   3   4
ATOM      4  C   UNL A   1      31.347  21.588  25.454  1.00  0.00     0.261 C 
BRANCH   4   5
ATOM      5  O   UNL A   1      31.220  23.028  25.359  1.00  0.00    -0.462 OA
BRANCH   5   6
ATOM      6  C   UNL A   1      31.637  23.847  26.362  1.00  0.00     0.328 C 
ATOM      7  O   UNL A   1      31.880  23.466  27.500  1.00  0.00    -0.250 OA
BRANCH   6   8
ATOM      8  C   UNL A   1      31.622  25.334  25.954  1.00  0.00     0.189 C 
ATOM      9  C   UNL A   1      32.958  25.986  25.618  1.00  0.00     0.043 C 
BRANCH   8  10
ATOM     10  N   UNL A   1      30.545  25.757  25.052  1.00  0.00    -0.341 N 
ATOM     11  C   UNL A   1      30.457  26.612  23.995  1.00  0.00     0.243 C 
ATOM     12  O   UNL A   1      29.312  26.878  23.607  1.00  0.00    -0.273 OA
ATOM     13  H   UNL A   1      29.686  25.322  25.257  1.00  0.00     0.164 HD
BRANCH  11  14
ATOM     14  C   UNL A   1      31.666  27.031  23.119  1.00  0.00     0.175 C 
BRANCH  14  15
ATOM     15  C   UNL A   1      31.898  28.574  23.203  1.00  0.00     0.015 C 
ATOM     16  C   UNL A   1      33.343  29.033  22.979  1.00  0.00     0.010 C 
ATOM     17  C   UNL A   1      30.957  29.388  22.311  1.00  0.00     0.010 C 
ENDBRANCH  14  15
BRANCH  14  18
ATOM     18  N   UNL A   1      31.503  26.602  21.730  1.00  0.00    -0.326 N 
ATOM     19  C   UNL A   1      32.473  25.993  20.998  1.00  0.00     0.312 C 
ATOM     20  H   UNL A   1      30.633  26.766  21.296  1.00  0.00     0.166 HD
ATOM     21  N   UNL A   1      32.007  25.581  19.790  1.00  0.00    -0.352 N 
ATOM     22  O   UNL A   1      33.611  25.761  21.366  1.00  0.00    -0.249 OA
ATOM     23  H   UNL A   1      31.082  25.785  19.523  1.00  0.00     0.161 HD
ATOM     24  H   UNL A   1      32.595  25.077  19.181  1.00  0.00     0.161 HD
ENDBRANCH  14  18
ENDBRANCH  11  14
ENDBRANCH   8  10
ENDBRANCH   6   8
ENDBRANCH   5   6
ENDBRANCH   4   5
ENDBRANCH   3   4
ENDBRANCH   2   3
ENDBRANCH   1   2
BRANCH   1  25
ATOM     25  C   UNL A   1      35.307  22.682  26.267  1.00  0.00     0.188 C 
BRANCH  25  26
ATOM     26  O   UNL A   1      36.481  23.256  25.714  1.00  0.00    -0.376 OA
BRANCH  26  27
ATOM     27  C   UNL A   1      37.462  22.412  25.135  1.00  0.00     0.202 C 
BRANCH  27  28
ATOM     28  C   UNL A   1      38.623  21.865  25.985  1.00  0.00     0.261 C 
BRANCH  28  29
ATOM     29  O   UNL A   1      39.434  20.865  25.354  1.00  0.00    -0.460 OA
BRANCH  29  30
ATOM     30  C   UNL A   1      40.503  20.432  26.071  1.00  0.00     0.338 C 
ATOM     31  O   UNL A   1      40.961  19.301  26.084  1.00  0.00    -0.246 OA
BRANCH  30  32
ATOM     32  C   UNL A   1      41.215  21.610  26.631  1.00  0.00     0.060 A 
ATOM     33  C   UNL A   1      41.214  21.771  28.026  1.00  0.00     0.016 A 
ATOM     34  C   UNL A   1      41.937  22.496  25.827  1.00  0.00     0.016 A 
ATOM     35  C   UNL A   1      41.910  22.822  28.617  1.00  0.00     0.010 A 
ATOM     36  C   UNL A   1      42.604  23.577  26.416  1.00  0.00     0.010 A 
ATOM     37  C   UNL A   1      42.558  23.764  27.810  1.00  0.00    -0.014 A 
BRANCH  37  38
ATOM     38  C   UNL A   1      42.888  25.082  28.403  1.00  0.00     0.031 A 
ATOM     39  C   UNL A   1      41.778  26.102  28.456  1.00  0.00     0.074 A 
ATOM     40  C   UNL A   1      44.092  25.358  28.935  1.00  0.00     0.049 A 
ATOM     41  N   UNL A   1      41.779  27.308  28.955  1.00  0.00    -0.248 NA
ATOM     42  C   UNL A   1      40.490  25.694  27.867  1.00  0.00     0.031 C 
ATOM     43  C   UNL A   1      45.234  24.447  28.978  1.00  0.00     0.029 A 
ATOM     44  N   UNL A   1      44.548  26.500  29.547  1.00  0.00    -0.354 N 
ATOM     45  C   UNL A   1      40.496  27.801  28.744  1.00  0.00     0.074 A 
ATOM     46  C   UNL A   1      39.753  26.778  28.044  1.00  0.00     0.031 C 
ATOM     47  C   UNL A   1      46.267  25.073  29.574  1.00  0.00     0.029 A 
ATOM     48  C   UNL A   1      45.863  26.430  29.941  1.00  0.00     0.049 A 
ATOM     49  H   UNL A   1      43.985  27.294  29.690  1.00  0.00     0.167 HD
ATOM     50  C   UNL A   1      39.976  28.994  29.109  1.00  0.00     0.037 A 
ATOM     51  C   UNL A   1      46.648  27.363  30.519  1.00  0.00     0.037 A 
ATOM     52  C   UNL A   1      40.716  30.016  29.795  1.00  0.00     0.049 A 
ATOM     53  C   UNL A   1      46.061  28.711  30.866  1.00  0.00     0.074 A 
ATOM     54  C   UNL A   1      40.277  31.258  30.218  1.00  0.00     0.029 A 
ATOM     55  N   UNL A   1      42.053  29.920  30.149  1.00  0.00    -0.354 N 
ATOM     56  N   UNL A   1      44.837  29.151  30.691  1.00  0.00    -0.248 NA
ATOM     57  C   UNL A   1      46.962  29.686  31.499  1.00  0.00     0.031 C 
ATOM     58  C   UNL A   1      41.363  31.931  30.788  1.00  0.00     0.029 A 
ATOM     59  C   UNL A   1      42.463  31.089  30.765  1.00  0.00     0.049 A 
ATOM     60  H   UNL A   1      42.625  29.135  29.985  1.00  0.00     0.167 HD
ATOM     61  C   UNL A   1      44.816  30.442  31.214  1.00  0.00     0.074 A 
ATOM     62  C   UNL A   1      46.145  30.705  31.726  1.00  0.00     0.031 C 
ATOM     63  C   UNL A   1      43.791  31.330  31.269  1.00  0.00     0.037 A 
BRANCH  50  64
ATOM     64  C   UNL A   1      38.544  29.261  28.742  1.00  0.00     0.058 A 
ATOM     65  C   UNL A   1      37.515  29.202  29.695  1.00  0.00     0.135 A 
ATOM     66  C   UNL A   1      38.200  29.588  27.422  1.00  0.00     0.135 A 
ATOM     67  F   UNL A   1      37.787  28.863  30.966  1.00  0.00    -0.206 F 
ATOM     68  C   UNL A   1      36.190  29.441  29.347  1.00  0.00     0.059 A 
ATOM     69  C   UNL A   1      36.885  29.855  27.057  1.00  0.00     0.059 A 
ATOM     70  F   UNL A   1      39.146  29.642  26.471  1.00  0.00    -0.206 F 
ATOM     71  C   UNL A   1      35.886  29.769  28.025  1.00  0.00     0.060 A 
BRANCH  71  72
ATOM     72  S   UNL A   1      34.163  30.089  27.591  1.00  0.00     0.124 S 
ATOM     73  O   UNL A   1      33.918  31.349  28.283  1.00  0.00    -0.237 OA
ATOM     74  O   UNL A   1      34.218  30.165  26.134  1.00  0.00    -0.237 OA
ATOM     75  O   UNL A   1      33.458  28.930  28.128  1.00  0.00    -0.744 OA
ENDBRANCH  71  72
ENDBRANCH  50  64
BRANCH  51  76
ATOM     76  C   UNL A   1      48.080  27.070  30.802  1.00  0.00     0.058 A 
ATOM     77  C   UNL A   1      48.476  26.434  31.987  1.00  0.00     0.135 A 
ATOM     78  C   UNL A   1      49.085  27.449  29.899  1.00  0.00     0.135 A 
ATOM     79  F   UNL A   1      47.554  26.067  32.891  1.00  0.00    -0.206 F 
ATOM     80  C   UNL A   1      49.817  26.199  32.278  1.00  0.00     0.059 A 
ATOM     81  C   UNL A   1      50.431  27.202  30.155  1.00  0.00     0.059 A 
ATOM     82  F   UNL A   1      48.761  28.056  28.747  1.00  0.00    -0.206 F 
ATOM     83  C   UNL A   1      50.788  26.587  31.354  1.00  0.00     0.060 A 
BRANCH  83  84
ATOM     84  S   UNL A   1      52.524  26.242  31.718  1.00  0.00     0.124 S 
ATOM     85  O   UNL A   1      52.438  24.917  32.324  1.00  0.00    -0.237 OA
ATOM     86  O   UNL A   1      53.132  26.299  30.393  1.00  0.00    -0.237 OA
ATOM     87  O   UNL A   1      52.899  27.326  32.619  1.00  0.00    -0.744 OA
ENDBRANCH  83  84
ENDBRANCH  51  76
BRANCH  63  88
ATOM     88  C   UNL A   1      44.057  32.656  31.928  1.00  0.00     0.058 A 
ATOM     89  C   UNL A   1      44.498  33.770  31.196  1.00  0.00     0.135 A 
ATOM     90  C   UNL A   1      43.833  32.823  33.304  1.00  0.00     0.135 A 
ATOM     91  F   UNL A   1      44.727  33.665  29.877  1.00  0.00    -0.206 F 
ATOM     92  C   UNL A   1      44.743  34.993  31.813  1.00  0.00     0.059 A 
ATOM     93  C   UNL A   1      44.043  34.045  33.936  1.00  0.00     0.059 A 
ATOM     94  F   UNL A   1      43.393  31.795  34.048  1.00  0.00    -0.206 F 
ATOM     95  C   UNL A   1      44.517  35.119  33.185  1.00  0.00     0.060 A 
BRANCH  95  96
ATOM     96  S   UNL A   1      44.834  36.712  33.975  1.00  0.00     0.124 S 
ATOM     97  O   UNL A   1      45.856  36.354  34.953  1.00  0.00    -0.237 OA
ATOM     98  O   UNL A   1      45.286  37.533  32.856  1.00  0.00    -0.237 OA
ATOM     99  O   UNL A   1      43.535  37.079  34.529  1.00  0.00    -0.744 OA
ENDBRANCH  95  96
ENDBRANCH  63  88
ENDBRANCH  37  38
ENDBRANCH  30  32
ENDBRANCH  29  30
ENDBRANCH  28  29
ENDBRANCH  27  28
ENDBRANCH  26  27
ENDBRANCH  25  26
ENDBRANCH   1  25
TORSDOF 24
ENDMDL
