MODEL 1
REMARK VINA RESULT:     -10.5      0.000      0.000
REMARK SMILES O=C(OCCOCCOCCOC(=O)c1cccn1C[C@@H]1C[N@H+]2CCC[C@@H]2CO1)c1ccc(-c2c3nc(c(-c4c(F)cc(S(=O)(=O)[O-])cc4F)c4ccc([nH]4)c(-c4c(F)cc(S(=O)(=O)[O-])cc4F)c4nc(c(-c5c(F)cc(S(=O)(=O)[O-])cc5F)c5ccc2[nH]5)C=C4)C=C3)cc1
REMARK SMILES IDX 7 1 6 2 5 3 4 4 3 5 2 6 1 7 30 8 31 9 95 10 32 11 94 12
REMARK SMILES IDX 33 13 34 14 35 15 88 16 36 17 93 18 87 19 89 20 37 21 92 22
REMARK SMILES IDX 86 23 85 24 38 26 72 27 51 28 71 29 52 30 55 31 70 32 90 33
REMARK SMILES IDX 53 34 54 35 69 37 91 38 56 39 39 40 40 41 49 42 41 43 42 44
REMARK SMILES IDX 48 45 50 46 43 47 44 48 45 49 46 50 47 51 73 52 74 53 83 54
REMARK SMILES IDX 75 55 76 56 82 57 84 58 77 59 78 60 79 61 80 62 81 63 57 64
REMARK SMILES IDX 58 65 67 66 59 67 60 68 66 69 68 70 61 71 62 72 63 73 64 74
REMARK SMILES IDX 65 75 8 76 9 77 10 78 11 79 12 80 13 81 14 82 15 83 16 84
REMARK SMILES IDX 19 85 17 86 18 87 20 88 21 89 22 90 29 91 23 92 28 93 24 94
REMARK SMILES IDX 27 95 25 97 26 98
REMARK H PARENT 89 25 55 36 23 96
REMARK Flexibility Score: inf
ROOT
ATOM      1  C   UNL A   1      31.245  29.267  24.532  1.00  0.00     0.188 C 
ENDROOT
BRANCH   1   2
ATOM      2  O   UNL A   1      32.025  29.991  25.480  1.00  0.00    -0.376 OA
BRANCH   2   3
ATOM      3  C   UNL A   1      32.499  29.343  26.648  1.00  0.00     0.202 C 
BRANCH   3   4
ATOM      4  C   UNL A   1      34.015  29.175  26.819  1.00  0.00     0.261 C 
BRANCH   4   5
ATOM      5  O   UNL A   1      34.675  30.413  27.140  1.00  0.00    -0.460 OA
BRANCH   5   6
ATOM      6  C   UNL A   1      35.515  30.705  28.160  1.00  0.00     0.338 C 
ATOM      7  O   UNL A   1      35.232  31.620  28.931  1.00  0.00    -0.246 OA
BRANCH   6   8
ATOM      8  C   UNL A   1      36.735  29.908  28.425  1.00  0.00     0.060 A 
ATOM      9  C   UNL A   1      36.871  29.004  29.481  1.00  0.00     0.016 A 
ATOM     10  C   UNL A   1      37.793  30.072  27.517  1.00  0.00     0.016 A 
ATOM     11  C   UNL A   1      38.104  28.428  29.745  1.00  0.00     0.010 A 
ATOM     12  C   UNL A   1      39.011  29.440  27.735  1.00  0.00     0.010 A 
ATOM     13  C   UNL A   1      39.180  28.672  28.888  1.00  0.00    -0.014 A 
BRANCH  13  14
ATOM     14  C   UNL A   1      40.492  28.102  29.261  1.00  0.00     0.031 A 
ATOM     15  C   UNL A   1      40.787  26.776  28.564  1.00  0.00     0.074 A 
ATOM     16  C   UNL A   1      41.160  28.773  30.240  1.00  0.00     0.049 A 
ATOM     17  N   UNL A   1      41.306  25.675  29.026  1.00  0.00    -0.248 NA
ATOM     18  C   UNL A   1      40.290  26.617  27.174  1.00  0.00     0.031 C 
ATOM     19  C   UNL A   1      40.708  30.039  30.851  1.00  0.00     0.029 A 
ATOM     20  N   UNL A   1      42.318  28.531  30.937  1.00  0.00    -0.354 N 
ATOM     21  C   UNL A   1      41.337  24.755  27.959  1.00  0.00     0.074 A 
ATOM     22  C   UNL A   1      40.576  25.344  26.891  1.00  0.00     0.031 C 
ATOM     23  C   UNL A   1      41.524  30.404  31.858  1.00  0.00     0.029 A 
ATOM     24  C   UNL A   1      42.571  29.417  32.012  1.00  0.00     0.049 A 
ATOM     25  H   UNL A   1      42.929  27.794  30.706  1.00  0.00     0.167 HD
ATOM     26  C   UNL A   1      42.099  23.621  27.935  1.00  0.00     0.037 A 
ATOM     27  C   UNL A   1      43.494  29.304  33.015  1.00  0.00     0.037 A 
ATOM     28  C   UNL A   1      42.967  23.523  29.068  1.00  0.00     0.049 A 
ATOM     29  C   UNL A   1      44.143  27.999  32.776  1.00  0.00     0.074 A 
ATOM     30  C   UNL A   1      43.040  22.835  30.254  1.00  0.00     0.029 A 
ATOM     31  N   UNL A   1      44.098  24.295  28.983  1.00  0.00    -0.354 N 
ATOM     32  N   UNL A   1      45.008  27.735  31.847  1.00  0.00    -0.248 NA
ATOM     33  C   UNL A   1      43.604  26.846  33.500  1.00  0.00     0.031 C 
ATOM     34  C   UNL A   1      44.147  23.382  30.963  1.00  0.00     0.029 A 
ATOM     35  C   UNL A   1      44.580  24.494  30.250  1.00  0.00     0.049 A 
ATOM     36  H   UNL A   1      44.494  24.647  28.154  1.00  0.00     0.167 HD
ATOM     37  C   UNL A   1      44.937  26.367  31.694  1.00  0.00     0.074 A 
ATOM     38  C   UNL A   1      44.168  25.857  32.815  1.00  0.00     0.031 C 
ATOM     39  C   UNL A   1      45.207  25.765  30.508  1.00  0.00     0.037 A 
BRANCH  26  40
ATOM     40  C   UNL A   1      42.422  22.683  26.790  1.00  0.00     0.058 A 
ATOM     41  C   UNL A   1      42.042  21.325  26.920  1.00  0.00     0.135 A 
ATOM     42  C   UNL A   1      43.389  22.958  25.808  1.00  0.00     0.135 A 
ATOM     43  F   UNL A   1      41.068  20.967  27.774  1.00  0.00    -0.206 F 
ATOM     44  C   UNL A   1      42.692  20.294  26.246  1.00  0.00     0.059 A 
ATOM     45  C   UNL A   1      44.017  21.942  25.079  1.00  0.00     0.059 A 
ATOM     46  F   UNL A   1      43.816  24.209  25.590  1.00  0.00    -0.206 F 
ATOM     47  C   UNL A   1      43.711  20.611  25.357  1.00  0.00     0.060 A 
BRANCH  47  48
ATOM     48  S   UNL A   1      44.657  19.267  24.606  1.00  0.00     0.124 S 
ATOM     49  O   UNL A   1      45.957  19.426  25.245  1.00  0.00    -0.237 OA
ATOM     50  O   UNL A   1      43.897  18.085  25.004  1.00  0.00    -0.237 OA
ATOM     51  O   UNL A   1      44.605  19.581  23.181  1.00  0.00    -0.744 OA
ENDBRANCH  47  48
ENDBRANCH  26  40
BRANCH  27  52
ATOM     52  C   UNL A   1      43.753  29.998  34.334  1.00  0.00     0.058 A 
ATOM     53  C   UNL A   1      44.945  30.628  34.720  1.00  0.00     0.135 A 
ATOM     54  C   UNL A   1      42.695  30.133  35.274  1.00  0.00     0.135 A 
ATOM     55  F   UNL A   1      46.086  30.440  34.048  1.00  0.00    -0.206 F 
ATOM     56  C   UNL A   1      45.026  31.480  35.832  1.00  0.00     0.059 A 
ATOM     57  C   UNL A   1      42.745  30.979  36.381  1.00  0.00     0.059 A 
ATOM     58  F   UNL A   1      41.541  29.464  35.129  1.00  0.00    -0.206 F 
ATOM     59  C   UNL A   1      43.906  31.688  36.630  1.00  0.00     0.060 A 
BRANCH  59  60
ATOM     60  S   UNL A   1      43.916  32.957  37.913  1.00  0.00     0.124 S 
ATOM     61  O   UNL A   1      45.141  33.688  37.609  1.00  0.00    -0.237 OA
ATOM     62  O   UNL A   1      42.669  33.673  37.659  1.00  0.00    -0.237 OA
ATOM     63  O   UNL A   1      43.933  32.177  39.147  1.00  0.00    -0.744 OA
ENDBRANCH  59  60
ENDBRANCH  27  52
BRANCH  39  64
ATOM     64  C   UNL A   1      45.693  26.714  29.433  1.00  0.00     0.058 A 
ATOM     65  C   UNL A   1      44.821  27.372  28.565  1.00  0.00     0.135 A 
ATOM     66  C   UNL A   1      47.069  26.899  29.193  1.00  0.00     0.135 A 
ATOM     67  F   UNL A   1      43.494  27.223  28.707  1.00  0.00    -0.206 F 
ATOM     68  C   UNL A   1      45.295  28.193  27.534  1.00  0.00     0.059 A 
ATOM     69  C   UNL A   1      47.571  27.723  28.196  1.00  0.00     0.059 A 
ATOM     70  F   UNL A   1      47.969  26.274  29.954  1.00  0.00    -0.206 F 
ATOM     71  C   UNL A   1      46.673  28.367  27.362  1.00  0.00     0.060 A 
BRANCH  71  72
ATOM     72  S   UNL A   1      47.282  29.433  26.039  1.00  0.00     0.124 S 
ATOM     73  O   UNL A   1      48.010  30.460  26.778  1.00  0.00    -0.237 OA
ATOM     74  O   UNL A   1      48.102  28.513  25.257  1.00  0.00    -0.237 OA
ATOM     75  O   UNL A   1      46.064  29.894  25.376  1.00  0.00    -0.744 OA
ENDBRANCH  71  72
ENDBRANCH  39  64
ENDBRANCH  13  14
ENDBRANCH   6   8
ENDBRANCH   5   6
ENDBRANCH   4   5
ENDBRANCH   3   4
ENDBRANCH   2   3
ENDBRANCH   1   2
BRANCH   1  76
ATOM     76  C   UNL A   1      31.799  28.029  23.801  1.00  0.00     0.188 C 
BRANCH  76  77
ATOM     77  O   UNL A   1      32.484  28.181  22.564  1.00  0.00    -0.376 OA
BRANCH  77  78
ATOM     78  C   UNL A   1      33.474  27.235  22.202  1.00  0.00     0.202 C 
BRANCH  78  79
ATOM     79  C   UNL A   1      33.260  25.813  22.717  1.00  0.00     0.261 C 
BRANCH  79  80
ATOM     80  O   UNL A   1      34.410  24.970  22.552  1.00  0.00    -0.459 OA
BRANCH  80  81
ATOM     81  C   UNL A   1      34.328  23.719  23.072  1.00  0.00     0.355 C 
ATOM     82  O   UNL A   1      33.489  22.874  22.760  1.00  0.00    -0.244 OA
BRANCH  81  83
ATOM     83  C   UNL A   1      35.339  23.532  24.078  1.00  0.00     0.127 A 
ATOM     84  C   UNL A   1      36.657  23.133  23.885  1.00  0.00     0.035 A 
ATOM     85  N   UNL A   1      35.206  23.775  25.436  1.00  0.00    -0.339 N 
ATOM     86  C   UNL A   1      37.368  23.419  25.070  1.00  0.00     0.020 A 
ATOM     87  C   UNL A   1      36.462  23.932  25.967  1.00  0.00     0.086 A 
BRANCH  85  88
ATOM     88  C   UNL A   1      33.963  23.929  26.179  1.00  0.00     0.160 C 
BRANCH  88  89
ATOM     89  C   UNL A   1      33.332  22.685  26.873  1.00  0.00     0.193 C 
ATOM     90  C   UNL A   1      34.069  21.335  26.665  1.00  0.00     0.296 C 
ATOM     91  O   UNL A   1      31.903  22.571  26.678  1.00  0.00    -0.364 OA
ATOM     92  N   UNL A   1      33.707  20.767  25.379  1.00  0.00    -0.328 N 
ATOM     93  C   UNL A   1      31.523  21.899  25.463  1.00  0.00     0.225 C 
ATOM     94  C   UNL A   1      34.312  19.504  25.002  1.00  0.00     0.262 C 
ATOM     95  C   UNL A   1      32.258  20.570  25.297  1.00  0.00     0.210 C 
ATOM     96  H   UNL A   1      34.075  21.464  24.730  1.00  0.00     0.348 HD
ATOM     97  C   UNL A   1      33.407  19.036  23.858  1.00  0.00     0.068 C 
ATOM     98  C   UNL A   1      32.152  19.915  23.933  1.00  0.00     0.073 C 
ENDBRANCH  88  89
ENDBRANCH  85  88
ENDBRANCH  81  83
ENDBRANCH  80  81
ENDBRANCH  79  80
ENDBRANCH  78  79
ENDBRANCH  77  78
ENDBRANCH  76  77
ENDBRANCH   1  76
TORSDOF 22
ENDMDL
MODEL 2
REMARK VINA RESULT:     -10.3      2.747      9.461
REMARK SMILES O=C(OCCOCCOCCOC(=O)c1cccn1C[C@@H]1C[N@H+]2CCC[C@@H]2CO1)c1ccc(-c2c3nc(c(-c4c(F)cc(S(=O)(=O)[O-])cc4F)c4ccc([nH]4)c(-c4c(F)cc(S(=O)(=O)[O-])cc4F)c4nc(c(-c5c(F)cc(S(=O)(=O)[O-])cc5F)c5ccc2[nH]5)C=C4)C=C3)cc1
REMARK SMILES IDX 7 1 6 2 5 3 4 4 3 5 2 6 1 7 30 8 31 9 95 10 32 11 94 12
REMARK SMILES IDX 33 13 34 14 35 15 88 16 36 17 93 18 87 19 89 20 37 21 92 22
REMARK SMILES IDX 86 23 85 24 38 26 72 27 51 28 71 29 52 30 55 31 70 32 90 33
REMARK SMILES IDX 53 34 54 35 69 37 91 38 56 39 39 40 40 41 49 42 41 43 42 44
REMARK SMILES IDX 48 45 50 46 43 47 44 48 45 49 46 50 47 51 73 52 74 53 83 54
REMARK SMILES IDX 75 55 76 56 82 57 84 58 77 59 78 60 79 61 80 62 81 63 57 64
REMARK SMILES IDX 58 65 67 66 59 67 60 68 66 69 68 70 61 71 62 72 63 73 64 74
REMARK SMILES IDX 65 75 8 76 9 77 10 78 11 79 12 80 13 81 14 82 15 83 16 84
REMARK SMILES IDX 19 85 17 86 18 87 20 88 21 89 22 90 29 91 23 92 28 93 24 94
REMARK SMILES IDX 27 95 25 97 26 98
REMARK H PARENT 89 25 55 36 23 96
REMARK Flexibility Score: inf
ROOT
ATOM      1  C   UNL A   1      32.044  26.282  26.173  1.00  0.00     0.188 C 
ENDROOT
BRANCH   1   2
ATOM      2  O   UNL A   1      32.224  27.467  25.402  1.00  0.00    -0.376 OA
BRANCH   2   3
ATOM      3  C   UNL A   1      33.159  28.448  25.818  1.00  0.00     0.202 C 
BRANCH   3   4
ATOM      4  C   UNL A   1      32.629  29.692  26.544  1.00  0.00     0.261 C 
BRANCH   4   5
ATOM      5  O   UNL A   1      33.415  30.034  27.699  1.00  0.00    -0.460 OA
BRANCH   5   6
ATOM      6  C   UNL A   1      34.258  31.075  27.894  1.00  0.00     0.338 C 
ATOM      7  O   UNL A   1      33.896  32.209  27.587  1.00  0.00    -0.246 OA
BRANCH   6   8
ATOM      8  C   UNL A   1      35.580  30.904  28.539  1.00  0.00     0.060 A 
ATOM      9  C   UNL A   1      36.654  31.781  28.376  1.00  0.00     0.016 A 
ATOM     10  C   UNL A   1      35.718  29.793  29.387  1.00  0.00     0.016 A 
ATOM     11  C   UNL A   1      37.900  31.451  28.886  1.00  0.00     0.010 A 
ATOM     12  C   UNL A   1      36.947  29.495  29.961  1.00  0.00     0.010 A 
ATOM     13  C   UNL A   1      38.051  30.292  29.652  1.00  0.00    -0.014 A 
BRANCH  13  14
ATOM     14  C   UNL A   1      39.415  29.942  30.100  1.00  0.00     0.031 A 
ATOM     15  C   UNL A   1      40.053  31.023  30.971  1.00  0.00     0.074 A 
ATOM     16  C   UNL A   1      39.924  28.793  29.575  1.00  0.00     0.049 A 
ATOM     17  N   UNL A   1      41.262  31.506  30.969  1.00  0.00    -0.248 NA
ATOM     18  C   UNL A   1      39.155  31.773  31.883  1.00  0.00     0.031 C 
ATOM     19  C   UNL A   1      39.179  27.868  28.697  1.00  0.00     0.029 A 
ATOM     20  N   UNL A   1      41.153  28.183  29.637  1.00  0.00    -0.354 N 
ATOM     21  C   UNL A   1      41.310  32.498  31.969  1.00  0.00     0.074 A 
ATOM     22  C   UNL A   1      39.955  32.711  32.397  1.00  0.00     0.031 C 
ATOM     23  C   UNL A   1      39.977  26.877  28.257  1.00  0.00     0.029 A 
ATOM     24  C   UNL A   1      41.311  27.061  28.786  1.00  0.00     0.049 A 
ATOM     25  H   UNL A   1      41.871  28.501  30.230  1.00  0.00     0.167 HD
ATOM     26  C   UNL A   1      42.461  33.000  32.508  1.00  0.00     0.037 A 
ATOM     27  C   UNL A   1      42.460  26.396  28.453  1.00  0.00     0.037 A 
ATOM     28  C   UNL A   1      43.627  32.319  32.036  1.00  0.00     0.049 A 
ATOM     29  C   UNL A   1      43.534  27.151  29.128  1.00  0.00     0.074 A 
ATOM     30  C   UNL A   1      44.654  32.529  31.148  1.00  0.00     0.029 A 
ATOM     31  N   UNL A   1      43.861  31.110  32.639  1.00  0.00    -0.354 N 
ATOM     32  N   UNL A   1      43.800  27.131  30.398  1.00  0.00    -0.248 NA
ATOM     33  C   UNL A   1      44.216  28.182  28.344  1.00  0.00     0.031 C 
ATOM     34  C   UNL A   1      45.388  31.310  31.096  1.00  0.00     0.029 A 
ATOM     35  C   UNL A   1      44.668  30.366  31.819  1.00  0.00     0.049 A 
ATOM     36  H   UNL A   1      43.509  30.825  33.514  1.00  0.00     0.167 HD
ATOM     37  C   UNL A   1      44.489  28.305  30.620  1.00  0.00     0.074 A 
ATOM     38  C   UNL A   1      44.834  28.843  29.317  1.00  0.00     0.031 C 
ATOM     39  C   UNL A   1      44.446  28.943  31.816  1.00  0.00     0.037 A 
BRANCH  26  40
ATOM     40  C   UNL A   1      42.671  33.869  33.732  1.00  0.00     0.058 A 
ATOM     41  C   UNL A   1      43.410  35.066  33.574  1.00  0.00     0.135 A 
ATOM     42  C   UNL A   1      42.534  33.401  35.050  1.00  0.00     0.135 A 
ATOM     43  F   UNL A   1      43.531  35.639  32.364  1.00  0.00    -0.206 F 
ATOM     44  C   UNL A   1      44.103  35.666  34.622  1.00  0.00     0.059 A 
ATOM     45  C   UNL A   1      43.178  34.020  36.128  1.00  0.00     0.059 A 
ATOM     46  F   UNL A   1      41.847  32.283  35.319  1.00  0.00    -0.206 F 
ATOM     47  C   UNL A   1      44.016  35.108  35.891  1.00  0.00     0.060 A 
BRANCH  47  48
ATOM     48  S   UNL A   1      45.040  35.792  37.212  1.00  0.00     0.124 S 
ATOM     49  O   UNL A   1      45.674  34.594  37.747  1.00  0.00    -0.237 OA
ATOM     50  O   UNL A   1      45.923  36.704  36.488  1.00  0.00    -0.237 OA
ATOM     51  O   UNL A   1      44.067  36.441  38.085  1.00  0.00    -0.744 OA
ENDBRANCH  47  48
ENDBRANCH  26  40
BRANCH  27  52
ATOM     52  C   UNL A   1      42.854  25.364  27.421  1.00  0.00     0.058 A 
ATOM     53  C   UNL A   1      42.679  25.469  26.033  1.00  0.00     0.135 A 
ATOM     54  C   UNL A   1      43.554  24.195  27.830  1.00  0.00     0.135 A 
ATOM     55  F   UNL A   1      41.883  26.400  25.497  1.00  0.00    -0.206 F 
ATOM     56  C   UNL A   1      43.309  24.606  25.122  1.00  0.00     0.059 A 
ATOM     57  C   UNL A   1      44.197  23.328  26.948  1.00  0.00     0.059 A 
ATOM     58  F   UNL A   1      43.671  23.868  29.126  1.00  0.00    -0.206 F 
ATOM     59  C   UNL A   1      44.107  23.567  25.589  1.00  0.00     0.060 A 
BRANCH  59  60
ATOM     60  S   UNL A   1      45.117  22.601  24.447  1.00  0.00     0.124 S 
ATOM     61  O   UNL A   1      45.579  21.510  25.297  1.00  0.00    -0.237 OA
ATOM     62  O   UNL A   1      44.159  22.236  23.408  1.00  0.00    -0.237 OA
ATOM     63  O   UNL A   1      46.140  23.555  24.027  1.00  0.00    -0.744 OA
ENDBRANCH  59  60
ENDBRANCH  27  52
BRANCH  39  64
ATOM     64  C   UNL A   1      43.680  28.193  32.887  1.00  0.00     0.058 A 
ATOM     65  C   UNL A   1      42.309  28.362  33.082  1.00  0.00     0.135 A 
ATOM     66  C   UNL A   1      44.344  27.359  33.808  1.00  0.00     0.135 A 
ATOM     67  F   UNL A   1      41.608  29.165  32.265  1.00  0.00    -0.206 F 
ATOM     68  C   UNL A   1      41.632  27.711  34.121  1.00  0.00     0.059 A 
ATOM     69  C   UNL A   1      43.700  26.682  34.833  1.00  0.00     0.059 A 
ATOM     70  F   UNL A   1      45.662  27.177  33.713  1.00  0.00    -0.206 F 
ATOM     71  C   UNL A   1      42.336  26.867  34.988  1.00  0.00     0.060 A 
BRANCH  71  72
ATOM     72  S   UNL A   1      41.462  26.020  36.321  1.00  0.00     0.124 S 
ATOM     73  O   UNL A   1      40.415  25.304  35.599  1.00  0.00    -0.237 OA
ATOM     74  O   UNL A   1      42.514  25.193  36.901  1.00  0.00    -0.237 OA
ATOM     75  O   UNL A   1      40.990  27.110  37.173  1.00  0.00    -0.744 OA
ENDBRANCH  71  72
ENDBRANCH  39  64
ENDBRANCH  13  14
ENDBRANCH   6   8
ENDBRANCH   5   6
ENDBRANCH   4   5
ENDBRANCH   3   4
ENDBRANCH   2   3
ENDBRANCH   1   2
BRANCH   1  76
ATOM     76  C   UNL A   1      32.612  24.924  25.718  1.00  0.00     0.188 C 
BRANCH  76  77
ATOM     77  O   UNL A   1      33.016  23.962  26.684  1.00  0.00    -0.376 OA
BRANCH  77  78
ATOM     78  C   UNL A   1      32.165  22.866  26.966  1.00  0.00     0.202 C 
BRANCH  78  79
ATOM     79  C   UNL A   1      31.121  22.539  25.899  1.00  0.00     0.261 C 
BRANCH  79  80
ATOM     80  O   UNL A   1      31.311  21.250  25.296  1.00  0.00    -0.459 OA
BRANCH  80  81
ATOM     81  C   UNL A   1      32.302  21.150  24.373  1.00  0.00     0.355 C 
ATOM     82  O   UNL A   1      32.538  21.977  23.492  1.00  0.00    -0.244 OA
BRANCH  81  83
ATOM     83  C   UNL A   1      33.016  19.913  24.542  1.00  0.00     0.127 A 
ATOM     84  C   UNL A   1      32.538  18.627  24.317  1.00  0.00     0.035 A 
ATOM     85  N   UNL A   1      34.346  19.771  24.905  1.00  0.00    -0.339 N 
ATOM     86  C   UNL A   1      33.651  17.760  24.265  1.00  0.00     0.020 A 
ATOM     87  C   UNL A   1      34.766  18.526  24.509  1.00  0.00     0.086 A 
BRANCH  85  88
ATOM     88  C   UNL A   1      35.198  20.780  25.518  1.00  0.00     0.160 C 
BRANCH  88  89
ATOM     89  C   UNL A   1      36.147  21.625  24.617  1.00  0.00     0.193 C 
ATOM     90  C   UNL A   1      37.668  21.365  24.787  1.00  0.00     0.296 C 
ATOM     91  O   UNL A   1      35.827  23.035  24.592  1.00  0.00    -0.364 OA
ATOM     92  N   UNL A   1      38.167  22.089  25.942  1.00  0.00    -0.328 N 
ATOM     93  C   UNL A   1      36.415  23.795  25.664  1.00  0.00     0.225 C 
ATOM     94  C   UNL A   1      39.574  21.956  26.269  1.00  0.00     0.262 C 
ATOM     95  C   UNL A   1      37.913  23.524  25.795  1.00  0.00     0.210 C 
ATOM     96  H   UNL A   1      37.654  21.646  26.705  1.00  0.00     0.348 HD
ATOM     97  C   UNL A   1      39.803  23.138  27.217  1.00  0.00     0.068 C 
ATOM     98  C   UNL A   1      38.577  24.046  27.055  1.00  0.00     0.073 C 
ENDBRANCH  88  89
ENDBRANCH  85  88
ENDBRANCH  81  83
ENDBRANCH  80  81
ENDBRANCH  79  80
ENDBRANCH  78  79
ENDBRANCH  77  78
ENDBRANCH  76  77
ENDBRANCH   1  76
TORSDOF 22
ENDMDL
MODEL 3
REMARK VINA RESULT:     -10.0      4.150      7.337
REMARK SMILES O=C(OCCOCCOCCOC(=O)c1cccn1C[C@@H]1C[N@H+]2CCC[C@@H]2CO1)c1ccc(-c2c3nc(c(-c4c(F)cc(S(=O)(=O)[O-])cc4F)c4ccc([nH]4)c(-c4c(F)cc(S(=O)(=O)[O-])cc4F)c4nc(c(-c5c(F)cc(S(=O)(=O)[O-])cc5F)c5ccc2[nH]5)C=C4)C=C3)cc1
REMARK SMILES IDX 7 1 6 2 5 3 4 4 3 5 2 6 1 7 30 8 31 9 95 10 32 11 94 12
REMARK SMILES IDX 33 13 34 14 35 15 88 16 36 17 93 18 87 19 89 20 37 21 92 22
REMARK SMILES IDX 86 23 85 24 38 26 72 27 51 28 71 29 52 30 55 31 70 32 90 33
REMARK SMILES IDX 53 34 54 35 69 37 91 38 56 39 39 40 40 41 49 42 41 43 42 44
REMARK SMILES IDX 48 45 50 46 43 47 44 48 45 49 46 50 47 51 73 52 74 53 83 54
REMARK SMILES IDX 75 55 76 56 82 57 84 58 77 59 78 60 79 61 80 62 81 63 57 64
REMARK SMILES IDX 58 65 67 66 59 67 60 68 66 69 68 70 61 71 62 72 63 73 64 74
REMARK SMILES IDX 65 75 8 76 9 77 10 78 11 79 12 80 13 81 14 82 15 83 16 84
REMARK SMILES IDX 19 85 17 86 18 87 20 88 21 89 22 90 29 91 23 92 28 93 24 94
REMARK SMILES IDX 27 95 25 97 26 98
REMARK H PARENT 89 25 55 36 23 96
REMARK Flexibility Score: inf
ROOT
ATOM      1  C   UNL A   1      34.744  23.188  23.068  1.00  0.00     0.188 C 
ENDROOT
BRANCH   1   2
ATOM      2  O   UNL A   1      35.563  22.340  23.869  1.00  0.00    -0.376 OA
BRANCH   2   3
ATOM      3  C   UNL A   1      35.614  22.524  25.273  1.00  0.00     0.202 C 
BRANCH   3   4
ATOM      4  C   UNL A   1      36.630  23.528  25.836  1.00  0.00     0.261 C 
BRANCH   4   5
ATOM      5  O   UNL A   1      37.991  23.136  25.582  1.00  0.00    -0.460 OA
BRANCH   5   6
ATOM      6  C   UNL A   1      39.076  23.211  26.387  1.00  0.00     0.338 C 
ATOM      7  O   UNL A   1      39.712  22.189  26.638  1.00  0.00    -0.246 OA
BRANCH   6   8
ATOM      8  C   UNL A   1      39.571  24.501  26.920  1.00  0.00     0.060 A 
ATOM      9  C   UNL A   1      40.207  25.478  26.151  1.00  0.00     0.016 A 
ATOM     10  C   UNL A   1      39.341  24.737  28.285  1.00  0.00     0.016 A 
ATOM     11  C   UNL A   1      40.781  26.579  26.769  1.00  0.00     0.010 A 
ATOM     12  C   UNL A   1      39.851  25.875  28.897  1.00  0.00     0.010 A 
ATOM     13  C   UNL A   1      40.628  26.760  28.146  1.00  0.00    -0.014 A 
BRANCH  13  14
ATOM     14  C   UNL A   1      41.329  27.902  28.766  1.00  0.00     0.031 A 
ATOM     15  C   UNL A   1      42.819  27.643  28.984  1.00  0.00     0.074 A 
ATOM     16  C   UNL A   1      40.530  28.936  29.152  1.00  0.00     0.049 A 
ATOM     17  N   UNL A   1      43.585  27.915  29.999  1.00  0.00    -0.248 NA
ATOM     18  C   UNL A   1      43.518  26.824  27.962  1.00  0.00     0.031 C 
ATOM     19  C   UNL A   1      39.076  29.013  28.903  1.00  0.00     0.029 A 
ATOM     20  N   UNL A   1      40.752  30.102  29.843  1.00  0.00    -0.354 N 
ATOM     21  C   UNL A   1      44.874  27.443  29.681  1.00  0.00     0.074 A 
ATOM     22  C   UNL A   1      44.737  26.663  28.482  1.00  0.00     0.031 C 
ATOM     23  C   UNL A   1      38.546  30.103  29.490  1.00  0.00     0.029 A 
ATOM     24  C   UNL A   1      39.587  30.831  30.183  1.00  0.00     0.049 A 
ATOM     25  H   UNL A   1      41.656  30.409  30.084  1.00  0.00     0.167 HD
ATOM     26  C   UNL A   1      46.019  27.824  30.322  1.00  0.00     0.037 A 
ATOM     27  C   UNL A   1      39.459  31.884  31.048  1.00  0.00     0.037 A 
ATOM     28  C   UNL A   1      45.789  28.859  31.283  1.00  0.00     0.049 A 
ATOM     29  C   UNL A   1      40.809  32.062  31.617  1.00  0.00     0.074 A 
ATOM     30  C   UNL A   1      45.687  28.995  32.646  1.00  0.00     0.029 A 
ATOM     31  N   UNL A   1      45.662  30.114  30.745  1.00  0.00    -0.354 N 
ATOM     32  N   UNL A   1      41.830  32.585  31.012  1.00  0.00    -0.248 NA
ATOM     33  C   UNL A   1      41.089  31.393  32.889  1.00  0.00     0.031 C 
ATOM     34  C   UNL A   1      45.287  30.342  32.880  1.00  0.00     0.029 A 
ATOM     35  C   UNL A   1      44.995  30.904  31.643  1.00  0.00     0.049 A 
ATOM     36  H   UNL A   1      45.994  30.398  29.862  1.00  0.00     0.167 HD
ATOM     37  C   UNL A   1      42.921  32.094  31.698  1.00  0.00     0.074 A 
ATOM     38  C   UNL A   1      42.414  31.483  32.913  1.00  0.00     0.031 C 
ATOM     39  C   UNL A   1      44.121  31.908  31.093  1.00  0.00     0.037 A 
BRANCH  26  40
ATOM     40  C   UNL A   1      47.471  27.600  29.948  1.00  0.00     0.058 A 
ATOM     41  C   UNL A   1      47.956  28.231  28.777  1.00  0.00     0.135 A 
ATOM     42  C   UNL A   1      48.244  26.533  30.435  1.00  0.00     0.135 A 
ATOM     43  F   UNL A   1      47.334  29.312  28.276  1.00  0.00    -0.206 F 
ATOM     44  C   UNL A   1      49.035  27.737  28.048  1.00  0.00     0.059 A 
ATOM     45  C   UNL A   1      49.365  26.053  29.748  1.00  0.00     0.059 A 
ATOM     46  F   UNL A   1      47.886  25.869  31.542  1.00  0.00    -0.206 F 
ATOM     47  C   UNL A   1      49.708  26.618  28.520  1.00  0.00     0.060 A 
BRANCH  47  48
ATOM     48  S   UNL A   1      51.002  25.886  27.494  1.00  0.00     0.124 S 
ATOM     49  O   UNL A   1      52.192  26.128  28.300  1.00  0.00    -0.237 OA
ATOM     50  O   UNL A   1      50.578  24.492  27.397  1.00  0.00    -0.237 OA
ATOM     51  O   UNL A   1      50.909  26.646  26.251  1.00  0.00    -0.744 OA
ENDBRANCH  47  48
ENDBRANCH  26  40
BRANCH  27  52
ATOM     52  C   UNL A   1      38.308  32.618  31.699  1.00  0.00     0.058 A 
ATOM     53  C   UNL A   1      37.973  33.968  31.513  1.00  0.00     0.135 A 
ATOM     54  C   UNL A   1      37.393  31.901  32.518  1.00  0.00     0.135 A 
ATOM     55  F   UNL A   1      38.820  34.825  30.934  1.00  0.00    -0.206 F 
ATOM     56  C   UNL A   1      36.746  34.508  31.928  1.00  0.00     0.059 A 
ATOM     57  C   UNL A   1      36.163  32.410  32.935  1.00  0.00     0.059 A 
ATOM     58  F   UNL A   1      37.647  30.646  32.917  1.00  0.00    -0.206 F 
ATOM     59  C   UNL A   1      35.826  33.707  32.596  1.00  0.00     0.060 A 
BRANCH  59  60
ATOM     60  S   UNL A   1      34.155  34.306  32.922  1.00  0.00     0.124 S 
ATOM     61  O   UNL A   1      33.811  34.950  31.660  1.00  0.00    -0.237 OA
ATOM     62  O   UNL A   1      33.431  33.075  33.226  1.00  0.00    -0.237 OA
ATOM     63  O   UNL A   1      34.343  35.201  34.060  1.00  0.00    -0.744 OA
ENDBRANCH  59  60
ENDBRANCH  27  52
BRANCH  39  64
ATOM     64  C   UNL A   1      44.169  32.392  29.658  1.00  0.00     0.058 A 
ATOM     65  C   UNL A   1      43.912  31.549  28.576  1.00  0.00     0.135 A 
ATOM     66  C   UNL A   1      44.577  33.704  29.345  1.00  0.00     0.135 A 
ATOM     67  F   UNL A   1      43.548  30.275  28.789  1.00  0.00    -0.206 F 
ATOM     68  C   UNL A   1      44.028  32.000  27.254  1.00  0.00     0.059 A 
ATOM     69  C   UNL A   1      44.679  34.188  28.049  1.00  0.00     0.059 A 
ATOM     70  F   UNL A   1      44.878  34.559  30.323  1.00  0.00    -0.206 F 
ATOM     71  C   UNL A   1      44.406  33.324  27.001  1.00  0.00     0.060 A 
BRANCH  71  72
ATOM     72  S   UNL A   1      44.545  33.906  25.299  1.00  0.00     0.124 S 
ATOM     73  O   UNL A   1      44.172  32.720  24.534  1.00  0.00    -0.237 OA
ATOM     74  O   UNL A   1      43.587  35.005  25.272  1.00  0.00    -0.237 OA
ATOM     75  O   UNL A   1      45.947  34.302  25.181  1.00  0.00    -0.744 OA
ENDBRANCH  71  72
ENDBRANCH  39  64
ENDBRANCH  13  14
ENDBRANCH   6   8
ENDBRANCH   5   6
ENDBRANCH   4   5
ENDBRANCH   3   4
ENDBRANCH   2   3
ENDBRANCH   1   2
BRANCH   1  76
ATOM     76  C   UNL A   1      33.840  24.268  23.694  1.00  0.00     0.188 C 
BRANCH  76  77
ATOM     77  O   UNL A   1      32.479  24.372  23.300  1.00  0.00    -0.376 OA
BRANCH  77  78
ATOM     78  C   UNL A   1      31.519  24.818  24.240  1.00  0.00     0.202 C 
BRANCH  78  79
ATOM     79  C   UNL A   1      30.165  25.235  23.667  1.00  0.00     0.261 C 
BRANCH  79  80
ATOM     80  O   UNL A   1      29.921  26.647  23.757  1.00  0.00    -0.459 OA
BRANCH  80  81
ATOM     81  C   UNL A   1      30.265  27.395  22.678  1.00  0.00     0.355 C 
ATOM     82  O   UNL A   1      30.893  26.986  21.701  1.00  0.00    -0.244 OA
BRANCH  81  83
ATOM     83  C   UNL A   1      29.828  28.754  22.855  1.00  0.00     0.127 A 
ATOM     84  C   UNL A   1      28.757  29.383  22.231  1.00  0.00     0.035 A 
ATOM     85  N   UNL A   1      30.361  29.683  23.736  1.00  0.00    -0.339 N 
ATOM     86  C   UNL A   1      28.482  30.569  22.946  1.00  0.00     0.020 A 
ATOM     87  C   UNL A   1      29.418  30.658  23.949  1.00  0.00     0.086 A 
BRANCH  85  88
ATOM     88  C   UNL A   1      31.654  29.616  24.401  1.00  0.00     0.160 C 
BRANCH  88  89
ATOM     89  C   UNL A   1      31.723  29.135  25.881  1.00  0.00     0.193 C 
ATOM     90  C   UNL A   1      32.063  30.217  26.941  1.00  0.00     0.296 C 
ATOM     91  O   UNL A   1      32.490  27.922  26.065  1.00  0.00    -0.364 OA
ATOM     92  N   UNL A   1      33.496  30.442  26.976  1.00  0.00    -0.328 N 
ATOM     93  C   UNL A   1      33.905  28.134  26.225  1.00  0.00     0.225 C 
ATOM     94  C   UNL A   1      34.004  31.436  27.903  1.00  0.00     0.262 C 
ATOM     95  C   UNL A   1      34.202  29.196  27.283  1.00  0.00     0.210 C 
ATOM     96  H   UNL A   1      33.674  30.808  26.040  1.00  0.00     0.348 HD
ATOM     97  C   UNL A   1      35.495  31.094  27.965  1.00  0.00     0.068 C 
ATOM     98  C   UNL A   1      35.631  29.702  27.336  1.00  0.00     0.073 C 
ENDBRANCH  88  89
ENDBRANCH  85  88
ENDBRANCH  81  83
ENDBRANCH  80  81
ENDBRANCH  79  80
ENDBRANCH  78  79
ENDBRANCH  77  78
ENDBRANCH  76  77
ENDBRANCH   1  76
TORSDOF 22
ENDMDL
