MODEL 1
REMARK VINA RESULT:      -9.6      0.000      0.000
REMARK SMILES Cc1ccc(S(=O)(=O)N(C)c2cccc(C)c2C)cc1C(=O)OCCOCCOCCOC(=O)c1ccc(-c2c3nc(c(-c4c(F)cc(S(=O)(=O)[O-])cc4F)c4ccc([nH]4)c(-c4c(F)cc(S(=O)(=O)[O-])cc4F)c4nc(c(-c5c(F)cc(S(=O)(=O)[O-])cc5F)c5ccc2[nH]5)C=C4)C=C3)cc1
REMARK SMILES IDX 27 1 26 2 25 3 24 4 23 5 21 6 22 7 20 8 1 9 2 10 3 11 4 12
REMARK SMILES IDX 19 13 5 14 6 15 7 16 8 17 9 18 10 19 11 20 12 21 17 22 13 23
REMARK SMILES IDX 15 24 18 25 14 26 16 27 28 28 29 29 30 30 31 31 32 32 33 33
REMARK SMILES IDX 34 34 35 35 36 36 100 37 37 38 99 39 38 40 39 41 40 42 93 43
REMARK SMILES IDX 41 44 98 45 92 46 94 47 42 48 97 49 91 50 90 51 43 53 77 54
REMARK SMILES IDX 56 55 76 56 57 57 60 58 75 59 95 60 58 61 59 62 74 64 96 65
REMARK SMILES IDX 61 66 44 67 45 68 54 69 46 70 47 71 53 72 55 73 48 74 49 75
REMARK SMILES IDX 50 76 51 77 52 78 78 79 79 80 88 81 80 82 81 83 87 84 89 85
REMARK SMILES IDX 82 86 83 87 84 88 85 89 86 90 62 91 63 92 72 93 64 94 65 95
REMARK SMILES IDX 71 96 73 97 66 98 67 99 68 100 69 101 70 102
REMARK H PARENT 94 52 60 63
REMARK Flexibility Score: inf
ROOT
ATOM      1  C   UNL A   1      37.733  19.680  25.010  1.00  0.00     0.188 C 
ENDROOT
BRANCH   1   2
ATOM      2  O   UNL A   1      39.182  19.699  25.138  1.00  0.00    -0.376 OA
BRANCH   2   3
ATOM      3  C   UNL A   1      39.939  20.338  26.203  1.00  0.00     0.202 C 
BRANCH   3   4
ATOM      4  C   UNL A   1      41.621  20.727  26.121  1.00  0.00     0.261 C 
BRANCH   4   5
ATOM      5  O   UNL A   1      42.392  22.038  25.381  1.00  0.00    -0.460 OA
BRANCH   5   6
ATOM      6  C   UNL A   1      43.237  23.129  25.778  1.00  0.00     0.338 C 
ATOM      7  O   UNL A   1      42.948  24.126  26.438  1.00  0.00    -0.246 OA
BRANCH   6   8
ATOM      8  C   UNL A   1      44.697  23.313  25.537  1.00  0.00     0.064 A 
ATOM      9  C   UNL A   1      44.650  21.199  24.186  1.00  0.00     0.045 C 
ATOM     10  C   UNL A   1      45.356  22.417  24.706  1.00  0.00    -0.036 A 
ATOM     11  C   UNL A   1      46.589  22.819  24.164  1.00  0.00     0.006 A 
ATOM     12  C   UNL A   1      47.145  24.099  24.400  1.00  0.00     0.022 A 
ATOM     13  C   UNL A   1      45.245  24.666  25.694  1.00  0.00     0.038 A 
ATOM     14  C   UNL A   1      46.471  25.061  25.158  1.00  0.00     0.088 A 
BRANCH  14  15
ATOM     15  S   UNL A   1      47.139  26.765  25.108  1.00  0.00     0.264 S 
ATOM     16  O   UNL A   1      48.582  26.586  25.160  1.00  0.00    -0.201 OA
ATOM     17  O   UNL A   1      46.545  27.393  23.943  1.00  0.00    -0.201 OA
BRANCH  15  18
ATOM     18  N   UNL A   1      46.701  27.709  26.503  1.00  0.00    -0.269 N 
ATOM     19  C   UNL A   1      46.589  26.901  27.756  1.00  0.00     0.164 C 
BRANCH  18  20
ATOM     20  C   UNL A   1      45.466  28.529  26.365  1.00  0.00     0.055 A 
ATOM     21  C   UNL A   1      44.229  27.916  26.103  1.00  0.00     0.027 A 
ATOM     22  C   UNL A   1      45.451  29.874  26.827  1.00  0.00    -0.024 A 
ATOM     23  C   UNL A   1      43.021  28.610  26.251  1.00  0.00     0.002 A 
ATOM     24  C   UNL A   1      44.220  30.567  27.012  1.00  0.00    -0.046 A 
ATOM     25  C   UNL A   1      46.728  30.585  27.188  1.00  0.00     0.047 C 
ATOM     26  C   UNL A   1      43.016  29.924  26.709  1.00  0.00     0.004 A 
ATOM     27  C   UNL A   1      44.171  31.965  27.583  1.00  0.00     0.044 C 
ENDBRANCH  18  20
ENDBRANCH  15  18
ENDBRANCH  14  15
ENDBRANCH   6   8
ENDBRANCH   5   6
ENDBRANCH   4   5
ENDBRANCH   3   4
ENDBRANCH   2   3
ENDBRANCH   1   2
BRANCH   1  28
ATOM     28  C   UNL A   1      36.835  20.927  24.911  1.00  0.00     0.188 C 
BRANCH  28  29
ATOM     29  O   UNL A   1      37.465  21.995  24.219  1.00  0.00    -0.376 OA
BRANCH  29  30
ATOM     30  C   UNL A   1      37.108  23.305  24.655  1.00  0.00     0.202 C 
BRANCH  30  31
ATOM     31  C   UNL A   1      37.606  23.694  26.073  1.00  0.00     0.261 C 
BRANCH  31  32
ATOM     32  O   UNL A   1      39.044  23.559  26.250  1.00  0.00    -0.460 OA
BRANCH  32  33
ATOM     33  C   UNL A   1      39.832  24.693  26.142  1.00  0.00     0.338 C 
ATOM     34  O   UNL A   1      40.294  25.058  25.070  1.00  0.00    -0.246 OA
BRANCH  33  35
ATOM     35  C   UNL A   1      39.800  25.532  27.390  1.00  0.00     0.060 A 
ATOM     36  C   UNL A   1      39.336  25.264  28.686  1.00  0.00     0.016 A 
ATOM     37  C   UNL A   1      40.270  26.783  27.236  1.00  0.00     0.016 A 
ATOM     38  C   UNL A   1      39.254  26.308  29.743  1.00  0.00     0.010 A 
ATOM     39  C   UNL A   1      39.998  27.725  28.227  1.00  0.00     0.010 A 
ATOM     40  C   UNL A   1      39.610  27.642  29.548  1.00  0.00    -0.014 A 
BRANCH  40  41
ATOM     41  C   UNL A   1      39.485  28.975  30.428  1.00  0.00     0.031 A 
ATOM     42  C   UNL A   1      38.596  30.400  30.338  1.00  0.00     0.074 A 
ATOM     43  C   UNL A   1      40.231  28.927  31.558  1.00  0.00     0.049 A 
ATOM     44  N   UNL A   1      38.983  31.529  30.915  1.00  0.00    -0.248 NA
ATOM     45  C   UNL A   1      37.303  30.751  29.637  1.00  0.00     0.031 C 
ATOM     46  C   UNL A   1      40.176  29.811  32.717  1.00  0.00     0.029 A 
ATOM     47  N   UNL A   1      41.345  28.120  31.806  1.00  0.00    -0.354 N 
ATOM     48  C   UNL A   1      37.954  32.474  30.807  1.00  0.00     0.074 A 
ATOM     49  C   UNL A   1      37.113  32.049  29.771  1.00  0.00     0.031 C 
ATOM     50  C   UNL A   1      41.341  29.733  33.374  1.00  0.00     0.029 A 
ATOM     51  C   UNL A   1      42.217  28.859  32.620  1.00  0.00     0.049 A 
ATOM     52  H   UNL A   1      41.491  27.206  31.471  1.00  0.00     0.167 HD
ATOM     53  C   UNL A   1      37.720  33.495  31.675  1.00  0.00     0.037 A 
ATOM     54  C   UNL A   1      43.474  29.148  32.185  1.00  0.00     0.037 A 
ATOM     55  C   UNL A   1      38.923  33.777  32.411  1.00  0.00     0.049 A 
ATOM     56  C   UNL A   1      43.705  30.631  31.967  1.00  0.00     0.074 A 
ATOM     57  C   UNL A   1      39.356  33.524  33.693  1.00  0.00     0.029 A 
ATOM     58  N   UNL A   1      40.045  34.100  31.660  1.00  0.00    -0.354 N 
ATOM     59  N   UNL A   1      42.856  31.576  32.277  1.00  0.00    -0.248 NA
ATOM     60  C   UNL A   1      44.912  31.167  31.341  1.00  0.00     0.031 C 
ATOM     61  C   UNL A   1      40.784  33.495  33.645  1.00  0.00     0.029 A 
ATOM     62  C   UNL A   1      41.199  33.803  32.357  1.00  0.00     0.049 A 
ATOM     63  H   UNL A   1      40.023  34.488  30.756  1.00  0.00     0.167 HD
ATOM     64  C   UNL A   1      43.280  32.767  31.738  1.00  0.00     0.074 A 
ATOM     65  C   UNL A   1      44.617  32.476  31.260  1.00  0.00     0.031 C 
ATOM     66  C   UNL A   1      42.481  33.878  31.658  1.00  0.00     0.037 A 
BRANCH  53  67
ATOM     67  C   UNL A   1      36.342  34.155  31.840  1.00  0.00     0.058 A 
ATOM     68  C   UNL A   1      35.691  34.222  33.086  1.00  0.00     0.135 A 
ATOM     69  C   UNL A   1      35.565  34.671  30.762  1.00  0.00     0.135 A 
ATOM     70  F   UNL A   1      36.264  33.697  34.178  1.00  0.00    -0.206 F 
ATOM     71  C   UNL A   1      34.414  34.799  33.254  1.00  0.00     0.059 A 
ATOM     72  C   UNL A   1      34.335  35.320  30.916  1.00  0.00     0.059 A 
ATOM     73  F   UNL A   1      35.926  34.504  29.481  1.00  0.00    -0.206 F 
ATOM     74  C   UNL A   1      33.750  35.360  32.166  1.00  0.00     0.060 A 
BRANCH  74  75
ATOM     75  S   UNL A   1      32.105  36.093  32.351  1.00  0.00     0.124 S 
ATOM     76  O   UNL A   1      31.300  34.929  32.708  1.00  0.00    -0.237 OA
ATOM     77  O   UNL A   1      32.306  37.077  33.409  1.00  0.00    -0.237 OA
ATOM     78  O   UNL A   1      31.834  36.654  31.029  1.00  0.00    -0.744 OA
ENDBRANCH  74  75
ENDBRANCH  53  67
BRANCH  54  79
ATOM     79  C   UNL A   1      44.067  28.000  31.428  1.00  0.00     0.058 A 
ATOM     80  C   UNL A   1      44.629  26.947  32.181  1.00  0.00     0.135 A 
ATOM     81  C   UNL A   1      43.669  27.693  30.124  1.00  0.00     0.135 A 
ATOM     82  F   UNL A   1      45.040  27.175  33.439  1.00  0.00    -0.206 F 
ATOM     83  C   UNL A   1      44.640  25.628  31.729  1.00  0.00     0.059 A 
ATOM     84  C   UNL A   1      43.681  26.373  29.648  1.00  0.00     0.059 A 
ATOM     85  F   UNL A   1      43.091  28.638  29.366  1.00  0.00    -0.206 F 
ATOM     86  C   UNL A   1      44.094  25.339  30.485  1.00  0.00     0.060 A 
BRANCH  86  87
ATOM     87  S   UNL A   1      43.780  23.599  30.078  1.00  0.00     0.124 S 
ATOM     88  O   UNL A   1      42.471  23.667  29.441  1.00  0.00    -0.237 OA
ATOM     89  O   UNL A   1      44.905  23.294  29.196  1.00  0.00    -0.237 OA
ATOM     90  O   UNL A   1      43.805  22.934  31.374  1.00  0.00    -0.744 OA
ENDBRANCH  86  87
ENDBRANCH  54  79
BRANCH  66  91
ATOM     91  C   UNL A   1      42.829  35.143  30.890  1.00  0.00     0.058 A 
ATOM     92  C   UNL A   1      43.580  36.214  31.408  1.00  0.00     0.135 A 
ATOM     93  C   UNL A   1      42.491  35.253  29.518  1.00  0.00     0.135 A 
ATOM     94  F   UNL A   1      44.090  36.174  32.648  1.00  0.00    -0.206 F 
ATOM     95  C   UNL A   1      43.871  37.361  30.661  1.00  0.00     0.059 A 
ATOM     96  C   UNL A   1      42.832  36.354  28.736  1.00  0.00     0.059 A 
ATOM     97  F   UNL A   1      41.816  34.279  28.889  1.00  0.00    -0.206 F 
ATOM     98  C   UNL A   1      43.479  37.428  29.329  1.00  0.00     0.060 A 
BRANCH  98  99
ATOM     99  S   UNL A   1      43.810  38.904  28.348  1.00  0.00     0.124 S 
ATOM    100  O   UNL A   1      45.262  39.003  28.455  1.00  0.00    -0.237 OA
ATOM    101  O   UNL A   1      43.303  38.549  27.025  1.00  0.00    -0.237 OA
ATOM    102  O   UNL A   1      43.052  39.935  29.047  1.00  0.00    -0.744 OA
ENDBRANCH  98  99
ENDBRANCH  66  91
ENDBRANCH  40  41
ENDBRANCH  33  35
ENDBRANCH  32  33
ENDBRANCH  31  32
ENDBRANCH  30  31
ENDBRANCH  29  30
ENDBRANCH  28  29
ENDBRANCH   1  28
TORSDOF 23
ENDMDL
MODEL 2
REMARK VINA RESULT:      -9.4      4.870     12.683
REMARK SMILES Cc1ccc(S(=O)(=O)N(C)c2cccc(C)c2C)cc1C(=O)OCCOCCOCCOC(=O)c1ccc(-c2c3nc(c(-c4c(F)cc(S(=O)(=O)[O-])cc4F)c4ccc([nH]4)c(-c4c(F)cc(S(=O)(=O)[O-])cc4F)c4nc(c(-c5c(F)cc(S(=O)(=O)[O-])cc5F)c5ccc2[nH]5)C=C4)C=C3)cc1
REMARK SMILES IDX 27 1 26 2 25 3 24 4 23 5 21 6 22 7 20 8 1 9 2 10 3 11 4 12
REMARK SMILES IDX 19 13 5 14 6 15 7 16 8 17 9 18 10 19 11 20 12 21 17 22 13 23
REMARK SMILES IDX 15 24 18 25 14 26 16 27 28 28 29 29 30 30 31 31 32 32 33 33
REMARK SMILES IDX 34 34 35 35 36 36 100 37 37 38 99 39 38 40 39 41 40 42 93 43
REMARK SMILES IDX 41 44 98 45 92 46 94 47 42 48 97 49 91 50 90 51 43 53 77 54
REMARK SMILES IDX 56 55 76 56 57 57 60 58 75 59 95 60 58 61 59 62 74 64 96 65
REMARK SMILES IDX 61 66 44 67 45 68 54 69 46 70 47 71 53 72 55 73 48 74 49 75
REMARK SMILES IDX 50 76 51 77 52 78 78 79 79 80 88 81 80 82 81 83 87 84 89 85
REMARK SMILES IDX 82 86 83 87 84 88 85 89 86 90 62 91 63 92 72 93 64 94 65 95
REMARK SMILES IDX 71 96 73 97 66 98 67 99 68 100 69 101 70 102
REMARK H PARENT 94 52 60 63
REMARK Flexibility Score: inf
ROOT
ATOM      1  C   UNL A   1      35.188  31.635  31.056  1.00  0.00     0.188 C 
ENDROOT
BRANCH   1   2
ATOM      2  O   UNL A   1      34.813  32.974  30.629  1.00  0.00    -0.376 OA
BRANCH   2   3
ATOM      3  C   UNL A   1      34.850  33.480  29.265  1.00  0.00     0.202 C 
BRANCH   3   4
ATOM      4  C   UNL A   1      34.350  32.592  27.870  1.00  0.00     0.261 C 
BRANCH   4   5
ATOM      5  O   UNL A   1      32.884  31.808  27.555  1.00  0.00    -0.460 OA
BRANCH   5   6
ATOM      6  C   UNL A   1      32.452  30.516  27.103  1.00  0.00     0.338 C 
ATOM      7  O   UNL A   1      31.684  29.727  27.651  1.00  0.00    -0.246 OA
BRANCH   6   8
ATOM      8  C   UNL A   1      32.781  29.815  25.829  1.00  0.00     0.064 A 
ATOM      9  C   UNL A   1      34.928  29.075  26.896  1.00  0.00     0.045 C 
ATOM     10  C   UNL A   1      33.944  29.061  25.762  1.00  0.00    -0.036 A 
ATOM     11  C   UNL A   1      34.037  28.098  24.742  1.00  0.00     0.006 A 
ATOM     12  C   UNL A   1      32.985  27.850  23.829  1.00  0.00     0.022 A 
ATOM     13  C   UNL A   1      31.668  29.480  24.933  1.00  0.00     0.038 A 
ATOM     14  C   UNL A   1      31.764  28.526  23.919  1.00  0.00     0.088 A 
BRANCH  14  15
ATOM     15  S   UNL A   1      30.389  27.881  22.896  1.00  0.00     0.264 S 
ATOM     16  O   UNL A   1      29.313  28.838  23.098  1.00  0.00    -0.201 OA
ATOM     17  O   UNL A   1      30.934  27.698  21.564  1.00  0.00    -0.201 OA
BRANCH  15  18
ATOM     18  N   UNL A   1      29.799  26.339  23.446  1.00  0.00    -0.269 N 
ATOM     19  C   UNL A   1      28.431  26.407  24.047  1.00  0.00     0.164 C 
BRANCH  18  20
ATOM     20  C   UNL A   1      30.687  25.606  24.389  1.00  0.00     0.055 A 
ATOM     21  C   UNL A   1      30.401  25.582  25.765  1.00  0.00     0.027 A 
ATOM     22  C   UNL A   1      31.619  24.654  23.892  1.00  0.00    -0.024 A 
ATOM     23  C   UNL A   1      31.037  24.682  26.630  1.00  0.00     0.002 A 
ATOM     24  C   UNL A   1      32.237  23.715  24.768  1.00  0.00    -0.046 A 
ATOM     25  C   UNL A   1      31.937  24.571  22.423  1.00  0.00     0.047 C 
ATOM     26  C   UNL A   1      31.943  23.751  26.134  1.00  0.00     0.004 A 
ATOM     27  C   UNL A   1      33.164  22.637  24.254  1.00  0.00     0.044 C 
ENDBRANCH  18  20
ENDBRANCH  15  18
ENDBRANCH  14  15
ENDBRANCH   6   8
ENDBRANCH   5   6
ENDBRANCH   4   5
ENDBRANCH   3   4
ENDBRANCH   2   3
ENDBRANCH   1   2
BRANCH   1  28
ATOM     28  C   UNL A   1      36.200  31.311  32.171  1.00  0.00     0.188 C 
BRANCH  28  29
ATOM     29  O   UNL A   1      36.475  32.433  32.997  1.00  0.00    -0.376 OA
BRANCH  29  30
ATOM     30  C   UNL A   1      37.833  32.577  33.407  1.00  0.00     0.202 C 
BRANCH  30  31
ATOM     31  C   UNL A   1      38.304  31.592  34.511  1.00  0.00     0.261 C 
BRANCH  31  32
ATOM     32  O   UNL A   1      39.751  31.502  34.641  1.00  0.00    -0.460 OA
BRANCH  32  33
ATOM     33  C   UNL A   1      40.307  30.290  35.016  1.00  0.00     0.338 C 
ATOM     34  O   UNL A   1      39.884  29.656  35.974  1.00  0.00    -0.246 OA
BRANCH  33  35
ATOM     35  C   UNL A   1      41.244  29.743  33.976  1.00  0.00     0.060 A 
ATOM     36  C   UNL A   1      42.600  29.989  33.717  1.00  0.00     0.016 A 
ATOM     37  C   UNL A   1      40.679  28.886  33.106  1.00  0.00     0.016 A 
ATOM     38  C   UNL A   1      43.302  29.452  32.520  1.00  0.00     0.010 A 
ATOM     39  C   UNL A   1      41.366  28.573  31.935  1.00  0.00     0.010 A 
ATOM     40  C   UNL A   1      42.684  28.676  31.540  1.00  0.00    -0.014 A 
BRANCH  40  41
ATOM     41  C   UNL A   1      43.135  28.108  30.111  1.00  0.00     0.031 A 
ATOM     42  C   UNL A   1      43.691  26.634  29.521  1.00  0.00     0.074 A 
ATOM     43  C   UNL A   1      42.975  29.012  29.115  1.00  0.00     0.049 A 
ATOM     44  N   UNL A   1      44.418  26.527  28.418  1.00  0.00    -0.248 NA
ATOM     45  C   UNL A   1      43.566  25.219  30.036  1.00  0.00     0.031 C 
ATOM     46  C   UNL A   1      43.019  28.788  27.674  1.00  0.00     0.029 A 
ATOM     47  N   UNL A   1      42.898  30.402  29.235  1.00  0.00    -0.354 N 
ATOM     48  C   UNL A   1      44.572  25.171  28.100  1.00  0.00     0.074 A 
ATOM     49  C   UNL A   1      44.306  24.444  29.267  1.00  0.00     0.031 C 
ATOM     50  C   UNL A   1      43.286  29.952  27.066  1.00  0.00     0.029 A 
ATOM     51  C   UNL A   1      43.503  30.950  28.094  1.00  0.00     0.049 A 
ATOM     52  H   UNL A   1      42.496  30.904  29.982  1.00  0.00     0.167 HD
ATOM     53  C   UNL A   1      44.750  24.664  26.851  1.00  0.00     0.037 A 
ATOM     54  C   UNL A   1      44.589  31.761  28.222  1.00  0.00     0.037 A 
ATOM     55  C   UNL A   1      45.253  25.698  25.987  1.00  0.00     0.049 A 
ATOM     56  C   UNL A   1      45.852  31.168  27.626  1.00  0.00     0.074 A 
ATOM     57  C   UNL A   1      44.710  26.477  24.990  1.00  0.00     0.029 A 
ATOM     58  N   UNL A   1      46.438  26.308  26.376  1.00  0.00    -0.354 N 
ATOM     59  N   UNL A   1      45.907  30.056  26.939  1.00  0.00    -0.248 NA
ATOM     60  C   UNL A   1      47.173  31.771  27.793  1.00  0.00     0.031 C 
ATOM     61  C   UNL A   1      45.484  27.677  24.938  1.00  0.00     0.029 A 
ATOM     62  C   UNL A   1      46.528  27.580  25.848  1.00  0.00     0.049 A 
ATOM     63  H   UNL A   1      47.121  25.892  26.950  1.00  0.00     0.167 HD
ATOM     64  C   UNL A   1      47.221  29.697  26.753  1.00  0.00     0.074 A 
ATOM     65  C   UNL A   1      47.965  30.854  27.210  1.00  0.00     0.031 C 
ATOM     66  C   UNL A   1      47.601  28.458  26.309  1.00  0.00     0.037 A 
BRANCH  53  67
ATOM     67  C   UNL A   1      44.389  23.219  26.474  1.00  0.00     0.058 A 
ATOM     68  C   UNL A   1      43.109  22.683  26.713  1.00  0.00     0.135 A 
ATOM     69  C   UNL A   1      45.313  22.273  25.942  1.00  0.00     0.135 A 
ATOM     70  F   UNL A   1      42.159  23.432  27.291  1.00  0.00    -0.206 F 
ATOM     71  C   UNL A   1      42.764  21.351  26.399  1.00  0.00     0.059 A 
ATOM     72  C   UNL A   1      44.973  20.974  25.548  1.00  0.00     0.059 A 
ATOM     73  F   UNL A   1      46.624  22.536  25.845  1.00  0.00    -0.206 F 
ATOM     74  C   UNL A   1      43.699  20.507  25.802  1.00  0.00     0.060 A 
BRANCH  74  75
ATOM     75  S   UNL A   1      43.287  18.791  25.405  1.00  0.00     0.124 S 
ATOM     76  O   UNL A   1      43.806  18.668  24.046  1.00  0.00    -0.237 OA
ATOM     77  O   UNL A   1      44.003  18.040  26.430  1.00  0.00    -0.237 OA
ATOM     78  O   UNL A   1      41.830  18.757  25.519  1.00  0.00    -0.744 OA
ENDBRANCH  74  75
ENDBRANCH  53  67
BRANCH  54  79
ATOM     79  C   UNL A   1      44.464  32.657  29.415  1.00  0.00     0.058 A 
ATOM     80  C   UNL A   1      43.608  33.773  29.301  1.00  0.00     0.135 A 
ATOM     81  C   UNL A   1      44.729  32.202  30.709  1.00  0.00     0.135 A 
ATOM     82  F   UNL A   1      43.316  34.267  28.086  1.00  0.00    -0.206 F 
ATOM     83  C   UNL A   1      42.920  34.302  30.393  1.00  0.00     0.059 A 
ATOM     84  C   UNL A   1      44.055  32.728  31.821  1.00  0.00     0.059 A 
ATOM     85  F   UNL A   1      45.504  31.121  30.887  1.00  0.00    -0.206 F 
ATOM     86  C   UNL A   1      43.096  33.722  31.643  1.00  0.00     0.060 A 
BRANCH  86  87
ATOM     87  S   UNL A   1      41.930  34.171  32.958  1.00  0.00     0.124 S 
ATOM     88  O   UNL A   1      42.316  33.263  34.030  1.00  0.00    -0.237 OA
ATOM     89  O   UNL A   1      42.252  35.582  33.169  1.00  0.00    -0.237 OA
ATOM     90  O   UNL A   1      40.625  33.912  32.364  1.00  0.00    -0.744 OA
ENDBRANCH  86  87
ENDBRANCH  54  79
BRANCH  66  91
ATOM     91  C   UNL A   1      49.033  27.947  26.287  1.00  0.00     0.058 A 
ATOM     92  C   UNL A   1      49.796  27.649  27.431  1.00  0.00     0.135 A 
ATOM     93  C   UNL A   1      49.649  27.625  25.052  1.00  0.00     0.135 A 
ATOM     94  F   UNL A   1      49.281  27.767  28.663  1.00  0.00    -0.206 F 
ATOM     95  C   UNL A   1      51.113  27.184  27.358  1.00  0.00     0.059 A 
ATOM     96  C   UNL A   1      50.934  27.094  24.958  1.00  0.00     0.059 A 
ATOM     97  F   UNL A   1      49.011  27.816  23.887  1.00  0.00    -0.206 F 
ATOM     98  C   UNL A   1      51.679  26.923  26.115  1.00  0.00     0.060 A 
BRANCH  98  99
ATOM     99  S   UNL A   1      53.385  26.354  25.983  1.00  0.00     0.124 S 
ATOM    100  O   UNL A   1      53.583  26.367  24.537  1.00  0.00    -0.237 OA
ATOM    101  O   UNL A   1      54.134  27.362  26.727  1.00  0.00    -0.237 OA
ATOM    102  O   UNL A   1      53.335  25.034  26.604  1.00  0.00    -0.744 OA
ENDBRANCH  98  99
ENDBRANCH  66  91
ENDBRANCH  40  41
ENDBRANCH  33  35
ENDBRANCH  32  33
ENDBRANCH  31  32
ENDBRANCH  30  31
ENDBRANCH  29  30
ENDBRANCH  28  29
ENDBRANCH   1  28
TORSDOF 23
ENDMDL
MODEL 3
REMARK VINA RESULT:      -9.4      4.627      8.913
REMARK SMILES Cc1ccc(S(=O)(=O)N(C)c2cccc(C)c2C)cc1C(=O)OCCOCCOCCOC(=O)c1ccc(-c2c3nc(c(-c4c(F)cc(S(=O)(=O)[O-])cc4F)c4ccc([nH]4)c(-c4c(F)cc(S(=O)(=O)[O-])cc4F)c4nc(c(-c5c(F)cc(S(=O)(=O)[O-])cc5F)c5ccc2[nH]5)C=C4)C=C3)cc1
REMARK SMILES IDX 27 1 26 2 25 3 24 4 23 5 21 6 22 7 20 8 1 9 2 10 3 11 4 12
REMARK SMILES IDX 19 13 5 14 6 15 7 16 8 17 9 18 10 19 11 20 12 21 17 22 13 23
REMARK SMILES IDX 15 24 18 25 14 26 16 27 28 28 29 29 30 30 31 31 32 32 33 33
REMARK SMILES IDX 34 34 35 35 36 36 100 37 37 38 99 39 38 40 39 41 40 42 93 43
REMARK SMILES IDX 41 44 98 45 92 46 94 47 42 48 97 49 91 50 90 51 43 53 77 54
REMARK SMILES IDX 56 55 76 56 57 57 60 58 75 59 95 60 58 61 59 62 74 64 96 65
REMARK SMILES IDX 61 66 44 67 45 68 54 69 46 70 47 71 53 72 55 73 48 74 49 75
REMARK SMILES IDX 50 76 51 77 52 78 78 79 79 80 88 81 80 82 81 83 87 84 89 85
REMARK SMILES IDX 82 86 83 87 84 88 85 89 86 90 62 91 63 92 72 93 64 94 65 95
REMARK SMILES IDX 71 96 73 97 66 98 67 99 68 100 69 101 70 102
REMARK H PARENT 94 52 60 63
REMARK Flexibility Score: inf
ROOT
ATOM      1  C   UNL A   1      35.620  22.022  24.492  1.00  0.00     0.188 C 
ENDROOT
BRANCH   1   2
ATOM      2  O   UNL A   1      34.691  23.036  24.965  1.00  0.00    -0.376 OA
BRANCH   2   3
ATOM      3  C   UNL A   1      35.006  24.433  25.224  1.00  0.00     0.202 C 
BRANCH   3   4
ATOM      4  C   UNL A   1      33.931  25.566  25.963  1.00  0.00     0.261 C 
BRANCH   4   5
ATOM      5  O   UNL A   1      34.254  27.088  26.627  1.00  0.00    -0.460 OA
BRANCH   5   6
ATOM      6  C   UNL A   1      34.029  28.462  26.279  1.00  0.00     0.338 C 
ATOM      7  O   UNL A   1      34.850  29.315  25.942  1.00  0.00    -0.246 OA
BRANCH   6   8
ATOM      8  C   UNL A   1      32.738  29.201  26.186  1.00  0.00     0.064 A 
ATOM      9  C   UNL A   1      33.740  30.960  27.669  1.00  0.00     0.045 C 
ATOM     10  C   UNL A   1      32.631  30.442  26.799  1.00  0.00    -0.036 A 
ATOM     11  C   UNL A   1      31.595  31.292  26.373  1.00  0.00     0.006 A 
ATOM     12  C   UNL A   1      30.706  30.944  25.328  1.00  0.00     0.022 A 
ATOM     13  C   UNL A   1      31.864  28.899  25.046  1.00  0.00     0.038 A 
ATOM     14  C   UNL A   1      30.835  29.742  24.626  1.00  0.00     0.088 A 
BRANCH  14  15
ATOM     15  S   UNL A   1      29.838  29.570  23.100  1.00  0.00     0.264 S 
ATOM     16  O   UNL A   1      28.704  30.456  23.310  1.00  0.00    -0.201 OA
ATOM     17  O   UNL A   1      30.746  29.830  21.999  1.00  0.00    -0.201 OA
BRANCH  15  18
ATOM     18  N   UNL A   1      29.191  27.968  22.888  1.00  0.00    -0.269 N 
ATOM     19  C   UNL A   1      27.738  27.866  23.225  1.00  0.00     0.164 C 
BRANCH  18  20
ATOM     20  C   UNL A   1      29.914  26.880  23.602  1.00  0.00     0.055 A 
ATOM     21  C   UNL A   1      29.421  26.376  24.817  1.00  0.00     0.027 A 
ATOM     22  C   UNL A   1      30.894  26.111  22.917  1.00  0.00    -0.024 A 
ATOM     23  C   UNL A   1      29.903  25.179  25.363  1.00  0.00     0.002 A 
ATOM     24  C   UNL A   1      31.356  24.875  23.455  1.00  0.00    -0.046 A 
ATOM     25  C   UNL A   1      31.431  26.548  21.580  1.00  0.00     0.047 C 
ATOM     26  C   UNL A   1      30.859  24.430  24.684  1.00  0.00     0.004 A 
ATOM     27  C   UNL A   1      32.333  23.996  22.708  1.00  0.00     0.044 C 
ENDBRANCH  18  20
ENDBRANCH  15  18
ENDBRANCH  14  15
ENDBRANCH   6   8
ENDBRANCH   5   6
ENDBRANCH   4   5
ENDBRANCH   3   4
ENDBRANCH   2   3
ENDBRANCH   1   2
BRANCH   1  28
ATOM     28  C   UNL A   1      36.467  21.104  25.394  1.00  0.00     0.188 C 
BRANCH  28  29
ATOM     29  O   UNL A   1      37.825  21.045  24.985  1.00  0.00    -0.376 OA
BRANCH  29  30
ATOM     30  C   UNL A   1      38.749  21.738  25.821  1.00  0.00     0.202 C 
BRANCH  30  31
ATOM     31  C   UNL A   1      40.112  21.027  26.041  1.00  0.00     0.261 C 
BRANCH  31  32
ATOM     32  O   UNL A   1      41.063  21.805  26.820  1.00  0.00    -0.460 OA
BRANCH  32  33
ATOM     33  C   UNL A   1      42.119  22.412  26.159  1.00  0.00     0.338 C 
ATOM     34  O   UNL A   1      42.614  21.924  25.152  1.00  0.00    -0.246 OA
BRANCH  33  35
ATOM     35  C   UNL A   1      42.364  23.815  26.639  1.00  0.00     0.060 A 
ATOM     36  C   UNL A   1      43.025  24.903  26.051  1.00  0.00     0.016 A 
ATOM     37  C   UNL A   1      41.895  24.076  27.873  1.00  0.00     0.016 A 
ATOM     38  C   UNL A   1      43.292  26.173  26.780  1.00  0.00     0.010 A 
ATOM     39  C   UNL A   1      42.337  25.224  28.526  1.00  0.00     0.010 A 
ATOM     40  C   UNL A   1      42.931  26.397  28.107  1.00  0.00    -0.014 A 
BRANCH  40  41
ATOM     41  C   UNL A   1      43.216  27.568  29.164  1.00  0.00     0.031 A 
ATOM     42  C   UNL A   1      42.279  28.658  30.038  1.00  0.00     0.074 A 
ATOM     43  C   UNL A   1      44.528  27.675  29.485  1.00  0.00     0.049 A 
ATOM     44  N   UNL A   1      42.750  29.810  30.493  1.00  0.00    -0.248 NA
ATOM     45  C   UNL A   1      40.827  28.644  30.456  1.00  0.00     0.031 C 
ATOM     46  C   UNL A   1      45.135  28.421  30.581  1.00  0.00     0.029 A 
ATOM     47  N   UNL A   1      45.623  27.230  28.737  1.00  0.00    -0.354 N 
ATOM     48  C   UNL A   1      41.788  30.402  31.322  1.00  0.00     0.074 A 
ATOM     49  C   UNL A   1      40.557  29.811  31.009  1.00  0.00     0.031 C 
ATOM     50  C   UNL A   1      46.419  28.657  30.283  1.00  0.00     0.029 A 
ATOM     51  C   UNL A   1      46.667  28.143  28.951  1.00  0.00     0.049 A 
ATOM     52  H   UNL A   1      45.655  26.428  28.167  1.00  0.00     0.167 HD
ATOM     53  C   UNL A   1      42.043  31.243  32.360  1.00  0.00     0.037 A 
ATOM     54  C   UNL A   1      47.197  28.829  27.901  1.00  0.00     0.037 A 
ATOM     55  C   UNL A   1      43.345  31.829  32.186  1.00  0.00     0.049 A 
ATOM     56  C   UNL A   1      46.948  30.323  27.976  1.00  0.00     0.074 A 
ATOM     57  C   UNL A   1      44.579  31.635  32.765  1.00  0.00     0.029 A 
ATOM     58  N   UNL A   1      43.557  32.527  31.005  1.00  0.00    -0.354 N 
ATOM     59  N   UNL A   1      46.399  30.942  28.990  1.00  0.00    -0.248 NA
ATOM     60  C   UNL A   1      47.267  31.242  26.885  1.00  0.00     0.031 C 
ATOM     61  C   UNL A   1      45.553  32.044  31.803  1.00  0.00     0.029 A 
ATOM     62  C   UNL A   1      44.900  32.549  30.687  1.00  0.00     0.049 A 
ATOM     63  H   UNL A   1      42.848  32.949  30.468  1.00  0.00     0.167 HD
ATOM     64  C   UNL A   1      46.114  32.239  28.634  1.00  0.00     0.074 A 
ATOM     65  C   UNL A   1      46.773  32.401  27.353  1.00  0.00     0.031 C 
ATOM     66  C   UNL A   1      45.303  33.057  29.377  1.00  0.00     0.037 A 
BRANCH  53  67
ATOM     67  C   UNL A   1      41.074  31.441  33.536  1.00  0.00     0.058 A 
ATOM     68  C   UNL A   1      41.218  30.739  34.747  1.00  0.00     0.135 A 
ATOM     69  C   UNL A   1      39.911  32.263  33.489  1.00  0.00     0.135 A 
ATOM     70  F   UNL A   1      42.219  29.860  34.906  1.00  0.00    -0.206 F 
ATOM     71  C   UNL A   1      40.324  30.884  35.830  1.00  0.00     0.059 A 
ATOM     72  C   UNL A   1      39.058  32.486  34.575  1.00  0.00     0.059 A 
ATOM     73  F   UNL A   1      39.494  32.842  32.353  1.00  0.00    -0.206 F 
ATOM     74  C   UNL A   1      39.255  31.773  35.741  1.00  0.00     0.060 A 
BRANCH  74  75
ATOM     75  S   UNL A   1      38.086  31.967  37.108  1.00  0.00     0.124 S 
ATOM     76  O   UNL A   1      38.949  32.478  38.167  1.00  0.00    -0.237 OA
ATOM     77  O   UNL A   1      37.112  32.910  36.570  1.00  0.00    -0.237 OA
ATOM     78  O   UNL A   1      37.582  30.611  37.317  1.00  0.00    -0.744 OA
ENDBRANCH  74  75
ENDBRANCH  53  67
BRANCH  54  79
ATOM     79  C   UNL A   1      47.293  27.969  26.679  1.00  0.00     0.058 A 
ATOM     80  C   UNL A   1      46.337  28.180  25.662  1.00  0.00     0.135 A 
ATOM     81  C   UNL A   1      48.493  27.366  26.295  1.00  0.00     0.135 A 
ATOM     82  F   UNL A   1      45.159  28.749  25.964  1.00  0.00    -0.206 F 
ATOM     83  C   UNL A   1      46.620  27.961  24.314  1.00  0.00     0.059 A 
ATOM     84  C   UNL A   1      48.792  27.128  24.945  1.00  0.00     0.059 A 
ATOM     85  F   UNL A   1      49.460  27.172  27.204  1.00  0.00    -0.206 F 
ATOM     86  C   UNL A   1      47.882  27.501  23.958  1.00  0.00     0.060 A 
BRANCH  86  87
ATOM     87  S   UNL A   1      48.350  27.579  22.207  1.00  0.00     0.124 S 
ATOM     88  O   UNL A   1      48.555  26.172  21.884  1.00  0.00    -0.237 OA
ATOM     89  O   UNL A   1      47.171  28.206  21.613  1.00  0.00    -0.237 OA
ATOM     90  O   UNL A   1      49.556  28.396  22.210  1.00  0.00    -0.744 OA
ENDBRANCH  86  87
ENDBRANCH  54  79
BRANCH  66  91
ATOM     91  C   UNL A   1      44.793  34.416  28.924  1.00  0.00     0.058 A 
ATOM     92  C   UNL A   1      45.168  35.645  29.499  1.00  0.00     0.135 A 
ATOM     93  C   UNL A   1      43.969  34.516  27.777  1.00  0.00     0.135 A 
ATOM     94  F   UNL A   1      46.061  35.704  30.499  1.00  0.00    -0.206 F 
ATOM     95  C   UNL A   1      44.668  36.871  29.049  1.00  0.00     0.059 A 
ATOM     96  C   UNL A   1      43.516  35.731  27.268  1.00  0.00     0.059 A 
ATOM     97  F   UNL A   1      43.577  33.422  27.106  1.00  0.00    -0.206 F 
ATOM     98  C   UNL A   1      43.830  36.902  27.940  1.00  0.00     0.060 A 
BRANCH  98  99
ATOM     99  S   UNL A   1      43.141  38.462  27.354  1.00  0.00     0.124 S 
ATOM    100  O   UNL A   1      42.877  39.153  28.613  1.00  0.00    -0.237 OA
ATOM    101  O   UNL A   1      44.220  39.024  26.547  1.00  0.00    -0.237 OA
ATOM    102  O   UNL A   1      41.963  38.037  26.606  1.00  0.00    -0.744 OA
ENDBRANCH  98  99
ENDBRANCH  66  91
ENDBRANCH  40  41
ENDBRANCH  33  35
ENDBRANCH  32  33
ENDBRANCH  31  32
ENDBRANCH  30  31
ENDBRANCH  29  30
ENDBRANCH  28  29
ENDBRANCH   1  28
TORSDOF 23
ENDMDL
