MODEL 1
REMARK VINA RESULT:     -10.8      0.000      0.000
REMARK SMILES COc1ccc(-c2nc3ccc(C)cc3[nH]2)c(C(=O)OCCOCCOCCOC(=O)c2ccc(-c3c4nc(c(-c5c(F)cc(S(=O)(=O)[O-])cc5F)c5ccc([nH]5)c(-c5c(F)cc(S(=O)(=O)[O-])cc5F)c5nc(c(-c6c(F)cc(S(=O)(=O)[O-])cc6F)c6ccc3[nH]6)C=C5)C=C4)cc2)c1OC
REMARK SMILES IDX 25 1 24 2 23 3 22 4 21 5 20 6 18 7 19 8 17 9 3 10 4 11 98 12
REMARK SMILES IDX 5 13 6 14 2 15 1 16 99 17 100 18 7 19 8 20 16 21 9 22 15 23
REMARK SMILES IDX 10 25 14 26 11 27 12 28 13 29 26 30 27 31 28 32 29 33 30 34
REMARK SMILES IDX 31 35 32 36 33 37 97 38 34 39 96 40 35 41 36 42 37 43 90 44
REMARK SMILES IDX 38 45 95 46 89 47 91 48 39 49 94 50 88 51 87 52 40 54 74 55
REMARK SMILES IDX 53 56 73 57 54 58 57 59 72 60 92 61 55 62 56 63 71 65 93 66
REMARK SMILES IDX 58 67 41 68 42 69 51 70 43 71 44 72 50 73 52 74 45 75 46 76
REMARK SMILES IDX 47 77 48 78 49 79 75 80 76 81 85 82 77 83 78 84 84 85 86 86
REMARK SMILES IDX 79 87 80 88 81 89 82 90 83 91 59 92 60 93 69 94 61 95 62 96
REMARK SMILES IDX 68 97 70 98 63 99 64 100 65 101 66 102 67 103
REMARK H PARENT 16 24 91 53 57 64
REMARK Flexibility Score: inf
ROOT
ATOM      1  C   UNL A   1      33.628  30.895  27.279  1.00  0.00     0.188 C 
ENDROOT
BRANCH   1   2
ATOM      2  C   UNL A   1      32.307  30.875  26.497  1.00  0.00     0.188 C 
BRANCH   2   3
ATOM      3  O   UNL A   1      31.817  29.565  26.205  1.00  0.00    -0.376 OA
BRANCH   3   4
ATOM      4  C   UNL A   1      32.153  28.605  27.210  1.00  0.00     0.202 C 
BRANCH   4   5
ATOM      5  C   UNL A   1      31.273  27.365  27.077  1.00  0.00     0.261 C 
BRANCH   5   6
ATOM      6  O   UNL A   1      32.008  26.259  26.528  1.00  0.00    -0.460 OA
BRANCH   6   7
ATOM      7  C   UNL A   1      31.313  25.197  26.062  1.00  0.00     0.342 C 
ATOM      8  O   UNL A   1      30.337  24.679  26.580  1.00  0.00    -0.246 OA
BRANCH   7   9
ATOM      9  C   UNL A   1      31.901  24.786  24.762  1.00  0.00     0.116 A 
ATOM     10  C   UNL A   1      33.556  23.536  23.507  1.00  0.00     0.161 A 
ATOM     11  C   UNL A   1      33.075  24.100  22.322  1.00  0.00     0.051 A 
ATOM     12  C   UNL A   1      32.962  23.854  24.736  1.00  0.00     0.176 A 
ATOM     13  C   UNL A   1      32.014  25.010  22.346  1.00  0.00     0.017 A 
ATOM     14  C   UNL A   1      31.443  25.394  23.568  1.00  0.00     0.036 A 
BRANCH  10  15
ATOM     15  O   UNL A   1      34.711  22.806  23.412  1.00  0.00    -0.493 OA
ATOM     16  C   UNL A   1      35.845  23.488  23.937  1.00  0.00     0.278 C 
ENDBRANCH  10  15
BRANCH  12  17
ATOM     17  O   UNL A   1      33.315  23.240  25.912  1.00  0.00    -0.492 OA
ATOM     18  C   UNL A   1      32.767  21.936  26.104  1.00  0.00     0.278 C 
ENDBRANCH  12  17
BRANCH  14  19
ATOM     19  C   UNL A   1      30.605  26.592  23.616  1.00  0.00     0.139 A 
ATOM     20  N   UNL A   1      29.292  26.530  23.569  1.00  0.00    -0.228 NA
ATOM     21  N   UNL A   1      31.016  27.904  23.690  1.00  0.00    -0.338 N 
ATOM     22  C   UNL A   1      28.850  27.811  23.429  1.00  0.00     0.089 A 
ATOM     23  C   UNL A   1      29.905  28.707  23.521  1.00  0.00     0.066 A 
ATOM     24  H   UNL A   1      31.937  28.215  23.839  1.00  0.00     0.168 HD
ATOM     25  C   UNL A   1      27.548  28.268  23.201  1.00  0.00     0.031 A 
ATOM     26  C   UNL A   1      29.724  30.090  23.422  1.00  0.00     0.031 A 
ATOM     27  C   UNL A   1      27.342  29.643  23.074  1.00  0.00     0.006 A 
ATOM     28  C   UNL A   1      28.407  30.547  23.198  1.00  0.00    -0.049 A 
ATOM     29  C   UNL A   1      28.121  32.018  23.061  1.00  0.00     0.044 C 
ENDBRANCH  14  19
ENDBRANCH   7   9
ENDBRANCH   6   7
ENDBRANCH   5   6
ENDBRANCH   4   5
ENDBRANCH   3   4
ENDBRANCH   2   3
ENDBRANCH   1   2
BRANCH   1  30
ATOM     30  O   UNL A   1      33.866  31.884  28.277  1.00  0.00    -0.376 OA
BRANCH  30  31
ATOM     31  C   UNL A   1      34.845  32.876  28.026  1.00  0.00     0.202 C 
BRANCH  31  32
ATOM     32  C   UNL A   1      35.607  33.409  29.243  1.00  0.00     0.261 C 
BRANCH  32  33
ATOM     33  O   UNL A   1      36.878  32.780  29.482  1.00  0.00    -0.460 OA
BRANCH  33  34
ATOM     34  C   UNL A   1      36.815  31.608  30.160  1.00  0.00     0.338 C 
ATOM     35  O   UNL A   1      35.947  31.264  30.946  1.00  0.00    -0.246 OA
BRANCH  34  36
ATOM     36  C   UNL A   1      37.918  30.706  29.761  1.00  0.00     0.060 A 
ATOM     37  C   UNL A   1      38.817  30.296  30.753  1.00  0.00     0.016 A 
ATOM     38  C   UNL A   1      38.157  30.384  28.422  1.00  0.00     0.016 A 
ATOM     39  C   UNL A   1      39.987  29.620  30.406  1.00  0.00     0.010 A 
ATOM     40  C   UNL A   1      39.338  29.714  28.075  1.00  0.00     0.010 A 
ATOM     41  C   UNL A   1      40.282  29.371  29.059  1.00  0.00    -0.014 A 
BRANCH  41  42
ATOM     42  C   UNL A   1      41.648  28.918  28.681  1.00  0.00     0.031 A 
ATOM     43  C   UNL A   1      42.772  29.919  28.661  1.00  0.00     0.074 A 
ATOM     44  C   UNL A   1      41.906  27.629  28.395  1.00  0.00     0.049 A 
ATOM     45  N   UNL A   1      44.031  29.749  28.346  1.00  0.00    -0.248 NA
ATOM     46  C   UNL A   1      42.430  31.297  29.050  1.00  0.00     0.031 C 
ATOM     47  C   UNL A   1      40.922  26.552  28.410  1.00  0.00     0.029 A 
ATOM     48  N   UNL A   1      43.078  27.011  28.030  1.00  0.00    -0.354 N 
ATOM     49  C   UNL A   1      44.631  30.994  28.499  1.00  0.00     0.074 A 
ATOM     50  C   UNL A   1      43.591  31.917  28.900  1.00  0.00     0.031 C 
ATOM     51  C   UNL A   1      41.524  25.407  28.047  1.00  0.00     0.029 A 
ATOM     52  C   UNL A   1      42.930  25.672  27.754  1.00  0.00     0.049 A 
ATOM     53  H   UNL A   1      43.940  27.482  27.970  1.00  0.00     0.167 HD
ATOM     54  C   UNL A   1      45.932  31.338  28.331  1.00  0.00     0.037 A 
ATOM     55  C   UNL A   1      43.820  24.768  27.297  1.00  0.00     0.037 A 
ATOM     56  C   UNL A   1      46.969  30.425  27.923  1.00  0.00     0.049 A 
ATOM     57  C   UNL A   1      45.250  25.179  27.062  1.00  0.00     0.074 A 
ATOM     58  C   UNL A   1      48.315  30.684  27.728  1.00  0.00     0.029 A 
ATOM     59  N   UNL A   1      46.777  29.081  27.640  1.00  0.00    -0.354 N 
ATOM     60  N   UNL A   1      45.805  26.356  27.227  1.00  0.00    -0.248 NA
ATOM     61  C   UNL A   1      46.174  24.140  26.588  1.00  0.00     0.031 C 
ATOM     62  C   UNL A   1      48.929  29.506  27.289  1.00  0.00     0.029 A 
ATOM     63  C   UNL A   1      47.976  28.501  27.257  1.00  0.00     0.049 A 
ATOM     64  H   UNL A   1      45.916  28.609  27.702  1.00  0.00     0.167 HD
ATOM     65  C   UNL A   1      47.148  26.193  26.899  1.00  0.00     0.074 A 
ATOM     66  C   UNL A   1      47.323  24.801  26.537  1.00  0.00     0.031 C 
ATOM     67  C   UNL A   1      48.144  27.114  26.900  1.00  0.00     0.037 A 
BRANCH  54  68
ATOM     68  C   UNL A   1      46.297  32.776  28.570  1.00  0.00     0.058 A 
ATOM     69  C   UNL A   1      46.248  33.729  27.541  1.00  0.00     0.135 A 
ATOM     70  C   UNL A   1      46.694  33.209  29.846  1.00  0.00     0.135 A 
ATOM     71  F   UNL A   1      45.890  33.365  26.299  1.00  0.00    -0.206 F 
ATOM     72  C   UNL A   1      46.612  35.055  27.758  1.00  0.00     0.059 A 
ATOM     73  C   UNL A   1      47.038  34.535  30.093  1.00  0.00     0.059 A 
ATOM     74  F   UNL A   1      46.758  32.339  30.866  1.00  0.00    -0.206 F 
ATOM     75  C   UNL A   1      47.011  35.446  29.037  1.00  0.00     0.060 A 
BRANCH  75  76
ATOM     76  S   UNL A   1      47.496  37.164  29.303  1.00  0.00     0.124 S 
ATOM     77  O   UNL A   1      46.238  37.863  29.059  1.00  0.00    -0.237 OA
ATOM     78  O   UNL A   1      47.954  37.150  30.689  1.00  0.00    -0.237 OA
ATOM     79  O   UNL A   1      48.538  37.382  28.305  1.00  0.00    -0.744 OA
ENDBRANCH  75  76
ENDBRANCH  54  68
BRANCH  55  80
ATOM     80  C   UNL A   1      43.377  23.375  27.022  1.00  0.00     0.058 A 
ATOM     81  C   UNL A   1      43.228  22.903  25.711  1.00  0.00     0.135 A 
ATOM     82  C   UNL A   1      43.107  22.484  28.073  1.00  0.00     0.135 A 
ATOM     83  F   UNL A   1      43.463  23.721  24.673  1.00  0.00    -0.206 F 
ATOM     84  C   UNL A   1      42.823  21.599  25.448  1.00  0.00     0.059 A 
ATOM     85  C   UNL A   1      42.723  21.169  27.836  1.00  0.00     0.059 A 
ATOM     86  F   UNL A   1      43.244  22.883  29.348  1.00  0.00    -0.206 F 
ATOM     87  C   UNL A   1      42.579  20.737  26.519  1.00  0.00     0.060 A 
BRANCH  87  88
ATOM     88  S   UNL A   1      42.138  19.021  26.168  1.00  0.00     0.124 S 
ATOM     89  O   UNL A   1      42.414  18.379  27.447  1.00  0.00    -0.237 OA
ATOM     90  O   UNL A   1      40.730  19.138  25.800  1.00  0.00    -0.237 OA
ATOM     91  O   UNL A   1      43.035  18.666  25.071  1.00  0.00    -0.744 OA
ENDBRANCH  87  88
ENDBRANCH  55  80
BRANCH  67  92
ATOM     92  C   UNL A   1      49.525  26.644  26.532  1.00  0.00     0.058 A 
ATOM     93  C   UNL A   1      50.013  26.735  25.219  1.00  0.00     0.135 A 
ATOM     94  C   UNL A   1      50.390  26.137  27.516  1.00  0.00     0.135 A 
ATOM     95  F   UNL A   1      49.226  27.207  24.238  1.00  0.00    -0.206 F 
ATOM     96  C   UNL A   1      51.298  26.316  24.889  1.00  0.00     0.059 A 
ATOM     97  C   UNL A   1      51.688  25.736  27.214  1.00  0.00     0.059 A 
ATOM     98  F   UNL A   1      49.980  26.038  28.791  1.00  0.00    -0.206 F 
ATOM     99  C   UNL A   1      52.129  25.817  25.895  1.00  0.00     0.060 A 
BRANCH  99 100
ATOM    100  S   UNL A   1      53.803  25.298  25.460  1.00  0.00     0.124 S 
ATOM    101  O   UNL A   1      53.548  24.059  24.734  1.00  0.00    -0.237 OA
ATOM    102  O   UNL A   1      54.280  26.418  24.653  1.00  0.00    -0.237 OA
ATOM    103  O   UNL A   1      54.458  25.145  26.756  1.00  0.00    -0.744 OA
ENDBRANCH  99 100
ENDBRANCH  67  92
ENDBRANCH  41  42
ENDBRANCH  34  36
ENDBRANCH  33  34
ENDBRANCH  32  33
ENDBRANCH  31  32
ENDBRANCH  30  31
ENDBRANCH   1  30
TORSDOF 23
ENDMDL
MODEL 2
REMARK VINA RESULT:     -10.8      6.502     12.038
REMARK SMILES COc1ccc(-c2nc3ccc(C)cc3[nH]2)c(C(=O)OCCOCCOCCOC(=O)c2ccc(-c3c4nc(c(-c5c(F)cc(S(=O)(=O)[O-])cc5F)c5ccc([nH]5)c(-c5c(F)cc(S(=O)(=O)[O-])cc5F)c5nc(c(-c6c(F)cc(S(=O)(=O)[O-])cc6F)c6ccc3[nH]6)C=C5)C=C4)cc2)c1OC
REMARK SMILES IDX 25 1 24 2 23 3 22 4 21 5 20 6 18 7 19 8 17 9 3 10 4 11 98 12
REMARK SMILES IDX 5 13 6 14 2 15 1 16 99 17 100 18 7 19 8 20 16 21 9 22 15 23
REMARK SMILES IDX 10 25 14 26 11 27 12 28 13 29 26 30 27 31 28 32 29 33 30 34
REMARK SMILES IDX 31 35 32 36 33 37 97 38 34 39 96 40 35 41 36 42 37 43 90 44
REMARK SMILES IDX 38 45 95 46 89 47 91 48 39 49 94 50 88 51 87 52 40 54 74 55
REMARK SMILES IDX 53 56 73 57 54 58 57 59 72 60 92 61 55 62 56 63 71 65 93 66
REMARK SMILES IDX 58 67 41 68 42 69 51 70 43 71 44 72 50 73 52 74 45 75 46 76
REMARK SMILES IDX 47 77 48 78 49 79 75 80 76 81 85 82 77 83 78 84 84 85 86 86
REMARK SMILES IDX 79 87 80 88 81 89 82 90 83 91 59 92 60 93 69 94 61 95 62 96
REMARK SMILES IDX 68 97 70 98 63 99 64 100 65 101 66 102 67 103
REMARK H PARENT 16 24 91 53 57 64
REMARK Flexibility Score: inf
ROOT
ATOM      1  C   UNL A   1      36.619  22.955  23.414  1.00  0.00     0.188 C 
ENDROOT
BRANCH   1   2
ATOM      2  C   UNL A   1      35.092  22.891  23.274  1.00  0.00     0.188 C 
BRANCH   2   3
ATOM      3  O   UNL A   1      34.490  24.113  22.842  1.00  0.00    -0.376 OA
BRANCH   3   4
ATOM      4  C   UNL A   1      33.227  23.919  22.203  1.00  0.00     0.202 C 
BRANCH   4   5
ATOM      5  C   UNL A   1      32.608  25.264  21.828  1.00  0.00     0.261 C 
BRANCH   5   6
ATOM      6  O   UNL A   1      32.517  26.133  22.968  1.00  0.00    -0.460 OA
BRANCH   6   7
ATOM      7  C   UNL A   1      31.297  26.368  23.499  1.00  0.00     0.342 C 
ATOM      8  O   UNL A   1      30.230  25.928  23.100  1.00  0.00    -0.246 OA
BRANCH   7   9
ATOM      9  C   UNL A   1      31.465  27.216  24.706  1.00  0.00     0.116 A 
ATOM     10  C   UNL A   1      31.753  29.402  25.713  1.00  0.00     0.161 A 
ATOM     11  C   UNL A   1      31.891  28.801  26.966  1.00  0.00     0.051 A 
ATOM     12  C   UNL A   1      31.516  28.621  24.573  1.00  0.00     0.176 A 
ATOM     13  C   UNL A   1      31.824  27.410  27.100  1.00  0.00     0.017 A 
ATOM     14  C   UNL A   1      31.651  26.601  25.968  1.00  0.00     0.036 A 
BRANCH  10  15
ATOM     15  O   UNL A   1      32.019  30.744  25.646  1.00  0.00    -0.493 OA
ATOM     16  C   UNL A   1      31.314  31.500  26.624  1.00  0.00     0.278 C 
ENDBRANCH  10  15
BRANCH  12  17
ATOM     17  O   UNL A   1      31.254  29.166  23.340  1.00  0.00    -0.492 OA
ATOM     18  C   UNL A   1      29.883  29.476  23.094  1.00  0.00     0.278 C 
ENDBRANCH  12  17
BRANCH  14  19
ATOM     19  C   UNL A   1      31.945  25.172  26.064  1.00  0.00     0.139 A 
ATOM     20  N   UNL A   1      32.934  24.708  26.797  1.00  0.00    -0.228 NA
ATOM     21  N   UNL A   1      31.297  24.135  25.432  1.00  0.00    -0.338 N 
ATOM     22  C   UNL A   1      33.047  23.384  26.500  1.00  0.00     0.089 A 
ATOM     23  C   UNL A   1      32.021  22.981  25.658  1.00  0.00     0.066 A 
ATOM     24  H   UNL A   1      30.465  24.203  24.910  1.00  0.00     0.168 HD
ATOM     25  C   UNL A   1      34.026  22.474  26.911  1.00  0.00     0.031 A 
ATOM     26  C   UNL A   1      31.896  21.663  25.208  1.00  0.00     0.031 A 
ATOM     27  C   UNL A   1      33.939  21.157  26.457  1.00  0.00     0.006 A 
ATOM     28  C   UNL A   1      32.883  20.747  25.630  1.00  0.00    -0.049 A 
ATOM     29  C   UNL A   1      32.838  19.312  25.180  1.00  0.00     0.044 C 
ENDBRANCH  14  19
ENDBRANCH   7   9
ENDBRANCH   6   7
ENDBRANCH   5   6
ENDBRANCH   4   5
ENDBRANCH   3   4
ENDBRANCH   2   3
ENDBRANCH   1   2
BRANCH   1  30
ATOM     30  O   UNL A   1      37.286  22.213  24.432  1.00  0.00    -0.376 OA
BRANCH  30  31
ATOM     31  C   UNL A   1      37.426  22.798  25.714  1.00  0.00     0.202 C 
BRANCH  31  32
ATOM     32  C   UNL A   1      38.827  23.290  26.092  1.00  0.00     0.261 C 
BRANCH  32  33
ATOM     33  O   UNL A   1      38.919  24.701  26.358  1.00  0.00    -0.460 OA
BRANCH  33  34
ATOM     34  C   UNL A   1      40.183  25.184  26.434  1.00  0.00     0.338 C 
ATOM     35  O   UNL A   1      41.044  25.118  25.572  1.00  0.00    -0.246 OA
BRANCH  34  36
ATOM     36  C   UNL A   1      40.395  25.914  27.703  1.00  0.00     0.060 A 
ATOM     37  C   UNL A   1      39.408  25.806  28.691  1.00  0.00     0.016 A 
ATOM     38  C   UNL A   1      41.460  26.802  27.872  1.00  0.00     0.016 A 
ATOM     39  C   UNL A   1      39.448  26.627  29.818  1.00  0.00     0.010 A 
ATOM     40  C   UNL A   1      41.493  27.634  28.999  1.00  0.00     0.010 A 
ATOM     41  C   UNL A   1      40.462  27.585  29.955  1.00  0.00    -0.014 A 
BRANCH  41  42
ATOM     42  C   UNL A   1      40.337  28.640  30.996  1.00  0.00     0.031 A 
ATOM     43  C   UNL A   1      41.216  28.572  32.216  1.00  0.00     0.074 A 
ATOM     44  C   UNL A   1      39.485  29.671  30.852  1.00  0.00     0.049 A 
ATOM     45  N   UNL A   1      41.263  29.372  33.252  1.00  0.00    -0.248 NA
ATOM     46  C   UNL A   1      42.171  27.455  32.275  1.00  0.00     0.031 C 
ATOM     47  C   UNL A   1      38.603  29.877  29.709  1.00  0.00     0.029 A 
ATOM     48  N   UNL A   1      39.219  30.735  31.680  1.00  0.00    -0.354 N 
ATOM     49  C   UNL A   1      42.250  28.856  34.084  1.00  0.00     0.074 A 
ATOM     50  C   UNL A   1      42.751  27.656  33.449  1.00  0.00     0.031 C 
ATOM     51  C   UNL A   1      37.874  30.988  29.914  1.00  0.00     0.029 A 
ATOM     52  C   UNL A   1      38.223  31.560  31.213  1.00  0.00     0.049 A 
ATOM     53  H   UNL A   1      39.696  30.891  32.527  1.00  0.00     0.167 HD
ATOM     54  C   UNL A   1      42.707  29.341  35.264  1.00  0.00     0.037 A 
ATOM     55  C   UNL A   1      37.643  32.639  31.775  1.00  0.00     0.037 A 
ATOM     56  C   UNL A   1      42.205  30.531  35.905  1.00  0.00     0.049 A 
ATOM     57  C   UNL A   1      38.124  33.133  33.114  1.00  0.00     0.074 A 
ATOM     58  C   UNL A   1      42.608  31.099  37.101  1.00  0.00     0.029 A 
ATOM     59  N   UNL A   1      41.187  31.330  35.407  1.00  0.00    -0.354 N 
ATOM     60  N   UNL A   1      39.070  32.644  33.881  1.00  0.00    -0.248 NA
ATOM     61  C   UNL A   1      37.467  34.329  33.660  1.00  0.00     0.031 C 
ATOM     62  C   UNL A   1      41.806  32.219  37.347  1.00  0.00     0.029 A 
ATOM     63  C   UNL A   1      40.937  32.378  36.280  1.00  0.00     0.049 A 
ATOM     64  H   UNL A   1      40.712  31.176  34.559  1.00  0.00     0.167 HD
ATOM     65  C   UNL A   1      39.136  33.486  34.988  1.00  0.00     0.074 A 
ATOM     66  C   UNL A   1      38.143  34.520  34.785  1.00  0.00     0.031 C 
ATOM     67  C   UNL A   1      39.949  33.407  36.071  1.00  0.00     0.037 A 
BRANCH  54  68
ATOM     68  C   UNL A   1      43.795  28.564  35.950  1.00  0.00     0.058 A 
ATOM     69  C   UNL A   1      43.507  27.471  36.783  1.00  0.00     0.135 A 
ATOM     70  C   UNL A   1      45.144  28.911  35.767  1.00  0.00     0.135 A 
ATOM     71  F   UNL A   1      42.234  27.107  37.004  1.00  0.00    -0.206 F 
ATOM     72  C   UNL A   1      44.515  26.770  37.437  1.00  0.00     0.059 A 
ATOM     73  C   UNL A   1      46.170  28.208  36.391  1.00  0.00     0.059 A 
ATOM     74  F   UNL A   1      45.475  29.947  34.981  1.00  0.00    -0.206 F 
ATOM     75  C   UNL A   1      45.844  27.150  37.239  1.00  0.00     0.060 A 
BRANCH  75  76
ATOM     76  S   UNL A   1      47.141  26.243  38.106  1.00  0.00     0.124 S 
ATOM     77  O   UNL A   1      48.282  27.138  37.941  1.00  0.00    -0.237 OA
ATOM     78  O   UNL A   1      46.603  26.144  39.460  1.00  0.00    -0.237 OA
ATOM     79  O   UNL A   1      47.223  24.982  37.375  1.00  0.00    -0.744 OA
ENDBRANCH  75  76
ENDBRANCH  54  68
BRANCH  55  80
ATOM     80  C   UNL A   1      36.528  33.326  31.070  1.00  0.00     0.058 A 
ATOM     81  C   UNL A   1      35.201  33.189  31.500  1.00  0.00     0.135 A 
ATOM     82  C   UNL A   1      36.774  34.144  29.956  1.00  0.00     0.135 A 
ATOM     83  F   UNL A   1      34.913  32.408  32.553  1.00  0.00    -0.206 F 
ATOM     84  C   UNL A   1      34.155  33.836  30.850  1.00  0.00     0.059 A 
ATOM     85  C   UNL A   1      35.749  34.819  29.304  1.00  0.00     0.059 A 
ATOM     86  F   UNL A   1      38.029  34.315  29.510  1.00  0.00    -0.206 F 
ATOM     87  C   UNL A   1      34.441  34.655  29.756  1.00  0.00     0.060 A 
BRANCH  87  88
ATOM     88  S   UNL A   1      33.088  35.559  28.972  1.00  0.00     0.124 S 
ATOM     89  O   UNL A   1      32.438  34.505  28.201  1.00  0.00    -0.237 OA
ATOM     90  O   UNL A   1      32.348  36.060  30.125  1.00  0.00    -0.237 OA
ATOM     91  O   UNL A   1      33.781  36.581  28.192  1.00  0.00    -0.744 OA
ENDBRANCH  87  88
ENDBRANCH  55  80
BRANCH  67  92
ATOM     92  C   UNL A   1      39.827  34.487  37.111  1.00  0.00     0.058 A 
ATOM     93  C   UNL A   1      39.010  34.336  38.243  1.00  0.00     0.135 A 
ATOM     94  C   UNL A   1      40.572  35.672  36.997  1.00  0.00     0.135 A 
ATOM     95  F   UNL A   1      38.272  33.225  38.400  1.00  0.00    -0.206 F 
ATOM     96  C   UNL A   1      38.917  35.331  39.211  1.00  0.00     0.059 A 
ATOM     97  C   UNL A   1      40.514  36.670  37.965  1.00  0.00     0.059 A 
ATOM     98  F   UNL A   1      41.377  35.864  35.940  1.00  0.00    -0.206 F 
ATOM     99  C   UNL A   1      39.673  36.496  39.063  1.00  0.00     0.060 A 
BRANCH  99 100
ATOM    100  S   UNL A   1      39.563  37.771  40.336  1.00  0.00     0.124 S 
ATOM    101  O   UNL A   1      38.249  38.345  40.065  1.00  0.00    -0.237 OA
ATOM    102  O   UNL A   1      39.674  36.996  41.568  1.00  0.00    -0.237 OA
ATOM    103  O   UNL A   1      40.699  38.641  40.046  1.00  0.00    -0.744 OA
ENDBRANCH  99 100
ENDBRANCH  67  92
ENDBRANCH  41  42
ENDBRANCH  34  36
ENDBRANCH  33  34
ENDBRANCH  32  33
ENDBRANCH  31  32
ENDBRANCH  30  31
ENDBRANCH   1  30
TORSDOF 23
ENDMDL
MODEL 3
REMARK VINA RESULT:     -10.6      6.255     12.009
REMARK SMILES COc1ccc(-c2nc3ccc(C)cc3[nH]2)c(C(=O)OCCOCCOCCOC(=O)c2ccc(-c3c4nc(c(-c5c(F)cc(S(=O)(=O)[O-])cc5F)c5ccc([nH]5)c(-c5c(F)cc(S(=O)(=O)[O-])cc5F)c5nc(c(-c6c(F)cc(S(=O)(=O)[O-])cc6F)c6ccc3[nH]6)C=C5)C=C4)cc2)c1OC
REMARK SMILES IDX 25 1 24 2 23 3 22 4 21 5 20 6 18 7 19 8 17 9 3 10 4 11 98 12
REMARK SMILES IDX 5 13 6 14 2 15 1 16 99 17 100 18 7 19 8 20 16 21 9 22 15 23
REMARK SMILES IDX 10 25 14 26 11 27 12 28 13 29 26 30 27 31 28 32 29 33 30 34
REMARK SMILES IDX 31 35 32 36 33 37 97 38 34 39 96 40 35 41 36 42 37 43 90 44
REMARK SMILES IDX 38 45 95 46 89 47 91 48 39 49 94 50 88 51 87 52 40 54 74 55
REMARK SMILES IDX 53 56 73 57 54 58 57 59 72 60 92 61 55 62 56 63 71 65 93 66
REMARK SMILES IDX 58 67 41 68 42 69 51 70 43 71 44 72 50 73 52 74 45 75 46 76
REMARK SMILES IDX 47 77 48 78 49 79 75 80 76 81 85 82 77 83 78 84 84 85 86 86
REMARK SMILES IDX 79 87 80 88 81 89 82 90 83 91 59 92 60 93 69 94 61 95 62 96
REMARK SMILES IDX 68 97 70 98 63 99 64 100 65 101 66 102 67 103
REMARK H PARENT 16 24 91 53 57 64
REMARK Flexibility Score: inf
ROOT
ATOM      1  C   UNL A   1      36.911  23.479  25.411  1.00  0.00     0.188 C 
ENDROOT
BRANCH   1   2
ATOM      2  C   UNL A   1      35.843  22.521  25.959  1.00  0.00     0.188 C 
BRANCH   2   3
ATOM      3  O   UNL A   1      34.763  23.169  26.632  1.00  0.00    -0.376 OA
BRANCH   3   4
ATOM      4  C   UNL A   1      34.293  22.438  27.767  1.00  0.00     0.202 C 
BRANCH   4   5
ATOM      5  C   UNL A   1      32.854  21.977  27.545  1.00  0.00     0.261 C 
BRANCH   5   6
ATOM      6  O   UNL A   1      32.063  23.010  26.936  1.00  0.00    -0.460 OA
BRANCH   6   7
ATOM      7  C   UNL A   1      31.244  22.671  25.915  1.00  0.00     0.342 C 
ATOM      8  O   UNL A   1      30.335  21.856  25.947  1.00  0.00    -0.246 OA
BRANCH   7   9
ATOM      9  C   UNL A   1      31.591  23.507  24.737  1.00  0.00     0.116 A 
ATOM     10  C   UNL A   1      31.233  25.489  23.391  1.00  0.00     0.161 A 
ATOM     11  C   UNL A   1      32.167  25.023  22.463  1.00  0.00     0.051 A 
ATOM     12  C   UNL A   1      30.950  24.751  24.547  1.00  0.00     0.176 A 
ATOM     13  C   UNL A   1      32.814  23.798  22.660  1.00  0.00     0.017 A 
ATOM     14  C   UNL A   1      32.504  23.009  23.776  1.00  0.00     0.036 A 
BRANCH  10  15
ATOM     15  O   UNL A   1      30.513  26.597  23.028  1.00  0.00    -0.493 OA
ATOM     16  C   UNL A   1      31.214  27.445  22.124  1.00  0.00     0.278 C 
ENDBRANCH  10  15
BRANCH  12  17
ATOM     17  O   UNL A   1      30.132  25.218  25.546  1.00  0.00    -0.492 OA
ATOM     18  C   UNL A   1      30.666  26.299  26.310  1.00  0.00     0.278 C 
ENDBRANCH  12  17
BRANCH  14  19
ATOM     19  C   UNL A   1      32.899  21.600  23.783  1.00  0.00     0.139 A 
ATOM     20  N   UNL A   1      32.179  20.668  23.198  1.00  0.00    -0.228 NA
ATOM     21  N   UNL A   1      34.006  21.040  24.379  1.00  0.00    -0.338 N 
ATOM     22  C   UNL A   1      32.718  19.474  23.569  1.00  0.00     0.089 A 
ATOM     23  C   UNL A   1      33.883  19.667  24.296  1.00  0.00     0.066 A 
ATOM     24  H   UNL A   1      34.753  21.530  24.790  1.00  0.00     0.168 HD
ATOM     25  C   UNL A   1      32.241  18.183  23.323  1.00  0.00     0.031 A 
ATOM     26  C   UNL A   1      34.644  18.602  24.788  1.00  0.00     0.031 A 
ATOM     27  C   UNL A   1      32.968  17.102  23.824  1.00  0.00     0.006 A 
ATOM     28  C   UNL A   1      34.161  17.300  24.534  1.00  0.00    -0.049 A 
ATOM     29  C   UNL A   1      34.905  16.095  25.040  1.00  0.00     0.044 C 
ENDBRANCH  14  19
ENDBRANCH   7   9
ENDBRANCH   6   7
ENDBRANCH   5   6
ENDBRANCH   4   5
ENDBRANCH   3   4
ENDBRANCH   2   3
ENDBRANCH   1   2
BRANCH   1  30
ATOM     30  O   UNL A   1      38.199  23.554  26.019  1.00  0.00    -0.376 OA
BRANCH  30  31
ATOM     31  C   UNL A   1      38.944  22.360  26.173  1.00  0.00     0.202 C 
BRANCH  31  32
ATOM     32  C   UNL A   1      40.370  22.508  26.712  1.00  0.00     0.261 C 
BRANCH  32  33
ATOM     33  O   UNL A   1      41.008  23.758  26.394  1.00  0.00    -0.460 OA
BRANCH  33  34
ATOM     34  C   UNL A   1      41.938  24.167  27.292  1.00  0.00     0.338 C 
ATOM     35  O   UNL A   1      43.028  23.658  27.498  1.00  0.00    -0.246 OA
BRANCH  34  36
ATOM     36  C   UNL A   1      41.508  25.409  27.970  1.00  0.00     0.060 A 
ATOM     37  C   UNL A   1      42.464  26.414  28.159  1.00  0.00     0.016 A 
ATOM     38  C   UNL A   1      40.238  25.534  28.539  1.00  0.00     0.016 A 
ATOM     39  C   UNL A   1      42.178  27.514  28.968  1.00  0.00     0.010 A 
ATOM     40  C   UNL A   1      39.955  26.635  29.360  1.00  0.00     0.010 A 
ATOM     41  C   UNL A   1      40.940  27.606  29.617  1.00  0.00    -0.014 A 
BRANCH  41  42
ATOM     42  C   UNL A   1      40.751  28.616  30.694  1.00  0.00     0.031 A 
ATOM     43  C   UNL A   1      41.612  28.543  31.926  1.00  0.00     0.074 A 
ATOM     44  C   UNL A   1      39.855  29.613  30.572  1.00  0.00     0.049 A 
ATOM     45  N   UNL A   1      41.607  29.305  32.990  1.00  0.00    -0.248 NA
ATOM     46  C   UNL A   1      42.616  27.467  31.961  1.00  0.00     0.031 C 
ATOM     47  C   UNL A   1      38.983  29.822  29.422  1.00  0.00     0.029 A 
ATOM     48  N   UNL A   1      39.529  30.633  31.433  1.00  0.00    -0.354 N 
ATOM     49  C   UNL A   1      42.603  28.803  33.821  1.00  0.00     0.074 A 
ATOM     50  C   UNL A   1      43.168  27.650  33.151  1.00  0.00     0.031 C 
ATOM     51  C   UNL A   1      38.203  30.891  29.655  1.00  0.00     0.029 A 
ATOM     52  C   UNL A   1      38.505  31.429  30.979  1.00  0.00     0.049 A 
ATOM     53  H   UNL A   1      39.985  30.779  32.293  1.00  0.00     0.167 HD
ATOM     54  C   UNL A   1      43.019  29.264  35.025  1.00  0.00     0.037 A 
ATOM     55  C   UNL A   1      37.868  32.460  31.569  1.00  0.00     0.037 A 
ATOM     56  C   UNL A   1      42.454  30.405  35.699  1.00  0.00     0.049 A 
ATOM     57  C   UNL A   1      38.305  32.925  32.934  1.00  0.00     0.074 A 
ATOM     58  C   UNL A   1      42.812  30.946  36.922  1.00  0.00     0.029 A 
ATOM     59  N   UNL A   1      41.409  31.176  35.213  1.00  0.00    -0.354 N 
ATOM     60  N   UNL A   1      39.259  32.451  33.699  1.00  0.00    -0.248 NA
ATOM     61  C   UNL A   1      37.586  34.070  33.511  1.00  0.00     0.031 C 
ATOM     62  C   UNL A   1      41.957  32.020  37.195  1.00  0.00     0.029 A 
ATOM     63  C   UNL A   1      41.098  32.179  36.119  1.00  0.00     0.049 A 
ATOM     64  H   UNL A   1      40.955  31.033  34.352  1.00  0.00     0.167 HD
ATOM     65  C   UNL A   1      39.270  33.253  34.836  1.00  0.00     0.074 A 
ATOM     66  C   UNL A   1      38.234  34.249  34.654  1.00  0.00     0.031 C 
ATOM     67  C   UNL A   1      40.068  33.170  35.930  1.00  0.00     0.037 A 
BRANCH  54  68
ATOM     68  C   UNL A   1      44.130  28.511  35.701  1.00  0.00     0.058 A 
ATOM     69  C   UNL A   1      43.870  27.458  36.593  1.00  0.00     0.135 A 
ATOM     70  C   UNL A   1      45.472  28.841  35.449  1.00  0.00     0.135 A 
ATOM     71  F   UNL A   1      42.606  27.112  36.881  1.00  0.00    -0.206 F 
ATOM     72  C   UNL A   1      44.901  26.780  37.238  1.00  0.00     0.059 A 
ATOM     73  C   UNL A   1      46.519  28.159  36.063  1.00  0.00     0.059 A 
ATOM     74  F   UNL A   1      45.776  29.839  34.605  1.00  0.00    -0.206 F 
ATOM     75  C   UNL A   1      46.222  27.143  36.970  1.00  0.00     0.060 A 
BRANCH  75  76
ATOM     76  S   UNL A   1      47.549  26.266  37.825  1.00  0.00     0.124 S 
ATOM     77  O   UNL A   1      47.422  26.797  39.178  1.00  0.00    -0.237 OA
ATOM     78  O   UNL A   1      47.163  24.869  37.653  1.00  0.00    -0.237 OA
ATOM     79  O   UNL A   1      48.748  26.675  37.101  1.00  0.00    -0.744 OA
ENDBRANCH  75  76
ENDBRANCH  54  68
BRANCH  55  80
ATOM     80  C   UNL A   1      36.734  33.122  30.870  1.00  0.00     0.058 A 
ATOM     81  C   UNL A   1      35.409  32.921  31.280  1.00  0.00     0.135 A 
ATOM     82  C   UNL A   1      36.960  33.982  29.784  1.00  0.00     0.135 A 
ATOM     83  F   UNL A   1      35.140  32.098  32.306  1.00  0.00    -0.206 F 
ATOM     84  C   UNL A   1      34.345  33.544  30.635  1.00  0.00     0.059 A 
ATOM     85  C   UNL A   1      35.916  34.634  29.138  1.00  0.00     0.059 A 
ATOM     86  F   UNL A   1      38.212  34.216  29.359  1.00  0.00    -0.206 F 
ATOM     87  C   UNL A   1      34.611  34.405  29.568  1.00  0.00     0.060 A 
BRANCH  87  88
ATOM     88  S   UNL A   1      33.232  35.276  28.793  1.00  0.00     0.124 S 
ATOM     89  O   UNL A   1      32.583  34.201  28.052  1.00  0.00    -0.237 OA
ATOM     90  O   UNL A   1      32.505  35.787  29.952  1.00  0.00    -0.237 OA
ATOM     91  O   UNL A   1      33.896  36.295  27.984  1.00  0.00    -0.744 OA
ENDBRANCH  87  88
ENDBRANCH  55  80
BRANCH  67  92
ATOM     92  C   UNL A   1      39.881  34.205  37.007  1.00  0.00     0.058 A 
ATOM     93  C   UNL A   1      40.387  35.508  36.877  1.00  0.00     0.135 A 
ATOM     94  C   UNL A   1      39.147  33.901  38.165  1.00  0.00     0.135 A 
ATOM     95  F   UNL A   1      41.101  35.850  35.793  1.00  0.00    -0.206 F 
ATOM     96  C   UNL A   1      40.194  36.465  37.868  1.00  0.00     0.059 A 
ATOM     97  C   UNL A   1      38.919  34.850  39.157  1.00  0.00     0.059 A 
ATOM     98  F   UNL A   1      38.631  32.673  38.336  1.00  0.00    -0.206 F 
ATOM     99  C   UNL A   1      39.459  36.126  39.007  1.00  0.00     0.060 A 
BRANCH  99 100
ATOM    100  S   UNL A   1      39.195  37.382  40.276  1.00  0.00     0.124 S 
ATOM    101  O   UNL A   1      38.268  38.288  39.605  1.00  0.00    -0.237 OA
ATOM    102  O   UNL A   1      38.634  36.605  41.377  1.00  0.00    -0.237 OA
ATOM    103  O   UNL A   1      40.534  37.914  40.511  1.00  0.00    -0.744 OA
ENDBRANCH  99 100
ENDBRANCH  67  92
ENDBRANCH  41  42
ENDBRANCH  34  36
ENDBRANCH  33  34
ENDBRANCH  32  33
ENDBRANCH  31  32
ENDBRANCH  30  31
ENDBRANCH   1  30
TORSDOF 23
ENDMDL
