MODEL 1
REMARK VINA RESULT:     -10.6      0.000      0.000
REMARK SMILES C[NH+]1CCC2(CC1)OC[C@@H](C(=O)OCCOCCOCCOC(=O)c1ccc(-c3c4nc(c(-c5c(F)cc(S(=O)(=O)[O-])cc5F)c5ccc([nH]5)c(-c5c(F)cc(S(=O)(=O)[O-])cc5F)c5nc(c(-c6c(F)cc(S(=O)(=O)[O-])cc6F)c6ccc3[nH]6)C=C5)C=C4)cc1)N2C(=O)c1ccc(C(C)(C)C)cc1
REMARK SMILES IDX 17 1 16 2 15 3 14 4 13 5 11 6 12 7 10 8 1 9 2 10 3 11 7 12
REMARK SMILES IDX 4 14 6 15 5 16 8 17 91 18 9 19 92 20 93 21 94 22 95 23
REMARK SMILES IDX 103 24 96 25 102 26 97 27 98 28 99 29 100 30 101 31 18 32
REMARK SMILES IDX 19 33 20 34 21 35 22 36 23 37 24 38 25 39 26 40 90 41 27 42
REMARK SMILES IDX 89 43 28 44 29 45 30 46 83 47 31 48 88 49 82 50 84 51 32 52
REMARK SMILES IDX 87 53 81 54 80 55 33 57 67 58 46 59 66 60 47 61 50 62 65 63
REMARK SMILES IDX 85 64 48 65 49 66 64 68 86 69 51 70 34 71 35 72 44 73 36 74
REMARK SMILES IDX 37 75 43 76 45 77 38 78 39 79 40 80 41 81 42 82 68 83 69 84
REMARK SMILES IDX 78 85 70 86 71 87 77 88 79 89 72 90 73 91 74 92 75 93 76 94
REMARK SMILES IDX 52 95 53 96 62 97 54 98 55 99 61 100 63 101 56 102 57 103
REMARK SMILES IDX 58 104 59 105 60 106
REMARK H PARENT 2 13 84 56 50 67
REMARK Flexibility Score: inf
ROOT
ATOM      1  C   UNL A   1      36.385  21.469  24.866  1.00  0.00     0.188 C 
ENDROOT
BRANCH   1   2
ATOM      2  O   UNL A   1      35.212  21.321  25.650  1.00  0.00    -0.376 OA
BRANCH   2   3
ATOM      3  C   UNL A   1      34.063  20.701  25.099  1.00  0.00     0.202 C 
BRANCH   3   4
ATOM      4  C   UNL A   1      32.689  21.294  25.454  1.00  0.00     0.261 C 
BRANCH   4   5
ATOM      5  O   UNL A   1      32.272  22.495  24.750  1.00  0.00    -0.462 OA
BRANCH   5   6
ATOM      6  C   UNL A   1      31.192  23.120  25.276  1.00  0.00     0.331 C 
ATOM      7  O   UNL A   1      30.601  22.682  26.268  1.00  0.00    -0.250 OA
BRANCH   6   8
ATOM      8  C   UNL A   1      30.684  24.444  24.625  1.00  0.00     0.224 C 
ATOM      9  C   UNL A   1      29.533  30.028  21.750  1.00  0.00     0.332 C 
ATOM     10  N   UNL A   1      29.877  29.323  22.971  1.00  0.00    -0.337 N 
ATOM     11  C   UNL A   1      28.888  28.325  23.357  1.00  0.00     0.267 C 
ATOM     12  C   UNL A   1      31.284  28.951  23.054  1.00  0.00     0.267 C 
ATOM     13  H   UNL A   1      29.806  29.993  23.737  1.00  0.00     0.347 HD
ATOM     14  C   UNL A   1      29.224  26.885  23.041  1.00  0.00     0.120 C 
ATOM     15  C   UNL A   1      31.649  27.505  22.775  1.00  0.00     0.120 C 
ATOM     16  C   UNL A   1      30.674  26.475  23.329  1.00  0.00     0.155 C 
ATOM     17  O   UNL A   1      30.849  25.347  22.422  1.00  0.00    -0.352 OA
ATOM     18  N   UNL A   1      30.956  25.903  24.666  1.00  0.00    -0.293 N 
ATOM     19  C   UNL A   1      31.006  24.149  23.164  1.00  0.00     0.200 C 
BRANCH  18  20
ATOM     20  C   UNL A   1      31.160  26.513  25.899  1.00  0.00     0.256 C 
ATOM     21  O   UNL A   1      30.507  26.154  26.871  1.00  0.00    -0.269 OA
BRANCH  20  22
ATOM     22  C   UNL A   1      32.228  27.480  26.233  1.00  0.00     0.040 A 
ATOM     23  C   UNL A   1      31.850  28.674  26.848  1.00  0.00     0.014 A 
ATOM     24  C   UNL A   1      33.549  27.369  25.801  1.00  0.00     0.014 A 
ATOM     25  C   UNL A   1      32.818  29.601  27.262  1.00  0.00     0.005 A 
ATOM     26  C   UNL A   1      34.533  28.266  26.274  1.00  0.00     0.005 A 
ATOM     27  C   UNL A   1      34.193  29.350  27.101  1.00  0.00    -0.043 A 
BRANCH  27  28
ATOM     28  C   UNL A   1      35.245  30.207  27.835  1.00  0.00    -0.013 C 
ATOM     29  C   UNL A   1      35.275  29.849  29.331  1.00  0.00     0.016 C 
ATOM     30  C   UNL A   1      36.658  29.971  27.239  1.00  0.00     0.016 C 
ATOM     31  C   UNL A   1      34.992  31.731  27.706  1.00  0.00     0.016 C 
ENDBRANCH  27  28
ENDBRANCH  20  22
ENDBRANCH  18  20
ENDBRANCH   6   8
ENDBRANCH   5   6
ENDBRANCH   4   5
ENDBRANCH   3   4
ENDBRANCH   2   3
ENDBRANCH   1   2
BRANCH   1  32
ATOM     32  C   UNL A   1      37.147  22.793  24.855  1.00  0.00     0.188 C 
BRANCH  32  33
ATOM     33  O   UNL A   1      37.986  22.993  25.981  1.00  0.00    -0.376 OA
BRANCH  33  34
ATOM     34  C   UNL A   1      39.028  22.033  26.145  1.00  0.00     0.202 C 
BRANCH  34  35
ATOM     35  C   UNL A   1      40.173  22.656  26.935  1.00  0.00     0.261 C 
BRANCH  35  36
ATOM     36  O   UNL A   1      40.143  24.096  26.900  1.00  0.00    -0.460 OA
BRANCH  36  37
ATOM     37  C   UNL A   1      41.321  24.728  27.120  1.00  0.00     0.338 C 
ATOM     38  O   UNL A   1      42.357  24.589  26.489  1.00  0.00    -0.246 OA
BRANCH  37  39
ATOM     39  C   UNL A   1      41.102  25.791  28.132  1.00  0.00     0.060 A 
ATOM     40  C   UNL A   1      42.168  26.643  28.461  1.00  0.00     0.016 A 
ATOM     41  C   UNL A   1      39.847  25.990  28.710  1.00  0.00     0.016 A 
ATOM     42  C   UNL A   1      41.997  27.648  29.417  1.00  0.00     0.010 A 
ATOM     43  C   UNL A   1      39.677  26.993  29.666  1.00  0.00     0.010 A 
ATOM     44  C   UNL A   1      40.760  27.801  30.059  1.00  0.00    -0.014 A 
BRANCH  44  45
ATOM     45  C   UNL A   1      40.621  28.663  31.262  1.00  0.00     0.031 A 
ATOM     46  C   UNL A   1      39.580  29.754  31.239  1.00  0.00     0.074 A 
ATOM     47  C   UNL A   1      41.411  28.510  32.341  1.00  0.00     0.049 A 
ATOM     48  N   UNL A   1      39.339  30.692  32.116  1.00  0.00    -0.248 NA
ATOM     49  C   UNL A   1      38.701  29.795  30.059  1.00  0.00     0.031 C 
ATOM     50  C   UNL A   1      42.433  27.478  32.506  1.00  0.00     0.029 A 
ATOM     51  N   UNL A   1      41.485  29.243  33.501  1.00  0.00    -0.354 N 
ATOM     52  C   UNL A   1      38.300  31.448  31.586  1.00  0.00     0.074 A 
ATOM     53  C   UNL A   1      37.971  30.873  30.301  1.00  0.00     0.031 C 
ATOM     54  C   UNL A   1      43.041  27.652  33.693  1.00  0.00     0.029 A 
ATOM     55  C   UNL A   1      42.480  28.829  34.356  1.00  0.00     0.049 A 
ATOM     56  H   UNL A   1      40.881  29.995  33.702  1.00  0.00     0.167 HD
ATOM     57  C   UNL A   1      37.672  32.522  32.123  1.00  0.00     0.037 A 
ATOM     58  C   UNL A   1      42.907  29.358  35.523  1.00  0.00     0.037 A 
ATOM     59  C   UNL A   1      37.995  33.086  33.407  1.00  0.00     0.049 A 
ATOM     60  C   UNL A   1      42.233  30.595  36.069  1.00  0.00     0.074 A 
ATOM     61  C   UNL A   1      37.386  34.148  34.055  1.00  0.00     0.029 A 
ATOM     62  N   UNL A   1      39.019  32.649  34.233  1.00  0.00    -0.354 N 
ATOM     63  N   UNL A   1      41.223  31.273  35.579  1.00  0.00    -0.248 NA
ATOM     64  C   UNL A   1      42.760  31.137  37.331  1.00  0.00     0.031 C 
ATOM     65  C   UNL A   1      38.084  34.394  35.241  1.00  0.00     0.029 A 
ATOM     66  C   UNL A   1      39.082  33.441  35.368  1.00  0.00     0.049 A 
ATOM     67  H   UNL A   1      39.615  31.889  34.041  1.00  0.00     0.167 HD
ATOM     68  C   UNL A   1      40.970  32.296  36.490  1.00  0.00     0.074 A 
ATOM     69  C   UNL A   1      41.926  32.142  37.565  1.00  0.00     0.031 C 
ATOM     70  C   UNL A   1      40.028  33.270  36.444  1.00  0.00     0.037 A 
BRANCH  57  71
ATOM     71  C   UNL A   1      36.590  33.182  31.312  1.00  0.00     0.058 A 
ATOM     72  C   UNL A   1      35.227  32.996  31.597  1.00  0.00     0.135 A 
ATOM     73  C   UNL A   1      36.926  34.055  30.265  1.00  0.00     0.135 A 
ATOM     74  F   UNL A   1      34.848  32.157  32.573  1.00  0.00    -0.206 F 
ATOM     75  C   UNL A   1      34.237  33.639  30.861  1.00  0.00     0.059 A 
ATOM     76  C   UNL A   1      35.953  34.733  29.535  1.00  0.00     0.059 A 
ATOM     77  F   UNL A   1      38.212  34.267  29.946  1.00  0.00    -0.206 F 
ATOM     78  C   UNL A   1      34.610  34.509  29.834  1.00  0.00     0.060 A 
BRANCH  78  79
ATOM     79  S   UNL A   1      33.312  35.350  28.904  1.00  0.00     0.124 S 
ATOM     80  O   UNL A   1      34.092  36.267  28.077  1.00  0.00    -0.237 OA
ATOM     81  O   UNL A   1      32.673  34.246  28.195  1.00  0.00    -0.237 OA
ATOM     82  O   UNL A   1      32.501  35.979  29.942  1.00  0.00    -0.744 OA
ENDBRANCH  78  79
ENDBRANCH  57  71
BRANCH  58  83
ATOM     83  C   UNL A   1      44.039  28.733  36.263  1.00  0.00     0.058 A 
ATOM     84  C   UNL A   1      43.833  27.617  37.090  1.00  0.00     0.135 A 
ATOM     85  C   UNL A   1      45.340  29.256  36.189  1.00  0.00     0.135 A 
ATOM     86  F   UNL A   1      42.605  27.089  37.209  1.00  0.00    -0.206 F 
ATOM     87  C   UNL A   1      44.867  27.057  37.833  1.00  0.00     0.059 A 
ATOM     88  C   UNL A   1      46.398  28.693  36.899  1.00  0.00     0.059 A 
ATOM     89  F   UNL A   1      45.595  30.319  35.411  1.00  0.00    -0.206 F 
ATOM     90  C   UNL A   1      46.148  27.601  37.729  1.00  0.00     0.060 A 
BRANCH  90  91
ATOM     91  S   UNL A   1      47.488  26.846  38.675  1.00  0.00     0.124 S 
ATOM     92  O   UNL A   1      47.533  25.505  38.104  1.00  0.00    -0.237 OA
ATOM     93  O   UNL A   1      48.615  27.715  38.355  1.00  0.00    -0.237 OA
ATOM     94  O   UNL A   1      47.013  26.928  40.054  1.00  0.00    -0.744 OA
ENDBRANCH  90  91
ENDBRANCH  58  83
BRANCH  70  95
ATOM     95  C   UNL A   1      39.937  34.220  37.610  1.00  0.00     0.058 A 
ATOM     96  C   UNL A   1      39.107  33.969  38.714  1.00  0.00     0.135 A 
ATOM     97  C   UNL A   1      40.739  35.373  37.648  1.00  0.00     0.135 A 
ATOM     98  F   UNL A   1      38.316  32.884  38.733  1.00  0.00    -0.206 F 
ATOM     99  C   UNL A   1      39.057  34.839  39.800  1.00  0.00     0.059 A 
ATOM    100  C   UNL A   1      40.730  36.240  38.737  1.00  0.00     0.059 A 
ATOM    101  F   UNL A   1      41.562  35.658  36.625  1.00  0.00    -0.206 F 
ATOM    102  C   UNL A   1      39.875  35.971  39.803  1.00  0.00     0.060 A 
BRANCH 102 103
ATOM    103  S   UNL A   1      39.824  37.073  41.233  1.00  0.00     0.124 S 
ATOM    104  O   UNL A   1      41.241  37.355  41.438  1.00  0.00    -0.237 OA
ATOM    105  O   UNL A   1      39.022  38.188  40.740  1.00  0.00    -0.237 OA
ATOM    106  O   UNL A   1      39.190  36.262  42.267  1.00  0.00    -0.744 OA
ENDBRANCH 102 103
ENDBRANCH  70  95
ENDBRANCH  44  45
ENDBRANCH  37  39
ENDBRANCH  36  37
ENDBRANCH  35  36
ENDBRANCH  34  35
ENDBRANCH  33  34
ENDBRANCH  32  33
ENDBRANCH   1  32
TORSDOF 23
ENDMDL
MODEL 2
REMARK VINA RESULT:      -9.5      5.811      8.080
REMARK SMILES C[NH+]1CCC2(CC1)OC[C@@H](C(=O)OCCOCCOCCOC(=O)c1ccc(-c3c4nc(c(-c5c(F)cc(S(=O)(=O)[O-])cc5F)c5ccc([nH]5)c(-c5c(F)cc(S(=O)(=O)[O-])cc5F)c5nc(c(-c6c(F)cc(S(=O)(=O)[O-])cc6F)c6ccc3[nH]6)C=C5)C=C4)cc1)N2C(=O)c1ccc(C(C)(C)C)cc1
REMARK SMILES IDX 17 1 16 2 15 3 14 4 13 5 11 6 12 7 10 8 1 9 2 10 3 11 7 12
REMARK SMILES IDX 4 14 6 15 5 16 8 17 91 18 9 19 92 20 93 21 94 22 95 23
REMARK SMILES IDX 103 24 96 25 102 26 97 27 98 28 99 29 100 30 101 31 18 32
REMARK SMILES IDX 19 33 20 34 21 35 22 36 23 37 24 38 25 39 26 40 90 41 27 42
REMARK SMILES IDX 89 43 28 44 29 45 30 46 83 47 31 48 88 49 82 50 84 51 32 52
REMARK SMILES IDX 87 53 81 54 80 55 33 57 67 58 46 59 66 60 47 61 50 62 65 63
REMARK SMILES IDX 85 64 48 65 49 66 64 68 86 69 51 70 34 71 35 72 44 73 36 74
REMARK SMILES IDX 37 75 43 76 45 77 38 78 39 79 40 80 41 81 42 82 68 83 69 84
REMARK SMILES IDX 78 85 70 86 71 87 77 88 79 89 72 90 73 91 74 92 75 93 76 94
REMARK SMILES IDX 52 95 53 96 62 97 54 98 55 99 61 100 63 101 56 102 57 103
REMARK SMILES IDX 58 104 59 105 60 106
REMARK H PARENT 2 13 84 56 50 67
REMARK Flexibility Score: inf
ROOT
ATOM      1  C   UNL A   1      35.761  20.908  24.880  1.00  0.00     0.188 C 
ENDROOT
BRANCH   1   2
ATOM      2  O   UNL A   1      34.760  20.935  25.884  1.00  0.00    -0.376 OA
BRANCH   2   3
ATOM      3  C   UNL A   1      33.425  20.579  25.565  1.00  0.00     0.202 C 
BRANCH   3   4
ATOM      4  C   UNL A   1      32.468  21.701  25.130  1.00  0.00     0.261 C 
BRANCH   4   5
ATOM      5  O   UNL A   1      33.054  22.901  24.555  1.00  0.00    -0.462 OA
BRANCH   5   6
ATOM      6  C   UNL A   1      32.807  24.043  25.240  1.00  0.00     0.331 C 
ATOM      7  O   UNL A   1      33.355  24.290  26.319  1.00  0.00    -0.250 OA
BRANCH   6   8
ATOM      8  C   UNL A   1      31.815  25.089  24.646  1.00  0.00     0.224 C 
ATOM      9  C   UNL A   1      28.542  29.873  21.969  1.00  0.00     0.332 C 
ATOM     10  N   UNL A   1      29.180  29.335  23.156  1.00  0.00    -0.337 N 
ATOM     11  C   UNL A   1      28.650  28.037  23.554  1.00  0.00     0.267 C 
ATOM     12  C   UNL A   1      30.627  29.512  23.173  1.00  0.00     0.267 C 
ATOM     13  H   UNL A   1      28.901  29.923  23.942  1.00  0.00     0.347 HD
ATOM     14  C   UNL A   1      29.480  26.828  23.187  1.00  0.00     0.120 C 
ATOM     15  C   UNL A   1      31.487  28.308  22.841  1.00  0.00     0.120 C 
ATOM     16  C   UNL A   1      30.991  26.983  23.406  1.00  0.00     0.155 C 
ATOM     17  O   UNL A   1      31.529  26.010  22.463  1.00  0.00    -0.352 OA
ATOM     18  N   UNL A   1      31.528  26.544  24.715  1.00  0.00    -0.293 N 
ATOM     19  C   UNL A   1      32.153  24.949  23.166  1.00  0.00     0.200 C 
BRANCH  18  20
ATOM     20  C   UNL A   1      31.549  27.174  25.954  1.00  0.00     0.256 C 
ATOM     21  O   UNL A   1      30.740  26.851  26.815  1.00  0.00    -0.269 OA
BRANCH  20  22
ATOM     22  C   UNL A   1      32.577  28.122  26.439  1.00  0.00     0.040 A 
ATOM     23  C   UNL A   1      32.153  29.396  26.817  1.00  0.00     0.014 A 
ATOM     24  C   UNL A   1      33.951  27.898  26.356  1.00  0.00     0.014 A 
ATOM     25  C   UNL A   1      33.062  30.318  27.359  1.00  0.00     0.005 A 
ATOM     26  C   UNL A   1      34.858  28.796  26.962  1.00  0.00     0.005 A 
ATOM     27  C   UNL A   1      34.413  29.984  27.565  1.00  0.00    -0.043 A 
BRANCH  27  28
ATOM     28  C   UNL A   1      35.321  30.871  28.443  1.00  0.00    -0.013 C 
ATOM     29  C   UNL A   1      36.341  31.621  27.569  1.00  0.00     0.016 C 
ATOM     30  C   UNL A   1      34.478  31.912  29.226  1.00  0.00     0.016 C 
ATOM     31  C   UNL A   1      36.099  30.074  29.521  1.00  0.00     0.016 C 
ENDBRANCH  27  28
ENDBRANCH  20  22
ENDBRANCH  18  20
ENDBRANCH   6   8
ENDBRANCH   5   6
ENDBRANCH   4   5
ENDBRANCH   3   4
ENDBRANCH   2   3
ENDBRANCH   1   2
BRANCH   1  32
ATOM     32  C   UNL A   1      36.967  21.841  24.965  1.00  0.00     0.188 C 
BRANCH  32  33
ATOM     33  O   UNL A   1      38.145  21.228  25.465  1.00  0.00    -0.376 OA
BRANCH  33  34
ATOM     34  C   UNL A   1      38.327  19.862  25.095  1.00  0.00     0.202 C 
BRANCH  34  35
ATOM     35  C   UNL A   1      39.682  19.377  25.599  1.00  0.00     0.261 C 
BRANCH  35  36
ATOM     36  O   UNL A   1      40.411  20.409  26.290  1.00  0.00    -0.460 OA
BRANCH  36  37
ATOM     37  C   UNL A   1      41.753  20.425  26.106  1.00  0.00     0.338 C 
ATOM     38  O   UNL A   1      42.414  19.627  25.459  1.00  0.00    -0.246 OA
BRANCH  37  39
ATOM     39  C   UNL A   1      42.287  21.700  26.645  1.00  0.00     0.060 A 
ATOM     40  C   UNL A   1      42.376  22.812  25.791  1.00  0.00     0.016 A 
ATOM     41  C   UNL A   1      42.642  21.823  27.989  1.00  0.00     0.016 A 
ATOM     42  C   UNL A   1      42.883  24.025  26.266  1.00  0.00     0.010 A 
ATOM     43  C   UNL A   1      43.150  23.035  28.462  1.00  0.00     0.010 A 
ATOM     44  C   UNL A   1      43.315  24.131  27.595  1.00  0.00    -0.014 A 
BRANCH  44  45
ATOM     45  C   UNL A   1      44.106  25.303  28.053  1.00  0.00     0.031 A 
ATOM     46  C   UNL A   1      43.400  26.370  28.852  1.00  0.00     0.074 A 
ATOM     47  C   UNL A   1      45.410  25.442  27.752  1.00  0.00     0.049 A 
ATOM     48  N   UNL A   1      43.843  27.525  29.272  1.00  0.00    -0.248 NA
ATOM     49  C   UNL A   1      41.999  26.097  29.214  1.00  0.00     0.031 C 
ATOM     50  C   UNL A   1      46.220  24.473  27.016  1.00  0.00     0.029 A 
ATOM     51  N   UNL A   1      46.280  26.473  28.016  1.00  0.00    -0.354 N 
ATOM     52  C   UNL A   1      42.774  28.126  29.926  1.00  0.00     0.074 A 
ATOM     53  C   UNL A   1      41.653  27.218  29.827  1.00  0.00     0.031 C 
ATOM     54  C   UNL A   1      47.466  24.962  26.876  1.00  0.00     0.029 A 
ATOM     55  C   UNL A   1      47.533  26.293  27.478  1.00  0.00     0.049 A 
ATOM     56  H   UNL A   1      46.029  27.267  28.543  1.00  0.00     0.167 HD
ATOM     57  C   UNL A   1      42.729  29.325  30.555  1.00  0.00     0.037 A 
ATOM     58  C   UNL A   1      48.599  27.121  27.448  1.00  0.00     0.037 A 
ATOM     59  C   UNL A   1      43.849  30.223  30.660  1.00  0.00     0.049 A 
ATOM     60  C   UNL A   1      48.505  28.479  28.102  1.00  0.00     0.074 A 
ATOM     61  C   UNL A   1      43.914  31.440  31.316  1.00  0.00     0.029 A 
ATOM     62  N   UNL A   1      45.094  30.012  30.087  1.00  0.00    -0.354 N 
ATOM     63  N   UNL A   1      47.501  29.017  28.754  1.00  0.00    -0.248 NA
ATOM     64  C   UNL A   1      49.691  29.344  28.015  1.00  0.00     0.031 C 
ATOM     65  C   UNL A   1      45.176  31.995  31.084  1.00  0.00     0.029 A 
ATOM     66  C   UNL A   1      45.922  31.092  30.345  1.00  0.00     0.049 A 
ATOM     67  H   UNL A   1      45.351  29.212  29.573  1.00  0.00     0.167 HD
ATOM     68  C   UNL A   1      47.949  30.263  29.186  1.00  0.00     0.074 A 
ATOM     69  C   UNL A   1      49.316  30.396  28.730  1.00  0.00     0.031 C 
ATOM     70  C   UNL A   1      47.290  31.209  29.901  1.00  0.00     0.037 A 
BRANCH  57  71
ATOM     71  C   UNL A   1      41.419  29.755  31.157  1.00  0.00     0.058 A 
ATOM     72  C   UNL A   1      41.113  29.538  32.510  1.00  0.00     0.135 A 
ATOM     73  C   UNL A   1      40.476  30.443  30.375  1.00  0.00     0.135 A 
ATOM     74  F   UNL A   1      41.968  28.869  33.298  1.00  0.00    -0.206 F 
ATOM     75  C   UNL A   1      39.911  29.971  33.062  1.00  0.00     0.059 A 
ATOM     76  C   UNL A   1      39.281  30.913  30.913  1.00  0.00     0.059 A 
ATOM     77  F   UNL A   1      40.714  30.675  29.075  1.00  0.00    -0.206 F 
ATOM     78  C   UNL A   1      39.002  30.662  32.256  1.00  0.00     0.060 A 
BRANCH  78  79
ATOM     79  S   UNL A   1      37.459  31.235  32.995  1.00  0.00     0.124 S 
ATOM     80  O   UNL A   1      37.182  32.429  32.202  1.00  0.00    -0.237 OA
ATOM     81  O   UNL A   1      36.567  30.103  32.766  1.00  0.00    -0.237 OA
ATOM     82  O   UNL A   1      37.817  31.477  34.389  1.00  0.00    -0.744 OA
ENDBRANCH  78  79
ENDBRANCH  57  71
BRANCH  58  83
ATOM     83  C   UNL A   1      49.859  26.702  26.771  1.00  0.00     0.058 A 
ATOM     84  C   UNL A   1      50.091  27.013  25.422  1.00  0.00     0.135 A 
ATOM     85  C   UNL A   1      50.839  25.955  27.443  1.00  0.00     0.135 A 
ATOM     86  F   UNL A   1      49.178  27.711  24.728  1.00  0.00    -0.206 F 
ATOM     87  C   UNL A   1      51.235  26.581  24.758  1.00  0.00     0.059 A 
ATOM     88  C   UNL A   1      52.007  25.538  26.810  1.00  0.00     0.059 A 
ATOM     89  F   UNL A   1      50.671  25.633  28.736  1.00  0.00    -0.206 F 
ATOM     90  C   UNL A   1      52.189  25.845  25.463  1.00  0.00     0.060 A 
BRANCH  90  91
ATOM     91  S   UNL A   1      53.684  25.317  24.597  1.00  0.00     0.124 S 
ATOM     92  O   UNL A   1      53.615  23.868  24.748  1.00  0.00    -0.237 OA
ATOM     93  O   UNL A   1      53.454  25.831  23.251  1.00  0.00    -0.237 OA
ATOM     94  O   UNL A   1      54.754  25.978  25.339  1.00  0.00    -0.744 OA
ENDBRANCH  90  91
ENDBRANCH  58  83
BRANCH  70  95
ATOM     95  C   UNL A   1      48.046  32.453  30.290  1.00  0.00     0.058 A 
ATOM     96  C   UNL A   1      48.805  32.528  31.468  1.00  0.00     0.135 A 
ATOM     97  C   UNL A   1      48.056  33.570  29.437  1.00  0.00     0.135 A 
ATOM     98  F   UNL A   1      48.831  31.493  32.323  1.00  0.00    -0.206 F 
ATOM     99  C   UNL A   1      49.524  33.673  31.799  1.00  0.00     0.059 A 
ATOM    100  C   UNL A   1      48.793  34.713  29.731  1.00  0.00     0.059 A 
ATOM    101  F   UNL A   1      47.358  33.551  28.289  1.00  0.00    -0.206 F 
ATOM    102  C   UNL A   1      49.514  34.760  30.922  1.00  0.00     0.060 A 
BRANCH 102 103
ATOM    103  S   UNL A   1      50.479  36.227  31.348  1.00  0.00     0.124 S 
ATOM    104  O   UNL A   1      51.829  35.807  30.985  1.00  0.00    -0.237 OA
ATOM    105  O   UNL A   1      49.883  37.251  30.496  1.00  0.00    -0.237 OA
ATOM    106  O   UNL A   1      50.237  36.391  32.778  1.00  0.00    -0.744 OA
ENDBRANCH 102 103
ENDBRANCH  70  95
ENDBRANCH  44  45
ENDBRANCH  37  39
ENDBRANCH  36  37
ENDBRANCH  35  36
ENDBRANCH  34  35
ENDBRANCH  33  34
ENDBRANCH  32  33
ENDBRANCH   1  32
TORSDOF 23
ENDMDL
MODEL 3
REMARK VINA RESULT:      -9.4      6.443     13.962
REMARK SMILES C[NH+]1CCC2(CC1)OC[C@@H](C(=O)OCCOCCOCCOC(=O)c1ccc(-c3c4nc(c(-c5c(F)cc(S(=O)(=O)[O-])cc5F)c5ccc([nH]5)c(-c5c(F)cc(S(=O)(=O)[O-])cc5F)c5nc(c(-c6c(F)cc(S(=O)(=O)[O-])cc6F)c6ccc3[nH]6)C=C5)C=C4)cc1)N2C(=O)c1ccc(C(C)(C)C)cc1
REMARK SMILES IDX 17 1 16 2 15 3 14 4 13 5 11 6 12 7 10 8 1 9 2 10 3 11 7 12
REMARK SMILES IDX 4 14 6 15 5 16 8 17 91 18 9 19 92 20 93 21 94 22 95 23
REMARK SMILES IDX 103 24 96 25 102 26 97 27 98 28 99 29 100 30 101 31 18 32
REMARK SMILES IDX 19 33 20 34 21 35 22 36 23 37 24 38 25 39 26 40 90 41 27 42
REMARK SMILES IDX 89 43 28 44 29 45 30 46 83 47 31 48 88 49 82 50 84 51 32 52
REMARK SMILES IDX 87 53 81 54 80 55 33 57 67 58 46 59 66 60 47 61 50 62 65 63
REMARK SMILES IDX 85 64 48 65 49 66 64 68 86 69 51 70 34 71 35 72 44 73 36 74
REMARK SMILES IDX 37 75 43 76 45 77 38 78 39 79 40 80 41 81 42 82 68 83 69 84
REMARK SMILES IDX 78 85 70 86 71 87 77 88 79 89 72 90 73 91 74 92 75 93 76 94
REMARK SMILES IDX 52 95 53 96 62 97 54 98 55 99 61 100 63 101 56 102 57 103
REMARK SMILES IDX 58 104 59 105 60 106
REMARK H PARENT 2 13 84 56 50 67
REMARK Flexibility Score: inf
ROOT
ATOM      1  C   UNL A   1      37.999  34.921  32.124  1.00  0.00     0.188 C 
ENDROOT
BRANCH   1   2
ATOM      2  O   UNL A   1      39.025  34.682  31.174  1.00  0.00    -0.376 OA
BRANCH   2   3
ATOM      3  C   UNL A   1      39.536  33.372  30.996  1.00  0.00     0.202 C 
BRANCH   3   4
ATOM      4  C   UNL A   1      40.886  33.034  31.649  1.00  0.00     0.261 C 
BRANCH   4   5
ATOM      5  O   UNL A   1      41.174  33.626  32.945  1.00  0.00    -0.462 OA
BRANCH   5   6
ATOM      6  C   UNL A   1      40.691  32.939  34.008  1.00  0.00     0.331 C 
ATOM      7  O   UNL A   1      39.574  33.168  34.481  1.00  0.00    -0.250 OA
BRANCH   6   8
ATOM      8  C   UNL A   1      41.560  31.812  34.647  1.00  0.00     0.224 C 
ATOM      9  C   UNL A   1      45.762  27.896  37.435  1.00  0.00     0.332 C 
ATOM     10  N   UNL A   1      45.306  28.542  36.218  1.00  0.00    -0.337 N 
ATOM     11  C   UNL A   1      43.918  28.237  35.891  1.00  0.00     0.267 C 
ATOM     12  C   UNL A   1      45.743  29.927  36.092  1.00  0.00     0.267 C 
ATOM     13  H   UNL A   1      45.803  28.108  35.441  1.00  0.00     0.347 HD
ATOM     14  C   UNL A   1      42.896  29.299  36.227  1.00  0.00     0.120 C 
ATOM     15  C   UNL A   1      44.730  31.016  36.391  1.00  0.00     0.120 C 
ATOM     16  C   UNL A   1      43.317  30.737  35.896  1.00  0.00     0.155 C 
ATOM     17  O   UNL A   1      42.495  31.507  36.821  1.00  0.00    -0.352 OA
ATOM     18  N   UNL A   1      42.934  31.257  34.563  1.00  0.00    -0.293 N 
ATOM     19  C   UNL A   1      41.540  32.269  36.101  1.00  0.00     0.200 C 
BRANCH  18  20
ATOM     20  C   UNL A   1      43.510  31.079  33.310  1.00  0.00     0.256 C 
ATOM     21  O   UNL A   1      43.836  32.055  32.645  1.00  0.00    -0.269 OA
BRANCH  20  22
ATOM     22  C   UNL A   1      43.943  29.794  32.718  1.00  0.00     0.040 A 
ATOM     23  C   UNL A   1      45.297  29.644  32.418  1.00  0.00     0.014 A 
ATOM     24  C   UNL A   1      43.069  28.808  32.261  1.00  0.00     0.014 A 
ATOM     25  C   UNL A   1      45.788  28.425  31.927  1.00  0.00     0.005 A 
ATOM     26  C   UNL A   1      43.566  27.557  31.831  1.00  0.00     0.005 A 
ATOM     27  C   UNL A   1      44.946  27.311  31.751  1.00  0.00    -0.043 A 
BRANCH  27  28
ATOM     28  C   UNL A   1      45.536  25.903  31.523  1.00  0.00    -0.013 C 
ATOM     29  C   UNL A   1      46.792  25.987  30.639  1.00  0.00     0.016 C 
ATOM     30  C   UNL A   1      45.923  25.247  32.874  1.00  0.00     0.016 C 
ATOM     31  C   UNL A   1      44.539  24.921  30.858  1.00  0.00     0.016 C 
ENDBRANCH  27  28
ENDBRANCH  20  22
ENDBRANCH  18  20
ENDBRANCH   6   8
ENDBRANCH   5   6
ENDBRANCH   4   5
ENDBRANCH   3   4
ENDBRANCH   2   3
ENDBRANCH   1   2
BRANCH   1  32
ATOM     32  C   UNL A   1      36.745  34.051  32.145  1.00  0.00     0.188 C 
BRANCH  32  33
ATOM     33  O   UNL A   1      36.726  33.079  33.178  1.00  0.00    -0.376 OA
BRANCH  33  34
ATOM     34  C   UNL A   1      35.871  31.960  32.948  1.00  0.00     0.202 C 
BRANCH  34  35
ATOM     35  C   UNL A   1      35.394  31.974  31.500  1.00  0.00     0.261 C 
BRANCH  35  36
ATOM     36  O   UNL A   1      35.938  30.882  30.734  1.00  0.00    -0.460 OA
BRANCH  36  37
ATOM     37  C   UNL A   1      36.416  31.189  29.504  1.00  0.00     0.338 C 
ATOM     38  O   UNL A   1      35.991  32.047  28.745  1.00  0.00    -0.246 OA
BRANCH  37  39
ATOM     39  C   UNL A   1      37.688  30.454  29.297  1.00  0.00     0.060 A 
ATOM     40  C   UNL A   1      38.471  30.127  30.415  1.00  0.00     0.016 A 
ATOM     41  C   UNL A   1      38.082  30.038  28.024  1.00  0.00     0.016 A 
ATOM     42  C   UNL A   1      39.679  29.443  30.252  1.00  0.00     0.010 A 
ATOM     43  C   UNL A   1      39.290  29.356  27.862  1.00  0.00     0.010 A 
ATOM     44  C   UNL A   1      40.118  29.093  28.969  1.00  0.00    -0.014 A 
BRANCH  44  45
ATOM     45  C   UNL A   1      41.508  28.620  28.735  1.00  0.00     0.031 A 
ATOM     46  C   UNL A   1      42.627  29.627  28.822  1.00  0.00     0.074 A 
ATOM     47  C   UNL A   1      41.781  27.339  28.425  1.00  0.00     0.049 A 
ATOM     48  N   UNL A   1      43.899  29.483  28.561  1.00  0.00    -0.248 NA
ATOM     49  C   UNL A   1      42.253  30.985  29.253  1.00  0.00     0.031 C 
ATOM     50  C   UNL A   1      40.800  26.258  28.340  1.00  0.00     0.029 A 
ATOM     51  N   UNL A   1      42.973  26.734  28.106  1.00  0.00    -0.354 N 
ATOM     52  C   UNL A   1      44.474  30.732  28.771  1.00  0.00     0.074 A 
ATOM     53  C   UNL A   1      43.407  31.627  29.161  1.00  0.00     0.031 C 
ATOM     54  C   UNL A   1      41.428  25.126  27.978  1.00  0.00     0.029 A 
ATOM     55  C   UNL A   1      42.848  25.407  27.768  1.00  0.00     0.049 A 
ATOM     56  H   UNL A   1      43.837  27.208  28.119  1.00  0.00     0.167 HD
ATOM     57  C   UNL A   1      45.772  31.099  28.655  1.00  0.00     0.037 A 
ATOM     58  C   UNL A   1      43.768  24.529  27.314  1.00  0.00     0.037 A 
ATOM     59  C   UNL A   1      46.833  30.203  28.277  1.00  0.00     0.049 A 
ATOM     60  C   UNL A   1      45.199  24.980  27.131  1.00  0.00     0.074 A 
ATOM     61  C   UNL A   1      48.187  30.471  28.174  1.00  0.00     0.029 A 
ATOM     62  N   UNL A   1      46.663  28.872  27.927  1.00  0.00    -0.354 N 
ATOM     63  N   UNL A   1      45.736  26.152  27.375  1.00  0.00    -0.248 NA
ATOM     64  C   UNL A   1      46.149  23.985  26.610  1.00  0.00     0.031 C 
ATOM     65  C   UNL A   1      48.826  29.323  27.699  1.00  0.00     0.029 A 
ATOM     66  C   UNL A   1      47.882  28.316  27.574  1.00  0.00     0.049 A 
ATOM     67  H   UNL A   1      45.802  28.392  27.928  1.00  0.00     0.167 HD
ATOM     68  C   UNL A   1      47.090  26.023  27.075  1.00  0.00     0.074 A 
ATOM     69  C   UNL A   1      47.292  24.657  26.640  1.00  0.00     0.031 C 
ATOM     70  C   UNL A   1      48.078  26.949  27.158  1.00  0.00     0.037 A 
BRANCH  57  71
ATOM     71  C   UNL A   1      46.121  32.540  28.911  1.00  0.00     0.058 A 
ATOM     72  C   UNL A   1      46.622  32.978  30.147  1.00  0.00     0.135 A 
ATOM     73  C   UNL A   1      45.999  33.488  27.882  1.00  0.00     0.135 A 
ATOM     74  F   UNL A   1      46.741  32.119  31.171  1.00  0.00    -0.206 F 
ATOM     75  C   UNL A   1      46.973  34.308  30.359  1.00  0.00     0.059 A 
ATOM     76  C   UNL A   1      46.373  34.817  28.061  1.00  0.00     0.059 A 
ATOM     77  F   UNL A   1      45.522  33.126  26.680  1.00  0.00    -0.206 F 
ATOM     78  C   UNL A   1      46.849  35.220  29.308  1.00  0.00     0.060 A 
BRANCH  78  79
ATOM     79  S   UNL A   1      47.329  36.935  29.596  1.00  0.00     0.124 S 
ATOM     80  O   UNL A   1      46.027  37.583  29.731  1.00  0.00    -0.237 OA
ATOM     81  O   UNL A   1      48.116  36.836  30.820  1.00  0.00    -0.237 OA
ATOM     82  O   UNL A   1      48.081  37.285  28.395  1.00  0.00    -0.744 OA
ENDBRANCH  78  79
ENDBRANCH  57  71
BRANCH  58  83
ATOM     83  C   UNL A   1      43.378  23.129  26.987  1.00  0.00     0.058 A 
ATOM     84  C   UNL A   1      43.000  22.230  27.997  1.00  0.00     0.135 A 
ATOM     85  C   UNL A   1      43.405  22.650  25.668  1.00  0.00     0.135 A 
ATOM     86  F   UNL A   1      42.974  22.633  29.277  1.00  0.00    -0.206 F 
ATOM     87  C   UNL A   1      42.688  20.904  27.716  1.00  0.00     0.059 A 
ATOM     88  C   UNL A   1      43.066  21.335  25.357  1.00  0.00     0.059 A 
ATOM     89  F   UNL A   1      43.754  23.468  24.662  1.00  0.00    -0.206 F 
ATOM     90  C   UNL A   1      42.722  20.466  26.391  1.00  0.00     0.060 A 
BRANCH  90  91
ATOM     91  S   UNL A   1      42.285  18.750  26.037  1.00  0.00     0.124 S 
ATOM     92  O   UNL A   1      43.140  18.458  24.893  1.00  0.00    -0.237 OA
ATOM     93  O   UNL A   1      42.636  18.082  27.286  1.00  0.00    -0.237 OA
ATOM     94  O   UNL A   1      40.854  18.819  25.753  1.00  0.00    -0.744 OA
ENDBRANCH  90  91
ENDBRANCH  58  83
BRANCH  70  95
ATOM     95  C   UNL A   1      49.482  26.514  26.826  1.00  0.00     0.058 A 
ATOM     96  C   UNL A   1      50.369  26.043  27.807  1.00  0.00     0.135 A 
ATOM     97  C   UNL A   1      49.926  26.516  25.493  1.00  0.00     0.135 A 
ATOM     98  F   UNL A   1      50.000  26.021  29.098  1.00  0.00    -0.206 F 
ATOM     99  C   UNL A   1      51.653  25.614  27.482  1.00  0.00     0.059 A 
ATOM    100  C   UNL A   1      51.194  26.062  25.141  1.00  0.00     0.059 A 
ATOM    101  F   UNL A   1      49.117  26.944  24.511  1.00  0.00    -0.206 F 
ATOM    102  C   UNL A   1      52.055  25.625  26.145  1.00  0.00     0.060 A 
BRANCH 102 103
ATOM    103  S   UNL A   1      53.712  25.035  25.734  1.00  0.00     0.124 S 
ATOM    104  O   UNL A   1      54.364  25.052  27.039  1.00  0.00    -0.237 OA
ATOM    105  O   UNL A   1      53.443  23.712  25.177  1.00  0.00    -0.237 OA
ATOM    106  O   UNL A   1      54.199  26.024  24.776  1.00  0.00    -0.744 OA
ENDBRANCH 102 103
ENDBRANCH  70  95
ENDBRANCH  44  45
ENDBRANCH  37  39
ENDBRANCH  36  37
ENDBRANCH  35  36
ENDBRANCH  34  35
ENDBRANCH  33  34
ENDBRANCH  32  33
ENDBRANCH   1  32
TORSDOF 23
ENDMDL
