MODEL 1
REMARK VINA RESULT:     -10.3      0.000      0.000
REMARK SMILES CC1=C(C)C[C@@H](C(=O)OCCOCCOCCOC(=O)c2ccc(-c3c4nc(c(-c5c(F)cc(S(=O)(=O)[O-])cc5F)c5ccc([nH]5)c(-c5c(F)cc(S(=O)(=O)[O-])cc5F)c5nc(c(-c6c(F)cc(S(=O)(=O)[O-])cc6F)c6ccc3[nH]6)C=C5)C=C4)cc2)[C@@H](C(=O)N2CCN(c3cccc(C(F)(F)F)c3)CC2)C1
REMARK SMILES IDX 13 1 12 2 11 3 10 4 9 5 7 6 8 7 6 8 1 9 2 10 3 11 106 12
REMARK SMILES IDX 4 13 5 14 87 15 88 16 89 17 90 18 91 19 105 20 92 21 104 22
REMARK SMILES IDX 93 23 94 24 95 25 103 26 96 27 98 28 97 29 99 30 100 31
REMARK SMILES IDX 101 32 102 33 14 34 15 35 16 36 17 37 18 38 19 39 20 40
REMARK SMILES IDX 21 41 22 42 86 43 23 44 85 45 24 46 25 47 26 48 79 49 27 50
REMARK SMILES IDX 84 51 78 52 80 53 28 54 83 55 77 56 76 57 29 59 63 60 42 61
REMARK SMILES IDX 62 62 43 63 46 64 61 65 81 66 44 67 45 68 60 70 82 71 47 72
REMARK SMILES IDX 30 73 31 74 40 75 32 76 33 77 39 78 41 79 34 80 35 81 36 82
REMARK SMILES IDX 37 83 38 84 64 85 65 86 74 87 66 88 67 89 73 90 75 91 68 92
REMARK SMILES IDX 69 93 70 94 71 95 72 96 48 97 49 98 58 99 50 100 51 101
REMARK SMILES IDX 57 102 59 103 52 104 53 105 54 106 55 107 56 108
REMARK H PARENT 80 58 46 69
REMARK Flexibility Score: inf
ROOT
ATOM      1  C   UNL A   1      34.457  21.045  26.217  1.00  0.00     0.188 C 
ENDROOT
BRANCH   1   2
ATOM      2  O   UNL A   1      34.854  22.227  26.913  1.00  0.00    -0.376 OA
BRANCH   2   3
ATOM      3  C   UNL A   1      33.966  22.801  27.861  1.00  0.00     0.202 C 
BRANCH   3   4
ATOM      4  C   UNL A   1      32.482  22.832  27.458  1.00  0.00     0.261 C 
BRANCH   4   5
ATOM      5  O   UNL A   1      32.148  23.540  26.239  1.00  0.00    -0.463 OA
BRANCH   5   6
ATOM      6  C   UNL A   1      31.057  23.071  25.596  1.00  0.00     0.310 C 
ATOM      7  O   UNL A   1      30.610  21.937  25.762  1.00  0.00    -0.252 OA
BRANCH   6   8
ATOM      8  C   UNL A   1      30.487  23.932  24.480  1.00  0.00     0.116 C 
ATOM      9  C   UNL A   1      33.626  25.977  22.143  1.00  0.00     0.039 C 
ATOM     10  C   UNL A   1      32.465  25.227  22.743  1.00  0.00    -0.074 C 
ATOM     11  C   UNL A   1      32.244  23.903  22.627  1.00  0.00    -0.073 C 
ATOM     12  C   UNL A   1      31.508  26.125  23.484  1.00  0.00     0.045 C 
ATOM     13  C   UNL A   1      33.168  22.920  21.959  1.00  0.00     0.039 C 
ATOM     14  C   UNL A   1      30.972  23.298  23.167  1.00  0.00     0.046 C 
ATOM     15  C   UNL A   1      30.452  25.470  24.408  1.00  0.00     0.097 C 
BRANCH  15  16
ATOM     16  C   UNL A   1      30.469  26.274  25.709  1.00  0.00     0.227 C 
ATOM     17  O   UNL A   1      29.584  26.096  26.550  1.00  0.00    -0.275 OA
ATOM     18  N   UNL A   1      31.584  27.069  26.004  1.00  0.00    -0.339 N 
ATOM     19  C   UNL A   1      31.656  27.582  27.386  1.00  0.00     0.141 C 
ATOM     20  C   UNL A   1      32.354  27.806  24.979  1.00  0.00     0.141 C 
ATOM     21  C   UNL A   1      33.011  28.176  27.792  1.00  0.00     0.138 C 
ATOM     22  C   UNL A   1      33.602  28.604  25.452  1.00  0.00     0.138 C 
ATOM     23  N   UNL A   1      33.406  29.165  26.789  1.00  0.00    -0.368 N 
BRANCH  23  24
ATOM     24  C   UNL A   1      34.236  30.196  27.210  1.00  0.00     0.037 A 
ATOM     25  C   UNL A   1      35.585  30.025  27.522  1.00  0.00     0.026 A 
ATOM     26  C   UNL A   1      33.685  31.468  27.400  1.00  0.00     0.039 A 
ATOM     27  C   UNL A   1      36.351  31.094  28.010  1.00  0.00     0.003 A 
ATOM     28  C   UNL A   1      34.416  32.542  27.932  1.00  0.00     0.058 A 
ATOM     29  C   UNL A   1      35.769  32.346  28.217  1.00  0.00     0.013 A 
BRANCH  28  30
ATOM     30  C   UNL A   1      33.756  33.875  28.180  1.00  0.00     0.416 C 
ATOM     31  F   UNL A   1      33.803  34.262  29.486  1.00  0.00    -0.166 F 
ATOM     32  F   UNL A   1      34.329  34.884  27.469  1.00  0.00    -0.166 F 
ATOM     33  F   UNL A   1      32.433  33.899  27.849  1.00  0.00    -0.166 F 
ENDBRANCH  28  30
ENDBRANCH  23  24
ENDBRANCH  15  16
ENDBRANCH   6   8
ENDBRANCH   5   6
ENDBRANCH   4   5
ENDBRANCH   3   4
ENDBRANCH   2   3
ENDBRANCH   1   2
BRANCH   1  34
ATOM     34  C   UNL A   1      35.117  20.731  24.874  1.00  0.00     0.188 C 
BRANCH  34  35
ATOM     35  O   UNL A   1      35.620  21.908  24.244  1.00  0.00    -0.376 OA
BRANCH  35  36
ATOM     36  C   UNL A   1      36.995  21.819  23.886  1.00  0.00     0.202 C 
BRANCH  36  37
ATOM     37  C   UNL A   1      37.801  21.220  25.039  1.00  0.00     0.261 C 
BRANCH  37  38
ATOM     38  O   UNL A   1      38.108  22.188  26.063  1.00  0.00    -0.460 OA
BRANCH  38  39
ATOM     39  C   UNL A   1      39.405  22.192  26.436  1.00  0.00     0.338 C 
ATOM     40  O   UNL A   1      40.192  21.273  26.303  1.00  0.00    -0.246 OA
BRANCH  39  41
ATOM     41  C   UNL A   1      39.782  23.512  26.973  1.00  0.00     0.060 A 
ATOM     42  C   UNL A   1      39.516  24.660  26.222  1.00  0.00     0.016 A 
ATOM     43  C   UNL A   1      40.594  23.589  28.101  1.00  0.00     0.016 A 
ATOM     44  C   UNL A   1      40.114  25.877  26.559  1.00  0.00     0.010 A 
ATOM     45  C   UNL A   1      41.169  24.814  28.456  1.00  0.00     0.010 A 
ATOM     46  C   UNL A   1      40.955  25.963  27.676  1.00  0.00    -0.014 A 
BRANCH  46  47
ATOM     47  C   UNL A   1      41.619  27.237  28.058  1.00  0.00     0.031 A 
ATOM     48  C   UNL A   1      43.111  27.380  27.938  1.00  0.00     0.074 A 
ATOM     49  C   UNL A   1      40.893  28.249  28.567  1.00  0.00     0.049 A 
ATOM     50  N   UNL A   1      43.910  28.243  28.510  1.00  0.00    -0.248 NA
ATOM     51  C   UNL A   1      43.791  26.432  27.043  1.00  0.00     0.031 C 
ATOM     52  C   UNL A   1      39.432  28.288  28.649  1.00  0.00     0.029 A 
ATOM     53  N   UNL A   1      41.293  29.430  29.145  1.00  0.00    -0.354 N 
ATOM     54  C   UNL A   1      45.192  27.917  28.083  1.00  0.00     0.074 A 
ATOM     55  C   UNL A   1      45.063  26.787  27.186  1.00  0.00     0.031 C 
ATOM     56  C   UNL A   1      39.059  29.418  29.270  1.00  0.00     0.029 A 
ATOM     57  C   UNL A   1      40.254  30.132  29.708  1.00  0.00     0.049 A 
ATOM     58  H   UNL A   1      42.227  29.740  29.156  1.00  0.00     0.167 HD
ATOM     59  C   UNL A   1      46.365  28.504  28.424  1.00  0.00     0.037 A 
ATOM     60  C   UNL A   1      40.260  31.179  30.556  1.00  0.00     0.037 A 
ATOM     61  C   UNL A   1      46.474  29.636  29.310  1.00  0.00     0.049 A 
ATOM     62  C   UNL A   1      41.572  31.739  31.025  1.00  0.00     0.074 A 
ATOM     63  C   UNL A   1      47.616  30.291  29.742  1.00  0.00     0.029 A 
ATOM     64  N   UNL A   1      45.398  30.284  29.898  1.00  0.00    -0.354 N 
ATOM     65  N   UNL A   1      42.788  31.367  30.703  1.00  0.00    -0.248 NA
ATOM     66  C   UNL A   1      41.514  32.839  31.997  1.00  0.00     0.031 C 
ATOM     67  C   UNL A   1      47.229  31.316  30.616  1.00  0.00     0.029 A 
ATOM     68  C   UNL A   1      45.847  31.321  30.699  1.00  0.00     0.049 A 
ATOM     69  H   UNL A   1      44.453  30.042  29.765  1.00  0.00     0.167 HD
ATOM     70  C   UNL A   1      43.641  32.190  31.428  1.00  0.00     0.074 A 
ATOM     71  C   UNL A   1      42.801  33.089  32.195  1.00  0.00     0.031 C 
ATOM     72  C   UNL A   1      44.996  32.200  31.461  1.00  0.00     0.037 A 
BRANCH  59  73
ATOM     73  C   UNL A   1      47.634  27.913  27.877  1.00  0.00     0.058 A 
ATOM     74  C   UNL A   1      48.204  28.363  26.677  1.00  0.00     0.135 A 
ATOM     75  C   UNL A   1      48.323  26.922  28.597  1.00  0.00     0.135 A 
ATOM     76  F   UNL A   1      47.583  29.299  25.941  1.00  0.00    -0.206 F 
ATOM     77  C   UNL A   1      49.406  27.844  26.203  1.00  0.00     0.059 A 
ATOM     78  C   UNL A   1      49.534  26.401  28.152  1.00  0.00     0.059 A 
ATOM     79  F   UNL A   1      47.821  26.457  29.752  1.00  0.00    -0.206 F 
ATOM     80  C   UNL A   1      50.064  26.861  26.948  1.00  0.00     0.060 A 
BRANCH  80  81
ATOM     81  S   UNL A   1      51.628  26.204  26.328  1.00  0.00     0.124 S 
ATOM     82  O   UNL A   1      51.507  26.469  24.898  1.00  0.00    -0.237 OA
ATOM     83  O   UNL A   1      52.614  27.011  27.040  1.00  0.00    -0.237 OA
ATOM     84  O   UNL A   1      51.581  24.796  26.711  1.00  0.00    -0.744 OA
ENDBRANCH  80  81
ENDBRANCH  59  73
BRANCH  60  85
ATOM     85  C   UNL A   1      38.973  31.698  31.087  1.00  0.00     0.058 A 
ATOM     86  C   UNL A   1      38.276  31.011  32.090  1.00  0.00     0.135 A 
ATOM     87  C   UNL A   1      38.436  32.910  30.624  1.00  0.00     0.135 A 
ATOM     88  F   UNL A   1      38.745  29.842  32.552  1.00  0.00    -0.206 F 
ATOM     89  C   UNL A   1      37.089  31.508  32.619  1.00  0.00     0.059 A 
ATOM     90  C   UNL A   1      37.265  33.440  31.155  1.00  0.00     0.059 A 
ATOM     91  F   UNL A   1      39.072  33.606  29.670  1.00  0.00    -0.206 F 
ATOM     92  C   UNL A   1      36.596  32.727  32.149  1.00  0.00     0.060 A 
BRANCH  92  93
ATOM     93  S   UNL A   1      35.096  33.406  32.892  1.00  0.00     0.124 S 
ATOM     94  O   UNL A   1      35.363  33.217  34.312  1.00  0.00    -0.237 OA
ATOM     95  O   UNL A   1      35.111  34.786  32.417  1.00  0.00    -0.237 OA
ATOM     96  O   UNL A   1      34.039  32.570  32.328  1.00  0.00    -0.744 OA
ENDBRANCH  92  93
ENDBRANCH  60  85
BRANCH  72  97
ATOM     97  C   UNL A   1      45.649  33.229  32.336  1.00  0.00     0.058 A 
ATOM     98  C   UNL A   1      45.882  32.988  33.698  1.00  0.00     0.135 A 
ATOM     99  C   UNL A   1      46.059  34.461  31.804  1.00  0.00     0.135 A 
ATOM    100  F   UNL A   1      45.498  31.828  34.256  1.00  0.00    -0.206 F 
ATOM    101  C   UNL A   1      46.482  33.944  34.511  1.00  0.00     0.059 A 
ATOM    102  C   UNL A   1      46.677  35.424  32.594  1.00  0.00     0.059 A 
ATOM    103  F   UNL A   1      45.862  34.735  30.504  1.00  0.00    -0.206 F 
ATOM    104  C   UNL A   1      46.871  35.163  33.950  1.00  0.00     0.060 A 
BRANCH 104 105
ATOM    105  S   UNL A   1      47.662  36.396  35.006  1.00  0.00     0.124 S 
ATOM    106  O   UNL A   1      49.073  36.167  34.715  1.00  0.00    -0.237 OA
ATOM    107  O   UNL A   1      47.106  37.648  34.500  1.00  0.00    -0.237 OA
ATOM    108  O   UNL A   1      47.227  36.021  36.347  1.00  0.00    -0.744 OA
ENDBRANCH 104 105
ENDBRANCH  72  97
ENDBRANCH  46  47
ENDBRANCH  39  41
ENDBRANCH  38  39
ENDBRANCH  37  38
ENDBRANCH  36  37
ENDBRANCH  35  36
ENDBRANCH  34  35
ENDBRANCH   1  34
TORSDOF 23
ENDMDL
MODEL 2
REMARK VINA RESULT:     -10.1      3.621      9.546
REMARK SMILES CC1=C(C)C[C@@H](C(=O)OCCOCCOCCOC(=O)c2ccc(-c3c4nc(c(-c5c(F)cc(S(=O)(=O)[O-])cc5F)c5ccc([nH]5)c(-c5c(F)cc(S(=O)(=O)[O-])cc5F)c5nc(c(-c6c(F)cc(S(=O)(=O)[O-])cc6F)c6ccc3[nH]6)C=C5)C=C4)cc2)[C@@H](C(=O)N2CCN(c3cccc(C(F)(F)F)c3)CC2)C1
REMARK SMILES IDX 13 1 12 2 11 3 10 4 9 5 7 6 8 7 6 8 1 9 2 10 3 11 106 12
REMARK SMILES IDX 4 13 5 14 87 15 88 16 89 17 90 18 91 19 105 20 92 21 104 22
REMARK SMILES IDX 93 23 94 24 95 25 103 26 96 27 98 28 97 29 99 30 100 31
REMARK SMILES IDX 101 32 102 33 14 34 15 35 16 36 17 37 18 38 19 39 20 40
REMARK SMILES IDX 21 41 22 42 86 43 23 44 85 45 24 46 25 47 26 48 79 49 27 50
REMARK SMILES IDX 84 51 78 52 80 53 28 54 83 55 77 56 76 57 29 59 63 60 42 61
REMARK SMILES IDX 62 62 43 63 46 64 61 65 81 66 44 67 45 68 60 70 82 71 47 72
REMARK SMILES IDX 30 73 31 74 40 75 32 76 33 77 39 78 41 79 34 80 35 81 36 82
REMARK SMILES IDX 37 83 38 84 64 85 65 86 74 87 66 88 67 89 73 90 75 91 68 92
REMARK SMILES IDX 69 93 70 94 71 95 72 96 48 97 49 98 58 99 50 100 51 101
REMARK SMILES IDX 57 102 59 103 52 104 53 105 54 106 55 107 56 108
REMARK H PARENT 80 58 46 69
REMARK Flexibility Score: inf
ROOT
ATOM      1  C   UNL A   1      35.956  29.699  27.821  1.00  0.00     0.188 C 
ENDROOT
BRANCH   1   2
ATOM      2  O   UNL A   1      34.709  29.003  27.807  1.00  0.00    -0.376 OA
BRANCH   2   3
ATOM      3  C   UNL A   1      34.135  28.640  26.560  1.00  0.00     0.202 C 
BRANCH   3   4
ATOM      4  C   UNL A   1      33.268  29.714  25.882  1.00  0.00     0.261 C 
BRANCH   4   5
ATOM      5  O   UNL A   1      32.854  29.457  24.517  1.00  0.00    -0.463 OA
BRANCH   5   6
ATOM      6  C   UNL A   1      31.528  29.588  24.296  1.00  0.00     0.310 C 
ATOM      7  O   UNL A   1      30.785  30.250  25.019  1.00  0.00    -0.252 OA
BRANCH   6   8
ATOM      8  C   UNL A   1      30.916  28.713  23.214  1.00  0.00     0.116 C 
ATOM      9  C   UNL A   1      26.506  28.607  23.411  1.00  0.00     0.039 C 
ATOM     10  C   UNL A   1      27.984  28.674  23.124  1.00  0.00    -0.074 C 
ATOM     11  C   UNL A   1      28.647  29.762  22.687  1.00  0.00    -0.073 C 
ATOM     12  C   UNL A   1      28.683  27.357  23.340  1.00  0.00     0.045 C 
ATOM     13  C   UNL A   1      28.051  31.131  22.499  1.00  0.00     0.039 C 
ATOM     14  C   UNL A   1      30.106  29.659  22.313  1.00  0.00     0.046 C 
ATOM     15  C   UNL A   1      30.230  27.345  23.391  1.00  0.00     0.097 C 
BRANCH  15  16
ATOM     16  C   UNL A   1      30.609  26.475  24.591  1.00  0.00     0.227 C 
ATOM     17  O   UNL A   1      30.360  26.867  25.734  1.00  0.00    -0.275 OA
ATOM     18  N   UNL A   1      31.072  25.172  24.368  1.00  0.00    -0.339 N 
ATOM     19  C   UNL A   1      31.144  24.306  25.560  1.00  0.00     0.141 C 
ATOM     20  C   UNL A   1      31.921  24.794  23.217  1.00  0.00     0.141 C 
ATOM     21  C   UNL A   1      31.343  22.813  25.272  1.00  0.00     0.138 C 
ATOM     22  C   UNL A   1      32.311  23.295  23.073  1.00  0.00     0.138 C 
ATOM     23  N   UNL A   1      32.490  22.658  24.378  1.00  0.00    -0.368 N 
BRANCH  23  24
ATOM     24  C   UNL A   1      33.189  21.461  24.447  1.00  0.00     0.037 A 
ATOM     25  C   UNL A   1      32.577  20.208  24.482  1.00  0.00     0.026 A 
ATOM     26  C   UNL A   1      34.584  21.501  24.556  1.00  0.00     0.039 A 
ATOM     27  C   UNL A   1      33.339  19.039  24.624  1.00  0.00     0.003 A 
ATOM     28  C   UNL A   1      35.366  20.351  24.748  1.00  0.00     0.058 A 
ATOM     29  C   UNL A   1      34.727  19.110  24.759  1.00  0.00     0.013 A 
BRANCH  28  30
ATOM     30  C   UNL A   1      36.860  20.457  24.927  1.00  0.00     0.416 C 
ATOM     31  F   UNL A   1      37.427  21.420  24.147  1.00  0.00    -0.166 F 
ATOM     32  F   UNL A   1      37.214  20.753  26.207  1.00  0.00    -0.166 F 
ATOM     33  F   UNL A   1      37.529  19.309  24.618  1.00  0.00    -0.166 F 
ENDBRANCH  28  30
ENDBRANCH  23  24
ENDBRANCH  15  16
ENDBRANCH   6   8
ENDBRANCH   5   6
ENDBRANCH   4   5
ENDBRANCH   3   4
ENDBRANCH   2   3
ENDBRANCH   1   2
BRANCH   1  34
ATOM     34  C   UNL A   1      35.945  31.214  28.031  1.00  0.00     0.188 C 
BRANCH  34  35
ATOM     35  O   UNL A   1      34.933  31.612  28.954  1.00  0.00    -0.376 OA
BRANCH  35  36
ATOM     36  C   UNL A   1      35.448  32.174  30.157  1.00  0.00     0.202 C 
BRANCH  36  37
ATOM     37  C   UNL A   1      36.761  31.489  30.537  1.00  0.00     0.261 C 
BRANCH  37  38
ATOM     38  O   UNL A   1      37.312  31.992  31.771  1.00  0.00    -0.460 OA
BRANCH  38  39
ATOM     39  C   UNL A   1      38.160  33.028  31.604  1.00  0.00     0.338 C 
ATOM     40  O   UNL A   1      37.862  34.209  31.614  1.00  0.00    -0.246 OA
BRANCH  39  41
ATOM     41  C   UNL A   1      39.547  32.543  31.479  1.00  0.00     0.060 A 
ATOM     42  C   UNL A   1      40.224  32.702  30.268  1.00  0.00     0.016 A 
ATOM     43  C   UNL A   1      40.085  31.736  32.479  1.00  0.00     0.016 A 
ATOM     44  C   UNL A   1      41.409  32.004  30.026  1.00  0.00     0.010 A 
ATOM     45  C   UNL A   1      41.288  31.061  32.247  1.00  0.00     0.010 A 
ATOM     46  C   UNL A   1      41.949  31.167  31.011  1.00  0.00    -0.014 A 
BRANCH  46  47
ATOM     47  C   UNL A   1      43.201  30.399  30.785  1.00  0.00     0.031 A 
ATOM     48  C   UNL A   1      44.539  31.063  30.953  1.00  0.00     0.074 A 
ATOM     49  C   UNL A   1      43.140  29.119  30.374  1.00  0.00     0.049 A 
ATOM     50  N   UNL A   1      45.709  30.698  30.495  1.00  0.00    -0.248 NA
ATOM     51  C   UNL A   1      44.564  32.297  31.753  1.00  0.00     0.031 C 
ATOM     52  C   UNL A   1      41.919  28.320  30.264  1.00  0.00     0.029 A 
ATOM     53  N   UNL A   1      44.133  28.276  29.936  1.00  0.00    -0.354 N 
ATOM     54  C   UNL A   1      46.604  31.677  30.912  1.00  0.00     0.074 A 
ATOM     55  C   UNL A   1      45.844  32.644  31.677  1.00  0.00     0.031 C 
ATOM     56  C   UNL A   1      42.230  27.114  29.763  1.00  0.00     0.029 A 
ATOM     57  C   UNL A   1      43.650  27.092  29.431  1.00  0.00     0.049 A 
ATOM     58  H   UNL A   1      45.091  28.498  29.980  1.00  0.00     0.167 HD
ATOM     59  C   UNL A   1      47.933  31.760  30.662  1.00  0.00     0.037 A 
ATOM     60  C   UNL A   1      44.258  26.136  28.703  1.00  0.00     0.037 A 
ATOM     61  C   UNL A   1      48.676  30.782  29.908  1.00  0.00     0.049 A 
ATOM     62  C   UNL A   1      45.703  26.304  28.326  1.00  0.00     0.074 A 
ATOM     63  C   UNL A   1      50.021  30.783  29.575  1.00  0.00     0.029 A 
ATOM     64  N   UNL A   1      48.135  29.623  29.370  1.00  0.00    -0.354 N 
ATOM     65  N   UNL A   1      46.525  27.279  28.632  1.00  0.00    -0.248 NA
ATOM     66  C   UNL A   1      46.293  25.259  27.478  1.00  0.00     0.031 C 
ATOM     67  C   UNL A   1      50.284  29.640  28.810  1.00  0.00     0.029 A 
ATOM     68  C   UNL A   1      49.113  28.909  28.698  1.00  0.00     0.049 A 
ATOM     69  H   UNL A   1      47.193  29.349  29.456  1.00  0.00     0.167 HD
ATOM     70  C   UNL A   1      47.732  26.964  28.020  1.00  0.00     0.074 A 
ATOM     71  C   UNL A   1      47.536  25.700  27.337  1.00  0.00     0.031 C 
ATOM     72  C   UNL A   1      48.897  27.658  28.018  1.00  0.00     0.037 A 
BRANCH  59  73
ATOM     73  C   UNL A   1      48.671  32.968  31.169  1.00  0.00     0.058 A 
ATOM     74  C   UNL A   1      48.684  34.179  30.461  1.00  0.00     0.135 A 
ATOM     75  C   UNL A   1      49.323  32.930  32.413  1.00  0.00     0.135 A 
ATOM     76  F   UNL A   1      48.089  34.269  29.261  1.00  0.00    -0.206 F 
ATOM     77  C   UNL A   1      49.329  35.307  30.963  1.00  0.00     0.059 A 
ATOM     78  C   UNL A   1      49.958  34.049  32.943  1.00  0.00     0.059 A 
ATOM     79  F   UNL A   1      49.338  31.796  33.132  1.00  0.00    -0.206 F 
ATOM     80  C   UNL A   1      49.964  35.232  32.206  1.00  0.00     0.060 A 
BRANCH  80  81
ATOM     81  S   UNL A   1      50.787  36.705  32.849  1.00  0.00     0.124 S 
ATOM     82  O   UNL A   1      52.189  36.302  32.795  1.00  0.00    -0.237 OA
ATOM     83  O   UNL A   1      50.386  37.733  31.893  1.00  0.00    -0.237 OA
ATOM     84  O   UNL A   1      50.228  36.849  34.190  1.00  0.00    -0.744 OA
ENDBRANCH  80  81
ENDBRANCH  59  73
BRANCH  60  85
ATOM     85  C   UNL A   1      43.468  24.982  28.203  1.00  0.00     0.058 A 
ATOM     86  C   UNL A   1      43.274  23.842  28.994  1.00  0.00     0.135 A 
ATOM     87  C   UNL A   1      42.863  25.014  26.936  1.00  0.00     0.135 A 
ATOM     88  F   UNL A   1      43.844  23.762  30.206  1.00  0.00    -0.206 F 
ATOM     89  C   UNL A   1      42.505  22.772  28.549  1.00  0.00     0.059 A 
ATOM     90  C   UNL A   1      42.069  23.969  26.479  1.00  0.00     0.059 A 
ATOM     91  F   UNL A   1      43.015  26.088  26.146  1.00  0.00    -0.206 F 
ATOM     92  C   UNL A   1      41.901  22.848  27.292  1.00  0.00     0.060 A 
BRANCH  92  93
ATOM     93  S   UNL A   1      40.842  21.490  26.749  1.00  0.00     0.124 S 
ATOM     94  O   UNL A   1      40.699  20.722  27.979  1.00  0.00    -0.237 OA
ATOM     95  O   UNL A   1      39.647  22.192  26.291  1.00  0.00    -0.237 OA
ATOM     96  O   UNL A   1      41.629  20.857  25.694  1.00  0.00    -0.744 OA
ENDBRANCH  92  93
ENDBRANCH  60  85
BRANCH  72  97
ATOM     97  C   UNL A   1      50.049  27.051  27.274  1.00  0.00     0.058 A 
ATOM     98  C   UNL A   1      50.307  27.375  25.934  1.00  0.00     0.135 A 
ATOM     99  C   UNL A   1      50.913  26.148  27.913  1.00  0.00     0.135 A 
ATOM    100  F   UNL A   1      49.502  28.225  25.277  1.00  0.00    -0.206 F 
ATOM    101  C   UNL A   1      51.373  26.808  25.243  1.00  0.00     0.059 A 
ATOM    102  C   UNL A   1      51.996  25.583  27.247  1.00  0.00     0.059 A 
ATOM    103  F   UNL A   1      50.711  25.812  29.197  1.00  0.00    -0.206 F 
ATOM    104  C   UNL A   1      52.209  25.908  25.908  1.00  0.00     0.060 A 
BRANCH 104 105
ATOM    105  S   UNL A   1      53.600  25.185  25.011  1.00  0.00     0.124 S 
ATOM    106  O   UNL A   1      53.400  23.761  25.260  1.00  0.00    -0.237 OA
ATOM    107  O   UNL A   1      53.357  25.627  23.640  1.00  0.00    -0.237 OA
ATOM    108  O   UNL A   1      54.765  25.779  25.656  1.00  0.00    -0.744 OA
ENDBRANCH 104 105
ENDBRANCH  72  97
ENDBRANCH  46  47
ENDBRANCH  39  41
ENDBRANCH  38  39
ENDBRANCH  37  38
ENDBRANCH  36  37
ENDBRANCH  35  36
ENDBRANCH  34  35
ENDBRANCH   1  34
TORSDOF 23
ENDMDL
MODEL 3
REMARK VINA RESULT:     -10.1      4.130      5.536
REMARK SMILES CC1=C(C)C[C@@H](C(=O)OCCOCCOCCOC(=O)c2ccc(-c3c4nc(c(-c5c(F)cc(S(=O)(=O)[O-])cc5F)c5ccc([nH]5)c(-c5c(F)cc(S(=O)(=O)[O-])cc5F)c5nc(c(-c6c(F)cc(S(=O)(=O)[O-])cc6F)c6ccc3[nH]6)C=C5)C=C4)cc2)[C@@H](C(=O)N2CCN(c3cccc(C(F)(F)F)c3)CC2)C1
REMARK SMILES IDX 13 1 12 2 11 3 10 4 9 5 7 6 8 7 6 8 1 9 2 10 3 11 106 12
REMARK SMILES IDX 4 13 5 14 87 15 88 16 89 17 90 18 91 19 105 20 92 21 104 22
REMARK SMILES IDX 93 23 94 24 95 25 103 26 96 27 98 28 97 29 99 30 100 31
REMARK SMILES IDX 101 32 102 33 14 34 15 35 16 36 17 37 18 38 19 39 20 40
REMARK SMILES IDX 21 41 22 42 86 43 23 44 85 45 24 46 25 47 26 48 79 49 27 50
REMARK SMILES IDX 84 51 78 52 80 53 28 54 83 55 77 56 76 57 29 59 63 60 42 61
REMARK SMILES IDX 62 62 43 63 46 64 61 65 81 66 44 67 45 68 60 70 82 71 47 72
REMARK SMILES IDX 30 73 31 74 40 75 32 76 33 77 39 78 41 79 34 80 35 81 36 82
REMARK SMILES IDX 37 83 38 84 64 85 65 86 74 87 66 88 67 89 73 90 75 91 68 92
REMARK SMILES IDX 69 93 70 94 71 95 72 96 48 97 49 98 58 99 50 100 51 101
REMARK SMILES IDX 57 102 59 103 52 104 53 105 54 106 55 107 56 108
REMARK H PARENT 80 58 46 69
REMARK Flexibility Score: inf
ROOT
ATOM      1  C   UNL A   1      40.123  19.674  26.162  1.00  0.00     0.188 C 
ENDROOT
BRANCH   1   2
ATOM      2  O   UNL A   1      39.415  19.348  24.965  1.00  0.00    -0.376 OA
BRANCH   2   3
ATOM      3  C   UNL A   1      38.002  19.206  25.015  1.00  0.00     0.202 C 
BRANCH   3   4
ATOM      4  C   UNL A   1      37.196  20.515  25.023  1.00  0.00     0.261 C 
BRANCH   4   5
ATOM      5  O   UNL A   1      35.786  20.418  24.701  1.00  0.00    -0.463 OA
BRANCH   5   6
ATOM      6  C   UNL A   1      34.967  21.060  25.561  1.00  0.00     0.310 C 
ATOM      7  O   UNL A   1      35.372  21.701  26.531  1.00  0.00    -0.252 OA
BRANCH   6   8
ATOM      8  C   UNL A   1      33.475  20.806  25.418  1.00  0.00     0.116 C 
ATOM      9  C   UNL A   1      32.523  18.178  21.999  1.00  0.00     0.039 C 
ATOM     10  C   UNL A   1      32.706  18.947  23.282  1.00  0.00    -0.074 C 
ATOM     11  C   UNL A   1      33.272  18.469  24.407  1.00  0.00    -0.073 C 
ATOM     12  C   UNL A   1      32.146  20.344  23.213  1.00  0.00     0.045 C 
ATOM     13  C   UNL A   1      33.911  17.114  24.556  1.00  0.00     0.039 C 
ATOM     14  C   UNL A   1      33.276  19.302  25.666  1.00  0.00     0.046 C 
ATOM     15  C   UNL A   1      32.533  21.347  24.327  1.00  0.00     0.097 C 
BRANCH  15  16
ATOM     16  C   UNL A   1      32.894  22.653  23.616  1.00  0.00     0.227 C 
ATOM     17  O   UNL A   1      33.289  22.624  22.447  1.00  0.00    -0.275 OA
ATOM     18  N   UNL A   1      32.604  23.871  24.241  1.00  0.00    -0.339 N 
ATOM     19  C   UNL A   1      32.714  25.070  23.388  1.00  0.00     0.141 C 
ATOM     20  C   UNL A   1      32.700  24.082  25.702  1.00  0.00     0.141 C 
ATOM     21  C   UNL A   1      32.100  26.348  23.973  1.00  0.00     0.138 C 
ATOM     22  C   UNL A   1      32.292  25.477  26.255  1.00  0.00     0.138 C 
ATOM     23  N   UNL A   1      32.634  26.549  25.320  1.00  0.00    -0.368 N 
BRANCH  23  24
ATOM     24  C   UNL A   1      32.691  27.854  25.790  1.00  0.00     0.037 A 
ATOM     25  C   UNL A   1      31.706  28.810  25.540  1.00  0.00     0.026 A 
ATOM     26  C   UNL A   1      33.826  28.265  26.499  1.00  0.00     0.039 A 
ATOM     27  C   UNL A   1      31.860  30.132  25.984  1.00  0.00     0.003 A 
ATOM     28  C   UNL A   1      34.026  29.591  26.912  1.00  0.00     0.058 A 
ATOM     29  C   UNL A   1      33.015  30.521  26.665  1.00  0.00     0.013 A 
BRANCH  28  30
ATOM     30  C   UNL A   1      35.298  29.995  27.614  1.00  0.00     0.416 C 
ATOM     31  F   UNL A   1      35.500  29.327  28.785  1.00  0.00    -0.166 F 
ATOM     32  F   UNL A   1      36.407  29.773  26.857  1.00  0.00    -0.166 F 
ATOM     33  F   UNL A   1      35.341  31.317  27.948  1.00  0.00    -0.166 F 
ENDBRANCH  28  30
ENDBRANCH  23  24
ENDBRANCH  15  16
ENDBRANCH   6   8
ENDBRANCH   5   6
ENDBRANCH   4   5
ENDBRANCH   3   4
ENDBRANCH   2   3
ENDBRANCH   1   2
BRANCH   1  34
ATOM     34  C   UNL A   1      41.588  19.252  26.282  1.00  0.00     0.188 C 
BRANCH  34  35
ATOM     35  O   UNL A   1      42.333  19.587  25.112  1.00  0.00    -0.376 OA
BRANCH  35  36
ATOM     36  C   UNL A   1      43.710  19.235  25.194  1.00  0.00     0.202 C 
BRANCH  36  37
ATOM     37  C   UNL A   1      44.581  20.409  24.744  1.00  0.00     0.261 C 
BRANCH  37  38
ATOM     38  O   UNL A   1      43.881  21.668  24.789  1.00  0.00    -0.460 OA
BRANCH  38  39
ATOM     39  C   UNL A   1      44.668  22.736  24.536  1.00  0.00     0.338 C 
ATOM     40  O   UNL A   1      45.278  22.949  23.504  1.00  0.00    -0.246 OA
BRANCH  39  41
ATOM     41  C   UNL A   1      44.639  23.677  25.671  1.00  0.00     0.060 A 
ATOM     42  C   UNL A   1      45.096  24.985  25.491  1.00  0.00     0.016 A 
ATOM     43  C   UNL A   1      44.376  23.200  26.952  1.00  0.00     0.016 A 
ATOM     44  C   UNL A   1      45.355  25.799  26.595  1.00  0.00     0.010 A 
ATOM     45  C   UNL A   1      44.606  24.027  28.057  1.00  0.00     0.010 A 
ATOM     46  C   UNL A   1      45.120  25.324  27.892  1.00  0.00    -0.014 A 
BRANCH  46  47
ATOM     47  C   UNL A   1      45.396  26.157  29.092  1.00  0.00     0.031 A 
ATOM     48  C   UNL A   1      46.688  26.000  29.844  1.00  0.00     0.074 A 
ATOM     49  C   UNL A   1      44.464  27.017  29.543  1.00  0.00     0.049 A 
ATOM     50  N   UNL A   1      46.986  26.361  31.065  1.00  0.00    -0.248 NA
ATOM     51  C   UNL A   1      47.796  25.360  29.118  1.00  0.00     0.031 C 
ATOM     52  C   UNL A   1      43.211  27.344  28.862  1.00  0.00     0.029 A 
ATOM     53  N   UNL A   1      44.415  27.748  30.706  1.00  0.00    -0.354 N 
ATOM     54  C   UNL A   1      48.300  25.955  31.273  1.00  0.00     0.074 A 
ATOM     55  C   UNL A   1      48.749  25.336  30.043  1.00  0.00     0.031 C 
ATOM     56  C   UNL A   1      42.503  28.186  29.631  1.00  0.00     0.029 A 
ATOM     57  C   UNL A   1      43.210  28.381  30.893  1.00  0.00     0.049 A 
ATOM     58  H   UNL A   1      45.167  27.811  31.339  1.00  0.00     0.167 HD
ATOM     59  C   UNL A   1      49.049  26.080  32.395  1.00  0.00     0.037 A 
ATOM     60  C   UNL A   1      42.690  28.973  31.985  1.00  0.00     0.037 A 
ATOM     61  C   UNL A   1      48.589  26.711  33.607  1.00  0.00     0.049 A 
ATOM     62  C   UNL A   1      43.483  28.992  33.261  1.00  0.00     0.074 A 
ATOM     63  C   UNL A   1      49.258  26.867  34.810  1.00  0.00     0.029 A 
ATOM     64  N   UNL A   1      47.340  27.293  33.769  1.00  0.00    -0.354 N 
ATOM     65  N   UNL A   1      44.685  28.518  33.489  1.00  0.00    -0.248 NA
ATOM     66  C   UNL A   1      42.838  29.596  34.434  1.00  0.00     0.031 C 
ATOM     67  C   UNL A   1      48.401  27.517  35.707  1.00  0.00     0.029 A 
ATOM     68  C   UNL A   1      47.213  27.797  35.053  1.00  0.00     0.049 A 
ATOM     69  H   UNL A   1      46.646  27.341  33.072  1.00  0.00     0.167 HD
ATOM     70  C   UNL A   1      44.944  28.772  34.831  1.00  0.00     0.074 A 
ATOM     71  C   UNL A   1      43.778  29.453  35.359  1.00  0.00     0.031 C 
ATOM     72  C   UNL A   1      46.043  28.465  35.562  1.00  0.00     0.037 A 
BRANCH  59  73
ATOM     73  C   UNL A   1      50.431  25.489  32.389  1.00  0.00     0.058 A 
ATOM     74  C   UNL A   1      51.560  26.249  32.049  1.00  0.00     0.135 A 
ATOM     75  C   UNL A   1      50.634  24.157  32.789  1.00  0.00     0.135 A 
ATOM     76  F   UNL A   1      51.423  27.522  31.647  1.00  0.00    -0.206 F 
ATOM     77  C   UNL A   1      52.842  25.706  32.094  1.00  0.00     0.059 A 
ATOM     78  C   UNL A   1      51.907  23.599  32.858  1.00  0.00     0.059 A 
ATOM     79  F   UNL A   1      49.587  23.388  33.125  1.00  0.00    -0.206 F 
ATOM     80  C   UNL A   1      53.005  24.378  32.499  1.00  0.00     0.060 A 
BRANCH  80  81
ATOM     81  S   UNL A   1      54.674  23.690  32.563  1.00  0.00     0.124 S 
ATOM     82  O   UNL A   1      55.205  24.329  33.763  1.00  0.00    -0.237 OA
ATOM     83  O   UNL A   1      54.420  22.257  32.669  1.00  0.00    -0.237 OA
ATOM     84  O   UNL A   1      55.270  24.126  31.304  1.00  0.00    -0.744 OA
ENDBRANCH  80  81
ENDBRANCH  59  73
BRANCH  60  85
ATOM     85  C   UNL A   1      41.306  29.510  31.939  1.00  0.00     0.058 A 
ATOM     86  C   UNL A   1      40.213  28.725  32.327  1.00  0.00     0.135 A 
ATOM     87  C   UNL A   1      41.056  30.832  31.535  1.00  0.00     0.135 A 
ATOM     88  F   UNL A   1      40.402  27.452  32.705  1.00  0.00    -0.206 F 
ATOM     89  C   UNL A   1      38.917  29.231  32.320  1.00  0.00     0.059 A 
ATOM     90  C   UNL A   1      39.774  31.369  31.545  1.00  0.00     0.059 A 
ATOM     91  F   UNL A   1      42.073  31.624  31.162  1.00  0.00    -0.206 F 
ATOM     92  C   UNL A   1      38.709  30.557  31.934  1.00  0.00     0.060 A 
BRANCH  92  93
ATOM     93  S   UNL A   1      37.036  31.233  32.000  1.00  0.00     0.124 S 
ATOM     94  O   UNL A   1      36.279  30.090  32.497  1.00  0.00    -0.237 OA
ATOM     95  O   UNL A   1      37.188  32.350  32.926  1.00  0.00    -0.237 OA
ATOM     96  O   UNL A   1      36.776  31.611  30.613  1.00  0.00    -0.744 OA
ENDBRANCH  92  93
ENDBRANCH  60  85
BRANCH  72  97
ATOM     97  C   UNL A   1      46.042  28.886  37.002  1.00  0.00     0.058 A 
ATOM     98  C   UNL A   1      45.616  28.017  38.018  1.00  0.00     0.135 A 
ATOM     99  C   UNL A   1      46.486  30.165  37.370  1.00  0.00     0.135 A 
ATOM    100  F   UNL A   1      45.172  26.787  37.714  1.00  0.00    -0.206 F 
ATOM    101  C   UNL A   1      45.610  28.410  39.353  1.00  0.00     0.059 A 
ATOM    102  C   UNL A   1      46.506  30.573  38.701  1.00  0.00     0.059 A 
ATOM    103  F   UNL A   1      46.909  31.030  36.435  1.00  0.00    -0.206 F 
ATOM    104  C   UNL A   1      46.052  29.693  39.683  1.00  0.00     0.060 A 
BRANCH 104 105
ATOM    105  S   UNL A   1      46.056  30.194  41.418  1.00  0.00     0.124 S 
ATOM    106  O   UNL A   1      45.371  29.070  42.048  1.00  0.00    -0.237 OA
ATOM    107  O   UNL A   1      47.482  30.311  41.710  1.00  0.00    -0.237 OA
ATOM    108  O   UNL A   1      45.319  31.453  41.408  1.00  0.00    -0.744 OA
ENDBRANCH 104 105
ENDBRANCH  72  97
ENDBRANCH  46  47
ENDBRANCH  39  41
ENDBRANCH  38  39
ENDBRANCH  37  38
ENDBRANCH  36  37
ENDBRANCH  35  36
ENDBRANCH  34  35
ENDBRANCH   1  34
TORSDOF 23
ENDMDL
