MODEL 1
REMARK VINA RESULT:      -9.2      0.000      0.000
REMARK SMILES O=C(Nc1ccc(Br)cc1)Nc1ccc(CC(=O)OCCOCCOCCOC(=O)c2ccc(-c3c4nc(c(-c5c(F)cc(S(=O)(=O)[O-])cc5F)c5ccc([nH]5)c(-c5c(F)cc(S(=O)(=O)[O-])cc5F)c5nc(c(-c6c(F)cc(S(=O)(=O)[O-])cc6F)c6ccc3[nH]6)C=C5)C=C4)cc2)cc1
REMARK SMILES IDX 23 1 22 2 21 3 20 4 19 5 17 6 18 7 16 8 15 9 12 10 13 11
REMARK SMILES IDX 98 12 14 13 97 14 11 15 1 16 2 17 3 18 4 21 5 22 10 23 6 24
REMARK SMILES IDX 9 25 7 26 8 27 24 28 25 29 26 30 27 31 28 32 29 33 30 34
REMARK SMILES IDX 31 35 32 36 96 37 33 38 95 39 34 40 35 41 36 42 89 43 37 44
REMARK SMILES IDX 94 45 88 46 90 47 38 48 93 49 87 50 86 51 39 53 73 54 52 55
REMARK SMILES IDX 72 56 53 57 56 58 71 59 91 60 54 61 55 62 70 64 92 65 57 66
REMARK SMILES IDX 40 67 41 68 50 69 42 70 43 71 49 72 51 73 44 74 45 75 46 76
REMARK SMILES IDX 47 77 48 78 74 79 75 80 84 81 76 82 77 83 83 84 85 85 78 86
REMARK SMILES IDX 79 87 80 88 81 89 82 90 58 91 59 92 68 93 60 94 61 95 67 96
REMARK SMILES IDX 69 97 62 98 63 99 64 100 65 101 66 102
REMARK H PARENT 3 19 11 20 90 52 56 63
REMARK Flexibility Score: inf
ROOT
ATOM      1  C   UNL A   1      50.081  27.371  26.173  1.00  0.00     0.188 C 
ENDROOT
BRANCH   1   2
ATOM      2  O   UNL A   1      49.519  27.377  27.480  1.00  0.00    -0.376 OA
BRANCH   2   3
ATOM      3  C   UNL A   1      48.864  26.208  27.943  1.00  0.00     0.202 C 
BRANCH   3   4
ATOM      4  C   UNL A   1      47.435  26.386  28.474  1.00  0.00     0.261 C 
BRANCH   4   5
ATOM      5  O   UNL A   1      46.857  25.216  29.105  1.00  0.00    -0.463 OA
BRANCH   5   6
ATOM      6  C   UNL A   1      45.562  24.955  28.808  1.00  0.00     0.310 C 
ATOM      7  O   UNL A   1      44.627  25.643  29.215  1.00  0.00    -0.252 OA
BRANCH   6   8
ATOM      8  C   UNL A   1      45.276  23.742  27.941  1.00  0.00     0.158 C 
BRANCH   8   9
ATOM      9  C   UNL A   1      43.882  23.233  27.615  1.00  0.00    -0.037 A 
ATOM     10  C   UNL A   1      41.177  22.627  26.954  1.00  0.00     0.042 A 
ATOM     11  C   UNL A   1      42.147  22.739  25.956  1.00  0.00     0.026 A 
ATOM     12  C   UNL A   1      41.566  22.799  28.283  1.00  0.00     0.026 A 
ATOM     13  C   UNL A   1      43.468  23.091  26.283  1.00  0.00     0.006 A 
ATOM     14  C   UNL A   1      42.910  23.068  28.612  1.00  0.00     0.006 A 
BRANCH  10  15
ATOM     15  N   UNL A   1      39.848  22.364  26.558  1.00  0.00    -0.308 N 
ATOM     16  O   UNL A   1      40.005  20.103  26.082  1.00  0.00    -0.248 OA
ATOM     17  C   UNL A   1      39.368  21.153  26.112  1.00  0.00     0.323 C 
ATOM     18  N   UNL A   1      38.014  21.122  25.865  1.00  0.00    -0.308 N 
ATOM     19  H   UNL A   1      37.566  20.279  26.102  1.00  0.00     0.171 HD
ATOM     20  H   UNL A   1      39.208  23.111  26.606  1.00  0.00     0.171 HD
BRANCH  18  21
ATOM     21  C   UNL A   1      37.176  22.113  25.328  1.00  0.00     0.042 A 
ATOM     22  C   UNL A   1      36.974  22.251  23.952  1.00  0.00     0.027 A 
ATOM     23  C   UNL A   1      36.444  22.916  26.212  1.00  0.00     0.027 A 
ATOM     24  C   UNL A   1      36.059  23.189  23.464  1.00  0.00     0.018 A 
ATOM     25  C   UNL A   1      35.554  23.879  25.724  1.00  0.00     0.018 A 
ATOM     26  C   UNL A   1      35.361  24.007  24.351  1.00  0.00     0.018 A 
ATOM     27  Br  UNL A   1      34.133  25.281  23.687  1.00  0.00    -0.051 Br
ENDBRANCH  18  21
ENDBRANCH  10  15
ENDBRANCH   8   9
ENDBRANCH   6   8
ENDBRANCH   5   6
ENDBRANCH   4   5
ENDBRANCH   3   4
ENDBRANCH   2   3
ENDBRANCH   1   2
BRANCH   1  28
ATOM     28  C   UNL A   1      49.214  26.925  24.984  1.00  0.00     0.188 C 
BRANCH  28  29
ATOM     29  O   UNL A   1      47.902  27.459  25.031  1.00  0.00    -0.376 OA
BRANCH  29  30
ATOM     30  C   UNL A   1      46.875  26.506  24.837  1.00  0.00     0.202 C 
BRANCH  30  31
ATOM     31  C   UNL A   1      45.503  27.148  25.043  1.00  0.00     0.261 C 
BRANCH  31  32
ATOM     32  O   UNL A   1      44.579  26.394  25.851  1.00  0.00    -0.460 OA
BRANCH  32  33
ATOM     33  C   UNL A   1      43.258  26.565  25.634  1.00  0.00     0.338 C 
ATOM     34  O   UNL A   1      42.604  26.131  24.695  1.00  0.00    -0.246 OA
BRANCH  33  35
ATOM     35  C   UNL A   1      42.687  27.238  26.820  1.00  0.00     0.060 A 
ATOM     36  C   UNL A   1      43.038  28.562  27.116  1.00  0.00     0.016 A 
ATOM     37  C   UNL A   1      41.804  26.545  27.648  1.00  0.00     0.016 A 
ATOM     38  C   UNL A   1      42.524  29.192  28.255  1.00  0.00     0.010 A 
ATOM     39  C   UNL A   1      41.307  27.166  28.794  1.00  0.00     0.010 A 
ATOM     40  C   UNL A   1      41.682  28.482  29.121  1.00  0.00    -0.014 A 
BRANCH  40  41
ATOM     41  C   UNL A   1      41.324  28.998  30.467  1.00  0.00     0.031 A 
ATOM     42  C   UNL A   1      40.159  29.944  30.570  1.00  0.00     0.074 A 
ATOM     43  C   UNL A   1      42.052  28.703  31.560  1.00  0.00     0.049 A 
ATOM     44  N   UNL A   1      39.798  30.719  31.557  1.00  0.00    -0.248 NA
ATOM     45  C   UNL A   1      39.295  30.034  29.382  1.00  0.00     0.031 C 
ATOM     46  C   UNL A   1      43.154  27.747  31.612  1.00  0.00     0.029 A 
ATOM     47  N   UNL A   1      41.984  29.212  32.834  1.00  0.00    -0.354 N 
ATOM     48  C   UNL A   1      38.682  31.412  31.101  1.00  0.00     0.074 A 
ATOM     49  C   UNL A   1      38.442  30.981  29.741  1.00  0.00     0.031 C 
ATOM     50  C   UNL A   1      43.677  27.754  32.851  1.00  0.00     0.029 A 
ATOM     51  C   UNL A   1      42.986  28.759  33.659  1.00  0.00     0.049 A 
ATOM     52  H   UNL A   1      41.287  29.842  33.127  1.00  0.00     0.167 HD
ATOM     53  C   UNL A   1      37.928  32.326  31.756  1.00  0.00     0.037 A 
ATOM     54  C   UNL A   1      43.331  29.144  34.905  1.00  0.00     0.037 A 
ATOM     55  C   UNL A   1      38.185  32.756  33.106  1.00  0.00     0.049 A 
ATOM     56  C   UNL A   1      42.549  30.245  35.584  1.00  0.00     0.074 A 
ATOM     57  C   UNL A   1      37.493  33.685  33.862  1.00  0.00     0.029 A 
ATOM     58  N   UNL A   1      39.224  32.288  33.900  1.00  0.00    -0.354 N 
ATOM     59  N   UNL A   1      41.512  30.915  35.140  1.00  0.00    -0.248 NA
ATOM     60  C   UNL A   1      42.991  30.649  36.927  1.00  0.00     0.031 C 
ATOM     61  C   UNL A   1      38.146  33.820  35.091  1.00  0.00     0.029 A 
ATOM     62  C   UNL A   1      39.203  32.925  35.129  1.00  0.00     0.049 A 
ATOM     63  H   UNL A   1      39.880  31.605  33.629  1.00  0.00     0.167 HD
ATOM     64  C   UNL A   1      41.148  31.782  36.166  1.00  0.00     0.074 A 
ATOM     65  C   UNL A   1      42.084  31.562  37.249  1.00  0.00     0.031 C 
ATOM     66  C   UNL A   1      40.125  32.672  36.212  1.00  0.00     0.037 A 
BRANCH  53  67
ATOM     67  C   UNL A   1      36.787  32.953  31.000  1.00  0.00     0.058 A 
ATOM     68  C   UNL A   1      37.001  33.866  29.954  1.00  0.00     0.135 A 
ATOM     69  C   UNL A   1      35.457  32.644  31.334  1.00  0.00     0.135 A 
ATOM     70  F   UNL A   1      38.250  34.212  29.602  1.00  0.00    -0.206 F 
ATOM     71  C   UNL A   1      35.941  34.486  29.302  1.00  0.00     0.059 A 
ATOM     72  C   UNL A   1      34.382  33.227  30.670  1.00  0.00     0.059 A 
ATOM     73  F   UNL A   1      35.192  31.779  32.325  1.00  0.00    -0.206 F 
ATOM     74  C   UNL A   1      34.634  34.165  29.671  1.00  0.00     0.060 A 
BRANCH  74  75
ATOM     75  S   UNL A   1      33.272  35.009  28.841  1.00  0.00     0.124 S 
ATOM     76  O   UNL A   1      33.968  36.118  28.196  1.00  0.00    -0.237 OA
ATOM     77  O   UNL A   1      32.763  33.975  27.948  1.00  0.00    -0.237 OA
ATOM     78  O   UNL A   1      32.383  35.382  29.938  1.00  0.00    -0.744 OA
ENDBRANCH  74  75
ENDBRANCH  53  67
BRANCH  54  79
ATOM     79  C   UNL A   1      44.476  28.490  35.599  1.00  0.00     0.058 A 
ATOM     80  C   UNL A   1      44.270  27.376  36.426  1.00  0.00     0.135 A 
ATOM     81  C   UNL A   1      45.793  28.952  35.444  1.00  0.00     0.135 A 
ATOM     82  F   UNL A   1      43.028  26.907  36.623  1.00  0.00    -0.206 F 
ATOM     83  C   UNL A   1      45.325  26.746  37.078  1.00  0.00     0.059 A 
ATOM     84  C   UNL A   1      46.868  28.320  36.063  1.00  0.00     0.059 A 
ATOM     85  F   UNL A   1      46.046  30.013  34.662  1.00  0.00    -0.206 F 
ATOM     86  C   UNL A   1      46.623  27.221  36.883  1.00  0.00     0.060 A 
BRANCH  86  87
ATOM     87  S   UNL A   1      47.987  26.353  37.687  1.00  0.00     0.124 S 
ATOM     88  O   UNL A   1      48.817  27.462  38.143  1.00  0.00    -0.237 OA
ATOM     89  O   UNL A   1      47.296  25.601  38.731  1.00  0.00    -0.237 OA
ATOM     90  O   UNL A   1      48.553  25.544  36.611  1.00  0.00    -0.744 OA
ENDBRANCH  86  87
ENDBRANCH  54  79
BRANCH  66  91
ATOM     91  C   UNL A   1      39.897  33.428  37.494  1.00  0.00     0.058 A 
ATOM     92  C   UNL A   1      40.586  34.610  37.800  1.00  0.00     0.135 A 
ATOM     93  C   UNL A   1      38.887  33.012  38.380  1.00  0.00     0.135 A 
ATOM     94  F   UNL A   1      41.565  35.050  36.993  1.00  0.00    -0.206 F 
ATOM     95  C   UNL A   1      40.285  35.353  38.938  1.00  0.00     0.059 A 
ATOM     96  C   UNL A   1      38.550  33.752  39.507  1.00  0.00     0.059 A 
ATOM     97  F   UNL A   1      38.191  31.891  38.131  1.00  0.00    -0.206 F 
ATOM     98  C   UNL A   1      39.256  34.923  39.779  1.00  0.00     0.060 A 
BRANCH  98  99
ATOM     99  S   UNL A   1      38.822  35.939  41.208  1.00  0.00     0.124 S 
ATOM    100  O   UNL A   1      40.003  35.784  42.051  1.00  0.00    -0.237 OA
ATOM    101  O   UNL A   1      38.640  37.257  40.606  1.00  0.00    -0.237 OA
ATOM    102  O   UNL A   1      37.603  35.314  41.713  1.00  0.00    -0.744 OA
ENDBRANCH  98  99
ENDBRANCH  66  91
ENDBRANCH  40  41
ENDBRANCH  33  35
ENDBRANCH  32  33
ENDBRANCH  31  32
ENDBRANCH  30  31
ENDBRANCH  29  30
ENDBRANCH  28  29
ENDBRANCH   1  28
TORSDOF 23
ENDMDL
MODEL 2
REMARK VINA RESULT:      -9.2      5.625     11.176
REMARK SMILES O=C(Nc1ccc(Br)cc1)Nc1ccc(CC(=O)OCCOCCOCCOC(=O)c2ccc(-c3c4nc(c(-c5c(F)cc(S(=O)(=O)[O-])cc5F)c5ccc([nH]5)c(-c5c(F)cc(S(=O)(=O)[O-])cc5F)c5nc(c(-c6c(F)cc(S(=O)(=O)[O-])cc6F)c6ccc3[nH]6)C=C5)C=C4)cc2)cc1
REMARK SMILES IDX 23 1 22 2 21 3 20 4 19 5 17 6 18 7 16 8 15 9 12 10 13 11
REMARK SMILES IDX 98 12 14 13 97 14 11 15 1 16 2 17 3 18 4 21 5 22 10 23 6 24
REMARK SMILES IDX 9 25 7 26 8 27 24 28 25 29 26 30 27 31 28 32 29 33 30 34
REMARK SMILES IDX 31 35 32 36 96 37 33 38 95 39 34 40 35 41 36 42 89 43 37 44
REMARK SMILES IDX 94 45 88 46 90 47 38 48 93 49 87 50 86 51 39 53 73 54 52 55
REMARK SMILES IDX 72 56 53 57 56 58 71 59 91 60 54 61 55 62 70 64 92 65 57 66
REMARK SMILES IDX 40 67 41 68 50 69 42 70 43 71 49 72 51 73 44 74 45 75 46 76
REMARK SMILES IDX 47 77 48 78 74 79 75 80 84 81 76 82 77 83 83 84 85 85 78 86
REMARK SMILES IDX 79 87 80 88 81 89 82 90 58 91 59 92 68 93 60 94 61 95 67 96
REMARK SMILES IDX 69 97 62 98 63 99 64 100 65 101 66 102
REMARK H PARENT 3 19 11 20 90 52 56 63
REMARK Flexibility Score: inf
ROOT
ATOM      1  C   UNL A   1      34.562  34.007  33.586  1.00  0.00     0.188 C 
ENDROOT
BRANCH   1   2
ATOM      2  O   UNL A   1      35.377  33.376  34.568  1.00  0.00    -0.376 OA
BRANCH   2   3
ATOM      3  C   UNL A   1      36.736  33.116  34.257  1.00  0.00     0.202 C 
BRANCH   3   4
ATOM      4  C   UNL A   1      37.075  31.690  33.802  1.00  0.00     0.261 C 
BRANCH   4   5
ATOM      5  O   UNL A   1      36.493  31.289  32.536  1.00  0.00    -0.463 OA
BRANCH   5   6
ATOM      6  C   UNL A   1      36.733  30.014  32.145  1.00  0.00     0.310 C 
ATOM      7  O   UNL A   1      37.009  29.110  32.934  1.00  0.00    -0.252 OA
BRANCH   6   8
ATOM      8  C   UNL A   1      36.667  29.716  30.659  1.00  0.00     0.158 C 
BRANCH   8   9
ATOM      9  C   UNL A   1      37.751  28.988  29.883  1.00  0.00    -0.037 A 
ATOM     10  C   UNL A   1      39.518  27.409  28.300  1.00  0.00     0.042 A 
ATOM     11  C   UNL A   1      38.882  28.527  27.758  1.00  0.00     0.026 A 
ATOM     12  C   UNL A   1      39.285  27.094  29.640  1.00  0.00     0.026 A 
ATOM     13  C   UNL A   1      37.970  29.270  28.527  1.00  0.00     0.006 A 
ATOM     14  C   UNL A   1      38.435  27.893  30.431  1.00  0.00     0.006 A 
BRANCH  10  15
ATOM     15  N   UNL A   1      40.351  26.646  27.453  1.00  0.00    -0.308 N 
ATOM     16  O   UNL A   1      38.878  24.970  26.834  1.00  0.00    -0.248 OA
ATOM     17  C   UNL A   1      39.999  25.473  26.824  1.00  0.00     0.323 C 
ATOM     18  N   UNL A   1      40.956  24.957  25.981  1.00  0.00    -0.308 N 
ATOM     19  H   UNL A   1      40.609  24.537  25.162  1.00  0.00     0.171 HD
ATOM     20  H   UNL A   1      41.264  26.982  27.299  1.00  0.00     0.171 HD
BRANCH  18  21
ATOM     21  C   UNL A   1      42.355  24.942  26.112  1.00  0.00     0.042 A 
ATOM     22  C   UNL A   1      43.005  24.140  27.054  1.00  0.00     0.027 A 
ATOM     23  C   UNL A   1      43.116  25.680  25.197  1.00  0.00     0.027 A 
ATOM     24  C   UNL A   1      44.403  24.084  27.087  1.00  0.00     0.018 A 
ATOM     25  C   UNL A   1      44.514  25.651  25.252  1.00  0.00     0.018 A 
ATOM     26  C   UNL A   1      45.151  24.848  26.194  1.00  0.00     0.018 A 
ATOM     27  Br  UNL A   1      47.039  24.778  26.250  1.00  0.00    -0.051 Br
ENDBRANCH  18  21
ENDBRANCH  10  15
ENDBRANCH   8   9
ENDBRANCH   6   8
ENDBRANCH   5   6
ENDBRANCH   4   5
ENDBRANCH   3   4
ENDBRANCH   2   3
ENDBRANCH   1   2
BRANCH   1  28
ATOM     28  C   UNL A   1      34.401  35.535  33.612  1.00  0.00     0.188 C 
BRANCH  28  29
ATOM     29  O   UNL A   1      34.270  36.095  32.317  1.00  0.00    -0.376 OA
BRANCH  29  30
ATOM     30  C   UNL A   1      33.021  35.856  31.699  1.00  0.00     0.202 C 
BRANCH  30  31
ATOM     31  C   UNL A   1      33.217  35.344  30.272  1.00  0.00     0.261 C 
BRANCH  31  32
ATOM     32  O   UNL A   1      34.013  34.151  30.144  1.00  0.00    -0.460 OA
BRANCH  32  33
ATOM     33  C   UNL A   1      34.770  34.007  29.035  1.00  0.00     0.338 C 
ATOM     34  O   UNL A   1      34.419  34.185  27.876  1.00  0.00    -0.246 OA
BRANCH  33  35
ATOM     35  C   UNL A   1      36.160  33.749  29.465  1.00  0.00     0.060 A 
ATOM     36  C   UNL A   1      36.646  34.312  30.652  1.00  0.00     0.016 A 
ATOM     37  C   UNL A   1      36.989  32.951  28.676  1.00  0.00     0.016 A 
ATOM     38  C   UNL A   1      37.973  34.096  31.046  1.00  0.00     0.010 A 
ATOM     39  C   UNL A   1      38.316  32.752  29.058  1.00  0.00     0.010 A 
ATOM     40  C   UNL A   1      38.825  33.342  30.229  1.00  0.00    -0.014 A 
BRANCH  40  41
ATOM     41  C   UNL A   1      40.293  33.302  30.451  1.00  0.00     0.031 A 
ATOM     42  C   UNL A   1      40.838  32.230  31.355  1.00  0.00     0.074 A 
ATOM     43  C   UNL A   1      41.118  34.230  29.934  1.00  0.00     0.049 A 
ATOM     44  N   UNL A   1      42.016  32.122  31.907  1.00  0.00    -0.248 NA
ATOM     45  C   UNL A   1      39.910  31.139  31.693  1.00  0.00     0.031 C 
ATOM     46  C   UNL A   1      40.734  35.274  28.987  1.00  0.00     0.029 A 
ATOM     47  N   UNL A   1      42.453  34.458  30.165  1.00  0.00    -0.354 N 
ATOM     48  C   UNL A   1      41.965  30.968  32.680  1.00  0.00     0.074 A 
ATOM     49  C   UNL A   1      40.631  30.426  32.545  1.00  0.00     0.031 C 
ATOM     50  C   UNL A   1      41.805  36.047  28.734  1.00  0.00     0.029 A 
ATOM     51  C   UNL A   1      42.931  35.590  29.548  1.00  0.00     0.049 A 
ATOM     52  H   UNL A   1      43.013  33.869  30.719  1.00  0.00     0.167 HD
ATOM     53  C   UNL A   1      42.941  30.413  33.438  1.00  0.00     0.037 A 
ATOM     54  C   UNL A   1      44.125  36.208  29.663  1.00  0.00     0.037 A 
ATOM     55  C   UNL A   1      44.262  30.970  33.575  1.00  0.00     0.049 A 
ATOM     56  C   UNL A   1      45.167  35.640  30.598  1.00  0.00     0.074 A 
ATOM     57  C   UNL A   1      45.323  30.498  34.326  1.00  0.00     0.029 A 
ATOM     58  N   UNL A   1      44.698  32.131  32.951  1.00  0.00    -0.354 N 
ATOM     59  N   UNL A   1      45.105  34.564  31.347  1.00  0.00    -0.248 NA
ATOM     60  C   UNL A   1      46.436  36.374  30.711  1.00  0.00     0.031 C 
ATOM     61  C   UNL A   1      46.382  31.402  34.200  1.00  0.00     0.029 A 
ATOM     62  C   UNL A   1      46.006  32.400  33.315  1.00  0.00     0.049 A 
ATOM     63  H   UNL A   1      44.157  32.682  32.339  1.00  0.00     0.167 HD
ATOM     64  C   UNL A   1      46.341  34.466  31.980  1.00  0.00     0.074 A 
ATOM     65  C   UNL A   1      47.127  35.599  31.537  1.00  0.00     0.031 C 
ATOM     66  C   UNL A   1      46.788  33.518  32.841  1.00  0.00     0.037 A 
BRANCH  53  67
ATOM     67  C   UNL A   1      42.595  29.167  34.209  1.00  0.00     0.058 A 
ATOM     68  C   UNL A   1      41.998  29.222  35.480  1.00  0.00     0.135 A 
ATOM     69  C   UNL A   1      42.874  27.899  33.675  1.00  0.00     0.135 A 
ATOM     70  F   UNL A   1      41.724  30.408  36.049  1.00  0.00    -0.206 F 
ATOM     71  C   UNL A   1      41.738  28.069  36.212  1.00  0.00     0.059 A 
ATOM     72  C   UNL A   1      42.589  26.730  34.376  1.00  0.00     0.059 A 
ATOM     73  F   UNL A   1      43.443  27.785  32.465  1.00  0.00    -0.206 F 
ATOM     74  C   UNL A   1      42.043  26.827  35.654  1.00  0.00     0.060 A 
BRANCH  74  75
ATOM     75  S   UNL A   1      41.735  25.343  36.634  1.00  0.00     0.124 S 
ATOM     76  O   UNL A   1      41.513  24.347  35.589  1.00  0.00    -0.237 OA
ATOM     77  O   UNL A   1      42.976  25.204  37.388  1.00  0.00    -0.237 OA
ATOM     78  O   UNL A   1      40.559  25.694  37.423  1.00  0.00    -0.744 OA
ENDBRANCH  74  75
ENDBRANCH  53  67
BRANCH  54  79
ATOM     79  C   UNL A   1      44.405  37.443  28.878  1.00  0.00     0.058 A 
ATOM     80  C   UNL A   1      44.998  37.365  27.609  1.00  0.00     0.135 A 
ATOM     81  C   UNL A   1      44.079  38.718  29.368  1.00  0.00     0.135 A 
ATOM     82  F   UNL A   1      45.345  36.171  27.103  1.00  0.00    -0.206 F 
ATOM     83  C   UNL A   1      45.262  38.504  26.855  1.00  0.00     0.059 A 
ATOM     84  C   UNL A   1      44.308  39.870  28.620  1.00  0.00     0.059 A 
ATOM     85  F   UNL A   1      43.509  38.849  30.576  1.00  0.00    -0.206 F 
ATOM     86  C   UNL A   1      44.905  39.753  27.366  1.00  0.00     0.060 A 
BRANCH  86  87
ATOM     87  S   UNL A   1      45.198  41.216  26.349  1.00  0.00     0.124 S 
ATOM     88  O   UNL A   1      45.059  40.673  25.003  1.00  0.00    -0.237 OA
ATOM     89  O   UNL A   1      44.132  42.111  26.790  1.00  0.00    -0.237 OA
ATOM     90  O   UNL A   1      46.548  41.625  26.727  1.00  0.00    -0.744 OA
ENDBRANCH  86  87
ENDBRANCH  54  79
BRANCH  66  91
ATOM     91  C   UNL A   1      48.216  33.602  33.312  1.00  0.00     0.058 A 
ATOM     92  C   UNL A   1      48.574  34.235  34.511  1.00  0.00     0.135 A 
ATOM     93  C   UNL A   1      49.228  32.938  32.596  1.00  0.00     0.135 A 
ATOM     94  F   UNL A   1      47.650  34.891  35.231  1.00  0.00    -0.206 F 
ATOM     95  C   UNL A   1      49.883  34.209  34.984  1.00  0.00     0.059 A 
ATOM     96  C   UNL A   1      50.536  32.874  33.062  1.00  0.00     0.059 A 
ATOM     97  F   UNL A   1      48.939  32.309  31.445  1.00  0.00    -0.206 F 
ATOM     98  C   UNL A   1      50.855  33.514  34.259  1.00  0.00     0.060 A 
BRANCH  98  99
ATOM     99  S   UNL A   1      52.531  33.420  34.925  1.00  0.00     0.124 S 
ATOM    100  O   UNL A   1      52.571  32.052  35.430  1.00  0.00    -0.237 OA
ATOM    101  O   UNL A   1      53.349  33.686  33.745  1.00  0.00    -0.237 OA
ATOM    102  O   UNL A   1      52.552  34.465  35.944  1.00  0.00    -0.744 OA
ENDBRANCH  98  99
ENDBRANCH  66  91
ENDBRANCH  40  41
ENDBRANCH  33  35
ENDBRANCH  32  33
ENDBRANCH  31  32
ENDBRANCH  30  31
ENDBRANCH  29  30
ENDBRANCH  28  29
ENDBRANCH   1  28
TORSDOF 23
ENDMDL
MODEL 3
REMARK VINA RESULT:      -9.1      5.443     12.202
REMARK SMILES O=C(Nc1ccc(Br)cc1)Nc1ccc(CC(=O)OCCOCCOCCOC(=O)c2ccc(-c3c4nc(c(-c5c(F)cc(S(=O)(=O)[O-])cc5F)c5ccc([nH]5)c(-c5c(F)cc(S(=O)(=O)[O-])cc5F)c5nc(c(-c6c(F)cc(S(=O)(=O)[O-])cc6F)c6ccc3[nH]6)C=C5)C=C4)cc2)cc1
REMARK SMILES IDX 23 1 22 2 21 3 20 4 19 5 17 6 18 7 16 8 15 9 12 10 13 11
REMARK SMILES IDX 98 12 14 13 97 14 11 15 1 16 2 17 3 18 4 21 5 22 10 23 6 24
REMARK SMILES IDX 9 25 7 26 8 27 24 28 25 29 26 30 27 31 28 32 29 33 30 34
REMARK SMILES IDX 31 35 32 36 96 37 33 38 95 39 34 40 35 41 36 42 89 43 37 44
REMARK SMILES IDX 94 45 88 46 90 47 38 48 93 49 87 50 86 51 39 53 73 54 52 55
REMARK SMILES IDX 72 56 53 57 56 58 71 59 91 60 54 61 55 62 70 64 92 65 57 66
REMARK SMILES IDX 40 67 41 68 50 69 42 70 43 71 49 72 51 73 44 74 45 75 46 76
REMARK SMILES IDX 47 77 48 78 74 79 75 80 84 81 76 82 77 83 83 84 85 85 78 86
REMARK SMILES IDX 79 87 80 88 81 89 82 90 58 91 59 92 68 93 60 94 61 95 67 96
REMARK SMILES IDX 69 97 62 98 63 99 64 100 65 101 66 102
REMARK H PARENT 3 19 11 20 90 52 56 63
REMARK Flexibility Score: inf
ROOT
ATOM      1  C   UNL A   1      34.696  24.271  24.124  1.00  0.00     0.188 C 
ENDROOT
BRANCH   1   2
ATOM      2  O   UNL A   1      33.432  23.881  24.648  1.00  0.00    -0.376 OA
BRANCH   2   3
ATOM      3  C   UNL A   1      32.381  23.592  23.741  1.00  0.00     0.202 C 
BRANCH   3   4
ATOM      4  C   UNL A   1      31.114  24.449  23.863  1.00  0.00     0.261 C 
BRANCH   4   5
ATOM      5  O   UNL A   1      30.822  25.291  22.718  1.00  0.00    -0.463 OA
BRANCH   5   6
ATOM      6  C   UNL A   1      30.651  26.610  22.974  1.00  0.00     0.310 C 
ATOM      7  O   UNL A   1      30.629  27.468  22.093  1.00  0.00    -0.252 OA
BRANCH   6   8
ATOM      8  C   UNL A   1      30.494  27.023  24.426  1.00  0.00     0.158 C 
BRANCH   8   9
ATOM      9  C   UNL A   1      31.581  27.697  25.245  1.00  0.00    -0.037 A 
ATOM     10  C   UNL A   1      33.725  28.626  26.878  1.00  0.00     0.042 A 
ATOM     11  C   UNL A   1      33.937  28.309  25.536  1.00  0.00     0.026 A 
ATOM     12  C   UNL A   1      32.435  28.497  27.397  1.00  0.00     0.026 A 
ATOM     13  C   UNL A   1      32.889  27.800  24.749  1.00  0.00     0.006 A 
ATOM     14  C   UNL A   1      31.369  28.068  26.581  1.00  0.00     0.006 A 
BRANCH  10  15
ATOM     15  N   UNL A   1      34.835  29.044  27.644  1.00  0.00    -0.308 N 
ATOM     16  O   UNL A   1      34.503  31.335  27.626  1.00  0.00    -0.248 OA
ATOM     17  C   UNL A   1      35.172  30.349  27.924  1.00  0.00     0.323 C 
ATOM     18  N   UNL A   1      36.252  30.501  28.762  1.00  0.00    -0.308 N 
ATOM     19  H   UNL A   1      36.185  31.248  29.399  1.00  0.00     0.171 HD
ATOM     20  H   UNL A   1      35.419  28.340  28.010  1.00  0.00     0.171 HD
BRANCH  18  21
ATOM     21  C   UNL A   1      37.437  29.749  28.847  1.00  0.00     0.042 A 
ATOM     22  C   UNL A   1      37.722  28.932  29.943  1.00  0.00     0.027 A 
ATOM     23  C   UNL A   1      38.303  29.747  27.746  1.00  0.00     0.027 A 
ATOM     24  C   UNL A   1      38.867  28.128  29.945  1.00  0.00     0.018 A 
ATOM     25  C   UNL A   1      39.466  28.970  27.761  1.00  0.00     0.018 A 
ATOM     26  C   UNL A   1      39.740  28.159  28.858  1.00  0.00     0.018 A 
ATOM     27  Br  UNL A   1      41.291  27.079  28.869  1.00  0.00    -0.051 Br
ENDBRANCH  18  21
ENDBRANCH  10  15
ENDBRANCH   8   9
ENDBRANCH   6   8
ENDBRANCH   5   6
ENDBRANCH   4   5
ENDBRANCH   3   4
ENDBRANCH   2   3
ENDBRANCH   1   2
BRANCH   1  28
ATOM     28  C   UNL A   1      35.789  23.208  23.928  1.00  0.00     0.188 C 
BRANCH  28  29
ATOM     29  O   UNL A   1      36.697  23.147  25.016  1.00  0.00    -0.376 OA
BRANCH  29  30
ATOM     30  C   UNL A   1      36.731  21.900  25.681  1.00  0.00     0.202 C 
BRANCH  30  31
ATOM     31  C   UNL A   1      38.028  21.156  25.359  1.00  0.00     0.261 C 
BRANCH  31  32
ATOM     32  O   UNL A   1      39.238  21.793  25.811  1.00  0.00    -0.460 OA
BRANCH  32  33
ATOM     33  C   UNL A   1      40.279  21.007  26.159  1.00  0.00     0.338 C 
ATOM     34  O   UNL A   1      40.303  19.783  26.179  1.00  0.00    -0.246 OA
BRANCH  33  35
ATOM     35  C   UNL A   1      41.456  21.877  26.362  1.00  0.00     0.060 A 
ATOM     36  C   UNL A   1      42.734  21.316  26.480  1.00  0.00     0.016 A 
ATOM     37  C   UNL A   1      41.286  23.259  26.448  1.00  0.00     0.016 A 
ATOM     38  C   UNL A   1      43.848  22.134  26.705  1.00  0.00     0.010 A 
ATOM     39  C   UNL A   1      42.393  24.073  26.691  1.00  0.00     0.010 A 
ATOM     40  C   UNL A   1      43.675  23.517  26.848  1.00  0.00    -0.014 A 
BRANCH  40  41
ATOM     41  C   UNL A   1      44.763  24.397  27.348  1.00  0.00     0.031 A 
ATOM     42  C   UNL A   1      44.674  24.887  28.767  1.00  0.00     0.074 A 
ATOM     43  C   UNL A   1      45.763  24.816  26.551  1.00  0.00     0.049 A 
ATOM     44  N   UNL A   1      45.335  25.841  29.364  1.00  0.00    -0.248 NA
ATOM     45  C   UNL A   1      43.685  24.210  29.622  1.00  0.00     0.031 C 
ATOM     46  C   UNL A   1      46.007  24.361  25.185  1.00  0.00     0.029 A 
ATOM     47  N   UNL A   1      46.743  25.752  26.777  1.00  0.00    -0.354 N 
ATOM     48  C   UNL A   1      44.825  25.902  30.656  1.00  0.00     0.074 A 
ATOM     49  C   UNL A   1      43.782  24.904  30.746  1.00  0.00     0.031 C 
ATOM     50  C   UNL A   1      47.057  25.036  24.684  1.00  0.00     0.029 A 
ATOM     51  C   UNL A   1      47.518  26.012  25.671  1.00  0.00     0.049 A 
ATOM     52  H   UNL A   1      46.878  26.194  27.646  1.00  0.00     0.167 HD
ATOM     53  C   UNL A   1      45.190  26.719  31.672  1.00  0.00     0.037 A 
ATOM     54  C   UNL A   1      48.458  26.957  25.468  1.00  0.00     0.037 A 
ATOM     55  C   UNL A   1      46.221  27.718  31.565  1.00  0.00     0.049 A 
ATOM     56  C   UNL A   1      48.778  27.935  26.575  1.00  0.00     0.074 A 
ATOM     57  C   UNL A   1      46.663  28.607  32.528  1.00  0.00     0.029 A 
ATOM     58  N   UNL A   1      46.967  27.964  30.420  1.00  0.00    -0.354 N 
ATOM     59  N   UNL A   1      48.275  28.005  27.784  1.00  0.00    -0.248 NA
ATOM     60  C   UNL A   1      49.785  28.967  26.286  1.00  0.00     0.031 C 
ATOM     61  C   UNL A   1      47.636  29.428  31.949  1.00  0.00     0.029 A 
ATOM     62  C   UNL A   1      47.851  29.005  30.647  1.00  0.00     0.049 A 
ATOM     63  H   UNL A   1      46.879  27.472  29.571  1.00  0.00     0.167 HD
ATOM     64  C   UNL A   1      48.938  29.054  28.415  1.00  0.00     0.074 A 
ATOM     65  C   UNL A   1      49.870  29.599  27.449  1.00  0.00     0.031 C 
ATOM     66  C   UNL A   1      48.797  29.517  29.683  1.00  0.00     0.037 A 
BRANCH  53  67
ATOM     67  C   UNL A   1      44.434  26.592  32.968  1.00  0.00     0.058 A 
ATOM     68  C   UNL A   1      44.785  25.644  33.943  1.00  0.00     0.135 A 
ATOM     69  C   UNL A   1      43.333  27.424  33.234  1.00  0.00     0.135 A 
ATOM     70  F   UNL A   1      45.818  24.810  33.736  1.00  0.00    -0.206 F 
ATOM     71  C   UNL A   1      44.045  25.492  35.111  1.00  0.00     0.059 A 
ATOM     72  C   UNL A   1      42.600  27.312  34.412  1.00  0.00     0.059 A 
ATOM     73  F   UNL A   1      42.952  28.348  32.340  1.00  0.00    -0.206 F 
ATOM     74  C   UNL A   1      42.949  26.326  35.333  1.00  0.00     0.060 A 
BRANCH  74  75
ATOM     75  S   UNL A   1      41.976  26.089  36.834  1.00  0.00     0.124 S 
ATOM     76  O   UNL A   1      40.888  27.041  36.628  1.00  0.00    -0.237 OA
ATOM     77  O   UNL A   1      41.609  24.680  36.748  1.00  0.00    -0.237 OA
ATOM     78  O   UNL A   1      42.910  26.428  37.903  1.00  0.00    -0.744 OA
ENDBRANCH  74  75
ENDBRANCH  53  67
BRANCH  54  79
ATOM     79  C   UNL A   1      49.167  27.036  24.160  1.00  0.00     0.058 A 
ATOM     80  C   UNL A   1      48.527  27.569  23.030  1.00  0.00     0.135 A 
ATOM     81  C   UNL A   1      50.492  26.596  24.011  1.00  0.00     0.135 A 
ATOM     82  F   UNL A   1      47.254  27.986  23.115  1.00  0.00    -0.206 F 
ATOM     83  C   UNL A   1      49.172  27.659  21.800  1.00  0.00     0.059 A 
ATOM     84  C   UNL A   1      51.168  26.703  22.798  1.00  0.00     0.059 A 
ATOM     85  F   UNL A   1      51.151  26.080  25.060  1.00  0.00    -0.206 F 
ATOM     86  C   UNL A   1      50.496  27.230  21.696  1.00  0.00     0.060 A 
BRANCH  86  87
ATOM     87  S   UNL A   1      51.338  27.412  20.109  1.00  0.00     0.124 S 
ATOM     88  O   UNL A   1      50.283  27.046  19.171  1.00  0.00    -0.237 OA
ATOM     89  O   UNL A   1      51.716  28.822  20.126  1.00  0.00    -0.237 OA
ATOM     90  O   UNL A   1      52.450  26.471  20.207  1.00  0.00    -0.744 OA
ENDBRANCH  86  87
ENDBRANCH  54  79
BRANCH  66  91
ATOM     91  C   UNL A   1      49.716  30.617  30.145  1.00  0.00     0.058 A 
ATOM     92  C   UNL A   1      50.971  30.356  30.711  1.00  0.00     0.135 A 
ATOM     93  C   UNL A   1      49.370  31.960  29.912  1.00  0.00     0.135 A 
ATOM     94  F   UNL A   1      51.350  29.092  30.963  1.00  0.00    -0.206 F 
ATOM     95  C   UNL A   1      51.852  31.385  31.033  1.00  0.00     0.059 A 
ATOM     96  C   UNL A   1      50.243  33.003  30.199  1.00  0.00     0.059 A 
ATOM     97  F   UNL A   1      48.182  32.266  29.365  1.00  0.00    -0.206 F 
ATOM     98  C   UNL A   1      51.484  32.705  30.761  1.00  0.00     0.060 A 
BRANCH  98  99
ATOM     99  S   UNL A   1      52.668  34.024  31.108  1.00  0.00     0.124 S 
ATOM    100  O   UNL A   1      51.956  34.804  32.114  1.00  0.00    -0.237 OA
ATOM    101  O   UNL A   1      53.830  33.280  31.586  1.00  0.00    -0.237 OA
ATOM    102  O   UNL A   1      52.840  34.677  29.813  1.00  0.00    -0.744 OA
ENDBRANCH  98  99
ENDBRANCH  66  91
ENDBRANCH  40  41
ENDBRANCH  33  35
ENDBRANCH  32  33
ENDBRANCH  31  32
ENDBRANCH  30  31
ENDBRANCH  29  30
ENDBRANCH  28  29
ENDBRANCH   1  28
TORSDOF 23
ENDMDL
