MODEL 1
REMARK VINA RESULT:     -12.1      0.000      0.000
REMARK SMILES Cc1ccc(N2C(=O)C[C@H](Sc3ccccc3C(=O)OCCOCCOCCOC(=O)c3ccc(-c4c5nc(c(-c6c(F)cc(S(=O)(=O)[O-])cc6F)c6ccc([nH]6)c(-c6c(F)cc(S(=O)(=O)[O-])cc6F)c6nc(c(-c7c(F)cc(S(=O)(=O)[O-])cc7F)c7ccc4[nH]7)C=C6)C=C5)cc3)C2=O)cc1
REMARK SMILES IDX 24 1 23 2 22 3 21 4 20 5 18 6 19 7 17 8 12 9 13 10 14 11
REMARK SMILES IDX 16 12 15 13 11 14 10 15 6 16 7 17 98 18 8 19 9 20 99 21 5 22
REMARK SMILES IDX 1 23 2 24 3 25 101 26 4 27 100 28 25 29 26 30 27 31 28 32
REMARK SMILES IDX 29 33 30 34 31 35 32 36 33 37 97 38 34 39 96 40 35 41 36 42
REMARK SMILES IDX 37 43 90 44 38 45 95 46 89 47 91 48 39 49 94 50 88 51 87 52
REMARK SMILES IDX 40 54 74 55 53 56 73 57 54 58 57 59 72 60 92 61 55 62 56 63
REMARK SMILES IDX 71 65 93 66 58 67 41 68 42 69 51 70 43 71 44 72 50 73 52 74
REMARK SMILES IDX 45 75 46 76 47 77 48 78 49 79 75 80 76 81 85 82 77 83 78 84
REMARK SMILES IDX 84 85 86 86 79 87 80 88 81 89 82 90 83 91 59 92 60 93 69 94
REMARK SMILES IDX 61 95 62 96 68 97 70 98 63 99 64 100 65 101 66 102 67 103
REMARK H PARENT 91 53 57 64
REMARK Flexibility Score: inf
ROOT
ATOM      1  C   UNL A   1      34.436  32.910  29.657  1.00  0.00     0.188 C 
ENDROOT
BRANCH   1   2
ATOM      2  O   UNL A   1      34.480  32.328  28.339  1.00  0.00    -0.376 OA
BRANCH   2   3
ATOM      3  C   UNL A   1      35.293  31.245  27.846  1.00  0.00     0.202 C 
BRANCH   3   4
ATOM      4  C   UNL A   1      34.911  29.497  27.640  1.00  0.00     0.261 C 
BRANCH   4   5
ATOM      5  O   UNL A   1      33.438  28.672  26.951  1.00  0.00    -0.460 OA
BRANCH   5   6
ATOM      6  C   UNL A   1      32.927  28.089  25.663  1.00  0.00     0.339 C 
ATOM      7  O   UNL A   1      33.572  27.424  24.846  1.00  0.00    -0.246 OA
BRANCH   6   8
ATOM      8  C   UNL A   1      31.602  28.217  24.991  1.00  0.00     0.073 A 
ATOM      9  C   UNL A   1      30.654  27.090  24.902  1.00  0.00     0.023 A 
ATOM     10  C   UNL A   1      29.808  26.993  23.782  1.00  0.00     0.016 A 
ATOM     11  C   UNL A   1      29.884  27.920  22.749  1.00  0.00     0.001 A 
ATOM     12  C   UNL A   1      31.650  29.121  23.919  1.00  0.00     0.017 A 
ATOM     13  C   UNL A   1      30.808  28.962  22.809  1.00  0.00     0.001 A 
BRANCH   9  14
ATOM     14  S   UNL A   1      30.778  25.483  25.798  1.00  0.00    -0.111 SA
BRANCH  14  15
ATOM     15  C   UNL A   1      31.428  24.118  24.709  1.00  0.00     0.151 C 
ATOM     16  N   UNL A   1      33.698  23.641  24.318  1.00  0.00    -0.250 N 
ATOM     17  C   UNL A   1      33.314  24.464  23.279  1.00  0.00     0.235 C 
ATOM     18  C   UNL A   1      32.657  23.394  25.184  1.00  0.00     0.247 C 
ATOM     19  O   UNL A   1      34.040  25.146  22.566  1.00  0.00    -0.274 OA
ATOM     20  C   UNL A   1      31.824  24.610  23.317  1.00  0.00     0.126 C 
ATOM     21  O   UNL A   1      32.663  22.639  26.150  1.00  0.00    -0.273 OA
BRANCH  16  22
ATOM     22  C   UNL A   1      35.059  23.297  24.569  1.00  0.00     0.052 A 
ATOM     23  C   UNL A   1      38.955  21.828  25.754  1.00  0.00     0.044 C 
ATOM     24  C   UNL A   1      37.637  22.382  25.304  1.00  0.00    -0.051 A 
ATOM     25  C   UNL A   1      37.082  23.508  25.918  1.00  0.00     0.005 A 
ATOM     26  C   UNL A   1      36.928  21.763  24.271  1.00  0.00     0.005 A 
ATOM     27  C   UNL A   1      35.801  23.949  25.566  1.00  0.00     0.027 A 
ATOM     28  C   UNL A   1      35.657  22.218  23.905  1.00  0.00     0.027 A 
ENDBRANCH  16  22
ENDBRANCH  14  15
ENDBRANCH   9  14
ENDBRANCH   6   8
ENDBRANCH   5   6
ENDBRANCH   4   5
ENDBRANCH   3   4
ENDBRANCH   2   3
ENDBRANCH   1   2
BRANCH   1  29
ATOM     29  C   UNL A   1      34.105  34.366  30.033  1.00  0.00     0.188 C 
BRANCH  29  30
ATOM     30  O   UNL A   1      33.630  34.536  31.354  1.00  0.00    -0.376 OA
BRANCH  30  31
ATOM     31  C   UNL A   1      34.382  33.861  32.360  1.00  0.00     0.202 C 
BRANCH  31  32
ATOM     32  C   UNL A   1      34.837  34.688  33.585  1.00  0.00     0.261 C 
BRANCH  32  33
ATOM     33  O   UNL A   1      36.189  35.202  33.496  1.00  0.00    -0.460 OA
BRANCH  33  34
ATOM     34  C   UNL A   1      37.221  34.543  34.141  1.00  0.00     0.338 C 
ATOM     35  O   UNL A   1      37.075  33.947  35.161  1.00  0.00    -0.246 OA
BRANCH  34  36
ATOM     36  C   UNL A   1      38.382  34.341  33.238  1.00  0.00     0.060 A 
ATOM     37  C   UNL A   1      39.746  34.375  33.501  1.00  0.00     0.016 A 
ATOM     38  C   UNL A   1      38.049  34.150  31.964  1.00  0.00     0.016 A 
ATOM     39  C   UNL A   1      40.795  34.370  32.471  1.00  0.00     0.010 A 
ATOM     40  C   UNL A   1      39.074  34.226  31.035  1.00  0.00     0.010 A 
ATOM     41  C   UNL A   1      40.529  34.244  31.120  1.00  0.00    -0.014 A 
BRANCH  41  42
ATOM     42  C   UNL A   1      41.705  34.135  29.808  1.00  0.00     0.031 A 
ATOM     43  C   UNL A   1      42.759  32.783  29.193  1.00  0.00     0.074 A 
ATOM     44  C   UNL A   1      41.979  35.236  29.067  1.00  0.00     0.049 A 
ATOM     45  N   UNL A   1      43.863  32.902  28.466  1.00  0.00    -0.248 NA
ATOM     46  C   UNL A   1      42.694  31.272  29.528  1.00  0.00     0.031 C 
ATOM     47  C   UNL A   1      42.378  35.139  27.660  1.00  0.00     0.029 A 
ATOM     48  N   UNL A   1      41.850  36.605  29.269  1.00  0.00    -0.354 N 
ATOM     49  C   UNL A   1      44.380  31.605  28.205  1.00  0.00     0.074 A 
ATOM     50  C   UNL A   1      43.834  30.745  29.160  1.00  0.00     0.031 C 
ATOM     51  C   UNL A   1      42.580  36.361  27.165  1.00  0.00     0.029 A 
ATOM     52  C   UNL A   1      42.510  37.304  28.257  1.00  0.00     0.049 A 
ATOM     53  H   UNL A   1      41.363  37.021  30.016  1.00  0.00     0.167 HD
ATOM     54  C   UNL A   1      44.977  31.207  27.043  1.00  0.00     0.037 A 
ATOM     55  C   UNL A   1      43.385  38.325  28.466  1.00  0.00     0.037 A 
ATOM     56  C   UNL A   1      45.313  32.382  26.286  1.00  0.00     0.049 A 
ATOM     57  C   UNL A   1      44.781  37.977  27.959  1.00  0.00     0.074 A 
ATOM     58  C   UNL A   1      44.669  33.077  25.283  1.00  0.00     0.029 A 
ATOM     59  N   UNL A   1      46.242  33.243  26.843  1.00  0.00    -0.354 N 
ATOM     60  N   UNL A   1      45.070  36.844  27.368  1.00  0.00    -0.248 NA
ATOM     61  C   UNL A   1      45.970  38.819  28.091  1.00  0.00     0.031 C 
ATOM     62  C   UNL A   1      45.153  34.414  25.317  1.00  0.00     0.029 A 
ATOM     63  C   UNL A   1      46.122  34.507  26.301  1.00  0.00     0.049 A 
ATOM     64  H   UNL A   1      46.898  32.989  27.533  1.00  0.00     0.167 HD
ATOM     65  C   UNL A   1      46.418  36.726  27.192  1.00  0.00     0.074 A 
ATOM     66  C   UNL A   1      46.934  38.018  27.599  1.00  0.00     0.031 C 
ATOM     67  C   UNL A   1      47.004  35.560  26.787  1.00  0.00     0.037 A 
BRANCH  54  68
ATOM     68  C   UNL A   1      44.856  29.753  26.499  1.00  0.00     0.058 A 
ATOM     69  C   UNL A   1      43.587  29.190  26.250  1.00  0.00     0.135 A 
ATOM     70  C   UNL A   1      45.914  28.821  26.312  1.00  0.00     0.135 A 
ATOM     71  F   UNL A   1      42.485  29.952  26.249  1.00  0.00    -0.206 F 
ATOM     72  C   UNL A   1      43.379  27.823  25.986  1.00  0.00     0.059 A 
ATOM     73  C   UNL A   1      45.730  27.437  26.147  1.00  0.00     0.059 A 
ATOM     74  F   UNL A   1      47.189  29.216  26.190  1.00  0.00    -0.206 F 
ATOM     75  C   UNL A   1      44.452  26.942  25.981  1.00  0.00     0.060 A 
BRANCH  75  76
ATOM     76  S   UNL A   1      44.169  25.175  25.715  1.00  0.00     0.124 S 
ATOM     77  O   UNL A   1      42.777  25.137  25.278  1.00  0.00    -0.237 OA
ATOM     78  O   UNL A   1      45.165  24.860  24.697  1.00  0.00    -0.237 OA
ATOM     79  O   UNL A   1      44.414  24.589  27.032  1.00  0.00    -0.744 OA
ENDBRANCH  75  76
ENDBRANCH  54  68
BRANCH  55  80
ATOM     80  C   UNL A   1      42.954  39.306  29.501  1.00  0.00     0.058 A 
ATOM     81  C   UNL A   1      43.647  39.273  30.737  1.00  0.00     0.135 A 
ATOM     82  C   UNL A   1      42.085  40.381  29.308  1.00  0.00     0.135 A 
ATOM     83  F   UNL A   1      44.463  38.243  31.020  1.00  0.00    -0.206 F 
ATOM     84  C   UNL A   1      43.594  40.309  31.665  1.00  0.00     0.059 A 
ATOM     85  C   UNL A   1      41.980  41.418  30.253  1.00  0.00     0.059 A 
ATOM     86  F   UNL A   1      41.376  40.493  28.176  1.00  0.00    -0.206 F 
ATOM     87  C   UNL A   1      42.778  41.399  31.401  1.00  0.00     0.060 A 
BRANCH  87  88
ATOM     88  S   UNL A   1      42.887  42.857  32.481  1.00  0.00     0.124 S 
ATOM     89  O   UNL A   1      42.519  43.932  31.567  1.00  0.00    -0.237 OA
ATOM     90  O   UNL A   1      41.909  42.559  33.525  1.00  0.00    -0.237 OA
ATOM     91  O   UNL A   1      44.286  42.846  32.901  1.00  0.00    -0.744 OA
ENDBRANCH  87  88
ENDBRANCH  55  80
BRANCH  67  92
ATOM     92  C   UNL A   1      48.486  35.282  26.809  1.00  0.00     0.058 A 
ATOM     93  C   UNL A   1      49.197  34.944  27.971  1.00  0.00     0.135 A 
ATOM     94  C   UNL A   1      49.206  35.193  25.593  1.00  0.00     0.135 A 
ATOM     95  F   UNL A   1      48.588  34.867  29.163  1.00  0.00    -0.206 F 
ATOM     96  C   UNL A   1      50.559  34.642  27.943  1.00  0.00     0.059 A 
ATOM     97  C   UNL A   1      50.545  34.826  25.536  1.00  0.00     0.059 A 
ATOM     98  F   UNL A   1      48.620  35.451  24.413  1.00  0.00    -0.206 F 
ATOM     99  C   UNL A   1      51.227  34.601  26.722  1.00  0.00     0.060 A 
BRANCH  99 100
ATOM    100  S   UNL A   1      52.994  34.270  26.663  1.00  0.00     0.124 S 
ATOM    101  O   UNL A   1      53.057  32.949  27.285  1.00  0.00    -0.237 OA
ATOM    102  O   UNL A   1      53.292  34.306  25.234  1.00  0.00    -0.237 OA
ATOM    103  O   UNL A   1      53.561  35.365  27.443  1.00  0.00    -0.744 OA
ENDBRANCH  99 100
ENDBRANCH  67  92
ENDBRANCH  41  42
ENDBRANCH  34  36
ENDBRANCH  33  34
ENDBRANCH  32  33
ENDBRANCH  31  32
ENDBRANCH  30  31
ENDBRANCH  29  30
ENDBRANCH   1  29
TORSDOF 23
ENDMDL
MODEL 2
REMARK VINA RESULT:     -11.8      5.928      8.221
REMARK SMILES Cc1ccc(N2C(=O)C[C@H](Sc3ccccc3C(=O)OCCOCCOCCOC(=O)c3ccc(-c4c5nc(c(-c6c(F)cc(S(=O)(=O)[O-])cc6F)c6ccc([nH]6)c(-c6c(F)cc(S(=O)(=O)[O-])cc6F)c6nc(c(-c7c(F)cc(S(=O)(=O)[O-])cc7F)c7ccc4[nH]7)C=C6)C=C5)cc3)C2=O)cc1
REMARK SMILES IDX 24 1 23 2 22 3 21 4 20 5 18 6 19 7 17 8 12 9 13 10 14 11
REMARK SMILES IDX 16 12 15 13 11 14 10 15 6 16 7 17 98 18 8 19 9 20 99 21 5 22
REMARK SMILES IDX 1 23 2 24 3 25 101 26 4 27 100 28 25 29 26 30 27 31 28 32
REMARK SMILES IDX 29 33 30 34 31 35 32 36 33 37 97 38 34 39 96 40 35 41 36 42
REMARK SMILES IDX 37 43 90 44 38 45 95 46 89 47 91 48 39 49 94 50 88 51 87 52
REMARK SMILES IDX 40 54 74 55 53 56 73 57 54 58 57 59 72 60 92 61 55 62 56 63
REMARK SMILES IDX 71 65 93 66 58 67 41 68 42 69 51 70 43 71 44 72 50 73 52 74
REMARK SMILES IDX 45 75 46 76 47 77 48 78 49 79 75 80 76 81 85 82 77 83 78 84
REMARK SMILES IDX 84 85 86 86 79 87 80 88 81 89 82 90 83 91 59 92 60 93 69 94
REMARK SMILES IDX 61 95 62 96 68 97 70 98 63 99 64 100 65 101 66 102 67 103
REMARK H PARENT 91 53 57 64
REMARK Flexibility Score: inf
ROOT
ATOM      1  C   UNL A   1      33.200  30.897  27.372  1.00  0.00     0.188 C 
ENDROOT
BRANCH   1   2
ATOM      2  O   UNL A   1      33.374  30.272  26.084  1.00  0.00    -0.376 OA
BRANCH   2   3
ATOM      3  C   UNL A   1      33.759  28.920  25.770  1.00  0.00     0.202 C 
BRANCH   3   4
ATOM      4  C   UNL A   1      34.083  28.136  24.181  1.00  0.00     0.261 C 
BRANCH   4   5
ATOM      5  O   UNL A   1      33.014  27.919  22.720  1.00  0.00    -0.460 OA
BRANCH   5   6
ATOM      6  C   UNL A   1      31.568  27.730  22.353  1.00  0.00     0.339 C 
ATOM      7  O   UNL A   1      31.127  27.092  21.392  1.00  0.00    -0.246 OA
BRANCH   6   8
ATOM      8  C   UNL A   1      30.327  28.304  22.949  1.00  0.00     0.073 A 
ATOM      9  C   UNL A   1      29.383  27.485  23.733  1.00  0.00     0.023 A 
ATOM     10  C   UNL A   1      28.012  27.801  23.699  1.00  0.00     0.016 A 
ATOM     11  C   UNL A   1      27.539  28.842  22.909  1.00  0.00     0.001 A 
ATOM     12  C   UNL A   1      29.802  29.337  22.159  1.00  0.00     0.017 A 
ATOM     13  C   UNL A   1      28.424  29.591  22.134  1.00  0.00     0.001 A 
BRANCH   9  14
ATOM     14  S   UNL A   1      29.667  25.770  24.346  1.00  0.00    -0.111 SA
BRANCH  14  15
ATOM     15  C   UNL A   1      31.424  25.504  24.906  1.00  0.00     0.151 C 
ATOM     16  N   UNL A   1      32.472  23.415  25.183  1.00  0.00    -0.250 N 
ATOM     17  C   UNL A   1      31.986  23.748  26.431  1.00  0.00     0.235 C 
ATOM     18  C   UNL A   1      32.187  24.387  24.250  1.00  0.00     0.247 C 
ATOM     19  O   UNL A   1      31.754  22.988  27.363  1.00  0.00    -0.274 OA
ATOM     20  C   UNL A   1      31.525  25.172  26.395  1.00  0.00     0.126 C 
ATOM     21  O   UNL A   1      32.555  24.419  23.080  1.00  0.00    -0.273 OA
BRANCH  16  22
ATOM     22  C   UNL A   1      32.990  22.123  24.873  1.00  0.00     0.052 A 
ATOM     23  C   UNL A   1      34.410  18.048  24.538  1.00  0.00     0.044 C 
ATOM     24  C   UNL A   1      33.940  19.470  24.591  1.00  0.00    -0.051 A 
ATOM     25  C   UNL A   1      34.816  20.505  24.929  1.00  0.00     0.005 A 
ATOM     26  C   UNL A   1      32.604  19.782  24.322  1.00  0.00     0.005 A 
ATOM     27  C   UNL A   1      34.342  21.813  25.085  1.00  0.00     0.027 A 
ATOM     28  C   UNL A   1      32.136  21.093  24.457  1.00  0.00     0.027 A 
ENDBRANCH  16  22
ENDBRANCH  14  15
ENDBRANCH   9  14
ENDBRANCH   6   8
ENDBRANCH   5   6
ENDBRANCH   4   5
ENDBRANCH   3   4
ENDBRANCH   2   3
ENDBRANCH   1   2
BRANCH   1  29
ATOM     29  C   UNL A   1      33.943  32.124  27.931  1.00  0.00     0.188 C 
BRANCH  29  30
ATOM     30  O   UNL A   1      34.540  31.921  29.196  1.00  0.00    -0.376 OA
BRANCH  30  31
ATOM     31  C   UNL A   1      34.449  33.025  30.094  1.00  0.00     0.202 C 
BRANCH  31  32
ATOM     32  C   UNL A   1      35.385  33.021  31.325  1.00  0.00     0.261 C 
BRANCH  32  33
ATOM     33  O   UNL A   1      36.694  33.596  31.089  1.00  0.00    -0.460 OA
BRANCH  33  34
ATOM     34  C   UNL A   1      37.254  33.540  29.824  1.00  0.00     0.338 C 
ATOM     35  O   UNL A   1      37.137  34.414  29.023  1.00  0.00    -0.246 OA
BRANCH  34  36
ATOM     36  C   UNL A   1      38.301  32.492  29.740  1.00  0.00     0.060 A 
ATOM     37  C   UNL A   1      38.236  31.187  29.265  1.00  0.00     0.016 A 
ATOM     38  C   UNL A   1      39.472  32.855  30.256  1.00  0.00     0.016 A 
ATOM     39  C   UNL A   1      39.295  30.183  29.437  1.00  0.00     0.010 A 
ATOM     40  C   UNL A   1      40.403  31.849  30.458  1.00  0.00     0.010 A 
ATOM     41  C   UNL A   1      40.516  30.462  30.024  1.00  0.00    -0.014 A 
BRANCH  41  42
ATOM     42  C   UNL A   1      41.888  29.366  30.202  1.00  0.00     0.031 A 
ATOM     43  C   UNL A   1      42.211  27.673  29.613  1.00  0.00     0.074 A 
ATOM     44  C   UNL A   1      42.957  29.753  30.939  1.00  0.00     0.049 A 
ATOM     45  N   UNL A   1      43.091  26.812  30.110  1.00  0.00    -0.248 NA
ATOM     46  C   UNL A   1      41.431  26.846  28.562  1.00  0.00     0.031 C 
ATOM     47  C   UNL A   1      44.312  29.278  30.641  1.00  0.00     0.029 A 
ATOM     48  N   UNL A   1      43.161  30.689  31.947  1.00  0.00    -0.354 N 
ATOM     49  C   UNL A   1      43.020  25.607  29.362  1.00  0.00     0.074 A 
ATOM     50  C   UNL A   1      41.782  25.595  28.716  1.00  0.00     0.031 C 
ATOM     51  C   UNL A   1      45.176  29.813  31.506  1.00  0.00     0.029 A 
ATOM     52  C   UNL A   1      44.420  30.508  32.521  1.00  0.00     0.049 A 
ATOM     53  H   UNL A   1      42.512  31.379  32.215  1.00  0.00     0.167 HD
ATOM     54  C   UNL A   1      44.081  24.810  29.036  1.00  0.00     0.037 A 
ATOM     55  C   UNL A   1      44.657  30.434  33.860  1.00  0.00     0.037 A 
ATOM     56  C   UNL A   1      45.196  25.192  29.859  1.00  0.00     0.049 A 
ATOM     57  C   UNL A   1      45.229  29.075  34.251  1.00  0.00     0.074 A 
ATOM     58  C   UNL A   1      46.259  26.051  29.671  1.00  0.00     0.029 A 
ATOM     59  N   UNL A   1      45.063  25.003  31.223  1.00  0.00    -0.354 N 
ATOM     60  N   UNL A   1      45.486  28.127  33.386  1.00  0.00    -0.248 NA
ATOM     61  C   UNL A   1      45.529  28.638  35.615  1.00  0.00     0.031 C 
ATOM     62  C   UNL A   1      46.699  26.466  30.959  1.00  0.00     0.029 A 
ATOM     63  C   UNL A   1      45.938  25.815  31.915  1.00  0.00     0.049 A 
ATOM     64  H   UNL A   1      44.431  24.375  31.643  1.00  0.00     0.167 HD
ATOM     65  C   UNL A   1      45.809  26.967  34.028  1.00  0.00     0.074 A 
ATOM     66  C   UNL A   1      45.889  27.355  35.422  1.00  0.00     0.031 C 
ATOM     67  C   UNL A   1      45.924  25.774  33.371  1.00  0.00     0.037 A 
BRANCH  54  68
ATOM     68  C   UNL A   1      44.138  24.000  27.707  1.00  0.00     0.058 A 
ATOM     69  C   UNL A   1      43.449  22.775  27.591  1.00  0.00     0.135 A 
ATOM     70  C   UNL A   1      44.928  24.294  26.562  1.00  0.00     0.135 A 
ATOM     71  F   UNL A   1      42.556  22.398  28.516  1.00  0.00    -0.206 F 
ATOM     72  C   UNL A   1      43.634  21.874  26.525  1.00  0.00     0.059 A 
ATOM     73  C   UNL A   1      45.206  23.375  25.535  1.00  0.00     0.059 A 
ATOM     74  F   UNL A   1      45.404  25.526  26.331  1.00  0.00    -0.206 F 
ATOM     75  C   UNL A   1      44.550  22.160  25.521  1.00  0.00     0.060 A 
BRANCH  75  76
ATOM     76  S   UNL A   1      44.837  20.967  24.193  1.00  0.00     0.124 S 
ATOM     77  O   UNL A   1      43.931  19.877  24.542  1.00  0.00    -0.237 OA
ATOM     78  O   UNL A   1      44.476  21.739  23.009  1.00  0.00    -0.237 OA
ATOM     79  O   UNL A   1      46.258  20.648  24.323  1.00  0.00    -0.744 OA
ENDBRANCH  75  76
ENDBRANCH  54  68
BRANCH  55  80
ATOM     80  C   UNL A   1      43.915  31.436  34.675  1.00  0.00     0.058 A 
ATOM     81  C   UNL A   1      44.414  32.762  34.663  1.00  0.00     0.135 A 
ATOM     82  C   UNL A   1      42.670  31.249  35.280  1.00  0.00     0.135 A 
ATOM     83  F   UNL A   1      45.628  33.017  34.145  1.00  0.00    -0.206 F 
ATOM     84  C   UNL A   1      43.670  33.858  35.093  1.00  0.00     0.059 A 
ATOM     85  C   UNL A   1      41.919  32.336  35.763  1.00  0.00     0.059 A 
ATOM     86  F   UNL A   1      42.121  30.029  35.351  1.00  0.00    -0.206 F 
ATOM     87  C   UNL A   1      42.404  33.640  35.616  1.00  0.00     0.060 A 
BRANCH  87  88
ATOM     88  S   UNL A   1      41.336  35.071  35.952  1.00  0.00     0.124 S 
ATOM     89  O   UNL A   1      41.132  35.611  34.612  1.00  0.00    -0.237 OA
ATOM     90  O   UNL A   1      40.160  34.460  36.567  1.00  0.00    -0.237 OA
ATOM     91  O   UNL A   1      42.160  35.891  36.836  1.00  0.00    -0.744 OA
ENDBRANCH  87  88
ENDBRANCH  55  80
BRANCH  67  92
ATOM     92  C   UNL A   1      46.032  24.426  34.038  1.00  0.00     0.058 A 
ATOM     93  C   UNL A   1      47.244  23.864  34.467  1.00  0.00     0.135 A 
ATOM     94  C   UNL A   1      44.858  23.725  34.409  1.00  0.00     0.135 A 
ATOM     95  F   UNL A   1      48.410  24.502  34.286  1.00  0.00    -0.206 F 
ATOM     96  C   UNL A   1      47.298  22.637  35.128  1.00  0.00     0.059 A 
ATOM     97  C   UNL A   1      44.886  22.537  35.128  1.00  0.00     0.059 A 
ATOM     98  F   UNL A   1      43.638  24.187  34.091  1.00  0.00    -0.206 F 
ATOM     99  C   UNL A   1      46.115  21.974  35.439  1.00  0.00     0.060 A 
BRANCH  99 100
ATOM    100  S   UNL A   1      46.158  20.363  36.240  1.00  0.00     0.124 S 
ATOM    101  O   UNL A   1      45.189  19.620  35.439  1.00  0.00    -0.237 OA
ATOM    102  O   UNL A   1      47.550  19.951  36.082  1.00  0.00    -0.237 OA
ATOM    103  O   UNL A   1      45.752  20.664  37.608  1.00  0.00    -0.744 OA
ENDBRANCH  99 100
ENDBRANCH  67  92
ENDBRANCH  41  42
ENDBRANCH  34  36
ENDBRANCH  33  34
ENDBRANCH  32  33
ENDBRANCH  31  32
ENDBRANCH  30  31
ENDBRANCH  29  30
ENDBRANCH   1  29
TORSDOF 23
ENDMDL
MODEL 3
REMARK VINA RESULT:     -11.5      4.641      9.952
REMARK SMILES Cc1ccc(N2C(=O)C[C@H](Sc3ccccc3C(=O)OCCOCCOCCOC(=O)c3ccc(-c4c5nc(c(-c6c(F)cc(S(=O)(=O)[O-])cc6F)c6ccc([nH]6)c(-c6c(F)cc(S(=O)(=O)[O-])cc6F)c6nc(c(-c7c(F)cc(S(=O)(=O)[O-])cc7F)c7ccc4[nH]7)C=C6)C=C5)cc3)C2=O)cc1
REMARK SMILES IDX 24 1 23 2 22 3 21 4 20 5 18 6 19 7 17 8 12 9 13 10 14 11
REMARK SMILES IDX 16 12 15 13 11 14 10 15 6 16 7 17 98 18 8 19 9 20 99 21 5 22
REMARK SMILES IDX 1 23 2 24 3 25 101 26 4 27 100 28 25 29 26 30 27 31 28 32
REMARK SMILES IDX 29 33 30 34 31 35 32 36 33 37 97 38 34 39 96 40 35 41 36 42
REMARK SMILES IDX 37 43 90 44 38 45 95 46 89 47 91 48 39 49 94 50 88 51 87 52
REMARK SMILES IDX 40 54 74 55 53 56 73 57 54 58 57 59 72 60 92 61 55 62 56 63
REMARK SMILES IDX 71 65 93 66 58 67 41 68 42 69 51 70 43 71 44 72 50 73 52 74
REMARK SMILES IDX 45 75 46 76 47 77 48 78 49 79 75 80 76 81 85 82 77 83 78 84
REMARK SMILES IDX 84 85 86 86 79 87 80 88 81 89 82 90 83 91 59 92 60 93 69 94
REMARK SMILES IDX 61 95 62 96 68 97 70 98 63 99 64 100 65 101 66 102 67 103
REMARK H PARENT 91 53 57 64
REMARK Flexibility Score: inf
ROOT
ATOM      1  C   UNL A   1      31.536  30.361  26.175  1.00  0.00     0.188 C 
ENDROOT
BRANCH   1   2
ATOM      2  O   UNL A   1      31.575  29.891  24.813  1.00  0.00    -0.376 OA
BRANCH   2   3
ATOM      3  C   UNL A   1      32.281  28.765  24.255  1.00  0.00     0.202 C 
BRANCH   3   4
ATOM      4  C   UNL A   1      31.896  27.734  22.829  1.00  0.00     0.261 C 
BRANCH   4   5
ATOM      5  O   UNL A   1      31.292  26.017  22.729  1.00  0.00    -0.460 OA
BRANCH   5   6
ATOM      6  C   UNL A   1      31.048  24.816  23.601  1.00  0.00     0.339 C 
ATOM      7  O   UNL A   1      30.468  23.775  23.277  1.00  0.00    -0.246 OA
BRANCH   6   8
ATOM      8  C   UNL A   1      31.330  24.586  25.047  1.00  0.00     0.073 A 
ATOM      9  C   UNL A   1      32.699  24.630  25.595  1.00  0.00     0.023 A 
ATOM     10  C   UNL A   1      33.026  23.805  26.687  1.00  0.00     0.016 A 
ATOM     11  C   UNL A   1      32.090  22.928  27.224  1.00  0.00     0.001 A 
ATOM     12  C   UNL A   1      30.425  23.678  25.614  1.00  0.00     0.017 A 
ATOM     13  C   UNL A   1      30.809  22.853  26.681  1.00  0.00     0.001 A 
BRANCH   9  14
ATOM     14  S   UNL A   1      34.209  25.228  24.723  1.00  0.00    -0.111 SA
BRANCH  14  15
ATOM     15  C   UNL A   1      35.145  23.841  23.902  1.00  0.00     0.151 C 
ATOM     16  N   UNL A   1      34.908  21.552  24.392  1.00  0.00    -0.250 N 
ATOM     17  C   UNL A   1      35.967  21.983  25.165  1.00  0.00     0.235 C 
ATOM     18  C   UNL A   1      34.384  22.573  23.632  1.00  0.00     0.247 C 
ATOM     19  O   UNL A   1      36.410  21.454  26.177  1.00  0.00    -0.274 OA
ATOM     20  C   UNL A   1      36.341  23.365  24.728  1.00  0.00     0.126 C 
ATOM     21  O   UNL A   1      33.497  22.486  22.789  1.00  0.00    -0.273 OA
BRANCH  16  22
ATOM     22  C   UNL A   1      34.304  20.270  24.554  1.00  0.00     0.052 A 
ATOM     23  C   UNL A   1      32.661  16.420  25.654  1.00  0.00     0.044 C 
ATOM     24  C   UNL A   1      33.210  17.741  25.209  1.00  0.00    -0.051 A 
ATOM     25  C   UNL A   1      34.492  17.839  24.661  1.00  0.00     0.005 A 
ATOM     26  C   UNL A   1      32.453  18.906  25.357  1.00  0.00     0.005 A 
ATOM     27  C   UNL A   1      35.039  19.091  24.353  1.00  0.00     0.027 A 
ATOM     28  C   UNL A   1      32.991  20.154  25.029  1.00  0.00     0.027 A 
ENDBRANCH  16  22
ENDBRANCH  14  15
ENDBRANCH   9  14
ENDBRANCH   6   8
ENDBRANCH   5   6
ENDBRANCH   4   5
ENDBRANCH   3   4
ENDBRANCH   2   3
ENDBRANCH   1   2
BRANCH   1  29
ATOM     29  C   UNL A   1      32.600  30.164  27.271  1.00  0.00     0.188 C 
BRANCH  29  30
ATOM     30  O   UNL A   1      33.891  30.626  26.924  1.00  0.00    -0.376 OA
BRANCH  30  31
ATOM     31  C   UNL A   1      34.963  29.759  27.287  1.00  0.00     0.202 C 
BRANCH  31  32
ATOM     32  C   UNL A   1      36.117  30.364  28.121  1.00  0.00     0.261 C 
BRANCH  32  33
ATOM     33  O   UNL A   1      37.123  29.408  28.539  1.00  0.00    -0.460 OA
BRANCH  33  34
ATOM     34  C   UNL A   1      37.683  29.505  29.801  1.00  0.00     0.338 C 
ATOM     35  O   UNL A   1      37.061  29.338  30.803  1.00  0.00    -0.246 OA
BRANCH  34  36
ATOM     36  C   UNL A   1      39.165  29.443  29.742  1.00  0.00     0.060 A 
ATOM     37  C   UNL A   1      40.127  30.136  30.468  1.00  0.00     0.016 A 
ATOM     38  C   UNL A   1      39.635  28.627  28.802  1.00  0.00     0.016 A 
ATOM     39  C   UNL A   1      41.564  30.137  30.161  1.00  0.00     0.010 A 
ATOM     40  C   UNL A   1      40.986  28.727  28.511  1.00  0.00     0.010 A 
ATOM     41  C   UNL A   1      42.124  29.370  29.156  1.00  0.00    -0.014 A 
BRANCH  41  42
ATOM     42  C   UNL A   1      43.837  29.222  28.757  1.00  0.00     0.031 A 
ATOM     43  C   UNL A   1      45.065  30.394  28.096  1.00  0.00     0.074 A 
ATOM     44  C   UNL A   1      44.454  28.024  28.904  1.00  0.00     0.049 A 
ATOM     45  N   UNL A   1      46.204  30.093  27.484  1.00  0.00    -0.248 NA
ATOM     46  C   UNL A   1      44.959  31.933  27.951  1.00  0.00     0.031 C 
ATOM     47  C   UNL A   1      45.879  27.926  29.232  1.00  0.00     0.029 A 
ATOM     48  N   UNL A   1      44.022  26.704  28.956  1.00  0.00    -0.354 N 
ATOM     49  C   UNL A   1      46.861  31.299  27.124  1.00  0.00     0.074 A 
ATOM     50  C   UNL A   1      45.895  32.308  27.117  1.00  0.00     0.031 C 
ATOM     51  C   UNL A   1      46.231  26.642  29.327  1.00  0.00     0.029 A 
ATOM     52  C   UNL A   1      45.115  25.839  28.886  1.00  0.00     0.049 A 
ATOM     53  H   UNL A   1      43.082  26.421  29.033  1.00  0.00     0.167 HD
ATOM     54  C   UNL A   1      48.211  31.508  27.152  1.00  0.00     0.037 A 
ATOM     55  C   UNL A   1      45.204  24.771  28.047  1.00  0.00     0.037 A 
ATOM     56  C   UNL A   1      48.859  30.229  27.255  1.00  0.00     0.049 A 
ATOM     57  C   UNL A   1      46.356  24.931  27.060  1.00  0.00     0.074 A 
ATOM     58  C   UNL A   1      49.325  29.489  28.322  1.00  0.00     0.029 A 
ATOM     59  N   UNL A   1      48.694  29.355  26.195  1.00  0.00    -0.354 N 
ATOM     60  N   UNL A   1      47.168  25.958  27.063  1.00  0.00    -0.248 NA
ATOM     61  C   UNL A   1      46.686  24.003  25.979  1.00  0.00     0.031 C 
ATOM     62  C   UNL A   1      49.335  28.125  27.917  1.00  0.00     0.029 A 
ATOM     63  C   UNL A   1      48.928  28.055  26.596  1.00  0.00     0.049 A 
ATOM     64  H   UNL A   1      48.443  29.623  25.282  1.00  0.00     0.167 HD
ATOM     65  C   UNL A   1      47.978  25.932  25.965  1.00  0.00     0.074 A 
ATOM     66  C   UNL A   1      47.686  24.652  25.351  1.00  0.00     0.031 C 
ATOM     67  C   UNL A   1      48.774  26.986  25.617  1.00  0.00     0.037 A 
BRANCH  54  68
ATOM     68  C   UNL A   1      48.832  32.897  27.482  1.00  0.00     0.058 A 
ATOM     69  C   UNL A   1      49.443  33.124  28.733  1.00  0.00     0.135 A 
ATOM     70  C   UNL A   1      48.766  34.073  26.684  1.00  0.00     0.135 A 
ATOM     71  F   UNL A   1      49.709  32.106  29.562  1.00  0.00    -0.206 F 
ATOM     72  C   UNL A   1      49.815  34.399  29.199  1.00  0.00     0.059 A 
ATOM     73  C   UNL A   1      49.039  35.368  27.159  1.00  0.00     0.059 A 
ATOM     74  F   UNL A   1      48.519  34.019  25.368  1.00  0.00    -0.206 F 
ATOM     75  C   UNL A   1      49.568  35.525  28.424  1.00  0.00     0.060 A 
BRANCH  75  76
ATOM     76  S   UNL A   1      49.981  37.167  29.059  1.00  0.00     0.124 S 
ATOM     77  O   UNL A   1      48.693  37.854  29.030  1.00  0.00    -0.237 OA
ATOM     78  O   UNL A   1      50.505  36.856  30.385  1.00  0.00    -0.237 OA
ATOM     79  O   UNL A   1      50.964  37.666  28.100  1.00  0.00    -0.744 OA
ENDBRANCH  75  76
ENDBRANCH  54  68
BRANCH  55  80
ATOM     80  C   UNL A   1      43.961  23.957  27.949  1.00  0.00     0.058 A 
ATOM     81  C   UNL A   1      43.245  24.029  26.728  1.00  0.00     0.135 A 
ATOM     82  C   UNL A   1      43.542  22.978  28.854  1.00  0.00     0.135 A 
ATOM     83  F   UNL A   1      43.554  24.977  25.827  1.00  0.00    -0.206 F 
ATOM     84  C   UNL A   1      42.271  23.104  26.362  1.00  0.00     0.059 A 
ATOM     85  C   UNL A   1      42.527  22.061  28.524  1.00  0.00     0.059 A 
ATOM     86  F   UNL A   1      44.148  22.841  30.041  1.00  0.00    -0.206 F 
ATOM     87  C   UNL A   1      41.937  22.098  27.257  1.00  0.00     0.060 A 
BRANCH  87  88
ATOM     88  S   UNL A   1      40.852  20.752  26.697  1.00  0.00     0.124 S 
ATOM     89  O   UNL A   1      39.649  21.480  26.311  1.00  0.00    -0.237 OA
ATOM     90  O   UNL A   1      41.610  20.164  25.595  1.00  0.00    -0.237 OA
ATOM     91  O   UNL A   1      40.723  19.921  27.892  1.00  0.00    -0.744 OA
ENDBRANCH  87  88
ENDBRANCH  55  80
BRANCH  67  92
ATOM     92  C   UNL A   1      49.499  27.128  24.302  1.00  0.00     0.058 A 
ATOM     93  C   UNL A   1      50.877  26.912  24.146  1.00  0.00     0.135 A 
ATOM     94  C   UNL A   1      48.765  27.335  23.109  1.00  0.00     0.135 A 
ATOM     95  F   UNL A   1      51.652  26.578  25.188  1.00  0.00    -0.206 F 
ATOM     96  C   UNL A   1      51.503  27.001  22.902  1.00  0.00     0.059 A 
ATOM     97  C   UNL A   1      49.358  27.358  21.854  1.00  0.00     0.059 A 
ATOM     98  F   UNL A   1      47.434  27.511  23.129  1.00  0.00    -0.206 F 
ATOM     99  C   UNL A   1      50.737  27.240  21.765  1.00  0.00     0.060 A 
BRANCH  99 100
ATOM    100  S   UNL A   1      51.526  27.415  20.157  1.00  0.00     0.124 S 
ATOM    101  O   UNL A   1      52.369  26.223  20.123  1.00  0.00    -0.237 OA
ATOM    102  O   UNL A   1      50.398  27.414  19.231  1.00  0.00    -0.237 OA
ATOM    103  O   UNL A   1      52.233  28.687  20.274  1.00  0.00    -0.744 OA
ENDBRANCH  99 100
ENDBRANCH  67  92
ENDBRANCH  41  42
ENDBRANCH  34  36
ENDBRANCH  33  34
ENDBRANCH  32  33
ENDBRANCH  31  32
ENDBRANCH  30  31
ENDBRANCH  29  30
ENDBRANCH   1  29
TORSDOF 23
ENDMDL
