MODEL 1
REMARK VINA RESULT:     -10.5      0.000      0.000
REMARK SMILES O=C(OCCOCCOCCOC(=O)[C@@H]1CCn2c(C(=O)c3ccccc3)ccc21)c1ccc(-c2c3nc(c(-c4c(F)cc(S(=O)(=O)[O-])cc4F)c4ccc([nH]4)c(-c4c(F)cc(S(=O)(=O)[O-])cc4F)c4nc(c(-c5c(F)cc(S(=O)(=O)[O-])cc5F)c5ccc2[nH]5)C=C4)C=C3)cc1
REMARK SMILES IDX 7 1 6 2 5 3 4 4 3 5 2 6 1 7 31 8 32 9 96 10 33 11 95 12
REMARK SMILES IDX 34 13 35 14 36 15 89 16 37 17 94 18 88 19 90 20 38 21 93 22
REMARK SMILES IDX 87 23 86 24 39 26 73 27 52 28 72 29 53 30 56 31 71 32 91 33
REMARK SMILES IDX 54 34 55 35 70 37 92 38 57 39 40 40 41 41 50 42 42 43 43 44
REMARK SMILES IDX 49 45 51 46 44 47 45 48 46 49 47 50 48 51 74 52 75 53 84 54
REMARK SMILES IDX 76 55 77 56 83 57 85 58 78 59 79 60 80 61 81 62 82 63 58 64
REMARK SMILES IDX 59 65 68 66 60 67 61 68 67 69 69 70 62 71 63 72 64 73 65 74
REMARK SMILES IDX 66 75 8 76 9 77 10 78 11 79 12 80 13 81 14 82 15 83 16 84
REMARK SMILES IDX 30 85 17 86 18 87 29 88 19 89 28 90 20 91 21 92 22 93 23 94
REMARK SMILES IDX 27 95 24 96 26 97 25 98
REMARK H PARENT 90 25 56 36
REMARK Flexibility Score: inf
ROOT
ATOM      1  C   UNL A   1      42.389  21.433  26.991  1.00  0.00     0.188 C 
ENDROOT
BRANCH   1   2
ATOM      2  O   UNL A   1      43.071  22.685  27.112  1.00  0.00    -0.376 OA
BRANCH   2   3
ATOM      3  C   UNL A   1      43.943  22.956  26.012  1.00  0.00     0.202 C 
BRANCH   3   4
ATOM      4  C   UNL A   1      43.464  24.022  25.020  1.00  0.00     0.261 C 
BRANCH   4   5
ATOM      5  O   UNL A   1      42.287  24.731  25.421  1.00  0.00    -0.460 OA
BRANCH   5   6
ATOM      6  C   UNL A   1      42.132  26.036  25.744  1.00  0.00     0.338 C 
ATOM      7  O   UNL A   1      42.225  26.854  24.826  1.00  0.00    -0.246 OA
BRANCH   6   8
ATOM      8  C   UNL A   1      41.896  26.567  27.130  1.00  0.00     0.060 A 
ATOM      9  C   UNL A   1      40.772  26.339  27.932  1.00  0.00     0.016 A 
ATOM     10  C   UNL A   1      42.896  27.414  27.645  1.00  0.00     0.016 A 
ATOM     11  C   UNL A   1      40.612  26.970  29.167  1.00  0.00     0.010 A 
ATOM     12  C   UNL A   1      42.744  28.052  28.881  1.00  0.00     0.010 A 
ATOM     13  C   UNL A   1      41.577  27.860  29.628  1.00  0.00    -0.014 A 
BRANCH  13  14
ATOM     14  C   UNL A   1      41.235  28.766  30.743  1.00  0.00     0.031 A 
ATOM     15  C   UNL A   1      41.934  28.533  32.053  1.00  0.00     0.074 A 
ATOM     16  C   UNL A   1      40.395  29.805  30.581  1.00  0.00     0.049 A 
ATOM     17  N   UNL A   1      41.884  29.238  33.150  1.00  0.00    -0.248 NA
ATOM     18  C   UNL A   1      42.861  27.386  32.117  1.00  0.00     0.031 C 
ATOM     19  C   UNL A   1      39.757  30.204  29.328  1.00  0.00     0.029 A 
ATOM     20  N   UNL A   1      39.899  30.695  31.496  1.00  0.00    -0.354 N 
ATOM     21  C   UNL A   1      42.832  28.676  33.994  1.00  0.00     0.074 A 
ATOM     22  C   UNL A   1      43.369  27.512  33.332  1.00  0.00     0.031 C 
ATOM     23  C   UNL A   1      38.842  31.157  29.581  1.00  0.00     0.029 A 
ATOM     24  C   UNL A   1      38.871  31.467  31.003  1.00  0.00     0.049 A 
ATOM     25  H   UNL A   1      40.243  30.775  32.416  1.00  0.00     0.167 HD
ATOM     26  C   UNL A   1      43.257  29.136  35.192  1.00  0.00     0.037 A 
ATOM     27  C   UNL A   1      38.044  32.307  31.651  1.00  0.00     0.037 A 
ATOM     28  C   UNL A   1      42.661  30.260  35.856  1.00  0.00     0.049 A 
ATOM     29  C   UNL A   1      38.355  32.631  33.082  1.00  0.00     0.074 A 
ATOM     30  C   UNL A   1      43.004  30.839  37.063  1.00  0.00     0.029 A 
ATOM     31  N   UNL A   1      41.562  30.957  35.371  1.00  0.00    -0.354 N 
ATOM     32  N   UNL A   1      39.300  32.145  33.852  1.00  0.00    -0.248 NA
ATOM     33  C   UNL A   1      37.547  33.688  33.703  1.00  0.00     0.031 C 
ATOM     34  C   UNL A   1      42.079  31.855  37.331  1.00  0.00     0.029 A 
ATOM     35  C   UNL A   1      41.190  31.940  36.268  1.00  0.00     0.049 A 
ATOM     36  H   UNL A   1      41.113  30.778  34.512  1.00  0.00     0.167 HD
ATOM     37  C   UNL A   1      39.257  32.892  35.020  1.00  0.00     0.074 A 
ATOM     38  C   UNL A   1      38.156  33.827  34.873  1.00  0.00     0.031 C 
ATOM     39  C   UNL A   1      40.087  32.851  36.091  1.00  0.00     0.037 A 
BRANCH  26  40
ATOM     40  C   UNL A   1      44.412  28.415  35.823  1.00  0.00     0.058 A 
ATOM     41  C   UNL A   1      45.740  28.770  35.527  1.00  0.00     0.135 A 
ATOM     42  C   UNL A   1      44.201  27.342  36.700  1.00  0.00     0.135 A 
ATOM     43  F   UNL A   1      45.998  29.773  34.672  1.00  0.00    -0.206 F 
ATOM     44  C   UNL A   1      46.817  28.065  36.054  1.00  0.00     0.059 A 
ATOM     45  C   UNL A   1      45.264  26.635  37.254  1.00  0.00     0.059 A 
ATOM     46  F   UNL A   1      42.953  26.954  37.005  1.00  0.00    -0.206 F 
ATOM     47  C   UNL A   1      46.568  26.993  36.912  1.00  0.00     0.060 A 
BRANCH  47  48
ATOM     48  S   UNL A   1      47.976  26.072  37.567  1.00  0.00     0.124 S 
ATOM     49  O   UNL A   1      49.082  26.971  37.257  1.00  0.00    -0.237 OA
ATOM     50  O   UNL A   1      47.638  25.948  38.982  1.00  0.00    -0.237 OA
ATOM     51  O   UNL A   1      47.949  24.825  36.808  1.00  0.00    -0.744 OA
ENDBRANCH  47  48
ENDBRANCH  26  40
BRANCH  27  52
ATOM     52  C   UNL A   1      36.880  32.933  30.977  1.00  0.00     0.058 A 
ATOM     53  C   UNL A   1      35.572  32.488  31.205  1.00  0.00     0.135 A 
ATOM     54  C   UNL A   1      37.068  33.959  30.038  1.00  0.00     0.135 A 
ATOM     55  F   UNL A   1      35.342  31.498  32.080  1.00  0.00    -0.206 F 
ATOM     56  C   UNL A   1      34.488  33.042  30.528  1.00  0.00     0.059 A 
ATOM     57  C   UNL A   1      36.000  34.529  29.348  1.00  0.00     0.059 A 
ATOM     58  F   UNL A   1      38.305  34.402  29.769  1.00  0.00    -0.206 F 
ATOM     59  C   UNL A   1      34.711  34.061  29.599  1.00  0.00     0.060 A 
BRANCH  59  60
ATOM     60  S   UNL A   1      33.281  34.807  28.780  1.00  0.00     0.124 S 
ATOM     61  O   UNL A   1      33.895  35.908  28.049  1.00  0.00    -0.237 OA
ATOM     62  O   UNL A   1      32.786  33.698  27.969  1.00  0.00    -0.237 OA
ATOM     63  O   UNL A   1      32.408  35.194  29.885  1.00  0.00    -0.744 OA
ENDBRANCH  59  60
ENDBRANCH  27  52
BRANCH  39  64
ATOM     64  C   UNL A   1      39.882  33.902  37.136  1.00  0.00     0.058 A 
ATOM     65  C   UNL A   1      39.136  33.662  38.298  1.00  0.00     0.135 A 
ATOM     66  C   UNL A   1      40.458  35.171  36.965  1.00  0.00     0.135 A 
ATOM     67  F   UNL A   1      38.556  32.468  38.495  1.00  0.00    -0.206 F 
ATOM     68  C   UNL A   1      38.943  34.659  39.246  1.00  0.00     0.059 A 
ATOM     69  C   UNL A   1      40.301  36.172  37.912  1.00  0.00     0.059 A 
ATOM     70  F   UNL A   1      41.185  35.443  35.868  1.00  0.00    -0.206 F 
ATOM     71  C   UNL A   1      39.528  35.911  39.042  1.00  0.00     0.060 A 
BRANCH  71  72
ATOM     72  S   UNL A   1      39.291  37.196  40.286  1.00  0.00     0.124 S 
ATOM     73  O   UNL A   1      38.564  38.208  39.527  1.00  0.00    -0.237 OA
ATOM     74  O   UNL A   1      38.523  36.500  41.315  1.00  0.00    -0.237 OA
ATOM     75  O   UNL A   1      40.655  37.552  40.667  1.00  0.00    -0.744 OA
ENDBRANCH  71  72
ENDBRANCH  39  64
ENDBRANCH  13  14
ENDBRANCH   6   8
ENDBRANCH   5   6
ENDBRANCH   4   5
ENDBRANCH   3   4
ENDBRANCH   2   3
ENDBRANCH   1   2
BRANCH   1  76
ATOM     76  C   UNL A   1      40.998  21.416  27.628  1.00  0.00     0.188 C 
BRANCH  76  77
ATOM     77  O   UNL A   1      39.881  21.810  26.834  1.00  0.00    -0.376 OA
BRANCH  77  78
ATOM     78  C   UNL A   1      39.446  23.163  26.905  1.00  0.00     0.202 C 
BRANCH  78  79
ATOM     79  C   UNL A   1      38.313  23.649  25.987  1.00  0.00     0.261 C 
BRANCH  79  80
ATOM     80  O   UNL A   1      37.087  22.921  26.109  1.00  0.00    -0.463 OA
BRANCH  80  81
ATOM     81  C   UNL A   1      36.847  22.020  25.115  1.00  0.00     0.315 C 
ATOM     82  O   UNL A   1      37.673  21.203  24.718  1.00  0.00    -0.251 OA
BRANCH  81  83
ATOM     83  C   UNL A   1      35.396  21.989  24.671  1.00  0.00     0.148 C 
ATOM     84  C   UNL A   1      35.198  22.754  23.336  1.00  0.00     0.043 C 
ATOM     85  C   UNL A   1      34.406  22.656  25.555  1.00  0.00     0.033 A 
ATOM     86  C   UNL A   1      34.486  24.066  23.683  1.00  0.00     0.124 C 
ATOM     87  N   UNL A   1      33.912  23.798  24.988  1.00  0.00    -0.341 N 
ATOM     88  C   UNL A   1      33.706  22.414  26.706  1.00  0.00     0.025 A 
ATOM     89  C   UNL A   1      32.865  24.304  25.695  1.00  0.00     0.090 A 
ATOM     90  C   UNL A   1      32.703  23.420  26.758  1.00  0.00     0.032 A 
BRANCH  89  91
ATOM     91  C   UNL A   1      32.031  25.460  25.406  1.00  0.00     0.209 C 
ATOM     92  O   UNL A   1      31.095  25.435  24.609  1.00  0.00    -0.287 OA
BRANCH  91  93
ATOM     93  C   UNL A   1      32.372  26.756  26.015  1.00  0.00     0.024 A 
ATOM     94  C   UNL A   1      31.465  27.426  26.843  1.00  0.00     0.012 A 
ATOM     95  C   UNL A   1      33.662  27.254  25.809  1.00  0.00     0.012 A 
ATOM     96  C   UNL A   1      31.875  28.584  27.499  1.00  0.00     0.001 A 
ATOM     97  C   UNL A   1      34.064  28.409  26.473  1.00  0.00     0.001 A 
ATOM     98  C   UNL A   1      33.172  29.069  27.319  1.00  0.00     0.000 A 
ENDBRANCH  91  93
ENDBRANCH  89  91
ENDBRANCH  81  83
ENDBRANCH  80  81
ENDBRANCH  79  80
ENDBRANCH  78  79
ENDBRANCH  77  78
ENDBRANCH  76  77
ENDBRANCH   1  76
TORSDOF 22
ENDMDL
MODEL 2
REMARK VINA RESULT:     -10.5      6.112     12.092
REMARK SMILES O=C(OCCOCCOCCOC(=O)[C@@H]1CCn2c(C(=O)c3ccccc3)ccc21)c1ccc(-c2c3nc(c(-c4c(F)cc(S(=O)(=O)[O-])cc4F)c4ccc([nH]4)c(-c4c(F)cc(S(=O)(=O)[O-])cc4F)c4nc(c(-c5c(F)cc(S(=O)(=O)[O-])cc5F)c5ccc2[nH]5)C=C4)C=C3)cc1
REMARK SMILES IDX 7 1 6 2 5 3 4 4 3 5 2 6 1 7 31 8 32 9 96 10 33 11 95 12
REMARK SMILES IDX 34 13 35 14 36 15 89 16 37 17 94 18 88 19 90 20 38 21 93 22
REMARK SMILES IDX 87 23 86 24 39 26 73 27 52 28 72 29 53 30 56 31 71 32 91 33
REMARK SMILES IDX 54 34 55 35 70 37 92 38 57 39 40 40 41 41 50 42 42 43 43 44
REMARK SMILES IDX 49 45 51 46 44 47 45 48 46 49 47 50 48 51 74 52 75 53 84 54
REMARK SMILES IDX 76 55 77 56 83 57 85 58 78 59 79 60 80 61 81 62 82 63 58 64
REMARK SMILES IDX 59 65 68 66 60 67 61 68 67 69 69 70 62 71 63 72 64 73 65 74
REMARK SMILES IDX 66 75 8 76 9 77 10 78 11 79 12 80 13 81 14 82 15 83 16 84
REMARK SMILES IDX 30 85 17 86 18 87 29 88 19 89 28 90 20 91 21 92 22 93 23 94
REMARK SMILES IDX 27 95 24 96 26 97 25 98
REMARK H PARENT 90 25 56 36
REMARK Flexibility Score: inf
ROOT
ATOM      1  C   UNL A   1      35.017  31.544  27.726  1.00  0.00     0.188 C 
ENDROOT
BRANCH   1   2
ATOM      2  O   UNL A   1      34.587  32.375  28.809  1.00  0.00    -0.376 OA
BRANCH   2   3
ATOM      3  C   UNL A   1      35.665  33.055  29.455  1.00  0.00     0.202 C 
BRANCH   3   4
ATOM      4  C   UNL A   1      35.991  32.597  30.881  1.00  0.00     0.261 C 
BRANCH   4   5
ATOM      5  O   UNL A   1      35.880  31.187  31.100  1.00  0.00    -0.460 OA
BRANCH   5   6
ATOM      6  C   UNL A   1      36.849  30.267  31.322  1.00  0.00     0.338 C 
ATOM      7  O   UNL A   1      36.638  29.437  32.208  1.00  0.00    -0.246 OA
BRANCH   6   8
ATOM      8  C   UNL A   1      38.169  30.204  30.607  1.00  0.00     0.060 A 
ATOM      9  C   UNL A   1      38.366  30.076  29.227  1.00  0.00     0.016 A 
ATOM     10  C   UNL A   1      39.316  30.234  31.423  1.00  0.00     0.016 A 
ATOM     11  C   UNL A   1      39.641  29.922  28.679  1.00  0.00     0.010 A 
ATOM     12  C   UNL A   1      40.597  30.079  30.884  1.00  0.00     0.010 A 
ATOM     13  C   UNL A   1      40.758  29.881  29.508  1.00  0.00    -0.014 A 
BRANCH  13  14
ATOM     14  C   UNL A   1      42.033  29.376  28.960  1.00  0.00     0.031 A 
ATOM     15  C   UNL A   1      43.099  30.392  28.662  1.00  0.00     0.074 A 
ATOM     16  C   UNL A   1      42.266  28.060  28.805  1.00  0.00     0.049 A 
ATOM     17  N   UNL A   1      44.329  30.204  28.268  1.00  0.00    -0.248 NA
ATOM     18  C   UNL A   1      42.754  31.807  28.898  1.00  0.00     0.031 C 
ATOM     19  C   UNL A   1      41.356  26.978  29.176  1.00  0.00     0.029 A 
ATOM     20  N   UNL A   1      43.335  27.409  28.247  1.00  0.00    -0.354 N 
ATOM     21  C   UNL A   1      44.923  31.458  28.296  1.00  0.00     0.074 A 
ATOM     22  C   UNL A   1      43.900  32.416  28.642  1.00  0.00     0.031 C 
ATOM     23  C   UNL A   1      41.835  25.814  28.702  1.00  0.00     0.029 A 
ATOM     24  C   UNL A   1      43.107  26.067  28.040  1.00  0.00     0.049 A 
ATOM     25  H   UNL A   1      44.182  27.856  28.018  1.00  0.00     0.167 HD
ATOM     26  C   UNL A   1      46.226  31.767  28.110  1.00  0.00     0.037 A 
ATOM     27  C   UNL A   1      43.847  25.167  27.369  1.00  0.00     0.037 A 
ATOM     28  C   UNL A   1      47.209  30.803  27.705  1.00  0.00     0.049 A 
ATOM     29  C   UNL A   1      45.216  25.582  26.917  1.00  0.00     0.074 A 
ATOM     30  C   UNL A   1      48.564  30.979  27.496  1.00  0.00     0.029 A 
ATOM     31  N   UNL A   1      46.923  29.475  27.413  1.00  0.00    -0.354 N 
ATOM     32  N   UNL A   1      45.796  26.754  27.013  1.00  0.00    -0.248 NA
ATOM     33  C   UNL A   1      46.066  24.526  26.355  1.00  0.00     0.031 C 
ATOM     34  C   UNL A   1      49.087  29.767  27.028  1.00  0.00     0.029 A 
ATOM     35  C   UNL A   1      48.068  28.826  26.992  1.00  0.00     0.049 A 
ATOM     36  H   UNL A   1      46.035  29.058  27.494  1.00  0.00     0.167 HD
ATOM     37  C   UNL A   1      47.106  26.562  26.599  1.00  0.00     0.074 A 
ATOM     38  C   UNL A   1      47.215  25.170  26.203  1.00  0.00     0.031 C 
ATOM     39  C   UNL A   1      48.139  27.440  26.602  1.00  0.00     0.037 A 
BRANCH  26  40
ATOM     40  C   UNL A   1      46.625  33.193  28.353  1.00  0.00     0.058 A 
ATOM     41  C   UNL A   1      47.002  33.634  29.635  1.00  0.00     0.135 A 
ATOM     42  C   UNL A   1      46.600  34.136  27.317  1.00  0.00     0.135 A 
ATOM     43  F   UNL A   1      47.016  32.776  30.669  1.00  0.00    -0.206 F 
ATOM     44  C   UNL A   1      47.308  34.967  29.885  1.00  0.00     0.059 A 
ATOM     45  C   UNL A   1      46.922  35.472  27.540  1.00  0.00     0.059 A 
ATOM     46  F   UNL A   1      46.235  33.770  26.079  1.00  0.00    -0.206 F 
ATOM     47  C   UNL A   1      47.259  35.881  28.831  1.00  0.00     0.060 A 
BRANCH  47  48
ATOM     48  S   UNL A   1      47.635  37.612  29.177  1.00  0.00     0.124 S 
ATOM     49  O   UNL A   1      49.094  37.605  29.149  1.00  0.00    -0.237 OA
ATOM     50  O   UNL A   1      46.984  38.302  28.068  1.00  0.00    -0.237 OA
ATOM     51  O   UNL A   1      47.034  37.834  30.489  1.00  0.00    -0.744 OA
ENDBRANCH  47  48
ENDBRANCH  26  40
BRANCH  27  52
ATOM     52  C   UNL A   1      43.357  23.791  27.108  1.00  0.00     0.058 A 
ATOM     53  C   UNL A   1      42.853  23.415  25.856  1.00  0.00     0.135 A 
ATOM     54  C   UNL A   1      43.331  22.837  28.138  1.00  0.00     0.135 A 
ATOM     55  F   UNL A   1      42.840  24.295  24.845  1.00  0.00    -0.206 F 
ATOM     56  C   UNL A   1      42.343  22.138  25.633  1.00  0.00     0.059 A 
ATOM     57  C   UNL A   1      42.826  21.554  27.938  1.00  0.00     0.059 A 
ATOM     58  F   UNL A   1      43.782  23.159  29.359  1.00  0.00    -0.206 F 
ATOM     59  C   UNL A   1      42.332  21.214  26.680  1.00  0.00     0.060 A 
BRANCH  59  60
ATOM     60  S   UNL A   1      41.723  19.543  26.346  1.00  0.00     0.124 S 
ATOM     61  O   UNL A   1      40.287  19.766  26.228  1.00  0.00    -0.237 OA
ATOM     62  O   UNL A   1      42.421  19.209  25.108  1.00  0.00    -0.237 OA
ATOM     63  O   UNL A   1      42.147  18.777  27.514  1.00  0.00    -0.744 OA
ENDBRANCH  59  60
ENDBRANCH  27  52
BRANCH  39  64
ATOM     64  C   UNL A   1      49.485  26.888  26.248  1.00  0.00     0.058 A 
ATOM     65  C   UNL A   1      50.033  27.026  24.966  1.00  0.00     0.135 A 
ATOM     66  C   UNL A   1      50.238  26.217  27.226  1.00  0.00     0.135 A 
ATOM     67  F   UNL A   1      49.342  27.648  23.998  1.00  0.00    -0.206 F 
ATOM     68  C   UNL A   1      51.277  26.490  24.655  1.00  0.00     0.059 A 
ATOM     69  C   UNL A   1      51.493  25.699  26.944  1.00  0.00     0.059 A 
ATOM     70  F   UNL A   1      49.753  26.067  28.469  1.00  0.00    -0.206 F 
ATOM     71  C   UNL A   1      51.997  25.826  25.651  1.00  0.00     0.060 A 
BRANCH  71  72
ATOM     72  S   UNL A   1      53.619  25.149  25.246  1.00  0.00     0.124 S 
ATOM     73  O   UNL A   1      54.431  25.655  26.348  1.00  0.00    -0.237 OA
ATOM     74  O   UNL A   1      53.370  23.710  25.251  1.00  0.00    -0.237 OA
ATOM     75  O   UNL A   1      53.907  25.723  23.935  1.00  0.00    -0.744 OA
ENDBRANCH  71  72
ENDBRANCH  39  64
ENDBRANCH  13  14
ENDBRANCH   6   8
ENDBRANCH   5   6
ENDBRANCH   4   5
ENDBRANCH   3   4
ENDBRANCH   2   3
ENDBRANCH   1   2
BRANCH   1  76
ATOM     76  C   UNL A   1      34.413  30.138  27.740  1.00  0.00     0.188 C 
BRANCH  76  77
ATOM     77  O   UNL A   1      33.981  29.571  26.505  1.00  0.00    -0.376 OA
BRANCH  77  78
ATOM     78  C   UNL A   1      33.684  28.180  26.469  1.00  0.00     0.202 C 
BRANCH  78  79
ATOM     79  C   UNL A   1      33.664  27.439  25.122  1.00  0.00     0.261 C 
BRANCH  79  80
ATOM     80  O   UNL A   1      32.464  26.705  24.857  1.00  0.00    -0.463 OA
BRANCH  80  81
ATOM     81  C   UNL A   1      32.045  26.730  23.561  1.00  0.00     0.315 C 
ATOM     82  O   UNL A   1      31.984  27.750  22.879  1.00  0.00    -0.251 OA
BRANCH  81  83
ATOM     83  C   UNL A   1      31.839  25.347  22.970  1.00  0.00     0.148 C 
ATOM     84  C   UNL A   1      30.556  24.678  23.533  1.00  0.00     0.043 C 
ATOM     85  C   UNL A   1      32.873  24.324  23.273  1.00  0.00     0.033 A 
ATOM     86  C   UNL A   1      31.018  23.589  24.505  1.00  0.00     0.124 C 
ATOM     87  N   UNL A   1      32.397  23.360  24.118  1.00  0.00    -0.341 N 
ATOM     88  C   UNL A   1      34.119  23.947  22.854  1.00  0.00     0.025 A 
ATOM     89  C   UNL A   1      33.265  22.319  24.240  1.00  0.00     0.090 A 
ATOM     90  C   UNL A   1      34.337  22.661  23.419  1.00  0.00     0.032 A 
BRANCH  89  91
ATOM     91  C   UNL A   1      33.119  21.080  24.988  1.00  0.00     0.209 C 
ATOM     92  O   UNL A   1      32.934  21.043  26.203  1.00  0.00    -0.287 OA
BRANCH  91  93
ATOM     93  C   UNL A   1      33.296  19.797  24.288  1.00  0.00     0.024 A 
ATOM     94  C   UNL A   1      34.307  18.905  24.659  1.00  0.00     0.012 A 
ATOM     95  C   UNL A   1      32.367  19.462  23.297  1.00  0.00     0.012 A 
ATOM     96  C   UNL A   1      34.358  17.651  24.056  1.00  0.00     0.001 A 
ATOM     97  C   UNL A   1      32.422  18.205  22.705  1.00  0.00     0.001 A 
ATOM     98  C   UNL A   1      33.415  17.300  23.087  1.00  0.00     0.000 A 
ENDBRANCH  91  93
ENDBRANCH  89  91
ENDBRANCH  81  83
ENDBRANCH  80  81
ENDBRANCH  79  80
ENDBRANCH  78  79
ENDBRANCH  77  78
ENDBRANCH  76  77
ENDBRANCH   1  76
TORSDOF 22
ENDMDL
MODEL 3
REMARK VINA RESULT:     -10.4      1.546      3.092
REMARK SMILES O=C(OCCOCCOCCOC(=O)[C@@H]1CCn2c(C(=O)c3ccccc3)ccc21)c1ccc(-c2c3nc(c(-c4c(F)cc(S(=O)(=O)[O-])cc4F)c4ccc([nH]4)c(-c4c(F)cc(S(=O)(=O)[O-])cc4F)c4nc(c(-c5c(F)cc(S(=O)(=O)[O-])cc5F)c5ccc2[nH]5)C=C4)C=C3)cc1
REMARK SMILES IDX 7 1 6 2 5 3 4 4 3 5 2 6 1 7 31 8 32 9 96 10 33 11 95 12
REMARK SMILES IDX 34 13 35 14 36 15 89 16 37 17 94 18 88 19 90 20 38 21 93 22
REMARK SMILES IDX 87 23 86 24 39 26 73 27 52 28 72 29 53 30 56 31 71 32 91 33
REMARK SMILES IDX 54 34 55 35 70 37 92 38 57 39 40 40 41 41 50 42 42 43 43 44
REMARK SMILES IDX 49 45 51 46 44 47 45 48 46 49 47 50 48 51 74 52 75 53 84 54
REMARK SMILES IDX 76 55 77 56 83 57 85 58 78 59 79 60 80 61 81 62 82 63 58 64
REMARK SMILES IDX 59 65 68 66 60 67 61 68 67 69 69 70 62 71 63 72 64 73 65 74
REMARK SMILES IDX 66 75 8 76 9 77 10 78 11 79 12 80 13 81 14 82 15 83 16 84
REMARK SMILES IDX 30 85 17 86 18 87 29 88 19 89 28 90 20 91 21 92 22 93 23 94
REMARK SMILES IDX 27 95 24 96 26 97 25 98
REMARK H PARENT 90 25 56 36
REMARK Flexibility Score: inf
ROOT
ATOM      1  C   UNL A   1      42.841  21.393  26.953  1.00  0.00     0.188 C 
ENDROOT
BRANCH   1   2
ATOM      2  O   UNL A   1      43.428  22.688  27.109  1.00  0.00    -0.376 OA
BRANCH   2   3
ATOM      3  C   UNL A   1      44.184  23.100  25.968  1.00  0.00     0.202 C 
BRANCH   3   4
ATOM      4  C   UNL A   1      43.514  24.130  25.051  1.00  0.00     0.261 C 
BRANCH   4   5
ATOM      5  O   UNL A   1      42.318  24.714  25.577  1.00  0.00    -0.460 OA
BRANCH   5   6
ATOM      6  C   UNL A   1      42.044  26.007  25.874  1.00  0.00     0.338 C 
ATOM      7  O   UNL A   1      41.995  26.797  24.930  1.00  0.00    -0.246 OA
BRANCH   6   8
ATOM      8  C   UNL A   1      41.838  26.557  27.257  1.00  0.00     0.060 A 
ATOM      9  C   UNL A   1      40.751  26.305  28.102  1.00  0.00     0.016 A 
ATOM     10  C   UNL A   1      42.824  27.450  27.720  1.00  0.00     0.016 A 
ATOM     11  C   UNL A   1      40.611  26.955  29.330  1.00  0.00     0.010 A 
ATOM     12  C   UNL A   1      42.691  28.106  28.948  1.00  0.00     0.010 A 
ATOM     13  C   UNL A   1      41.558  27.889  29.739  1.00  0.00    -0.014 A 
BRANCH  13  14
ATOM     14  C   UNL A   1      41.222  28.804  30.848  1.00  0.00     0.031 A 
ATOM     15  C   UNL A   1      41.928  28.583  32.156  1.00  0.00     0.074 A 
ATOM     16  C   UNL A   1      40.381  29.842  30.681  1.00  0.00     0.049 A 
ATOM     17  N   UNL A   1      41.884  29.297  33.247  1.00  0.00    -0.248 NA
ATOM     18  C   UNL A   1      42.856  27.437  32.225  1.00  0.00     0.031 C 
ATOM     19  C   UNL A   1      39.736  30.229  29.428  1.00  0.00     0.029 A 
ATOM     20  N   UNL A   1      39.889  30.740  31.591  1.00  0.00    -0.354 N 
ATOM     21  C   UNL A   1      42.837  28.743  34.091  1.00  0.00     0.074 A 
ATOM     22  C   UNL A   1      43.371  27.573  33.436  1.00  0.00     0.031 C 
ATOM     23  C   UNL A   1      38.822  31.185  29.678  1.00  0.00     0.029 A 
ATOM     24  C   UNL A   1      38.858  31.507  31.097  1.00  0.00     0.049 A 
ATOM     25  H   UNL A   1      40.239  30.828  32.509  1.00  0.00     0.167 HD
ATOM     26  C   UNL A   1      43.269  29.214  35.283  1.00  0.00     0.037 A 
ATOM     27  C   UNL A   1      38.035  32.352  31.742  1.00  0.00     0.037 A 
ATOM     28  C   UNL A   1      42.676  30.344  35.939  1.00  0.00     0.049 A 
ATOM     29  C   UNL A   1      38.354  32.689  33.169  1.00  0.00     0.074 A 
ATOM     30  C   UNL A   1      43.025  30.934  37.139  1.00  0.00     0.029 A 
ATOM     31  N   UNL A   1      41.574  31.037  35.454  1.00  0.00    -0.354 N 
ATOM     32  N   UNL A   1      39.303  32.211  33.937  1.00  0.00    -0.248 NA
ATOM     33  C   UNL A   1      37.549  33.752  33.784  1.00  0.00     0.031 C 
ATOM     34  C   UNL A   1      42.101  31.952  37.403  1.00  0.00     0.029 A 
ATOM     35  C   UNL A   1      41.207  32.027  36.345  1.00  0.00     0.049 A 
ATOM     36  H   UNL A   1      41.121  30.849  34.600  1.00  0.00     0.167 HD
ATOM     37  C   UNL A   1      39.266  32.968  35.098  1.00  0.00     0.074 A 
ATOM     38  C   UNL A   1      38.164  33.901  34.950  1.00  0.00     0.031 C 
ATOM     39  C   UNL A   1      40.102  32.936  36.165  1.00  0.00     0.037 A 
BRANCH  26  40
ATOM     40  C   UNL A   1      44.427  28.499  35.913  1.00  0.00     0.058 A 
ATOM     41  C   UNL A   1      44.225  27.407  36.776  1.00  0.00     0.135 A 
ATOM     42  C   UNL A   1      45.745  28.922  35.689  1.00  0.00     0.135 A 
ATOM     43  F   UNL A   1      42.981  26.980  37.047  1.00  0.00    -0.206 F 
ATOM     44  C   UNL A   1      45.288  26.781  37.419  1.00  0.00     0.059 A 
ATOM     45  C   UNL A   1      46.825  28.297  36.305  1.00  0.00     0.059 A 
ATOM     46  F   UNL A   1      45.991  29.967  34.884  1.00  0.00    -0.206 F 
ATOM     47  C   UNL A   1      46.585  27.238  37.182  1.00  0.00     0.060 A 
BRANCH  47  48
ATOM     48  S   UNL A   1      47.951  26.431  38.042  1.00  0.00     0.124 S 
ATOM     49  O   UNL A   1      49.105  27.092  37.442  1.00  0.00    -0.237 OA
ATOM     50  O   UNL A   1      47.685  26.765  39.437  1.00  0.00    -0.237 OA
ATOM     51  O   UNL A   1      47.785  25.022  37.695  1.00  0.00    -0.744 OA
ENDBRANCH  47  48
ENDBRANCH  26  40
BRANCH  27  52
ATOM     52  C   UNL A   1      36.867  32.972  31.069  1.00  0.00     0.058 A 
ATOM     53  C   UNL A   1      35.558  32.549  31.331  1.00  0.00     0.135 A 
ATOM     54  C   UNL A   1      37.052  33.969  30.097  1.00  0.00     0.135 A 
ATOM     55  F   UNL A   1      35.331  31.588  32.238  1.00  0.00    -0.206 F 
ATOM     56  C   UNL A   1      34.470  33.096  30.655  1.00  0.00     0.059 A 
ATOM     57  C   UNL A   1      35.978  34.530  29.408  1.00  0.00     0.059 A 
ATOM     58  F   UNL A   1      38.289  34.388  29.796  1.00  0.00    -0.206 F 
ATOM     59  C   UNL A   1      34.689  34.085  29.694  1.00  0.00     0.060 A 
BRANCH  59  60
ATOM     60  S   UNL A   1      33.254  34.823  28.877  1.00  0.00     0.124 S 
ATOM     61  O   UNL A   1      32.839  33.754  27.976  1.00  0.00    -0.237 OA
ATOM     62  O   UNL A   1      32.366  35.088  30.005  1.00  0.00    -0.237 OA
ATOM     63  O   UNL A   1      33.794  36.016  28.231  1.00  0.00    -0.744 OA
ENDBRANCH  59  60
ENDBRANCH  27  52
BRANCH  39  64
ATOM     64  C   UNL A   1      39.903  33.996  37.202  1.00  0.00     0.058 A 
ATOM     65  C   UNL A   1      39.136  33.777  38.355  1.00  0.00     0.135 A 
ATOM     66  C   UNL A   1      40.506  35.254  37.033  1.00  0.00     0.135 A 
ATOM     67  F   UNL A   1      38.530  32.596  38.550  1.00  0.00    -0.206 F 
ATOM     68  C   UNL A   1      38.949  34.783  39.295  1.00  0.00     0.059 A 
ATOM     69  C   UNL A   1      40.355  36.262  37.973  1.00  0.00     0.059 A 
ATOM     70  F   UNL A   1      41.253  35.505  35.945  1.00  0.00    -0.206 F 
ATOM     71  C   UNL A   1      39.561  36.022  39.093  1.00  0.00     0.060 A 
BRANCH  71  72
ATOM     72  S   UNL A   1      39.331  37.318  40.327  1.00  0.00     0.124 S 
ATOM     73  O   UNL A   1      38.619  36.598  41.378  1.00  0.00    -0.237 OA
ATOM     74  O   UNL A   1      40.705  37.702  40.640  1.00  0.00    -0.237 OA
ATOM     75  O   UNL A   1      38.554  38.327  39.616  1.00  0.00    -0.744 OA
ENDBRANCH  71  72
ENDBRANCH  39  64
ENDBRANCH  13  14
ENDBRANCH   6   8
ENDBRANCH   5   6
ENDBRANCH   4   5
ENDBRANCH   3   4
ENDBRANCH   2   3
ENDBRANCH   1   2
BRANCH   1  76
ATOM     76  C   UNL A   1      41.412  21.286  27.492  1.00  0.00     0.188 C 
BRANCH  76  77
ATOM     77  O   UNL A   1      40.360  21.909  26.759  1.00  0.00    -0.376 OA
BRANCH  77  78
ATOM     78  C   UNL A   1      39.541  21.092  25.930  1.00  0.00     0.202 C 
BRANCH  78  79
ATOM     79  C   UNL A   1      38.094  21.518  25.630  1.00  0.00     0.261 C 
BRANCH  79  80
ATOM     80  O   UNL A   1      37.957  22.831  25.078  1.00  0.00    -0.463 OA
BRANCH  80  81
ATOM     81  C   UNL A   1      37.498  23.779  25.943  1.00  0.00     0.315 C 
ATOM     82  O   UNL A   1      38.227  24.494  26.626  1.00  0.00    -0.251 OA
BRANCH  81  83
ATOM     83  C   UNL A   1      36.000  24.003  25.848  1.00  0.00     0.148 C 
ATOM     84  C   UNL A   1      35.263  23.423  27.084  1.00  0.00     0.043 C 
ATOM     85  C   UNL A   1      35.289  23.335  24.727  1.00  0.00     0.033 A 
ATOM     86  C   UNL A   1      34.544  22.155  26.612  1.00  0.00     0.124 C 
ATOM     87  N   UNL A   1      34.486  22.321  25.172  1.00  0.00    -0.341 N 
ATOM     88  C   UNL A   1      35.058  23.506  23.390  1.00  0.00     0.025 A 
ATOM     89  C   UNL A   1      33.683  21.839  24.185  1.00  0.00     0.090 A 
ATOM     90  C   UNL A   1      34.009  22.603  23.067  1.00  0.00     0.032 A 
BRANCH  89  91
ATOM     91  C   UNL A   1      32.656  20.811  24.252  1.00  0.00     0.209 C 
ATOM     92  O   UNL A   1      31.506  21.030  24.629  1.00  0.00    -0.287 OA
BRANCH  91  93
ATOM     93  C   UNL A   1      33.020  19.417  23.951  1.00  0.00     0.024 A 
ATOM     94  C   UNL A   1      32.340  18.689  22.970  1.00  0.00     0.012 A 
ATOM     95  C   UNL A   1      34.123  18.873  24.617  1.00  0.00     0.012 A 
ATOM     96  C   UNL A   1      32.799  17.419  22.629  1.00  0.00     0.001 A 
ATOM     97  C   UNL A   1      34.578  17.606  24.266  1.00  0.00     0.001 A 
ATOM     98  C   UNL A   1      33.918  16.883  23.271  1.00  0.00     0.000 A 
ENDBRANCH  91  93
ENDBRANCH  89  91
ENDBRANCH  81  83
ENDBRANCH  80  81
ENDBRANCH  79  80
ENDBRANCH  78  79
ENDBRANCH  77  78
ENDBRANCH  76  77
ENDBRANCH   1  76
TORSDOF 22
ENDMDL
