MODEL 1
REMARK VINA RESULT:      -9.4      0.000      0.000
REMARK SMILES [NH3+][C@@H](Cc1ccc(OC(F)F)cc1)C(=O)OCCOCCOCCOC(=O)c1ccc(-c2c3nc(c(-c4c(F)cc(S(=O)(=O)[O-])cc4F)c4ccc([nH]4)c(-c4c(F)cc(S(=O)(=O)[O-])cc4F)c4nc(c(-c5c(F)cc(S(=O)(=O)[O-])cc5F)c5ccc2[nH]5)C=C4)C=C3)cc1
REMARK SMILES IDX 20 1 19 2 18 3 17 4 16 5 14 6 15 7 2 8 1 9 3 13 4 14 5 15
REMARK SMILES IDX 13 16 6 17 12 18 7 19 8 20 9 21 10 22 11 23 21 24 22 25
REMARK SMILES IDX 23 26 24 27 25 28 26 29 27 30 28 31 29 32 93 33 30 34 92 35
REMARK SMILES IDX 31 36 32 37 33 38 86 39 34 40 91 41 85 42 87 43 35 44 90 45
REMARK SMILES IDX 84 46 83 47 36 49 70 50 49 51 69 52 50 53 53 54 68 55 88 56
REMARK SMILES IDX 51 57 52 58 67 60 89 61 54 62 37 63 38 64 47 65 39 66 40 67
REMARK SMILES IDX 46 68 48 69 41 70 42 71 43 72 44 73 45 74 71 75 72 76 81 77
REMARK SMILES IDX 73 78 74 79 80 80 82 81 75 82 76 83 77 84 78 85 79 86 55 87
REMARK SMILES IDX 56 88 65 89 57 90 58 91 64 92 66 93 59 94 60 95 61 96 62 97
REMARK SMILES IDX 63 98
REMARK H PARENT 1 10 1 11 1 12 87 48 53 59
REMARK Flexibility Score: inf
ROOT
ATOM      1  C   UNL A   1      34.580  30.005  27.173  1.00  0.00     0.188 C 
ENDROOT
BRANCH   1   2
ATOM      2  O   UNL A   1      33.529  29.527  26.356  1.00  0.00    -0.376 OA
BRANCH   2   3
ATOM      3  C   UNL A   1      33.110  28.181  26.490  1.00  0.00     0.202 C 
BRANCH   3   4
ATOM      4  C   UNL A   1      31.823  27.667  25.824  1.00  0.00     0.261 C 
BRANCH   4   5
ATOM      5  O   UNL A   1      30.909  26.942  26.668  1.00  0.00    -0.459 OA
BRANCH   5   6
ATOM      6  C   UNL A   1      30.119  26.030  26.034  1.00  0.00     0.365 C 
ATOM      7  O   UNL A   1      29.422  25.202  26.614  1.00  0.00    -0.245 OA
BRANCH   6   8
ATOM      8  C   UNL A   1      30.234  26.043  24.502  1.00  0.00     0.296 C 
BRANCH   8   9
ATOM      9  N   UNL A   1      30.741  24.811  23.858  1.00  0.00    -0.346 N 
ATOM     10  H   UNL A   1      31.579  25.030  23.320  1.00  0.00     0.345 HD
ATOM     11  H   UNL A   1      30.026  24.434  23.236  1.00  0.00     0.345 HD
ATOM     12  H   UNL A   1      30.967  24.121  24.574  1.00  0.00     0.345 HD
ENDBRANCH   8   9
BRANCH   8  13
ATOM     13  C   UNL A   1      28.946  26.580  23.868  1.00  0.00     0.113 C 
BRANCH  13  14
ATOM     14  C   UNL A   1      28.911  27.965  23.254  1.00  0.00    -0.041 A 
ATOM     15  C   UNL A   1      30.018  28.635  22.719  1.00  0.00     0.008 A 
ATOM     16  C   UNL A   1      27.691  28.656  23.296  1.00  0.00     0.008 A 
ATOM     17  C   UNL A   1      29.902  29.945  22.240  1.00  0.00     0.047 A 
ATOM     18  C   UNL A   1      27.576  29.964  22.816  1.00  0.00     0.047 A 
ATOM     19  C   UNL A   1      28.683  30.620  22.291  1.00  0.00     0.126 A 
BRANCH  19  20
ATOM     20  O   UNL A   1      28.715  31.897  21.811  1.00  0.00    -0.435 OA
BRANCH  20  21
ATOM     21  C   UNL A   1      28.172  32.134  20.519  1.00  0.00     0.542 C 
ATOM     22  F   UNL A   1      27.527  31.028  20.075  1.00  0.00    -0.167 F 
ATOM     23  F   UNL A   1      27.287  33.158  20.560  1.00  0.00    -0.167 F 
ENDBRANCH  20  21
ENDBRANCH  19  20
ENDBRANCH  13  14
ENDBRANCH   8  13
ENDBRANCH   6   8
ENDBRANCH   5   6
ENDBRANCH   4   5
ENDBRANCH   3   4
ENDBRANCH   2   3
ENDBRANCH   1   2
BRANCH   1  24
ATOM     24  C   UNL A   1      34.352  31.249  28.054  1.00  0.00     0.188 C 
BRANCH  24  25
ATOM     25  O   UNL A   1      35.336  32.251  28.120  1.00  0.00    -0.376 OA
BRANCH  25  26
ATOM     26  C   UNL A   1      35.567  32.941  29.332  1.00  0.00     0.202 C 
BRANCH  26  27
ATOM     27  C   UNL A   1      35.661  32.301  30.730  1.00  0.00     0.261 C 
BRANCH  27  28
ATOM     28  O   UNL A   1      36.444  31.115  30.885  1.00  0.00    -0.460 OA
BRANCH  28  29
ATOM     29  C   UNL A   1      37.546  31.234  31.672  1.00  0.00     0.338 C 
ATOM     30  O   UNL A   1      37.579  31.567  32.847  1.00  0.00    -0.246 OA
BRANCH  29  31
ATOM     31  C   UNL A   1      38.703  30.693  30.935  1.00  0.00     0.060 A 
ATOM     32  C   UNL A   1      39.783  30.143  31.646  1.00  0.00     0.016 A 
ATOM     33  C   UNL A   1      38.711  30.721  29.542  1.00  0.00     0.016 A 
ATOM     34  C   UNL A   1      40.881  29.620  30.959  1.00  0.00     0.010 A 
ATOM     35  C   UNL A   1      39.822  30.228  28.860  1.00  0.00     0.010 A 
ATOM     36  C   UNL A   1      40.921  29.696  29.563  1.00  0.00    -0.014 A 
BRANCH  36  37
ATOM     37  C   UNL A   1      42.168  29.419  28.810  1.00  0.00     0.031 A 
ATOM     38  C   UNL A   1      42.373  28.026  28.291  1.00  0.00     0.074 A 
ATOM     39  C   UNL A   1      43.133  30.343  28.678  1.00  0.00     0.049 A 
ATOM     40  N   UNL A   1      43.455  27.462  27.825  1.00  0.00    -0.248 NA
ATOM     41  C   UNL A   1      41.196  27.144  28.327  1.00  0.00     0.031 C 
ATOM     42  C   UNL A   1      43.034  31.737  29.102  1.00  0.00     0.029 A 
ATOM     43  N   UNL A   1      44.412  30.225  28.190  1.00  0.00    -0.354 N 
ATOM     44  C   UNL A   1      43.102  26.147  27.550  1.00  0.00     0.074 A 
ATOM     45  C   UNL A   1      41.709  25.998  27.911  1.00  0.00     0.031 C 
ATOM     46  C   UNL A   1      44.222  32.335  28.902  1.00  0.00     0.029 A 
ATOM     47  C   UNL A   1      45.175  31.351  28.386  1.00  0.00     0.049 A 
ATOM     48  H   UNL A   1      44.748  29.414  27.744  1.00  0.00     0.167 HD
ATOM     49  C   UNL A   1      43.875  25.153  27.051  1.00  0.00     0.037 A 
ATOM     50  C   UNL A   1      46.500  31.548  28.221  1.00  0.00     0.037 A 
ATOM     51  C   UNL A   1      45.263  25.315  26.710  1.00  0.00     0.049 A 
ATOM     52  C   UNL A   1      47.362  30.420  27.718  1.00  0.00     0.074 A 
ATOM     53  C   UNL A   1      46.129  24.383  26.166  1.00  0.00     0.029 A 
ATOM     54  N   UNL A   1      45.995  26.480  26.897  1.00  0.00    -0.354 N 
ATOM     55  N   UNL A   1      47.021  29.184  27.434  1.00  0.00    -0.248 NA
ATOM     56  C   UNL A   1      48.789  30.707  27.512  1.00  0.00     0.031 C 
ATOM     57  C   UNL A   1      47.399  24.963  26.087  1.00  0.00     0.029 A 
ATOM     58  C   UNL A   1      47.310  26.281  26.511  1.00  0.00     0.049 A 
ATOM     59  H   UNL A   1      45.632  27.323  27.254  1.00  0.00     0.167 HD
ATOM     60  C   UNL A   1      48.181  28.558  26.986  1.00  0.00     0.074 A 
ATOM     61  C   UNL A   1      49.235  29.549  27.041  1.00  0.00     0.031 C 
ATOM     62  C   UNL A   1      48.351  27.281  26.559  1.00  0.00     0.037 A 
BRANCH  49  63
ATOM     63  C   UNL A   1      43.244  23.794  26.913  1.00  0.00     0.058 A 
ATOM     64  C   UNL A   1      42.820  23.289  25.672  1.00  0.00     0.135 A 
ATOM     65  C   UNL A   1      43.042  22.991  28.047  1.00  0.00     0.135 A 
ATOM     66  F   UNL A   1      42.973  24.018  24.556  1.00  0.00    -0.206 F 
ATOM     67  C   UNL A   1      42.168  22.063  25.571  1.00  0.00     0.059 A 
ATOM     68  C   UNL A   1      42.425  21.747  27.964  1.00  0.00     0.059 A 
ATOM     69  F   UNL A   1      43.428  23.422  29.258  1.00  0.00    -0.206 F 
ATOM     70  C   UNL A   1      41.969  21.303  26.725  1.00  0.00     0.060 A 
BRANCH  70  71
ATOM     71  S   UNL A   1      41.084  19.737  26.583  1.00  0.00     0.124 S 
ATOM     72  O   UNL A   1      42.006  18.955  25.766  1.00  0.00    -0.237 OA
ATOM     73  O   UNL A   1      40.961  19.320  27.976  1.00  0.00    -0.237 OA
ATOM     74  O   UNL A   1      39.832  20.111  25.932  1.00  0.00    -0.744 OA
ENDBRANCH  70  71
ENDBRANCH  49  63
BRANCH  50  75
ATOM     75  C   UNL A   1      47.085  32.871  28.570  1.00  0.00     0.058 A 
ATOM     76  C   UNL A   1      47.548  33.142  29.864  1.00  0.00     0.135 A 
ATOM     77  C   UNL A   1      47.247  33.871  27.595  1.00  0.00     0.135 A 
ATOM     78  F   UNL A   1      47.398  32.228  30.836  1.00  0.00    -0.206 F 
ATOM     79  C   UNL A   1      48.163  34.350  30.180  1.00  0.00     0.059 A 
ATOM     80  C   UNL A   1      47.882  35.076  27.880  1.00  0.00     0.059 A 
ATOM     81  F   UNL A   1      46.823  33.660  26.340  1.00  0.00    -0.206 F 
ATOM     82  C   UNL A   1      48.340  35.305  29.177  1.00  0.00     0.060 A 
BRANCH  82  83
ATOM     83  S   UNL A   1      49.234  36.823  29.576  1.00  0.00     0.124 S 
ATOM     84  O   UNL A   1      50.579  36.316  29.827  1.00  0.00    -0.237 OA
ATOM     85  O   UNL A   1      49.066  37.604  28.355  1.00  0.00    -0.237 OA
ATOM     86  O   UNL A   1      48.524  37.335  30.743  1.00  0.00    -0.744 OA
ENDBRANCH  82  83
ENDBRANCH  50  75
BRANCH  62  87
ATOM     87  C   UNL A   1      49.712  26.875  26.057  1.00  0.00     0.058 A 
ATOM     88  C   UNL A   1      50.085  27.012  24.712  1.00  0.00     0.135 A 
ATOM     89  C   UNL A   1      50.694  26.440  26.966  1.00  0.00     0.135 A 
ATOM     90  F   UNL A   1      49.188  27.415  23.799  1.00  0.00    -0.206 F 
ATOM     91  C   UNL A   1      51.381  26.729  24.284  1.00  0.00     0.059 A 
ATOM     92  C   UNL A   1      52.001  26.181  26.566  1.00  0.00     0.059 A 
ATOM     93  F   UNL A   1      50.395  26.300  28.267  1.00  0.00    -0.206 F 
ATOM     94  C   UNL A   1      52.334  26.324  25.221  1.00  0.00     0.060 A 
BRANCH  94  95
ATOM     95  S   UNL A   1      54.027  26.030  24.665  1.00  0.00     0.124 S 
ATOM     96  O   UNL A   1      53.933  26.354  23.245  1.00  0.00    -0.237 OA
ATOM     97  O   UNL A   1      54.790  26.971  25.481  1.00  0.00    -0.237 OA
ATOM     98  O   UNL A   1      54.247  24.620  24.974  1.00  0.00    -0.744 OA
ENDBRANCH  94  95
ENDBRANCH  62  87
ENDBRANCH  36  37
ENDBRANCH  29  31
ENDBRANCH  28  29
ENDBRANCH  27  28
ENDBRANCH  26  27
ENDBRANCH  25  26
ENDBRANCH  24  25
ENDBRANCH   1  24
TORSDOF 25
ENDMDL
MODEL 2
REMARK VINA RESULT:      -8.9      6.236     12.072
REMARK SMILES [NH3+][C@@H](Cc1ccc(OC(F)F)cc1)C(=O)OCCOCCOCCOC(=O)c1ccc(-c2c3nc(c(-c4c(F)cc(S(=O)(=O)[O-])cc4F)c4ccc([nH]4)c(-c4c(F)cc(S(=O)(=O)[O-])cc4F)c4nc(c(-c5c(F)cc(S(=O)(=O)[O-])cc5F)c5ccc2[nH]5)C=C4)C=C3)cc1
REMARK SMILES IDX 20 1 19 2 18 3 17 4 16 5 14 6 15 7 2 8 1 9 3 13 4 14 5 15
REMARK SMILES IDX 13 16 6 17 12 18 7 19 8 20 9 21 10 22 11 23 21 24 22 25
REMARK SMILES IDX 23 26 24 27 25 28 26 29 27 30 28 31 29 32 93 33 30 34 92 35
REMARK SMILES IDX 31 36 32 37 33 38 86 39 34 40 91 41 85 42 87 43 35 44 90 45
REMARK SMILES IDX 84 46 83 47 36 49 70 50 49 51 69 52 50 53 53 54 68 55 88 56
REMARK SMILES IDX 51 57 52 58 67 60 89 61 54 62 37 63 38 64 47 65 39 66 40 67
REMARK SMILES IDX 46 68 48 69 41 70 42 71 43 72 44 73 45 74 71 75 72 76 81 77
REMARK SMILES IDX 73 78 74 79 80 80 82 81 75 82 76 83 77 84 78 85 79 86 55 87
REMARK SMILES IDX 56 88 65 89 57 90 58 91 64 92 66 93 59 94 60 95 61 96 62 97
REMARK SMILES IDX 63 98
REMARK H PARENT 1 10 1 11 1 12 87 48 53 59
REMARK Flexibility Score: inf
ROOT
ATOM      1  C   UNL A   1      40.519  21.667  26.962  1.00  0.00     0.188 C 
ENDROOT
BRANCH   1   2
ATOM      2  O   UNL A   1      39.792  21.625  25.750  1.00  0.00    -0.376 OA
BRANCH   2   3
ATOM      3  C   UNL A   1      38.483  21.084  25.750  1.00  0.00     0.202 C 
BRANCH   3   4
ATOM      4  C   UNL A   1      37.307  21.820  25.088  1.00  0.00     0.261 C 
BRANCH   4   5
ATOM      5  O   UNL A   1      35.992  21.296  25.351  1.00  0.00    -0.459 OA
BRANCH   5   6
ATOM      6  C   UNL A   1      34.953  22.101  24.990  1.00  0.00     0.365 C 
ATOM      7  O   UNL A   1      34.451  22.116  23.869  1.00  0.00    -0.245 OA
BRANCH   6   8
ATOM      8  C   UNL A   1      34.503  23.086  26.079  1.00  0.00     0.296 C 
BRANCH   8   9
ATOM      9  N   UNL A   1      34.821  22.729  27.480  1.00  0.00    -0.346 N 
ATOM     10  H   UNL A   1      35.102  21.750  27.524  1.00  0.00     0.345 HD
ATOM     11  H   UNL A   1      33.997  22.874  28.063  1.00  0.00     0.345 HD
ATOM     12  H   UNL A   1      35.583  23.318  27.815  1.00  0.00     0.345 HD
ENDBRANCH   8   9
BRANCH   8  13
ATOM     13  C   UNL A   1      34.899  24.520  25.709  1.00  0.00     0.113 C 
BRANCH  13  14
ATOM     14  C   UNL A   1      33.847  25.519  25.269  1.00  0.00    -0.041 A 
ATOM     15  C   UNL A   1      33.032  26.258  26.133  1.00  0.00     0.008 A 
ATOM     16  C   UNL A   1      33.626  25.655  23.891  1.00  0.00     0.008 A 
ATOM     17  C   UNL A   1      32.036  27.105  25.632  1.00  0.00     0.047 A 
ATOM     18  C   UNL A   1      32.633  26.501  23.391  1.00  0.00     0.047 A 
ATOM     19  C   UNL A   1      31.825  27.227  24.259  1.00  0.00     0.126 A 
BRANCH  19  20
ATOM     20  O   UNL A   1      30.810  28.069  23.908  1.00  0.00    -0.435 OA
BRANCH  20  21
ATOM     21  C   UNL A   1      29.764  27.547  23.100  1.00  0.00     0.542 C 
ATOM     22  F   UNL A   1      28.851  26.912  23.873  1.00  0.00    -0.167 F 
ATOM     23  F   UNL A   1      29.140  28.546  22.432  1.00  0.00    -0.167 F 
ENDBRANCH  20  21
ENDBRANCH  19  20
ENDBRANCH  13  14
ENDBRANCH   8  13
ENDBRANCH   6   8
ENDBRANCH   5   6
ENDBRANCH   4   5
ENDBRANCH   3   4
ENDBRANCH   2   3
ENDBRANCH   1   2
BRANCH   1  24
ATOM     24  C   UNL A   1      41.829  22.475  27.035  1.00  0.00     0.188 C 
BRANCH  24  25
ATOM     25  O   UNL A   1      43.065  21.825  26.869  1.00  0.00    -0.376 OA
BRANCH  25  26
ATOM     26  C   UNL A   1      44.214  22.564  26.510  1.00  0.00     0.202 C 
BRANCH  26  27
ATOM     27  C   UNL A   1      44.222  23.913  25.764  1.00  0.00     0.261 C 
BRANCH  27  28
ATOM     28  O   UNL A   1      44.011  25.109  26.518  1.00  0.00    -0.460 OA
BRANCH  28  29
ATOM     29  C   UNL A   1      43.016  25.920  26.071  1.00  0.00     0.338 C 
ATOM     30  O   UNL A   1      42.518  25.929  24.956  1.00  0.00    -0.246 OA
BRANCH  29  31
ATOM     31  C   UNL A   1      42.476  26.668  27.222  1.00  0.00     0.060 A 
ATOM     32  C   UNL A   1      42.932  27.972  27.478  1.00  0.00     0.016 A 
ATOM     33  C   UNL A   1      41.511  26.081  28.037  1.00  0.00     0.016 A 
ATOM     34  C   UNL A   1      42.423  28.693  28.560  1.00  0.00     0.010 A 
ATOM     35  C   UNL A   1      41.028  26.790  29.136  1.00  0.00     0.010 A 
ATOM     36  C   UNL A   1      41.496  28.089  29.416  1.00  0.00    -0.014 A 
BRANCH  36  37
ATOM     37  C   UNL A   1      41.142  28.696  30.722  1.00  0.00     0.031 A 
ATOM     38  C   UNL A   1      40.001  29.671  30.750  1.00  0.00     0.074 A 
ATOM     39  C   UNL A   1      41.870  28.468  31.827  1.00  0.00     0.049 A 
ATOM     40  N   UNL A   1      39.648  30.511  31.685  1.00  0.00    -0.248 NA
ATOM     41  C   UNL A   1      39.161  29.717  29.543  1.00  0.00     0.031 C 
ATOM     42  C   UNL A   1      42.970  27.515  31.935  1.00  0.00     0.029 A 
ATOM     43  N   UNL A   1      41.817  29.069  33.061  1.00  0.00    -0.354 N 
ATOM     44  C   UNL A   1      38.569  31.216  31.165  1.00  0.00     0.074 A 
ATOM     45  C   UNL A   1      38.335  30.709  29.831  1.00  0.00     0.031 C 
ATOM     46  C   UNL A   1      43.525  27.630  33.154  1.00  0.00     0.029 A 
ATOM     47  C   UNL A   1      42.850  28.700  33.890  1.00  0.00     0.049 A 
ATOM     48  H   UNL A   1      41.110  29.702  33.326  1.00  0.00     0.167 HD
ATOM     49  C   UNL A   1      37.847  32.203  31.748  1.00  0.00     0.037 A 
ATOM     50  C   UNL A   1      43.239  29.206  35.079  1.00  0.00     0.037 A 
ATOM     51  C   UNL A   1      38.101  32.704  33.072  1.00  0.00     0.049 A 
ATOM     52  C   UNL A   1      42.462  30.341  35.695  1.00  0.00     0.074 A 
ATOM     53  C   UNL A   1      37.410  33.678  33.770  1.00  0.00     0.029 A 
ATOM     54  N   UNL A   1      39.140  32.286  33.892  1.00  0.00    -0.354 N 
ATOM     55  N   UNL A   1      41.427  30.989  35.213  1.00  0.00    -0.248 NA
ATOM     56  C   UNL A   1      42.903  30.819  37.013  1.00  0.00     0.031 C 
ATOM     57  C   UNL A   1      38.069  33.896  34.983  1.00  0.00     0.029 A 
ATOM     58  C   UNL A   1      39.129  33.005  35.076  1.00  0.00     0.049 A 
ATOM     59  H   UNL A   1      39.791  31.582  33.665  1.00  0.00     0.167 HD
ATOM     60  C   UNL A   1      41.073  31.925  36.181  1.00  0.00     0.074 A 
ATOM     61  C   UNL A   1      42.009  31.764  37.274  1.00  0.00     0.031 C 
ATOM     62  C   UNL A   1      40.060  32.827  36.166  1.00  0.00     0.037 A 
BRANCH  49  63
ATOM     63  C   UNL A   1      36.762  32.841  30.922  1.00  0.00     0.058 A 
ATOM     64  C   UNL A   1      37.022  33.898  30.034  1.00  0.00     0.135 A 
ATOM     65  C   UNL A   1      35.434  32.399  31.039  1.00  0.00     0.135 A 
ATOM     66  F   UNL A   1      38.270  34.372  29.892  1.00  0.00    -0.206 F 
ATOM     67  C   UNL A   1      35.998  34.529  29.335  1.00  0.00     0.059 A 
ATOM     68  C   UNL A   1      34.399  32.992  30.323  1.00  0.00     0.059 A 
ATOM     69  F   UNL A   1      35.127  31.392  31.872  1.00  0.00    -0.206 F 
ATOM     70  C   UNL A   1      34.688  34.073  29.493  1.00  0.00     0.060 A 
BRANCH  70  71
ATOM     71  S   UNL A   1      33.364  34.930  28.614  1.00  0.00     0.124 S 
ATOM     72  O   UNL A   1      32.713  33.823  27.920  1.00  0.00    -0.237 OA
ATOM     73  O   UNL A   1      32.603  35.530  29.704  1.00  0.00    -0.237 OA
ATOM     74  O   UNL A   1      34.079  35.872  27.759  1.00  0.00    -0.744 OA
ENDBRANCH  70  71
ENDBRANCH  49  63
BRANCH  50  75
ATOM     75  C   UNL A   1      44.448  28.648  35.744  1.00  0.00     0.058 A 
ATOM     76  C   UNL A   1      45.723  29.169  35.488  1.00  0.00     0.135 A 
ATOM     77  C   UNL A   1      44.341  27.619  36.696  1.00  0.00     0.135 A 
ATOM     78  F   UNL A   1      45.881  30.138  34.574  1.00  0.00    -0.206 F 
ATOM     79  C   UNL A   1      46.849  28.701  36.160  1.00  0.00     0.059 A 
ATOM     80  C   UNL A   1      45.448  27.153  37.399  1.00  0.00     0.059 A 
ATOM     81  F   UNL A   1      43.142  27.088  36.979  1.00  0.00    -0.206 F 
ATOM     82  C   UNL A   1      46.699  27.704  37.126  1.00  0.00     0.060 A 
BRANCH  82  83
ATOM     83  S   UNL A   1      48.152  27.184  38.064  1.00  0.00     0.124 S 
ATOM     84  O   UNL A   1      49.049  26.745  37.000  1.00  0.00    -0.237 OA
ATOM     85  O   UNL A   1      48.529  28.417  38.748  1.00  0.00    -0.237 OA
ATOM     86  O   UNL A   1      47.635  26.128  38.929  1.00  0.00    -0.744 OA
ENDBRANCH  82  83
ENDBRANCH  50  75
BRANCH  62  87
ATOM     87  C   UNL A   1      39.855  33.686  37.387  1.00  0.00     0.058 A 
ATOM     88  C   UNL A   1      39.001  33.305  38.433  1.00  0.00     0.135 A 
ATOM     89  C   UNL A   1      40.612  34.859  37.554  1.00  0.00     0.135 A 
ATOM     90  F   UNL A   1      38.250  32.199  38.325  1.00  0.00    -0.206 F 
ATOM     91  C   UNL A   1      38.902  34.060  39.601  1.00  0.00     0.059 A 
ATOM     92  C   UNL A   1      40.551  35.611  38.723  1.00  0.00     0.059 A 
ATOM     93  F   UNL A   1      41.451  35.265  36.588  1.00  0.00    -0.206 F 
ATOM     94  C   UNL A   1      39.690  35.205  39.740  1.00  0.00     0.060 A 
BRANCH  94  95
ATOM     95  S   UNL A   1      39.604  36.133  41.287  1.00  0.00     0.124 S 
ATOM     96  O   UNL A   1      39.249  35.087  42.241  1.00  0.00    -0.237 OA
ATOM     97  O   UNL A   1      40.958  36.667  41.405  1.00  0.00    -0.237 OA
ATOM     98  O   UNL A   1      38.565  37.128  41.031  1.00  0.00    -0.744 OA
ENDBRANCH  94  95
ENDBRANCH  62  87
ENDBRANCH  36  37
ENDBRANCH  29  31
ENDBRANCH  28  29
ENDBRANCH  27  28
ENDBRANCH  26  27
ENDBRANCH  25  26
ENDBRANCH  24  25
ENDBRANCH   1  24
TORSDOF 25
ENDMDL
MODEL 3
REMARK VINA RESULT:      -8.8      7.126     11.933
REMARK SMILES [NH3+][C@@H](Cc1ccc(OC(F)F)cc1)C(=O)OCCOCCOCCOC(=O)c1ccc(-c2c3nc(c(-c4c(F)cc(S(=O)(=O)[O-])cc4F)c4ccc([nH]4)c(-c4c(F)cc(S(=O)(=O)[O-])cc4F)c4nc(c(-c5c(F)cc(S(=O)(=O)[O-])cc5F)c5ccc2[nH]5)C=C4)C=C3)cc1
REMARK SMILES IDX 20 1 19 2 18 3 17 4 16 5 14 6 15 7 2 8 1 9 3 13 4 14 5 15
REMARK SMILES IDX 13 16 6 17 12 18 7 19 8 20 9 21 10 22 11 23 21 24 22 25
REMARK SMILES IDX 23 26 24 27 25 28 26 29 27 30 28 31 29 32 93 33 30 34 92 35
REMARK SMILES IDX 31 36 32 37 33 38 86 39 34 40 91 41 85 42 87 43 35 44 90 45
REMARK SMILES IDX 84 46 83 47 36 49 70 50 49 51 69 52 50 53 53 54 68 55 88 56
REMARK SMILES IDX 51 57 52 58 67 60 89 61 54 62 37 63 38 64 47 65 39 66 40 67
REMARK SMILES IDX 46 68 48 69 41 70 42 71 43 72 44 73 45 74 71 75 72 76 81 77
REMARK SMILES IDX 73 78 74 79 80 80 82 81 75 82 76 83 77 84 78 85 79 86 55 87
REMARK SMILES IDX 56 88 65 89 57 90 58 91 64 92 66 93 59 94 60 95 61 96 62 97
REMARK SMILES IDX 63 98
REMARK H PARENT 1 10 1 11 1 12 87 48 53 59
REMARK Flexibility Score: inf
ROOT
ATOM      1  C   UNL A   1      34.852  23.339  24.522  1.00  0.00     0.188 C 
ENDROOT
BRANCH   1   2
ATOM      2  O   UNL A   1      34.853  23.970  23.256  1.00  0.00    -0.376 OA
BRANCH   2   3
ATOM      3  C   UNL A   1      33.617  24.327  22.664  1.00  0.00     0.202 C 
BRANCH   3   4
ATOM      4  C   UNL A   1      32.285  23.741  23.160  1.00  0.00     0.261 C 
BRANCH   4   5
ATOM      5  O   UNL A   1      31.106  24.529  22.917  1.00  0.00    -0.459 OA
BRANCH   5   6
ATOM      6  C   UNL A   1      30.965  25.636  23.698  1.00  0.00     0.365 C 
ATOM      7  O   UNL A   1      30.384  25.647  24.780  1.00  0.00    -0.245 OA
BRANCH   6   8
ATOM      8  C   UNL A   1      31.512  26.930  23.074  1.00  0.00     0.296 C 
BRANCH   8   9
ATOM      9  N   UNL A   1      31.508  27.015  21.597  1.00  0.00    -0.346 N 
ATOM     10  H   UNL A   1      31.307  26.096  21.204  1.00  0.00     0.345 HD
ATOM     11  H   UNL A   1      32.422  27.332  21.272  1.00  0.00     0.345 HD
ATOM     12  H   UNL A   1      30.793  27.677  21.297  1.00  0.00     0.345 HD
ENDBRANCH   8   9
BRANCH   8  13
ATOM     13  C   UNL A   1      30.906  28.159  23.759  1.00  0.00     0.113 C 
BRANCH  13  14
ATOM     14  C   UNL A   1      31.661  28.875  24.862  1.00  0.00    -0.041 A 
ATOM     15  C   UNL A   1      31.274  30.089  25.441  1.00  0.00     0.008 A 
ATOM     16  C   UNL A   1      32.877  28.315  25.278  1.00  0.00     0.008 A 
ATOM     17  C   UNL A   1      32.076  30.713  26.404  1.00  0.00     0.047 A 
ATOM     18  C   UNL A   1      33.676  28.937  26.241  1.00  0.00     0.047 A 
ATOM     19  C   UNL A   1      33.284  30.145  26.806  1.00  0.00     0.126 A 
BRANCH  19  20
ATOM     20  O   UNL A   1      33.976  30.867  27.735  1.00  0.00    -0.435 OA
BRANCH  20  21
ATOM     21  C   UNL A   1      35.318  30.487  28.005  1.00  0.00     0.542 C 
ATOM     22  F   UNL A   1      35.341  29.396  28.808  1.00  0.00    -0.167 F 
ATOM     23  F   UNL A   1      35.964  30.185  26.853  1.00  0.00    -0.167 F 
ENDBRANCH  20  21
ENDBRANCH  19  20
ENDBRANCH  13  14
ENDBRANCH   8  13
ENDBRANCH   6   8
ENDBRANCH   5   6
ENDBRANCH   4   5
ENDBRANCH   3   4
ENDBRANCH   2   3
ENDBRANCH   1   2
BRANCH   1  24
ATOM     24  C   UNL A   1      35.560  21.982  24.695  1.00  0.00     0.188 C 
BRANCH  24  25
ATOM     25  O   UNL A   1      36.387  21.759  25.810  1.00  0.00    -0.376 OA
BRANCH  25  26
ATOM     26  C   UNL A   1      37.752  22.120  25.766  1.00  0.00     0.202 C 
BRANCH  26  27
ATOM     27  C   UNL A   1      38.302  23.553  25.629  1.00  0.00     0.261 C 
BRANCH  27  28
ATOM     28  O   UNL A   1      38.678  24.254  26.817  1.00  0.00    -0.460 OA
BRANCH  28  29
ATOM     29  C   UNL A   1      40.004  24.523  26.949  1.00  0.00     0.338 C 
ATOM     30  O   UNL A   1      40.909  24.140  26.224  1.00  0.00    -0.246 OA
BRANCH  29  31
ATOM     31  C   UNL A   1      40.167  25.538  28.007  1.00  0.00     0.060 A 
ATOM     32  C   UNL A   1      39.183  25.670  29.000  1.00  0.00     0.016 A 
ATOM     33  C   UNL A   1      41.300  26.348  28.019  1.00  0.00     0.016 A 
ATOM     34  C   UNL A   1      39.329  26.622  30.012  1.00  0.00     0.010 A 
ATOM     35  C   UNL A   1      41.429  27.320  29.011  1.00  0.00     0.010 A 
ATOM     36  C   UNL A   1      40.436  27.477  29.998  1.00  0.00    -0.014 A 
BRANCH  36  37
ATOM     37  C   UNL A   1      40.497  28.674  30.870  1.00  0.00     0.031 A 
ATOM     38  C   UNL A   1      41.391  28.614  32.074  1.00  0.00     0.074 A 
ATOM     39  C   UNL A   1      39.711  29.742  30.659  1.00  0.00     0.049 A 
ATOM     40  N   UNL A   1      41.445  29.406  33.111  1.00  0.00    -0.248 NA
ATOM     41  C   UNL A   1      42.337  27.488  32.120  1.00  0.00     0.031 C 
ATOM     42  C   UNL A   1      38.836  29.935  29.507  1.00  0.00     0.029 A 
ATOM     43  N   UNL A   1      39.489  30.847  31.445  1.00  0.00    -0.354 N 
ATOM     44  C   UNL A   1      42.401  28.852  33.954  1.00  0.00     0.074 A 
ATOM     45  C   UNL A   1      42.892  27.654  33.309  1.00  0.00     0.031 C 
ATOM     46  C   UNL A   1      38.131  31.066  29.684  1.00  0.00     0.029 A 
ATOM     47  C   UNL A   1      38.470  31.646  30.983  1.00  0.00     0.049 A 
ATOM     48  H   UNL A   1      40.009  31.047  32.257  1.00  0.00     0.167 HD
ATOM     49  C   UNL A   1      42.822  29.300  35.161  1.00  0.00     0.037 A 
ATOM     50  C   UNL A   1      37.846  32.690  31.568  1.00  0.00     0.037 A 
ATOM     51  C   UNL A   1      42.313  30.488  35.795  1.00  0.00     0.049 A 
ATOM     52  C   UNL A   1      38.284  33.148  32.936  1.00  0.00     0.074 A 
ATOM     53  C   UNL A   1      42.693  31.049  37.000  1.00  0.00     0.029 A 
ATOM     54  N   UNL A   1      41.299  31.286  35.283  1.00  0.00    -0.354 N 
ATOM     55  N   UNL A   1      39.206  32.638  33.720  1.00  0.00    -0.248 NA
ATOM     56  C   UNL A   1      37.600  34.319  33.502  1.00  0.00     0.031 C 
ATOM     57  C   UNL A   1      41.865  32.147  37.249  1.00  0.00     0.029 A 
ATOM     58  C   UNL A   1      41.018  32.317  36.164  1.00  0.00     0.049 A 
ATOM     59  H   UNL A   1      40.845  31.141  34.421  1.00  0.00     0.167 HD
ATOM     60  C   UNL A   1      39.234  33.445  34.854  1.00  0.00     0.074 A 
ATOM     61  C   UNL A   1      38.235  34.473  34.657  1.00  0.00     0.031 C 
ATOM     62  C   UNL A   1      40.026  33.346  35.952  1.00  0.00     0.037 A 
BRANCH  49  63
ATOM     63  C   UNL A   1      43.833  28.460  35.893  1.00  0.00     0.058 A 
ATOM     64  C   UNL A   1      43.455  27.430  36.771  1.00  0.00     0.135 A 
ATOM     65  C   UNL A   1      45.206  28.704  35.727  1.00  0.00     0.135 A 
ATOM     66  F   UNL A   1      42.157  27.161  36.981  1.00  0.00    -0.206 F 
ATOM     67  C   UNL A   1      44.399  26.713  37.499  1.00  0.00     0.059 A 
ATOM     68  C   UNL A   1      46.168  27.975  36.418  1.00  0.00     0.059 A 
ATOM     69  F   UNL A   1      45.626  29.675  34.900  1.00  0.00    -0.206 F 
ATOM     70  C   UNL A   1      45.754  26.999  37.321  1.00  0.00     0.060 A 
BRANCH  70  71
ATOM     71  S   UNL A   1      46.964  26.091  38.305  1.00  0.00     0.124 S 
ATOM     72  O   UNL A   1      46.890  24.763  37.702  1.00  0.00    -0.237 OA
ATOM     73  O   UNL A   1      48.194  26.834  38.052  1.00  0.00    -0.237 OA
ATOM     74  O   UNL A   1      46.442  26.191  39.664  1.00  0.00    -0.744 OA
ENDBRANCH  70  71
ENDBRANCH  49  63
BRANCH  50  75
ATOM     75  C   UNL A   1      36.715  33.349  30.859  1.00  0.00     0.058 A 
ATOM     76  C   UNL A   1      36.943  34.322  29.876  1.00  0.00     0.135 A 
ATOM     77  C   UNL A   1      35.385  32.973  31.110  1.00  0.00     0.135 A 
ATOM     78  F   UNL A   1      38.194  34.730  29.613  1.00  0.00    -0.206 F 
ATOM     79  C   UNL A   1      35.896  34.890  29.157  1.00  0.00     0.059 A 
ATOM     80  C   UNL A   1      34.323  33.508  30.387  1.00  0.00     0.059 A 
ATOM     81  F   UNL A   1      35.114  32.044  32.040  1.00  0.00    -0.206 F 
ATOM     82  C   UNL A   1      34.590  34.464  29.409  1.00  0.00     0.060 A 
BRANCH  82  83
ATOM     83  S   UNL A   1      33.252  35.132  28.394  1.00  0.00     0.124 S 
ATOM     84  O   UNL A   1      32.523  33.922  28.032  1.00  0.00    -0.237 OA
ATOM     85  O   UNL A   1      32.579  36.026  29.331  1.00  0.00    -0.237 OA
ATOM     86  O   UNL A   1      33.957  35.796  27.302  1.00  0.00    -0.744 OA
ENDBRANCH  82  83
ENDBRANCH  50  75
BRANCH  62  87
ATOM     87  C   UNL A   1      39.898  34.403  37.018  1.00  0.00     0.058 A 
ATOM     88  C   UNL A   1      39.082  34.232  38.146  1.00  0.00     0.135 A 
ATOM     89  C   UNL A   1      40.694  35.561  36.956  1.00  0.00     0.135 A 
ATOM     90  F   UNL A   1      38.296  33.150  38.255  1.00  0.00    -0.206 F 
ATOM     91  C   UNL A   1      39.055  35.174  39.173  1.00  0.00     0.059 A 
ATOM     92  C   UNL A   1      40.706  36.499  37.983  1.00  0.00     0.059 A 
ATOM     93  F   UNL A   1      41.501  35.770  35.904  1.00  0.00    -0.206 F 
ATOM     94  C   UNL A   1      39.879  36.299  39.087  1.00  0.00     0.060 A 
BRANCH  94  95
ATOM     95  S   UNL A   1      39.888  37.475  40.458  1.00  0.00     0.124 S 
ATOM     96  O   UNL A   1      38.474  37.820  40.560  1.00  0.00    -0.237 OA
ATOM     97  O   UNL A   1      40.427  36.672  41.552  1.00  0.00    -0.237 OA
ATOM     98  O   UNL A   1      40.763  38.544  39.983  1.00  0.00    -0.744 OA
ENDBRANCH  94  95
ENDBRANCH  62  87
ENDBRANCH  36  37
ENDBRANCH  29  31
ENDBRANCH  28  29
ENDBRANCH  27  28
ENDBRANCH  26  27
ENDBRANCH  25  26
ENDBRANCH  24  25
ENDBRANCH   1  24
TORSDOF 25
ENDMDL
