MODEL 1
REMARK VINA RESULT:     -10.7      0.000      0.000
REMARK SMILES Cc1c(Br)c(C)c2c(c1Br)O[C@H](C(F)(F)F)C(C(=O)OCCOCCOCCOC(=O)c1ccc(-c3c4nc(c(-c5c(F)cc(S(=O)(=O)[O-])cc5F)c5ccc([nH]5)c(-c5c(F)cc(S(=O)(=O)[O-])cc5F)c5nc(c(-c6c(F)cc(S(=O)(=O)[O-])cc6F)c6ccc3[nH]6)C=C5)C=C4)cc1)=C2
REMARK SMILES IDX 25 1 24 2 23 3 22 4 21 5 20 6 18 7 19 8 17 9 1 10 2 11 3 12
REMARK SMILES IDX 9 13 4 14 5 15 8 16 10 17 6 18 7 19 11 20 98 21 12 22 13 23
REMARK SMILES IDX 14 24 15 25 16 26 26 27 27 28 28 29 29 30 30 31 31 32 32 33
REMARK SMILES IDX 33 34 97 35 34 36 96 37 35 38 36 39 37 40 90 41 38 42 95 43
REMARK SMILES IDX 89 44 91 45 39 46 94 47 88 48 87 49 40 51 74 52 53 53 73 54
REMARK SMILES IDX 54 55 57 56 72 57 92 58 55 59 56 60 71 62 93 63 58 64 41 65
REMARK SMILES IDX 42 66 51 67 43 68 44 69 50 70 52 71 45 72 46 73 47 74 48 75
REMARK SMILES IDX 49 76 75 77 76 78 85 79 77 80 78 81 84 82 86 83 79 84 80 85
REMARK SMILES IDX 81 86 82 87 83 88 59 89 60 90 69 91 61 92 62 93 68 94 70 95
REMARK SMILES IDX 63 96 64 97 65 98 66 99 67 100
REMARK H PARENT 91 50 57 61
REMARK Flexibility Score: inf
ROOT
ATOM      1  C   UNL A   1      37.422  22.307  24.947  1.00  0.00     0.188 C 
ENDROOT
BRANCH   1   2
ATOM      2  C   UNL A   1      36.222  21.386  24.636  1.00  0.00     0.188 C 
BRANCH   2   3
ATOM      3  O   UNL A   1      35.440  20.858  25.703  1.00  0.00    -0.376 OA
BRANCH   3   4
ATOM      4  C   UNL A   1      34.818  21.733  26.635  1.00  0.00     0.202 C 
BRANCH   4   5
ATOM      5  C   UNL A   1      33.517  22.433  26.228  1.00  0.00     0.261 C 
BRANCH   5   6
ATOM      6  O   UNL A   1      33.662  23.842  25.986  1.00  0.00    -0.460 OA
BRANCH   6   7
ATOM      7  C   UNL A   1      33.545  24.226  24.693  1.00  0.00     0.338 C 
ATOM      8  O   UNL A   1      33.741  23.536  23.704  1.00  0.00    -0.246 OA
BRANCH   7   9
ATOM      9  C   UNL A   1      33.020  25.604  24.627  1.00  0.00     0.087 C 
ATOM     10  C   UNL A   1      31.062  31.690  25.962  1.00  0.00     0.047 C 
ATOM     11  C   UNL A   1      31.788  30.384  25.737  1.00  0.00    -0.019 A 
ATOM     12  C   UNL A   1      32.988  30.106  26.440  1.00  0.00     0.025 A 
ATOM     13  C   UNL A   1      31.321  29.422  24.819  1.00  0.00     0.064 A 
ATOM     14  Br  UNL A   1      33.702  31.454  27.608  1.00  0.00    -0.050 Br
ATOM     15  C   UNL A   1      33.659  28.864  26.303  1.00  0.00    -0.026 A 
ATOM     16  C   UNL A   1      31.957  28.172  24.692  1.00  0.00     0.142 A 
ATOM     17  Br  UNL A   1      29.794  29.767  23.710  1.00  0.00    -0.046 Br
ATOM     18  C   UNL A   1      34.952  28.559  27.030  1.00  0.00     0.046 C 
ATOM     19  C   UNL A   1      33.088  27.873  25.464  1.00  0.00     0.022 A 
ATOM     20  O   UNL A   1      31.423  27.295  23.783  1.00  0.00    -0.474 OA
ATOM     21  C   UNL A   1      33.616  26.509  25.415  1.00  0.00     0.027 C 
ATOM     22  C   UNL A   1      31.871  25.921  23.725  1.00  0.00     0.316 C 
BRANCH  22  23
ATOM     23  C   UNL A   1      30.660  25.006  23.958  1.00  0.00     0.430 C 
ATOM     24  F   UNL A   1      30.669  24.486  25.210  1.00  0.00    -0.167 F 
ATOM     25  F   UNL A   1      29.490  25.677  23.833  1.00  0.00    -0.167 F 
ATOM     26  F   UNL A   1      30.628  23.970  23.090  1.00  0.00    -0.167 F 
ENDBRANCH  22  23
ENDBRANCH   7   9
ENDBRANCH   6   7
ENDBRANCH   5   6
ENDBRANCH   4   5
ENDBRANCH   3   4
ENDBRANCH   2   3
ENDBRANCH   1   2
BRANCH   1  27
ATOM     27  O   UNL A   1      38.513  21.634  25.537  1.00  0.00    -0.376 OA
BRANCH  27  28
ATOM     28  C   UNL A   1      39.291  22.325  26.498  1.00  0.00     0.202 C 
BRANCH  28  29
ATOM     29  C   UNL A   1      40.829  22.262  26.468  1.00  0.00     0.261 C 
BRANCH  29  30
ATOM     30  O   UNL A   1      41.543  23.259  27.210  1.00  0.00    -0.460 OA
BRANCH  30  31
ATOM     31  C   UNL A   1      41.856  24.406  26.565  1.00  0.00     0.338 C 
ATOM     32  O   UNL A   1      42.259  24.514  25.422  1.00  0.00    -0.246 OA
BRANCH  31  33
ATOM     33  C   UNL A   1      41.430  25.536  27.423  1.00  0.00     0.060 A 
ATOM     34  C   UNL A   1      42.168  26.726  27.383  1.00  0.00     0.016 A 
ATOM     35  C   UNL A   1      40.314  25.424  28.257  1.00  0.00     0.016 A 
ATOM     36  C   UNL A   1      41.816  27.795  28.209  1.00  0.00     0.010 A 
ATOM     37  C   UNL A   1      39.980  26.486  29.105  1.00  0.00     0.010 A 
ATOM     38  C   UNL A   1      40.752  27.660  29.111  1.00  0.00    -0.014 A 
BRANCH  38  39
ATOM     39  C   UNL A   1      40.605  28.630  30.224  1.00  0.00     0.031 A 
ATOM     40  C   UNL A   1      41.517  28.475  31.414  1.00  0.00     0.074 A 
ATOM     41  C   UNL A   1      39.712  29.635  30.182  1.00  0.00     0.049 A 
ATOM     42  N   UNL A   1      41.535  29.138  32.540  1.00  0.00    -0.248 NA
ATOM     43  C   UNL A   1      42.549  27.430  31.312  1.00  0.00     0.031 C 
ATOM     44  C   UNL A   1      38.820  29.933  29.064  1.00  0.00     0.029 A 
ATOM     45  N   UNL A   1      39.407  30.590  31.120  1.00  0.00    -0.354 N 
ATOM     46  C   UNL A   1      42.581  28.595  33.277  1.00  0.00     0.074 A 
ATOM     47  C   UNL A   1      43.158  27.533  32.484  1.00  0.00     0.031 C 
ATOM     48  C   UNL A   1      38.058  30.994  29.387  1.00  0.00     0.029 A 
ATOM     49  C   UNL A   1      38.381  31.425  30.746  1.00  0.00     0.049 A 
ATOM     50  H   UNL A   1      39.879  30.669  31.981  1.00  0.00     0.167 HD
ATOM     51  C   UNL A   1      43.026  28.951  34.505  1.00  0.00     0.037 A 
ATOM     52  C   UNL A   1      37.759  32.402  31.438  1.00  0.00     0.037 A 
ATOM     53  C   UNL A   1      42.437  29.989  35.305  1.00  0.00     0.049 A 
ATOM     54  C   UNL A   1      38.198  32.706  32.850  1.00  0.00     0.074 A 
ATOM     55  C   UNL A   1      42.797  30.409  36.574  1.00  0.00     0.029 A 
ATOM     56  N   UNL A   1      41.357  30.767  34.919  1.00  0.00    -0.354 N 
ATOM     57  N   UNL A   1      39.171  32.169  33.547  1.00  0.00    -0.248 NA
ATOM     58  C   UNL A   1      37.443  33.741  33.571  1.00  0.00     0.031 C 
ATOM     59  C   UNL A   1      41.906  31.412  36.971  1.00  0.00     0.029 A 
ATOM     60  C   UNL A   1      41.021  31.649  35.932  1.00  0.00     0.049 A 
ATOM     61  H   UNL A   1      40.896  30.702  34.051  1.00  0.00     0.167 HD
ATOM     62  C   UNL A   1      39.155  32.810  34.783  1.00  0.00     0.074 A 
ATOM     63  C   UNL A   1      38.088  33.789  34.729  1.00  0.00     0.031 C 
ATOM     64  C   UNL A   1      39.946  32.607  35.867  1.00  0.00     0.037 A 
BRANCH  51  65
ATOM     65  C   UNL A   1      44.192  28.185  35.064  1.00  0.00     0.058 A 
ATOM     66  C   UNL A   1      45.513  28.619  34.877  1.00  0.00     0.135 A 
ATOM     67  C   UNL A   1      43.983  27.014  35.810  1.00  0.00     0.135 A 
ATOM     68  F   UNL A   1      45.768  29.717  34.146  1.00  0.00    -0.206 F 
ATOM     69  C   UNL A   1      46.590  27.910  35.398  1.00  0.00     0.059 A 
ATOM     70  C   UNL A   1      45.044  26.302  36.361  1.00  0.00     0.059 A 
ATOM     71  F   UNL A   1      42.739  26.550  36.006  1.00  0.00    -0.206 F 
ATOM     72  C   UNL A   1      46.345  26.753  36.141  1.00  0.00     0.060 A 
BRANCH  72  73
ATOM     73  S   UNL A   1      47.754  25.852  36.819  1.00  0.00     0.124 S 
ATOM     74  O   UNL A   1      47.296  24.471  36.712  1.00  0.00    -0.237 OA
ATOM     75  O   UNL A   1      48.832  26.235  35.913  1.00  0.00    -0.237 OA
ATOM     76  O   UNL A   1      47.867  26.371  38.179  1.00  0.00    -0.744 OA
ENDBRANCH  72  73
ENDBRANCH  51  65
BRANCH  52  77
ATOM     77  C   UNL A   1      36.633  33.154  30.821  1.00  0.00     0.058 A 
ATOM     78  C   UNL A   1      35.302  32.881  31.175  1.00  0.00     0.135 A 
ATOM     79  C   UNL A   1      36.861  34.147  29.856  1.00  0.00     0.135 A 
ATOM     80  F   UNL A   1      35.031  31.927  32.077  1.00  0.00    -0.206 F 
ATOM     81  C   UNL A   1      34.239  33.562  30.590  1.00  0.00     0.059 A 
ATOM     82  C   UNL A   1      35.815  34.859  29.275  1.00  0.00     0.059 A 
ATOM     83  F   UNL A   1      38.115  34.445  29.483  1.00  0.00    -0.206 F 
ATOM     84  C   UNL A   1      34.506  34.554  29.645  1.00  0.00     0.060 A 
BRANCH  84  85
ATOM     85  S   UNL A   1      33.120  35.470  28.937  1.00  0.00     0.124 S 
ATOM     86  O   UNL A   1      32.451  35.966  30.134  1.00  0.00    -0.237 OA
ATOM     87  O   UNL A   1      33.801  36.472  28.123  1.00  0.00    -0.237 OA
ATOM     88  O   UNL A   1      32.393  34.451  28.185  1.00  0.00    -0.744 OA
ENDBRANCH  84  85
ENDBRANCH  52  77
BRANCH  64  89
ATOM     89  C   UNL A   1      39.694  33.463  37.078  1.00  0.00     0.058 A 
ATOM     90  C   UNL A   1      38.738  33.106  38.043  1.00  0.00     0.135 A 
ATOM     91  C   UNL A   1      40.438  34.634  37.296  1.00  0.00     0.135 A 
ATOM     92  F   UNL A   1      37.998  31.997  37.883  1.00  0.00    -0.206 F 
ATOM     93  C   UNL A   1      38.505  33.898  39.162  1.00  0.00     0.059 A 
ATOM     94  C   UNL A   1      40.241  35.427  38.423  1.00  0.00     0.059 A 
ATOM     95  F   UNL A   1      41.375  35.014  36.413  1.00  0.00    -0.206 F 
ATOM     96  C   UNL A   1      39.259  35.059  39.342  1.00  0.00     0.060 A 
BRANCH  96  97
ATOM     97  S   UNL A   1      38.948  36.076  40.801  1.00  0.00     0.124 S 
ATOM     98  O   UNL A   1      37.932  35.291  41.494  1.00  0.00    -0.237 OA
ATOM     99  O   UNL A   1      40.261  36.118  41.438  1.00  0.00    -0.237 OA
ATOM    100  O   UNL A   1      38.489  37.343  40.241  1.00  0.00    -0.744 OA
ENDBRANCH  96  97
ENDBRANCH  64  89
ENDBRANCH  38  39
ENDBRANCH  31  33
ENDBRANCH  30  31
ENDBRANCH  29  30
ENDBRANCH  28  29
ENDBRANCH  27  28
ENDBRANCH   1  27
TORSDOF 21
ENDMDL
MODEL 2
REMARK VINA RESULT:      -9.8      7.465     14.537
REMARK SMILES Cc1c(Br)c(C)c2c(c1Br)O[C@H](C(F)(F)F)C(C(=O)OCCOCCOCCOC(=O)c1ccc(-c3c4nc(c(-c5c(F)cc(S(=O)(=O)[O-])cc5F)c5ccc([nH]5)c(-c5c(F)cc(S(=O)(=O)[O-])cc5F)c5nc(c(-c6c(F)cc(S(=O)(=O)[O-])cc6F)c6ccc3[nH]6)C=C5)C=C4)cc1)=C2
REMARK SMILES IDX 25 1 24 2 23 3 22 4 21 5 20 6 18 7 19 8 17 9 1 10 2 11 3 12
REMARK SMILES IDX 9 13 4 14 5 15 8 16 10 17 6 18 7 19 11 20 98 21 12 22 13 23
REMARK SMILES IDX 14 24 15 25 16 26 26 27 27 28 28 29 29 30 30 31 31 32 32 33
REMARK SMILES IDX 33 34 97 35 34 36 96 37 35 38 36 39 37 40 90 41 38 42 95 43
REMARK SMILES IDX 89 44 91 45 39 46 94 47 88 48 87 49 40 51 74 52 53 53 73 54
REMARK SMILES IDX 54 55 57 56 72 57 92 58 55 59 56 60 71 62 93 63 58 64 41 65
REMARK SMILES IDX 42 66 51 67 43 68 44 69 50 70 52 71 45 72 46 73 47 74 48 75
REMARK SMILES IDX 49 76 75 77 76 78 85 79 77 80 78 81 84 82 86 83 79 84 80 85
REMARK SMILES IDX 81 86 82 87 83 88 59 89 60 90 69 91 61 92 62 93 68 94 70 95
REMARK SMILES IDX 63 96 64 97 65 98 66 99 67 100
REMARK H PARENT 91 50 57 61
REMARK Flexibility Score: inf
ROOT
ATOM      1  C   UNL A   1      47.902  21.754  37.180  1.00  0.00     0.188 C 
ENDROOT
BRANCH   1   2
ATOM      2  C   UNL A   1      47.204  21.088  38.386  1.00  0.00     0.188 C 
BRANCH   2   3
ATOM      3  O   UNL A   1      46.755  19.739  38.289  1.00  0.00    -0.376 OA
BRANCH   3   4
ATOM      4  C   UNL A   1      46.957  18.840  39.371  1.00  0.00     0.202 C 
BRANCH   4   5
ATOM      5  C   UNL A   1      45.931  17.725  39.600  1.00  0.00     0.261 C 
BRANCH   5   6
ATOM      6  O   UNL A   1      45.834  17.292  40.967  1.00  0.00    -0.460 OA
BRANCH   6   7
ATOM      7  C   UNL A   1      44.661  17.567  41.584  1.00  0.00     0.338 C 
ATOM      8  O   UNL A   1      44.066  18.634  41.582  1.00  0.00    -0.246 OA
BRANCH   7   9
ATOM      9  C   UNL A   1      44.113  16.336  42.188  1.00  0.00     0.087 C 
ATOM     10  C   UNL A   1      43.287  10.414  44.816  1.00  0.00     0.047 C 
ATOM     11  C   UNL A   1      43.647  11.837  44.454  1.00  0.00    -0.019 A 
ATOM     12  C   UNL A   1      44.830  12.426  44.971  1.00  0.00     0.025 A 
ATOM     13  C   UNL A   1      42.825  12.624  43.623  1.00  0.00     0.064 A 
ATOM     14  Br  UNL A   1      45.902  11.407  46.197  1.00  0.00    -0.050 Br
ATOM     15  C   UNL A   1      45.232  13.734  44.600  1.00  0.00    -0.026 A 
ATOM     16  C   UNL A   1      43.224  13.913  43.220  1.00  0.00     0.142 A 
ATOM     17  Br  UNL A   1      41.133  11.973  42.996  1.00  0.00    -0.046 Br
ATOM     18  C   UNL A   1      46.480  14.385  45.159  1.00  0.00     0.046 C 
ATOM     19  C   UNL A   1      44.442  14.447  43.663  1.00  0.00     0.022 A 
ATOM     20  O   UNL A   1      42.364  14.599  42.400  1.00  0.00    -0.474 OA
ATOM     21  C   UNL A   1      44.885  15.719  43.092  1.00  0.00     0.027 C 
ATOM     22  C   UNL A   1      42.769  15.835  41.767  1.00  0.00     0.316 C 
BRANCH  22  23
ATOM     23  C   UNL A   1      42.644  15.665  40.246  1.00  0.00     0.430 C 
ATOM     24  F   UNL A   1      43.790  15.179  39.710  1.00  0.00    -0.167 F 
ATOM     25  F   UNL A   1      41.666  14.788  39.916  1.00  0.00    -0.167 F 
ATOM     26  F   UNL A   1      42.368  16.833  39.623  1.00  0.00    -0.167 F 
ENDBRANCH  22  23
ENDBRANCH   7   9
ENDBRANCH   6   7
ENDBRANCH   5   6
ENDBRANCH   4   5
ENDBRANCH   3   4
ENDBRANCH   2   3
ENDBRANCH   1   2
BRANCH   1  27
ATOM     27  O   UNL A   1      47.084  21.848  36.034  1.00  0.00    -0.376 OA
BRANCH  27  28
ATOM     28  C   UNL A   1      45.959  22.707  36.079  1.00  0.00     0.202 C 
BRANCH  28  29
ATOM     29  C   UNL A   1      46.093  24.207  35.757  1.00  0.00     0.261 C 
BRANCH  29  30
ATOM     30  O   UNL A   1      46.630  25.054  36.780  1.00  0.00    -0.460 OA
BRANCH  30  31
ATOM     31  C   UNL A   1      47.207  26.212  36.387  1.00  0.00     0.338 C 
ATOM     32  O   UNL A   1      48.388  26.396  36.155  1.00  0.00    -0.246 OA
BRANCH  31  33
ATOM     33  C   UNL A   1      46.125  27.177  36.087  1.00  0.00     0.060 A 
ATOM     34  C   UNL A   1      44.917  27.073  36.789  1.00  0.00     0.016 A 
ATOM     35  C   UNL A   1      46.300  28.177  35.126  1.00  0.00     0.016 A 
ATOM     36  C   UNL A   1      43.864  27.943  36.500  1.00  0.00     0.010 A 
ATOM     37  C   UNL A   1      45.234  29.028  34.818  1.00  0.00     0.010 A 
ATOM     38  C   UNL A   1      44.001  28.890  35.478  1.00  0.00    -0.014 A 
BRANCH  38  39
ATOM     39  C   UNL A   1      42.794  29.557  34.927  1.00  0.00     0.031 A 
ATOM     40  C   UNL A   1      42.253  29.051  33.615  1.00  0.00     0.074 A 
ATOM     41  C   UNL A   1      42.176  30.562  35.572  1.00  0.00     0.049 A 
ATOM     42  N   UNL A   1      41.267  29.510  32.890  1.00  0.00    -0.248 NA
ATOM     43  C   UNL A   1      42.915  27.864  33.050  1.00  0.00     0.031 C 
ATOM     44  C   UNL A   1      42.560  31.097  36.876  1.00  0.00     0.029 A 
ATOM     45  N   UNL A   1      41.090  31.317  35.204  1.00  0.00    -0.354 N 
ATOM     46  C   UNL A   1      41.188  28.666  31.788  1.00  0.00     0.074 A 
ATOM     47  C   UNL A   1      42.239  27.683  31.925  1.00  0.00     0.031 C 
ATOM     48  C   UNL A   1      41.727  32.105  37.194  1.00  0.00     0.029 A 
ATOM     49  C   UNL A   1      40.777  32.310  36.101  1.00  0.00     0.049 A 
ATOM     50  H   UNL A   1      40.583  31.161  34.375  1.00  0.00     0.167 HD
ATOM     51  C   UNL A   1      40.315  28.702  30.754  1.00  0.00     0.037 A 
ATOM     52  C   UNL A   1      39.850  33.288  36.028  1.00  0.00     0.037 A 
ATOM     53  C   UNL A   1      39.287  29.695  30.603  1.00  0.00     0.049 A 
ATOM     54  C   UNL A   1      38.962  33.378  34.811  1.00  0.00     0.074 A 
ATOM     55  C   UNL A   1      38.368  29.834  29.577  1.00  0.00     0.029 A 
ATOM     56  N   UNL A   1      39.045  30.724  31.499  1.00  0.00    -0.354 N 
ATOM     57  N   UNL A   1      38.913  32.590  33.763  1.00  0.00    -0.248 NA
ATOM     58  C   UNL A   1      38.012  34.498  34.764  1.00  0.00     0.031 C 
ATOM     59  C   UNL A   1      37.598  30.975  29.833  1.00  0.00     0.029 A 
ATOM     60  C   UNL A   1      38.006  31.517  31.041  1.00  0.00     0.049 A 
ATOM     61  H   UNL A   1      39.538  30.869  32.339  1.00  0.00     0.167 HD
ATOM     62  C   UNL A   1      37.919  33.111  32.939  1.00  0.00     0.074 A 
ATOM     63  C   UNL A   1      37.379  34.270  33.622  1.00  0.00     0.031 C 
ATOM     64  C   UNL A   1      37.492  32.676  31.726  1.00  0.00     0.037 A 
BRANCH  51  65
ATOM     65  C   UNL A   1      40.461  27.649  29.692  1.00  0.00     0.058 A 
ATOM     66  C   UNL A   1      39.571  26.568  29.602  1.00  0.00     0.135 A 
ATOM     67  C   UNL A   1      41.493  27.733  28.743  1.00  0.00     0.135 A 
ATOM     68  F   UNL A   1      38.585  26.427  30.503  1.00  0.00    -0.206 F 
ATOM     69  C   UNL A   1      39.707  25.597  28.616  1.00  0.00     0.059 A 
ATOM     70  C   UNL A   1      41.633  26.785  27.733  1.00  0.00     0.059 A 
ATOM     71  F   UNL A   1      42.378  28.740  28.794  1.00  0.00    -0.206 F 
ATOM     72  C   UNL A   1      40.740  25.716  27.685  1.00  0.00     0.060 A 
BRANCH  72  73
ATOM     73  S   UNL A   1      40.894  24.452  26.405  1.00  0.00     0.124 S 
ATOM     74  O   UNL A   1      39.524  24.370  25.909  1.00  0.00    -0.237 OA
ATOM     75  O   UNL A   1      41.864  25.050  25.493  1.00  0.00    -0.237 OA
ATOM     76  O   UNL A   1      41.365  23.281  27.138  1.00  0.00    -0.744 OA
ENDBRANCH  72  73
ENDBRANCH  51  65
BRANCH  52  77
ATOM     77  C   UNL A   1      39.726  34.283  37.126  1.00  0.00     0.058 A 
ATOM     78  C   UNL A   1      38.917  34.029  38.244  1.00  0.00     0.135 A 
ATOM     79  C   UNL A   1      40.398  35.515  37.074  1.00  0.00     0.135 A 
ATOM     80  F   UNL A   1      38.238  32.876  38.332  1.00  0.00    -0.206 F 
ATOM     81  C   UNL A   1      38.776  34.961  39.269  1.00  0.00     0.059 A 
ATOM     82  C   UNL A   1      40.291  36.452  38.097  1.00  0.00     0.059 A 
ATOM     83  F   UNL A   1      41.183  35.807  36.026  1.00  0.00    -0.206 F 
ATOM     84  C   UNL A   1      39.472  36.168  39.188  1.00  0.00     0.060 A 
BRANCH  84  85
ATOM     85  S   UNL A   1      39.325  37.344  40.551  1.00  0.00     0.124 S 
ATOM     86  O   UNL A   1      40.685  37.863  40.642  1.00  0.00    -0.237 OA
ATOM     87  O   UNL A   1      38.319  38.272  40.044  1.00  0.00    -0.237 OA
ATOM     88  O   UNL A   1      38.891  36.511  41.668  1.00  0.00    -0.744 OA
ENDBRANCH  84  85
ENDBRANCH  52  77
BRANCH  64  89
ATOM     89  C   UNL A   1      36.384  33.449  31.064  1.00  0.00     0.058 A 
ATOM     90  C   UNL A   1      36.597  34.162  29.873  1.00  0.00     0.135 A 
ATOM     91  C   UNL A   1      35.089  33.451  31.605  1.00  0.00     0.135 A 
ATOM     92  F   UNL A   1      37.818  34.194  29.313  1.00  0.00    -0.206 F 
ATOM     93  C   UNL A   1      35.573  34.877  29.261  1.00  0.00     0.059 A 
ATOM     94  C   UNL A   1      34.043  34.137  30.995  1.00  0.00     0.059 A 
ATOM     95  F   UNL A   1      34.826  32.774  32.734  1.00  0.00    -0.206 F 
ATOM     96  C   UNL A   1      34.299  34.861  29.832  1.00  0.00     0.060 A 
BRANCH  96  97
ATOM     97  S   UNL A   1      32.978  35.791  29.026  1.00  0.00     0.124 S 
ATOM     98  O   UNL A   1      33.727  36.868  28.385  1.00  0.00    -0.237 OA
ATOM     99  O   UNL A   1      32.400  34.798  28.126  1.00  0.00    -0.237 OA
ATOM    100  O   UNL A   1      32.121  36.197  30.136  1.00  0.00    -0.744 OA
ENDBRANCH  96  97
ENDBRANCH  64  89
ENDBRANCH  38  39
ENDBRANCH  31  33
ENDBRANCH  30  31
ENDBRANCH  29  30
ENDBRANCH  28  29
ENDBRANCH  27  28
ENDBRANCH   1  27
TORSDOF 21
ENDMDL
MODEL 3
REMARK VINA RESULT:      -9.8      6.047     10.385
REMARK SMILES Cc1c(Br)c(C)c2c(c1Br)O[C@H](C(F)(F)F)C(C(=O)OCCOCCOCCOC(=O)c1ccc(-c3c4nc(c(-c5c(F)cc(S(=O)(=O)[O-])cc5F)c5ccc([nH]5)c(-c5c(F)cc(S(=O)(=O)[O-])cc5F)c5nc(c(-c6c(F)cc(S(=O)(=O)[O-])cc6F)c6ccc3[nH]6)C=C5)C=C4)cc1)=C2
REMARK SMILES IDX 25 1 24 2 23 3 22 4 21 5 20 6 18 7 19 8 17 9 1 10 2 11 3 12
REMARK SMILES IDX 9 13 4 14 5 15 8 16 10 17 6 18 7 19 11 20 98 21 12 22 13 23
REMARK SMILES IDX 14 24 15 25 16 26 26 27 27 28 28 29 29 30 30 31 31 32 32 33
REMARK SMILES IDX 33 34 97 35 34 36 96 37 35 38 36 39 37 40 90 41 38 42 95 43
REMARK SMILES IDX 89 44 91 45 39 46 94 47 88 48 87 49 40 51 74 52 53 53 73 54
REMARK SMILES IDX 54 55 57 56 72 57 92 58 55 59 56 60 71 62 93 63 58 64 41 65
REMARK SMILES IDX 42 66 51 67 43 68 44 69 50 70 52 71 45 72 46 73 47 74 48 75
REMARK SMILES IDX 49 76 75 77 76 78 85 79 77 80 78 81 84 82 86 83 79 84 80 85
REMARK SMILES IDX 81 86 82 87 83 88 59 89 60 90 69 91 61 92 62 93 68 94 70 95
REMARK SMILES IDX 63 96 64 97 65 98 66 99 67 100
REMARK H PARENT 91 50 57 61
REMARK Flexibility Score: inf
ROOT
ATOM      1  C   UNL A   1      36.037  22.101  24.551  1.00  0.00     0.188 C 
ENDROOT
BRANCH   1   2
ATOM      2  C   UNL A   1      34.786  21.204  24.668  1.00  0.00     0.188 C 
BRANCH   2   3
ATOM      3  O   UNL A   1      34.260  20.884  25.953  1.00  0.00    -0.376 OA
BRANCH   3   4
ATOM      4  C   UNL A   1      33.517  21.852  26.682  1.00  0.00     0.202 C 
BRANCH   4   5
ATOM      5  C   UNL A   1      32.441  22.658  25.946  1.00  0.00     0.261 C 
BRANCH   5   6
ATOM      6  O   UNL A   1      32.715  24.066  25.869  1.00  0.00    -0.460 OA
BRANCH   6   7
ATOM      7  C   UNL A   1      32.838  24.569  24.619  1.00  0.00     0.338 C 
ATOM      8  O   UNL A   1      33.127  23.949  23.606  1.00  0.00    -0.246 OA
BRANCH   7   9
ATOM      9  C   UNL A   1      32.452  25.994  24.613  1.00  0.00     0.087 C 
ATOM     10  C   UNL A   1      31.110  32.183  26.209  1.00  0.00     0.047 C 
ATOM     11  C   UNL A   1      31.703  30.822  25.926  1.00  0.00    -0.019 A 
ATOM     12  C   UNL A   1      32.871  30.397  26.609  1.00  0.00     0.025 A 
ATOM     13  C   UNL A   1      31.140  29.950  24.973  1.00  0.00     0.064 A 
ATOM     14  Br  UNL A   1      33.718  31.619  27.826  1.00  0.00    -0.050 Br
ATOM     15  C   UNL A   1      33.415  29.102  26.416  1.00  0.00    -0.026 A 
ATOM     16  C   UNL A   1      31.648  28.649  24.790  1.00  0.00     0.142 A 
ATOM     17  Br  UNL A   1      29.652  30.489  23.889  1.00  0.00    -0.046 Br
ATOM     18  C   UNL A   1      34.674  28.641  27.122  1.00  0.00     0.046 C 
ATOM     19  C   UNL A   1      32.747  28.208  25.542  1.00  0.00     0.022 A 
ATOM     20  O   UNL A   1      31.028  27.867  23.849  1.00  0.00    -0.474 OA
ATOM     21  C   UNL A   1      33.137  26.802  25.432  1.00  0.00     0.027 C 
ATOM     22  C   UNL A   1      31.337  26.459  23.733  1.00  0.00     0.316 C 
BRANCH  22  23
ATOM     23  C   UNL A   1      30.042  25.660  23.936  1.00  0.00     0.430 C 
ATOM     24  F   UNL A   1      29.856  25.349  25.242  1.00  0.00    -0.167 F 
ATOM     25  F   UNL A   1      28.950  26.363  23.551  1.00  0.00    -0.167 F 
ATOM     26  F   UNL A   1      30.043  24.501  23.240  1.00  0.00    -0.167 F 
ENDBRANCH  22  23
ENDBRANCH   7   9
ENDBRANCH   6   7
ENDBRANCH   5   6
ENDBRANCH   4   5
ENDBRANCH   3   4
ENDBRANCH   2   3
ENDBRANCH   1   2
BRANCH   1  27
ATOM     27  O   UNL A   1      37.135  21.640  25.307  1.00  0.00    -0.376 OA
BRANCH  27  28
ATOM     28  C   UNL A   1      37.742  20.415  24.935  1.00  0.00     0.202 C 
BRANCH  28  29
ATOM     29  C   UNL A   1      39.106  19.997  25.516  1.00  0.00     0.261 C 
BRANCH  29  30
ATOM     30  O   UNL A   1      39.896  21.016  26.139  1.00  0.00    -0.460 OA
BRANCH  30  31
ATOM     31  C   UNL A   1      40.909  20.613  26.939  1.00  0.00     0.338 C 
ATOM     32  O   UNL A   1      41.094  19.491  27.374  1.00  0.00    -0.246 OA
BRANCH  31  33
ATOM     33  C   UNL A   1      41.880  21.728  27.035  1.00  0.00     0.060 A 
ATOM     34  C   UNL A   1      42.481  21.992  28.273  1.00  0.00     0.016 A 
ATOM     35  C   UNL A   1      42.195  22.504  25.916  1.00  0.00     0.016 A 
ATOM     36  C   UNL A   1      43.368  23.062  28.405  1.00  0.00     0.010 A 
ATOM     37  C   UNL A   1      43.063  23.592  26.057  1.00  0.00     0.010 A 
ATOM     38  C   UNL A   1      43.623  23.897  27.309  1.00  0.00    -0.014 A 
BRANCH  38  39
ATOM     39  C   UNL A   1      44.261  25.219  27.527  1.00  0.00     0.031 A 
ATOM     40  C   UNL A   1      43.402  26.330  28.074  1.00  0.00     0.074 A 
ATOM     41  C   UNL A   1      45.564  25.434  27.273  1.00  0.00     0.049 A 
ATOM     42  N   UNL A   1      43.697  27.586  28.277  1.00  0.00    -0.248 NA
ATOM     43  C   UNL A   1      42.024  25.966  28.445  1.00  0.00     0.031 C 
ATOM     44  C   UNL A   1      46.515  24.428  26.805  1.00  0.00     0.029 A 
ATOM     45  N   UNL A   1      46.309  26.583  27.371  1.00  0.00    -0.354 N 
ATOM     46  C   UNL A   1      42.545  28.161  28.803  1.00  0.00     0.074 A 
ATOM     47  C   UNL A   1      41.540  27.125  28.866  1.00  0.00     0.031 C 
ATOM     48  C   UNL A   1      47.718  25.010  26.644  1.00  0.00     0.029 A 
ATOM     49  C   UNL A   1      47.612  26.434  26.961  1.00  0.00     0.049 A 
ATOM     50  H   UNL A   1      45.943  27.435  27.703  1.00  0.00     0.167 HD
ATOM     51  C   UNL A   1      42.343  29.438  29.203  1.00  0.00     0.037 A 
ATOM     52  C   UNL A   1      48.593  27.351  26.830  1.00  0.00     0.037 A 
ATOM     53  C   UNL A   1      43.334  30.476  29.117  1.00  0.00     0.049 A 
ATOM     54  C   UNL A   1      48.311  28.793  27.175  1.00  0.00     0.074 A 
ATOM     55  C   UNL A   1      43.219  31.809  29.472  1.00  0.00     0.029 A 
ATOM     56  N   UNL A   1      44.621  30.300  28.634  1.00  0.00    -0.354 N 
ATOM     57  N   UNL A   1      47.212  29.330  27.648  1.00  0.00    -0.248 NA
ATOM     58  C   UNL A   1      49.402  29.753  26.957  1.00  0.00     0.031 C 
ATOM     59  C   UNL A   1      44.425  32.448  29.162  1.00  0.00     0.029 A 
ATOM     60  C   UNL A   1      45.305  31.504  28.660  1.00  0.00     0.049 A 
ATOM     61  H   UNL A   1      44.995  29.445  28.320  1.00  0.00     0.167 HD
ATOM     62  C   UNL A   1      47.483  30.688  27.796  1.00  0.00     0.074 A 
ATOM     63  C   UNL A   1      48.857  30.884  27.382  1.00  0.00     0.031 C 
ATOM     64  C   UNL A   1      46.669  31.684  28.230  1.00  0.00     0.037 A 
BRANCH  51  65
ATOM     65  C   UNL A   1      40.984  29.784  29.743  1.00  0.00     0.058 A 
ATOM     66  C   UNL A   1      39.867  29.899  28.902  1.00  0.00     0.135 A 
ATOM     67  C   UNL A   1      40.794  29.985  31.120  1.00  0.00     0.135 A 
ATOM     68  F   UNL A   1      40.001  29.745  27.574  1.00  0.00    -0.206 F 
ATOM     69  C   UNL A   1      38.609  30.216  29.404  1.00  0.00     0.059 A 
ATOM     70  C   UNL A   1      39.540  30.279  31.647  1.00  0.00     0.059 A 
ATOM     71  F   UNL A   1      41.833  29.899  31.965  1.00  0.00    -0.206 F 
ATOM     72  C   UNL A   1      38.456  30.402  30.779  1.00  0.00     0.060 A 
BRANCH  72  73
ATOM     73  S   UNL A   1      36.815  30.802  31.415  1.00  0.00     0.124 S 
ATOM     74  O   UNL A   1      37.142  31.657  32.551  1.00  0.00    -0.237 OA
ATOM     75  O   UNL A   1      36.195  31.471  30.276  1.00  0.00    -0.237 OA
ATOM     76  O   UNL A   1      36.254  29.498  31.754  1.00  0.00    -0.744 OA
ENDBRANCH  72  73
ENDBRANCH  51  65
BRANCH  52  77
ATOM     77  C   UNL A   1      49.933  26.946  26.324  1.00  0.00     0.058 A 
ATOM     78  C   UNL A   1      50.930  26.491  27.200  1.00  0.00     0.135 A 
ATOM     79  C   UNL A   1      50.249  27.020  24.958  1.00  0.00     0.135 A 
ATOM     80  F   UNL A   1      50.684  26.421  28.516  1.00  0.00    -0.206 F 
ATOM     81  C   UNL A   1      52.193  26.128  26.742  1.00  0.00     0.059 A 
ATOM     82  C   UNL A   1      51.497  26.641  24.473  1.00  0.00     0.059 A 
ATOM     83  F   UNL A   1      49.330  27.450  24.079  1.00  0.00    -0.206 F 
ATOM     84  C   UNL A   1      52.465  26.202  25.374  1.00  0.00     0.060 A 
BRANCH  84  85
ATOM     85  S   UNL A   1      54.089  25.675  24.786  1.00  0.00     0.124 S 
ATOM     86  O   UNL A   1      54.977  26.346  25.730  1.00  0.00    -0.237 OA
ATOM     87  O   UNL A   1      54.002  24.224  24.913  1.00  0.00    -0.237 OA
ATOM     88  O   UNL A   1      54.130  26.176  23.416  1.00  0.00    -0.744 OA
ENDBRANCH  84  85
ENDBRANCH  52  77
BRANCH  64  89
ATOM     89  C   UNL A   1      47.246  33.073  28.287  1.00  0.00     0.058 A 
ATOM     90  C   UNL A   1      47.963  33.524  29.407  1.00  0.00     0.135 A 
ATOM     91  C   UNL A   1      47.110  33.950  27.199  1.00  0.00     0.135 A 
ATOM     92  F   UNL A   1      48.122  32.725  30.474  1.00  0.00    -0.206 F 
ATOM     93  C   UNL A   1      48.495  34.808  29.459  1.00  0.00     0.059 A 
ATOM     94  C   UNL A   1      47.658  35.229  27.219  1.00  0.00     0.059 A 
ATOM     95  F   UNL A   1      46.447  33.565  26.098  1.00  0.00    -0.206 F 
ATOM     96  C   UNL A   1      48.335  35.655  28.361  1.00  0.00     0.060 A 
BRANCH  96  97
ATOM     97  S   UNL A   1      49.034  37.318  28.442  1.00  0.00     0.124 S 
ATOM     98  O   UNL A   1      49.846  37.236  29.652  1.00  0.00    -0.237 OA
ATOM     99  O   UNL A   1      49.773  37.408  27.187  1.00  0.00    -0.237 OA
ATOM    100  O   UNL A   1      47.857  38.177  28.532  1.00  0.00    -0.744 OA
ENDBRANCH  96  97
ENDBRANCH  64  89
ENDBRANCH  38  39
ENDBRANCH  31  33
ENDBRANCH  30  31
ENDBRANCH  29  30
ENDBRANCH  28  29
ENDBRANCH  27  28
ENDBRANCH   1  27
TORSDOF 21
ENDMDL
