MODEL 1
REMARK VINA RESULT:      -9.3      0.000      0.000
REMARK SMILES COc1ccc(CNC(=O)[C@H]2CC(C)=C(C)C[C@@H]2C(=O)OCCOCCOCCOC(=O)c2ccc(-c3c4nc(c(-c5c(F)cc(S(=O)(=O)[O-])cc5F)c5ccc([nH]5)c(-c5c(F)cc(S(=O)(=O)[O-])cc5F)c5nc(c(-c6c(F)cc(S(=O)(=O)[O-])cc6F)c6ccc3[nH]6)C=C5)C=C4)cc2)cc1OC
REMARK SMILES IDX 25 1 24 2 23 3 22 4 21 5 19 6 20 7 18 8 11 9 12 10 13 11
REMARK SMILES IDX 17 12 14 13 15 14 16 15 9 16 8 17 10 19 7 20 6 21 3 22 4 23
REMARK SMILES IDX 100 24 5 25 99 26 2 27 1 28 101 29 102 30 26 31 27 32 28 33
REMARK SMILES IDX 29 34 30 35 31 36 32 37 33 38 34 39 98 40 35 41 97 42 36 43
REMARK SMILES IDX 37 44 38 45 91 46 39 47 96 48 90 49 92 50 40 51 95 52 89 53
REMARK SMILES IDX 88 54 41 56 75 57 54 58 74 59 55 60 58 61 73 62 93 63 56 64
REMARK SMILES IDX 57 65 72 67 94 68 59 69 42 70 43 71 52 72 44 73 45 74 51 75
REMARK SMILES IDX 53 76 46 77 47 78 48 79 49 80 50 81 76 82 77 83 86 84 78 85
REMARK SMILES IDX 79 86 85 87 87 88 80 89 81 90 82 91 83 92 84 93 60 94 61 95
REMARK SMILES IDX 70 96 62 97 63 98 69 99 71 100 64 101 65 102 66 103 67 104
REMARK SMILES IDX 68 105
REMARK H PARENT 8 18 92 55 58 66
REMARK Flexibility Score: inf
ROOT
ATOM      1  C   UNL A   1      45.789  41.401  30.770  1.00  0.00     0.188 C 
ENDROOT
BRANCH   1   2
ATOM      2  O   UNL A   1      45.034  42.389  30.081  1.00  0.00    -0.376 OA
BRANCH   2   3
ATOM      3  C   UNL A   1      45.665  43.592  29.689  1.00  0.00     0.202 C 
BRANCH   3   4
ATOM      4  C   UNL A   1      45.287  44.206  28.340  1.00  0.00     0.261 C 
BRANCH   4   5
ATOM      5  O   UNL A   1      45.528  43.388  27.184  1.00  0.00    -0.463 OA
BRANCH   5   6
ATOM      6  C   UNL A   1      45.369  44.001  25.974  1.00  0.00     0.310 C 
ATOM      7  O   UNL A   1      45.261  45.210  25.826  1.00  0.00    -0.252 OA
BRANCH   6   8
ATOM      8  C   UNL A   1      45.248  42.966  24.851  1.00  0.00     0.116 C 
ATOM      9  C   UNL A   1      44.943  43.620  23.495  1.00  0.00     0.097 C 
ATOM     10  C   UNL A   1      43.467  43.799  23.156  1.00  0.00     0.045 C 
ATOM     11  C   UNL A   1      42.509  42.791  23.725  1.00  0.00    -0.074 C 
ATOM     12  C   UNL A   1      44.269  41.851  25.249  1.00  0.00     0.046 C 
ATOM     13  C   UNL A   1      41.146  42.826  23.074  1.00  0.00     0.039 C 
ATOM     14  C   UNL A   1      42.859  41.947  24.716  1.00  0.00    -0.073 C 
ATOM     15  C   UNL A   1      41.868  41.034  25.396  1.00  0.00     0.039 C 
BRANCH   9  16
ATOM     16  C   UNL A   1      45.932  43.200  22.407  1.00  0.00     0.224 C 
ATOM     17  N   UNL A   1      46.866  44.007  21.856  1.00  0.00    -0.352 N 
ATOM     18  H   UNL A   1      47.678  43.545  21.546  1.00  0.00     0.163 HD
ATOM     19  O   UNL A   1      45.947  42.019  22.036  1.00  0.00    -0.275 OA
BRANCH  17  20
ATOM     20  C   UNL A   1      46.869  45.437  21.646  1.00  0.00     0.151 C 
BRANCH  20  21
ATOM     21  C   UNL A   1      45.913  45.903  20.576  1.00  0.00    -0.025 A 
ATOM     22  C   UNL A   1      43.983  46.636  18.644  1.00  0.00     0.160 A 
ATOM     23  C   UNL A   1      44.740  47.612  19.305  1.00  0.00     0.051 A 
ATOM     24  C   UNL A   1      44.198  45.282  18.923  1.00  0.00     0.161 A 
ATOM     25  C   UNL A   1      45.695  47.250  20.265  1.00  0.00     0.009 A 
ATOM     26  C   UNL A   1      45.147  44.940  19.898  1.00  0.00     0.056 A 
BRANCH  22  27
ATOM     27  O   UNL A   1      43.128  47.040  17.655  1.00  0.00    -0.493 OA
ATOM     28  C   UNL A   1      43.808  47.748  16.615  1.00  0.00     0.278 C 
ENDBRANCH  22  27
BRANCH  24  29
ATOM     29  O   UNL A   1      43.612  44.183  18.359  1.00  0.00    -0.493 OA
ATOM     30  C   UNL A   1      42.223  43.974  18.561  1.00  0.00     0.278 C 
ENDBRANCH  24  29
ENDBRANCH  20  21
ENDBRANCH  17  20
ENDBRANCH   9  16
ENDBRANCH   6   8
ENDBRANCH   5   6
ENDBRANCH   4   5
ENDBRANCH   3   4
ENDBRANCH   2   3
ENDBRANCH   1   2
BRANCH   1  31
ATOM     31  C   UNL A   1      45.952  41.464  32.306  1.00  0.00     0.188 C 
BRANCH  31  32
ATOM     32  O   UNL A   1      46.071  40.227  32.964  1.00  0.00    -0.376 OA
BRANCH  32  33
ATOM     33  C   UNL A   1      45.960  38.991  32.304  1.00  0.00     0.202 C 
BRANCH  33  34
ATOM     34  C   UNL A   1      47.103  38.002  32.027  1.00  0.00     0.261 C 
BRANCH  34  35
ATOM     35  O   UNL A   1      46.777  36.748  31.427  1.00  0.00    -0.460 OA
BRANCH  35  36
ATOM     36  C   UNL A   1      46.947  36.689  30.086  1.00  0.00     0.338 C 
ATOM     37  O   UNL A   1      47.216  37.621  29.332  1.00  0.00    -0.246 OA
BRANCH  36  38
ATOM     38  C   UNL A   1      46.887  35.295  29.625  1.00  0.00     0.060 A 
ATOM     39  C   UNL A   1      46.681  35.047  28.262  1.00  0.00     0.016 A 
ATOM     40  C   UNL A   1      46.929  34.242  30.541  1.00  0.00     0.016 A 
ATOM     41  C   UNL A   1      46.486  33.739  27.813  1.00  0.00     0.010 A 
ATOM     42  C   UNL A   1      46.720  32.935  30.089  1.00  0.00     0.010 A 
ATOM     43  C   UNL A   1      46.467  32.679  28.728  1.00  0.00    -0.014 A 
BRANCH  43  44
ATOM     44  C   UNL A   1      46.013  31.327  28.308  1.00  0.00     0.031 A 
ATOM     45  C   UNL A   1      44.572  30.953  28.523  1.00  0.00     0.074 A 
ATOM     46  C   UNL A   1      46.855  30.442  27.746  1.00  0.00     0.049 A 
ATOM     47  N   UNL A   1      43.977  29.799  28.357  1.00  0.00    -0.248 NA
ATOM     48  C   UNL A   1      43.681  32.029  28.986  1.00  0.00     0.031 C 
ATOM     49  C   UNL A   1      48.255  30.695  27.414  1.00  0.00     0.029 A 
ATOM     50  N   UNL A   1      46.649  29.137  27.369  1.00  0.00    -0.354 N 
ATOM     51  C   UNL A   1      42.649  30.002  28.714  1.00  0.00     0.074 A 
ATOM     52  C   UNL A   1      42.529  31.388  29.117  1.00  0.00     0.031 C 
ATOM     53  C   UNL A   1      48.787  29.576  26.894  1.00  0.00     0.029 A 
ATOM     54  C   UNL A   1      47.782  28.513  26.904  1.00  0.00     0.049 A 
ATOM     55  H   UNL A   1      45.773  28.691  27.426  1.00  0.00     0.167 HD
ATOM     56  C   UNL A   1      41.624  29.118  28.710  1.00  0.00     0.037 A 
ATOM     57  C   UNL A   1      47.992  27.226  26.559  1.00  0.00     0.037 A 
ATOM     58  C   UNL A   1      41.744  27.737  28.321  1.00  0.00     0.049 A 
ATOM     59  C   UNL A   1      46.862  26.231  26.657  1.00  0.00     0.074 A 
ATOM     60  C   UNL A   1      40.763  26.761  28.296  1.00  0.00     0.029 A 
ATOM     61  N   UNL A   1      42.919  27.132  27.899  1.00  0.00    -0.354 N 
ATOM     62  N   UNL A   1      45.614  26.429  27.013  1.00  0.00    -0.248 NA
ATOM     63  C   UNL A   1      47.171  24.835  26.315  1.00  0.00     0.031 C 
ATOM     64  C   UNL A   1      41.355  25.556  27.900  1.00  0.00     0.029 A 
ATOM     65  C   UNL A   1      42.693  25.792  27.629  1.00  0.00     0.049 A 
ATOM     66  H   UNL A   1      43.786  27.588  27.805  1.00  0.00     0.167 HD
ATOM     67  C   UNL A   1      44.985  25.190  26.909  1.00  0.00     0.074 A 
ATOM     68  C   UNL A   1      45.989  24.250  26.453  1.00  0.00     0.031 C 
ATOM     69  C   UNL A   1      43.694  24.864  27.164  1.00  0.00     0.037 A 
BRANCH  56  70
ATOM     70  C   UNL A   1      40.289  29.616  29.189  1.00  0.00     0.058 A 
ATOM     71  C   UNL A   1      39.227  29.858  28.303  1.00  0.00     0.135 A 
ATOM     72  C   UNL A   1      40.074  29.864  30.554  1.00  0.00     0.135 A 
ATOM     73  F   UNL A   1      39.385  29.655  26.985  1.00  0.00    -0.206 F 
ATOM     74  C   UNL A   1      38.012  30.366  28.749  1.00  0.00     0.059 A 
ATOM     75  C   UNL A   1      38.859  30.347  31.026  1.00  0.00     0.059 A 
ATOM     76  F   UNL A   1      41.058  29.651  31.444  1.00  0.00    -0.206 F 
ATOM     77  C   UNL A   1      37.840  30.616  30.113  1.00  0.00     0.060 A 
BRANCH  77  78
ATOM     78  S   UNL A   1      36.271  31.309  30.673  1.00  0.00     0.124 S 
ATOM     79  O   UNL A   1      35.461  31.203  29.464  1.00  0.00    -0.237 OA
ATOM     80  O   UNL A   1      35.904  30.411  31.763  1.00  0.00    -0.237 OA
ATOM     81  O   UNL A   1      36.624  32.667  31.076  1.00  0.00    -0.744 OA
ENDBRANCH  77  78
ENDBRANCH  56  70
BRANCH  57  82
ATOM     82  C   UNL A   1      49.340  26.789  26.108  1.00  0.00     0.058 A 
ATOM     83  C   UNL A   1      49.752  26.974  24.780  1.00  0.00     0.135 A 
ATOM     84  C   UNL A   1      50.243  26.176  26.991  1.00  0.00     0.135 A 
ATOM     85  F   UNL A   1      48.918  27.538  23.892  1.00  0.00    -0.206 F 
ATOM     86  C   UNL A   1      51.006  26.563  24.340  1.00  0.00     0.059 A 
ATOM     87  C   UNL A   1      51.512  25.779  26.583  1.00  0.00     0.059 A 
ATOM     88  F   UNL A   1      49.897  25.975  28.272  1.00  0.00    -0.206 F 
ATOM     89  C   UNL A   1      51.882  25.970  25.252  1.00  0.00     0.060 A 
BRANCH  89  90
ATOM     90  S   UNL A   1      53.530  25.496  24.685  1.00  0.00     0.124 S 
ATOM     91  O   UNL A   1      53.526  26.000  23.317  1.00  0.00    -0.237 OA
ATOM     92  O   UNL A   1      54.393  26.205  25.625  1.00  0.00    -0.237 OA
ATOM     93  O   UNL A   1      53.528  24.042  24.823  1.00  0.00    -0.744 OA
ENDBRANCH  89  90
ENDBRANCH  57  82
BRANCH  69  94
ATOM     94  C   UNL A   1      43.265  23.442  26.914  1.00  0.00     0.058 A 
ATOM     95  C   UNL A   1      43.045  22.950  25.618  1.00  0.00     0.135 A 
ATOM     96  C   UNL A   1      43.136  22.541  27.985  1.00  0.00     0.135 A 
ATOM     97  F   UNL A   1      43.150  23.768  24.558  1.00  0.00    -0.206 F 
ATOM     98  C   UNL A   1      42.696  21.621  25.394  1.00  0.00     0.059 A 
ATOM     99  C   UNL A   1      42.812  21.203  27.783  1.00  0.00     0.059 A 
ATOM    100  F   UNL A   1      43.346  22.956  29.245  1.00  0.00    -0.206 F 
ATOM    101  C   UNL A   1      42.584  20.754  26.483  1.00  0.00     0.060 A 
BRANCH 101 102
ATOM    102  S   UNL A   1      42.174  19.022  26.177  1.00  0.00     0.124 S 
ATOM    103  O   UNL A   1      40.782  19.120  25.750  1.00  0.00    -0.237 OA
ATOM    104  O   UNL A   1      43.130  18.651  25.138  1.00  0.00    -0.237 OA
ATOM    105  O   UNL A   1      42.389  18.387  27.474  1.00  0.00    -0.744 OA
ENDBRANCH 101 102
ENDBRANCH  69  94
ENDBRANCH  43  44
ENDBRANCH  36  38
ENDBRANCH  35  36
ENDBRANCH  34  35
ENDBRANCH  33  34
ENDBRANCH  32  33
ENDBRANCH  31  32
ENDBRANCH   1  31
TORSDOF 25
ENDMDL
MODEL 2
REMARK VINA RESULT:      -9.0      7.707     14.428
REMARK SMILES COc1ccc(CNC(=O)[C@H]2CC(C)=C(C)C[C@@H]2C(=O)OCCOCCOCCOC(=O)c2ccc(-c3c4nc(c(-c5c(F)cc(S(=O)(=O)[O-])cc5F)c5ccc([nH]5)c(-c5c(F)cc(S(=O)(=O)[O-])cc5F)c5nc(c(-c6c(F)cc(S(=O)(=O)[O-])cc6F)c6ccc3[nH]6)C=C5)C=C4)cc2)cc1OC
REMARK SMILES IDX 25 1 24 2 23 3 22 4 21 5 19 6 20 7 18 8 11 9 12 10 13 11
REMARK SMILES IDX 17 12 14 13 15 14 16 15 9 16 8 17 10 19 7 20 6 21 3 22 4 23
REMARK SMILES IDX 100 24 5 25 99 26 2 27 1 28 101 29 102 30 26 31 27 32 28 33
REMARK SMILES IDX 29 34 30 35 31 36 32 37 33 38 34 39 98 40 35 41 97 42 36 43
REMARK SMILES IDX 37 44 38 45 91 46 39 47 96 48 90 49 92 50 40 51 95 52 89 53
REMARK SMILES IDX 88 54 41 56 75 57 54 58 74 59 55 60 58 61 73 62 93 63 56 64
REMARK SMILES IDX 57 65 72 67 94 68 59 69 42 70 43 71 52 72 44 73 45 74 51 75
REMARK SMILES IDX 53 76 46 77 47 78 48 79 49 80 50 81 76 82 77 83 86 84 78 85
REMARK SMILES IDX 79 86 85 87 87 88 80 89 81 90 82 91 83 92 84 93 60 94 61 95
REMARK SMILES IDX 70 96 62 97 63 98 69 99 71 100 64 101 65 102 66 103 67 104
REMARK SMILES IDX 68 105
REMARK H PARENT 8 18 92 55 58 66
REMARK Flexibility Score: inf
ROOT
ATOM      1  C   UNL A   1      39.469  24.529  26.518  1.00  0.00     0.188 C 
ENDROOT
BRANCH   1   2
ATOM      2  O   UNL A   1      40.673  25.150  26.087  1.00  0.00    -0.376 OA
BRANCH   2   3
ATOM      3  C   UNL A   1      40.777  26.559  26.130  1.00  0.00     0.202 C 
BRANCH   3   4
ATOM      4  C   UNL A   1      40.970  27.234  27.489  1.00  0.00     0.261 C 
BRANCH   4   5
ATOM      5  O   UNL A   1      39.806  27.853  28.058  1.00  0.00    -0.463 OA
BRANCH   5   6
ATOM      6  C   UNL A   1      39.479  27.462  29.326  1.00  0.00     0.310 C 
ATOM      7  O   UNL A   1      39.012  26.367  29.608  1.00  0.00    -0.252 OA
BRANCH   6   8
ATOM      8  C   UNL A   1      39.684  28.610  30.319  1.00  0.00     0.116 C 
ATOM      9  C   UNL A   1      38.884  28.402  31.614  1.00  0.00     0.097 C 
ATOM     10  C   UNL A   1      37.470  28.971  31.625  1.00  0.00     0.045 C 
ATOM     11  C   UNL A   1      37.219  30.193  30.788  1.00  0.00    -0.074 C 
ATOM     12  C   UNL A   1      39.439  29.964  29.636  1.00  0.00     0.046 C 
ATOM     13  C   UNL A   1      35.920  30.889  31.118  1.00  0.00     0.039 C 
ATOM     14  C   UNL A   1      38.088  30.609  29.846  1.00  0.00    -0.073 C 
ATOM     15  C   UNL A   1      37.782  31.744  28.899  1.00  0.00     0.039 C 
BRANCH   9  16
ATOM     16  C   UNL A   1      39.759  28.500  32.864  1.00  0.00     0.224 C 
ATOM     17  N   UNL A   1      40.216  29.653  33.402  1.00  0.00    -0.352 N 
ATOM     18  H   UNL A   1      40.351  29.628  34.376  1.00  0.00     0.163 HD
ATOM     19  O   UNL A   1      40.025  27.466  33.490  1.00  0.00    -0.275 OA
BRANCH  17  20
ATOM     20  C   UNL A   1      40.539  30.918  32.781  1.00  0.00     0.151 C 
BRANCH  20  21
ATOM     21  C   UNL A   1      39.483  31.980  32.966  1.00  0.00    -0.025 A 
ATOM     22  C   UNL A   1      37.470  33.959  33.105  1.00  0.00     0.160 A 
ATOM     23  C   UNL A   1      37.552  32.954  34.077  1.00  0.00     0.051 A 
ATOM     24  C   UNL A   1      38.406  34.002  32.068  1.00  0.00     0.161 A 
ATOM     25  C   UNL A   1      38.549  31.970  34.007  1.00  0.00     0.009 A 
ATOM     26  C   UNL A   1      39.387  33.001  32.005  1.00  0.00     0.056 A 
BRANCH  22  27
ATOM     27  O   UNL A   1      36.533  34.943  33.271  1.00  0.00    -0.493 OA
ATOM     28  C   UNL A   1      35.399  34.484  34.012  1.00  0.00     0.278 C 
ENDBRANCH  22  27
BRANCH  24  29
ATOM     29  O   UNL A   1      38.534  34.918  31.060  1.00  0.00    -0.493 OA
ATOM     30  C   UNL A   1      39.573  34.744  30.110  1.00  0.00     0.278 C 
ENDBRANCH  24  29
ENDBRANCH  20  21
ENDBRANCH  17  20
ENDBRANCH   9  16
ENDBRANCH   6   8
ENDBRANCH   5   6
ENDBRANCH   4   5
ENDBRANCH   3   4
ENDBRANCH   2   3
ENDBRANCH   1   2
BRANCH   1  31
ATOM     31  C   UNL A   1      39.466  23.056  26.986  1.00  0.00     0.188 C 
BRANCH  31  32
ATOM     32  O   UNL A   1      39.582  22.088  25.973  1.00  0.00    -0.376 OA
BRANCH  32  33
ATOM     33  C   UNL A   1      40.171  20.828  26.176  1.00  0.00     0.202 C 
BRANCH  33  34
ATOM     34  C   UNL A   1      41.667  20.546  26.384  1.00  0.00     0.261 C 
BRANCH  34  35
ATOM     35  O   UNL A   1      42.350  21.265  27.412  1.00  0.00    -0.460 OA
BRANCH  35  36
ATOM     36  C   UNL A   1      43.422  21.979  27.000  1.00  0.00     0.338 C 
ATOM     37  O   UNL A   1      44.126  21.758  26.018  1.00  0.00    -0.246 OA
BRANCH  36  38
ATOM     38  C   UNL A   1      43.588  23.178  27.833  1.00  0.00     0.060 A 
ATOM     39  C   UNL A   1      44.868  23.731  27.966  1.00  0.00     0.016 A 
ATOM     40  C   UNL A   1      42.512  23.691  28.561  1.00  0.00     0.016 A 
ATOM     41  C   UNL A   1      45.082  24.787  28.855  1.00  0.00     0.010 A 
ATOM     42  C   UNL A   1      42.734  24.740  29.459  1.00  0.00     0.010 A 
ATOM     43  C   UNL A   1      44.024  25.274  29.635  1.00  0.00    -0.014 A 
BRANCH  43  44
ATOM     44  C   UNL A   1      44.283  26.213  30.757  1.00  0.00     0.031 A 
ATOM     45  C   UNL A   1      44.293  27.691  30.471  1.00  0.00     0.074 A 
ATOM     46  C   UNL A   1      44.506  25.775  32.008  1.00  0.00     0.049 A 
ATOM     47  N   UNL A   1      44.618  28.688  31.253  1.00  0.00    -0.248 NA
ATOM     48  C   UNL A   1      43.876  28.095  29.119  1.00  0.00     0.031 C 
ATOM     49  C   UNL A   1      44.455  24.381  32.441  1.00  0.00     0.029 A 
ATOM     50  N   UNL A   1      44.838  26.469  33.146  1.00  0.00    -0.354 N 
ATOM     51  C   UNL A   1      44.466  29.836  30.485  1.00  0.00     0.074 A 
ATOM     52  C   UNL A   1      44.031  29.410  29.171  1.00  0.00     0.031 C 
ATOM     53  C   UNL A   1      44.759  24.320  33.749  1.00  0.00     0.029 A 
ATOM     54  C   UNL A   1      45.075  25.663  34.234  1.00  0.00     0.049 A 
ATOM     55  H   UNL A   1      44.900  27.451  33.179  1.00  0.00     0.167 HD
ATOM     56  C   UNL A   1      44.673  31.128  30.838  1.00  0.00     0.037 A 
ATOM     57  C   UNL A   1      45.528  25.970  35.467  1.00  0.00     0.037 A 
ATOM     58  C   UNL A   1      45.117  31.553  32.140  1.00  0.00     0.049 A 
ATOM     59  C   UNL A   1      45.849  27.404  35.811  1.00  0.00     0.074 A 
ATOM     60  C   UNL A   1      45.365  32.838  32.588  1.00  0.00     0.029 A 
ATOM     61  N   UNL A   1      45.389  30.701  33.201  1.00  0.00    -0.354 N 
ATOM     62  N   UNL A   1      45.719  28.481  35.073  1.00  0.00    -0.248 NA
ATOM     63  C   UNL A   1      46.387  27.662  37.155  1.00  0.00     0.031 C 
ATOM     64  C   UNL A   1      45.829  32.761  33.906  1.00  0.00     0.029 A 
ATOM     65  C   UNL A   1      45.821  31.431  34.296  1.00  0.00     0.049 A 
ATOM     66  H   UNL A   1      45.290  29.722  33.178  1.00  0.00     0.167 HD
ATOM     67  C   UNL A   1      46.132  29.545  35.872  1.00  0.00     0.074 A 
ATOM     68  C   UNL A   1      46.510  28.983  37.152  1.00  0.00     0.031 C 
ATOM     69  C   UNL A   1      46.186  30.867  35.572  1.00  0.00     0.037 A 
BRANCH  56  70
ATOM     70  C   UNL A   1      44.462  32.169  29.775  1.00  0.00     0.058 A 
ATOM     71  C   UNL A   1      43.207  32.756  29.550  1.00  0.00     0.135 A 
ATOM     72  C   UNL A   1      45.533  32.579  28.963  1.00  0.00     0.135 A 
ATOM     73  F   UNL A   1      42.146  32.386  30.285  1.00  0.00    -0.206 F 
ATOM     74  C   UNL A   1      43.011  33.682  28.531  1.00  0.00     0.059 A 
ATOM     75  C   UNL A   1      45.366  33.523  27.957  1.00  0.00     0.059 A 
ATOM     76  F   UNL A   1      46.754  32.048  29.136  1.00  0.00    -0.206 F 
ATOM     77  C   UNL A   1      44.096  34.053  27.734  1.00  0.00     0.060 A 
BRANCH  77  78
ATOM     78  S   UNL A   1      43.820  35.229  26.392  1.00  0.00     0.124 S 
ATOM     79  O   UNL A   1      43.947  34.366  25.222  1.00  0.00    -0.237 OA
ATOM     80  O   UNL A   1      42.474  35.717  26.676  1.00  0.00    -0.237 OA
ATOM     81  O   UNL A   1      44.890  36.206  26.572  1.00  0.00    -0.744 OA
ENDBRANCH  77  78
ENDBRANCH  56  70
BRANCH  57  82
ATOM     82  C   UNL A   1      45.732  24.893  36.472  1.00  0.00     0.058 A 
ATOM     83  C   UNL A   1      44.773  24.641  37.465  1.00  0.00     0.135 A 
ATOM     84  C   UNL A   1      46.887  24.095  36.464  1.00  0.00     0.135 A 
ATOM     85  F   UNL A   1      43.660  25.389  37.527  1.00  0.00    -0.206 F 
ATOM     86  C   UNL A   1      44.953  23.643  38.417  1.00  0.00     0.059 A 
ATOM     87  C   UNL A   1      47.079  23.074  37.389  1.00  0.00     0.059 A 
ATOM     88  F   UNL A   1      47.835  24.296  35.535  1.00  0.00    -0.206 F 
ATOM     89  C   UNL A   1      46.109  22.860  38.367  1.00  0.00     0.060 A 
BRANCH  89  90
ATOM     90  S   UNL A   1      46.303  21.528  39.571  1.00  0.00     0.124 S 
ATOM     91  O   UNL A   1      46.032  20.351  38.753  1.00  0.00    -0.237 OA
ATOM     92  O   UNL A   1      47.688  21.702  39.999  1.00  0.00    -0.237 OA
ATOM     93  O   UNL A   1      45.298  21.839  40.583  1.00  0.00    -0.744 OA
ENDBRANCH  89  90
ENDBRANCH  57  82
BRANCH  69  94
ATOM     94  C   UNL A   1      46.627  31.815  36.655  1.00  0.00     0.058 A 
ATOM     95  C   UNL A   1      47.971  32.186  36.816  1.00  0.00     0.135 A 
ATOM     96  C   UNL A   1      45.679  32.412  37.504  1.00  0.00     0.135 A 
ATOM     97  F   UNL A   1      48.920  31.643  36.037  1.00  0.00    -0.206 F 
ATOM     98  C   UNL A   1      48.362  33.102  37.789  1.00  0.00     0.059 A 
ATOM     99  C   UNL A   1      46.043  33.348  38.467  1.00  0.00     0.059 A 
ATOM    100  F   UNL A   1      44.378  32.102  37.386  1.00  0.00    -0.206 F 
ATOM    101  C   UNL A   1      47.390  33.680  38.609  1.00  0.00     0.060 A 
BRANCH 101 102
ATOM    102  S   UNL A   1      47.903  34.899  39.839  1.00  0.00     0.124 S 
ATOM    103  O   UNL A   1      49.357  34.799  39.763  1.00  0.00    -0.237 OA
ATOM    104  O   UNL A   1      47.324  36.133  39.319  1.00  0.00    -0.237 OA
ATOM    105  O   UNL A   1      47.305  34.406  41.076  1.00  0.00    -0.744 OA
ENDBRANCH 101 102
ENDBRANCH  69  94
ENDBRANCH  43  44
ENDBRANCH  36  38
ENDBRANCH  35  36
ENDBRANCH  34  35
ENDBRANCH  33  34
ENDBRANCH  32  33
ENDBRANCH  31  32
ENDBRANCH   1  31
TORSDOF 25
ENDMDL
MODEL 3
REMARK VINA RESULT:      -8.9      1.925      2.908
REMARK SMILES COc1ccc(CNC(=O)[C@H]2CC(C)=C(C)C[C@@H]2C(=O)OCCOCCOCCOC(=O)c2ccc(-c3c4nc(c(-c5c(F)cc(S(=O)(=O)[O-])cc5F)c5ccc([nH]5)c(-c5c(F)cc(S(=O)(=O)[O-])cc5F)c5nc(c(-c6c(F)cc(S(=O)(=O)[O-])cc6F)c6ccc3[nH]6)C=C5)C=C4)cc2)cc1OC
REMARK SMILES IDX 25 1 24 2 23 3 22 4 21 5 19 6 20 7 18 8 11 9 12 10 13 11
REMARK SMILES IDX 17 12 14 13 15 14 16 15 9 16 8 17 10 19 7 20 6 21 3 22 4 23
REMARK SMILES IDX 100 24 5 25 99 26 2 27 1 28 101 29 102 30 26 31 27 32 28 33
REMARK SMILES IDX 29 34 30 35 31 36 32 37 33 38 34 39 98 40 35 41 97 42 36 43
REMARK SMILES IDX 37 44 38 45 91 46 39 47 96 48 90 49 92 50 40 51 95 52 89 53
REMARK SMILES IDX 88 54 41 56 75 57 54 58 74 59 55 60 58 61 73 62 93 63 56 64
REMARK SMILES IDX 57 65 72 67 94 68 59 69 42 70 43 71 52 72 44 73 45 74 51 75
REMARK SMILES IDX 53 76 46 77 47 78 48 79 49 80 50 81 76 82 77 83 86 84 78 85
REMARK SMILES IDX 79 86 85 87 87 88 80 89 81 90 82 91 83 92 84 93 60 94 61 95
REMARK SMILES IDX 70 96 62 97 63 98 69 99 71 100 64 101 65 102 66 103 67 104
REMARK SMILES IDX 68 105
REMARK H PARENT 8 18 92 55 58 66
REMARK Flexibility Score: inf
ROOT
ATOM      1  C   UNL A   1      51.383  41.739  32.729  1.00  0.00     0.188 C 
ENDROOT
BRANCH   1   2
ATOM      2  O   UNL A   1      51.161  42.990  32.091  1.00  0.00    -0.376 OA
BRANCH   2   3
ATOM      3  C   UNL A   1      49.838  43.379  31.776  1.00  0.00     0.202 C 
BRANCH   3   4
ATOM      4  C   UNL A   1      49.373  43.266  30.323  1.00  0.00     0.261 C 
BRANCH   4   5
ATOM      5  O   UNL A   1      47.954  43.167  30.121  1.00  0.00    -0.463 OA
BRANCH   5   6
ATOM      6  C   UNL A   1      47.543  42.241  29.204  1.00  0.00     0.310 C 
ATOM      7  O   UNL A   1      47.545  41.034  29.400  1.00  0.00    -0.252 OA
BRANCH   6   8
ATOM      8  C   UNL A   1      47.179  42.914  27.877  1.00  0.00     0.116 C 
ATOM      9  C   UNL A   1      45.763  43.510  27.903  1.00  0.00     0.097 C 
ATOM     10  C   UNL A   1      44.638  42.581  27.459  1.00  0.00     0.045 C 
ATOM     11  C   UNL A   1      44.981  41.531  26.441  1.00  0.00    -0.074 C 
ATOM     12  C   UNL A   1      47.441  41.961  26.700  1.00  0.00     0.046 C 
ATOM     13  C   UNL A   1      43.768  40.895  25.804  1.00  0.00     0.039 C 
ATOM     14  C   UNL A   1      46.255  41.211  26.140  1.00  0.00    -0.073 C 
ATOM     15  C   UNL A   1      46.613  40.060  25.232  1.00  0.00     0.039 C 
BRANCH   9  16
ATOM     16  C   UNL A   1      45.742  44.984  27.499  1.00  0.00     0.224 C 
ATOM     17  N   UNL A   1      45.769  45.441  26.227  1.00  0.00    -0.352 N 
ATOM     18  H   UNL A   1      45.311  46.301  26.089  1.00  0.00     0.163 HD
ATOM     19  O   UNL A   1      45.621  45.843  28.382  1.00  0.00    -0.275 OA
BRANCH  17  20
ATOM     20  C   UNL A   1      46.359  44.874  25.036  1.00  0.00     0.151 C 
BRANCH  20  21
ATOM     21  C   UNL A   1      45.367  44.199  24.121  1.00  0.00    -0.025 A 
ATOM     22  C   UNL A   1      43.620  42.759  22.429  1.00  0.00     0.160 A 
ATOM     23  C   UNL A   1      43.116  43.659  23.376  1.00  0.00     0.051 A 
ATOM     24  C   UNL A   1      45.001  42.585  22.300  1.00  0.00     0.161 A 
ATOM     25  C   UNL A   1      43.982  44.372  24.218  1.00  0.00     0.009 A 
ATOM     26  C   UNL A   1      45.851  43.295  23.160  1.00  0.00     0.056 A 
BRANCH  22  27
ATOM     27  O   UNL A   1      42.735  42.156  21.576  1.00  0.00    -0.493 OA
ATOM     28  C   UNL A   1      41.945  43.110  20.861  1.00  0.00     0.278 C 
ENDBRANCH  22  27
BRANCH  24  29
ATOM     29  O   UNL A   1      45.692  41.804  21.414  1.00  0.00    -0.493 OA
ATOM     30  C   UNL A   1      46.778  42.378  20.705  1.00  0.00     0.278 C 
ENDBRANCH  24  29
ENDBRANCH  20  21
ENDBRANCH  17  20
ENDBRANCH   9  16
ENDBRANCH   6   8
ENDBRANCH   5   6
ENDBRANCH   4   5
ENDBRANCH   3   4
ENDBRANCH   2   3
ENDBRANCH   1   2
BRANCH   1  31
ATOM     31  C   UNL A   1      50.242  40.702  32.848  1.00  0.00     0.188 C 
BRANCH  31  32
ATOM     32  O   UNL A   1      50.212  39.704  31.858  1.00  0.00    -0.376 OA
BRANCH  32  33
ATOM     33  C   UNL A   1      49.870  38.367  32.124  1.00  0.00     0.202 C 
BRANCH  33  34
ATOM     34  C   UNL A   1      50.444  37.125  31.426  1.00  0.00     0.261 C 
BRANCH  34  35
ATOM     35  O   UNL A   1      49.547  36.065  31.094  1.00  0.00    -0.460 OA
BRANCH  35  36
ATOM     36  C   UNL A   1      48.842  36.242  29.953  1.00  0.00     0.338 C 
ATOM     37  O   UNL A   1      48.913  37.193  29.179  1.00  0.00    -0.246 OA
BRANCH  36  38
ATOM     38  C   UNL A   1      48.026  35.054  29.667  1.00  0.00     0.060 A 
ATOM     39  C   UNL A   1      48.078  33.974  30.557  1.00  0.00     0.016 A 
ATOM     40  C   UNL A   1      47.297  34.962  28.480  1.00  0.00     0.016 A 
ATOM     41  C   UNL A   1      47.421  32.782  30.246  1.00  0.00     0.010 A 
ATOM     42  C   UNL A   1      46.651  33.762  28.166  1.00  0.00     0.010 A 
ATOM     43  C   UNL A   1      46.734  32.655  29.032  1.00  0.00    -0.014 A 
BRANCH  43  44
ATOM     44  C   UNL A   1      46.249  31.327  28.573  1.00  0.00     0.031 A 
ATOM     45  C   UNL A   1      44.805  30.971  28.799  1.00  0.00     0.074 A 
ATOM     46  C   UNL A   1      47.066  30.448  27.967  1.00  0.00     0.049 A 
ATOM     47  N   UNL A   1      44.187  29.834  28.603  1.00  0.00    -0.248 NA
ATOM     48  C   UNL A   1      43.942  32.046  29.313  1.00  0.00     0.031 C 
ATOM     49  C   UNL A   1      48.464  30.688  27.620  1.00  0.00     0.029 A 
ATOM     50  N   UNL A   1      46.831  29.160  27.549  1.00  0.00    -0.354 N 
ATOM     51  C   UNL A   1      42.869  30.048  28.989  1.00  0.00     0.074 A 
ATOM     52  C   UNL A   1      42.780  31.421  29.441  1.00  0.00     0.031 C 
ATOM     53  C   UNL A   1      48.969  29.578  27.054  1.00  0.00     0.029 A 
ATOM     54  C   UNL A   1      47.945  28.533  27.043  1.00  0.00     0.049 A 
ATOM     55  H   UNL A   1      45.948  28.728  27.605  1.00  0.00     0.167 HD
ATOM     56  C   UNL A   1      41.828  29.182  28.972  1.00  0.00     0.037 A 
ATOM     57  C   UNL A   1      48.126  27.255  26.651  1.00  0.00     0.037 A 
ATOM     58  C   UNL A   1      41.917  27.813  28.534  1.00  0.00     0.049 A 
ATOM     59  C   UNL A   1      46.980  26.277  26.734  1.00  0.00     0.074 A 
ATOM     60  C   UNL A   1      40.919  26.856  28.491  1.00  0.00     0.029 A 
ATOM     61  N   UNL A   1      43.074  27.204  28.072  1.00  0.00    -0.354 N 
ATOM     62  N   UNL A   1      45.741  26.484  27.117  1.00  0.00    -0.248 NA
ATOM     63  C   UNL A   1      47.258  24.889  26.339  1.00  0.00     0.031 C 
ATOM     64  C   UNL A   1      41.482  25.655  28.044  1.00  0.00     0.029 A 
ATOM     65  C   UNL A   1      42.820  25.878  27.760  1.00  0.00     0.049 A 
ATOM     66  H   UNL A   1      43.948  27.648  27.979  1.00  0.00     0.167 HD
ATOM     67  C   UNL A   1      45.089  25.261  26.981  1.00  0.00     0.074 A 
ATOM     68  C   UNL A   1      46.068  24.320  26.477  1.00  0.00     0.031 C 
ATOM     69  C   UNL A   1      43.796  24.949  27.247  1.00  0.00     0.037 A 
BRANCH  56  70
ATOM     70  C   UNL A   1      40.510  29.686  29.489  1.00  0.00     0.058 A 
ATOM     71  C   UNL A   1      39.416  29.910  28.639  1.00  0.00     0.135 A 
ATOM     72  C   UNL A   1      40.344  29.959  30.857  1.00  0.00     0.135 A 
ATOM     73  F   UNL A   1      39.527  29.683  27.320  1.00  0.00    -0.206 F 
ATOM     74  C   UNL A   1      38.217  30.425  29.120  1.00  0.00     0.059 A 
ATOM     75  C   UNL A   1      39.145  30.448  31.364  1.00  0.00     0.059 A 
ATOM     76  F   UNL A   1      41.360  29.764  31.714  1.00  0.00    -0.206 F 
ATOM     77  C   UNL A   1      38.094  30.699  30.483  1.00  0.00     0.060 A 
BRANCH  77  78
ATOM     78  S   UNL A   1      36.544  31.399  31.088  1.00  0.00     0.124 S 
ATOM     79  O   UNL A   1      36.084  30.346  31.987  1.00  0.00    -0.237 OA
ATOM     80  O   UNL A   1      36.989  32.632  31.732  1.00  0.00    -0.237 OA
ATOM     81  O   UNL A   1      35.756  31.579  29.873  1.00  0.00    -0.744 OA
ENDBRANCH  77  78
ENDBRANCH  56  70
BRANCH  57  82
ATOM     82  C   UNL A   1      49.458  26.811  26.163  1.00  0.00     0.058 A 
ATOM     83  C   UNL A   1      49.761  26.806  24.793  1.00  0.00     0.135 A 
ATOM     84  C   UNL A   1      50.456  26.380  27.052  1.00  0.00     0.135 A 
ATOM     85  F   UNL A   1      48.834  27.191  23.901  1.00  0.00    -0.206 F 
ATOM     86  C   UNL A   1      50.999  26.385  24.320  1.00  0.00     0.059 A 
ATOM     87  C   UNL A   1      51.711  25.978  26.607  1.00  0.00     0.059 A 
ATOM     88  F   UNL A   1      50.217  26.365  28.373  1.00  0.00    -0.206 F 
ATOM     89  C   UNL A   1      51.971  25.977  25.236  1.00  0.00     0.060 A 
BRANCH  89  90
ATOM     90  S   UNL A   1      53.595  25.491  24.615  1.00  0.00     0.124 S 
ATOM     91  O   UNL A   1      54.483  26.133  25.579  1.00  0.00    -0.237 OA
ATOM     92  O   UNL A   1      53.525  24.034  24.684  1.00  0.00    -0.237 OA
ATOM     93  O   UNL A   1      53.620  26.046  23.266  1.00  0.00    -0.744 OA
ENDBRANCH  89  90
ENDBRANCH  57  82
BRANCH  69  94
ATOM     94  C   UNL A   1      43.338  23.544  26.955  1.00  0.00     0.058 A 
ATOM     95  C   UNL A   1      43.246  23.051  25.644  1.00  0.00     0.135 A 
ATOM     96  C   UNL A   1      43.050  22.659  28.007  1.00  0.00     0.135 A 
ATOM     97  F   UNL A   1      43.505  23.854  24.600  1.00  0.00    -0.206 F 
ATOM     98  C   UNL A   1      42.868  21.735  25.387  1.00  0.00     0.059 A 
ATOM     99  C   UNL A   1      42.694  21.334  27.775  1.00  0.00     0.059 A 
ATOM    100  F   UNL A   1      43.133  23.076  29.281  1.00  0.00    -0.206 F 
ATOM    101  C   UNL A   1      42.596  20.883  26.460  1.00  0.00     0.060 A 
BRANCH 101 102
ATOM    102  S   UNL A   1      42.149  19.168  26.116  1.00  0.00     0.124 S 
ATOM    103  O   UNL A   1      40.708  19.275  25.909  1.00  0.00    -0.237 OA
ATOM    104  O   UNL A   1      42.940  18.869  24.926  1.00  0.00    -0.237 OA
ATOM    105  O   UNL A   1      42.558  18.461  27.326  1.00  0.00    -0.744 OA
ENDBRANCH 101 102
ENDBRANCH  69  94
ENDBRANCH  43  44
ENDBRANCH  36  38
ENDBRANCH  35  36
ENDBRANCH  34  35
ENDBRANCH  33  34
ENDBRANCH  32  33
ENDBRANCH  31  32
ENDBRANCH   1  31
TORSDOF 25
ENDMDL
