MODEL 1
REMARK VINA RESULT:     -12.9      0.000      0.000
REMARK SMILES Cc1ccc(NC(=O)C[C@@H](C(=O)OCCOCCOCCOC(=O)c2ccc(-c3c4nc(c(-c5c(F)cc(S(=O)(=O)[O-])cc5F)c5ccc([nH]5)c(-c5c(F)cc(S(=O)(=O)[O-])cc5F)c5nc(c(-c6c(F)cc(S(=O)(=O)[O-])cc6F)c6ccc3[nH]6)C=C5)C=C4)cc2)[NH+]2CCOCC2)cc1
REMARK SMILES IDX 17 1 16 2 15 3 14 4 13 5 11 6 12 7 10 8 9 9 7 10 6 11 8 13
REMARK SMILES IDX 5 14 1 15 2 16 3 17 98 18 4 19 97 20 91 21 92 22 96 23 93 25
REMARK SMILES IDX 95 26 94 27 18 28 19 29 20 30 21 31 22 32 23 33 24 34 25 35
REMARK SMILES IDX 26 36 90 37 27 38 89 39 28 40 29 41 30 42 83 43 31 44 88 45
REMARK SMILES IDX 82 46 84 47 32 48 87 49 81 50 80 51 33 53 67 54 46 55 66 56
REMARK SMILES IDX 47 57 50 58 65 59 85 60 48 61 49 62 64 64 86 65 51 66 34 67
REMARK SMILES IDX 35 68 44 69 36 70 37 71 43 72 45 73 38 74 39 75 40 76 41 77
REMARK SMILES IDX 42 78 68 79 69 80 78 81 70 82 71 83 77 84 79 85 72 86 73 87
REMARK SMILES IDX 74 88 75 89 76 90 52 91 53 92 62 93 54 94 55 95 61 96 63 97
REMARK SMILES IDX 56 98 57 99 58 100 59 101 60 102
REMARK H PARENT 6 12 91 24 84 52 50 63
REMARK Flexibility Score: inf
ROOT
ATOM      1  C   UNL A   1      31.811  28.258  25.798  1.00  0.00     0.188 C 
ENDROOT
BRANCH   1   2
ATOM      2  O   UNL A   1      31.124  27.124  26.351  1.00  0.00    -0.376 OA
BRANCH   2   3
ATOM      3  C   UNL A   1      31.798  25.618  26.238  1.00  0.00     0.202 C 
BRANCH   3   4
ATOM      4  C   UNL A   1      31.112  23.815  25.114  1.00  0.00     0.261 C 
BRANCH   4   5
ATOM      5  O   UNL A   1      31.613  22.067  24.535  1.00  0.00    -0.459 OA
BRANCH   5   6
ATOM      6  C   UNL A   1      32.460  20.724  23.910  1.00  0.00     0.365 C 
ATOM      7  O   UNL A   1      32.137  20.140  22.874  1.00  0.00    -0.245 OA
BRANCH   6   8
ATOM      8  C   UNL A   1      33.865  19.762  24.759  1.00  0.00     0.304 C 
BRANCH   8   9
ATOM      9  C   UNL A   1      35.601  20.404  25.024  1.00  0.00     0.177 C 
BRANCH   9  10
ATOM     10  C   UNL A   1      36.464  22.032  24.548  1.00  0.00     0.231 C 
ATOM     11  N   UNL A   1      37.814  22.643  24.868  1.00  0.00    -0.326 N 
ATOM     12  H   UNL A   1      38.019  23.378  24.246  1.00  0.00     0.169 HD
ATOM     13  O   UNL A   1      35.801  22.734  23.752  1.00  0.00    -0.274 OA
BRANCH  11  14
ATOM     14  C   UNL A   1      38.948  22.452  25.869  1.00  0.00     0.041 A 
ATOM     15  C   UNL A   1      43.027  22.911  28.935  1.00  0.00     0.044 C 
ATOM     16  C   UNL A   1      41.687  22.500  28.365  1.00  0.00    -0.051 A 
ATOM     17  C   UNL A   1      40.787  23.947  27.986  1.00  0.00     0.005 A 
ATOM     18  C   UNL A   1      41.202  20.971  27.547  1.00  0.00     0.005 A 
ATOM     19  C   UNL A   1      39.514  23.883  26.705  1.00  0.00     0.026 A 
ATOM     20  C   UNL A   1      39.883  20.960  26.267  1.00  0.00     0.026 A 
ENDBRANCH  11  14
ENDBRANCH   9  10
ENDBRANCH   8   9
BRANCH   8  21
ATOM     21  N   UNL A   1      33.742  18.309  24.284  1.00  0.00    -0.319 N 
ATOM     22  C   UNL A   1      32.553  17.518  24.655  1.00  0.00     0.291 C 
ATOM     23  C   UNL A   1      34.862  17.390  24.073  1.00  0.00     0.291 C 
ATOM     24  H   UNL A   1      33.657  18.779  23.382  1.00  0.00     0.348 HD
ATOM     25  C   UNL A   1      32.823  16.555  25.810  1.00  0.00     0.221 C 
ATOM     26  C   UNL A   1      34.973  16.128  24.978  1.00  0.00     0.221 C 
ATOM     27  O   UNL A   1      33.726  15.542  25.363  1.00  0.00    -0.370 OA
ENDBRANCH   8  21
ENDBRANCH   6   8
ENDBRANCH   5   6
ENDBRANCH   4   5
ENDBRANCH   3   4
ENDBRANCH   2   3
ENDBRANCH   1   2
BRANCH   1  28
ATOM     28  C   UNL A   1      32.808  28.829  26.807  1.00  0.00     0.188 C 
BRANCH  28  29
ATOM     29  O   UNL A   1      32.468  30.099  27.310  1.00  0.00    -0.376 OA
BRANCH  29  30
ATOM     30  C   UNL A   1      33.506  31.043  27.061  1.00  0.00     0.202 C 
BRANCH  30  31
ATOM     31  C   UNL A   1      34.668  31.211  28.141  1.00  0.00     0.261 C 
BRANCH  31  32
ATOM     32  O   UNL A   1      35.867  30.393  27.907  1.00  0.00    -0.460 OA
BRANCH  32  33
ATOM     33  C   UNL A   1      36.504  29.621  28.862  1.00  0.00     0.338 C 
ATOM     34  O   UNL A   1      36.044  29.333  29.950  1.00  0.00    -0.246 OA
BRANCH  33  35
ATOM     35  C   UNL A   1      37.782  29.036  28.259  1.00  0.00     0.060 A 
ATOM     36  C   UNL A   1      38.208  27.702  28.274  1.00  0.00     0.016 A 
ATOM     37  C   UNL A   1      38.741  29.938  27.921  1.00  0.00     0.016 A 
ATOM     38  C   UNL A   1      39.611  27.356  28.403  1.00  0.00     0.010 A 
ATOM     39  C   UNL A   1      40.044  29.611  28.286  1.00  0.00     0.010 A 
ATOM     40  C   UNL A   1      40.598  28.346  28.582  1.00  0.00    -0.014 A 
BRANCH  40  41
ATOM     41  C   UNL A   1      42.196  28.187  29.310  1.00  0.00     0.031 A 
ATOM     42  C   UNL A   1      43.920  27.750  28.350  1.00  0.00     0.074 A 
ATOM     43  C   UNL A   1      42.013  28.598  30.763  1.00  0.00     0.049 A 
ATOM     44  N   UNL A   1      45.168  28.238  28.588  1.00  0.00    -0.248 NA
ATOM     45  C   UNL A   1      44.429  26.603  27.308  1.00  0.00     0.031 C 
ATOM     46  C   UNL A   1      43.039  28.985  31.941  1.00  0.00     0.029 A 
ATOM     47  N   UNL A   1      40.887  29.028  31.451  1.00  0.00    -0.354 N 
ATOM     48  C   UNL A   1      46.221  27.431  28.286  1.00  0.00     0.074 A 
ATOM     49  C   UNL A   1      45.739  26.777  27.142  1.00  0.00     0.031 C 
ATOM     50  C   UNL A   1      42.528  29.662  32.956  1.00  0.00     0.029 A 
ATOM     51  C   UNL A   1      41.157  29.399  32.790  1.00  0.00     0.049 A 
ATOM     52  H   UNL A   1      39.990  29.072  31.048  1.00  0.00     0.167 HD
ATOM     53  C   UNL A   1      47.229  27.031  29.136  1.00  0.00     0.037 A 
ATOM     54  C   UNL A   1      40.597  28.696  33.789  1.00  0.00     0.037 A 
ATOM     55  C   UNL A   1      47.026  27.319  30.599  1.00  0.00     0.049 A 
ATOM     56  C   UNL A   1      41.643  27.517  34.184  1.00  0.00     0.074 A 
ATOM     57  C   UNL A   1      47.235  28.391  31.453  1.00  0.00     0.029 A 
ATOM     58  N   UNL A   1      46.400  26.388  31.446  1.00  0.00    -0.354 N 
ATOM     59  N   UNL A   1      42.642  27.072  33.402  1.00  0.00    -0.248 NA
ATOM     60  C   UNL A   1      41.909  27.081  35.555  1.00  0.00     0.031 C 
ATOM     61  C   UNL A   1      46.550  28.150  32.715  1.00  0.00     0.029 A 
ATOM     62  C   UNL A   1      45.893  26.918  32.684  1.00  0.00     0.049 A 
ATOM     63  H   UNL A   1      46.313  25.436  31.208  1.00  0.00     0.167 HD
ATOM     64  C   UNL A   1      43.708  26.504  34.109  1.00  0.00     0.074 A 
ATOM     65  C   UNL A   1      43.136  26.516  35.463  1.00  0.00     0.031 C 
ATOM     66  C   UNL A   1      44.994  26.093  33.669  1.00  0.00     0.037 A 
BRANCH  53  67
ATOM     67  C   UNL A   1      48.556  26.548  28.495  1.00  0.00     0.058 A 
ATOM     68  C   UNL A   1      49.701  27.361  28.580  1.00  0.00     0.135 A 
ATOM     69  C   UNL A   1      48.733  25.416  27.652  1.00  0.00     0.135 A 
ATOM     70  F   UNL A   1      49.728  28.422  29.399  1.00  0.00    -0.206 F 
ATOM     71  C   UNL A   1      50.857  27.145  27.809  1.00  0.00     0.059 A 
ATOM     72  C   UNL A   1      49.833  25.229  26.803  1.00  0.00     0.059 A 
ATOM     73  F   UNL A   1      47.884  24.381  27.665  1.00  0.00    -0.206 F 
ATOM     74  C   UNL A   1      50.897  26.107  26.884  1.00  0.00     0.060 A 
BRANCH  74  75
ATOM     75  S   UNL A   1      52.348  25.903  25.828  1.00  0.00     0.124 S 
ATOM     76  O   UNL A   1      52.473  24.450  25.753  1.00  0.00    -0.237 OA
ATOM     77  O   UNL A   1      51.927  26.569  24.601  1.00  0.00    -0.237 OA
ATOM     78  O   UNL A   1      53.413  26.574  26.570  1.00  0.00    -0.744 OA
ENDBRANCH  74  75
ENDBRANCH  53  67
BRANCH  54  79
ATOM     79  C   UNL A   1      39.178  29.254  33.667  1.00  0.00     0.058 A 
ATOM     80  C   UNL A   1      39.043  30.613  34.163  1.00  0.00     0.135 A 
ATOM     81  C   UNL A   1      38.358  28.993  32.547  1.00  0.00     0.135 A 
ATOM     82  F   UNL A   1      39.839  31.024  35.167  1.00  0.00    -0.206 F 
ATOM     83  C   UNL A   1      38.319  31.634  33.513  1.00  0.00     0.059 A 
ATOM     84  C   UNL A   1      37.579  30.004  31.917  1.00  0.00     0.059 A 
ATOM     85  F   UNL A   1      38.463  27.817  31.909  1.00  0.00    -0.206 F 
ATOM     86  C   UNL A   1      37.592  31.323  32.380  1.00  0.00     0.060 A 
BRANCH  86  87
ATOM     87  S   UNL A   1      36.705  32.666  31.530  1.00  0.00     0.124 S 
ATOM     88  O   UNL A   1      35.340  32.157  31.509  1.00  0.00    -0.237 OA
ATOM     89  O   UNL A   1      36.942  33.812  32.404  1.00  0.00    -0.237 OA
ATOM     90  O   UNL A   1      37.381  32.720  30.242  1.00  0.00    -0.744 OA
ENDBRANCH  86  87
ENDBRANCH  54  79
BRANCH  66  91
ATOM     91  C   UNL A   1      45.532  24.684  34.128  1.00  0.00     0.058 A 
ATOM     92  C   UNL A   1      46.480  24.472  35.158  1.00  0.00     0.135 A 
ATOM     93  C   UNL A   1      44.998  23.460  33.625  1.00  0.00     0.135 A 
ATOM     94  F   UNL A   1      47.026  25.473  35.856  1.00  0.00    -0.206 F 
ATOM     95  C   UNL A   1      46.911  23.207  35.575  1.00  0.00     0.059 A 
ATOM     96  C   UNL A   1      45.358  22.185  34.084  1.00  0.00     0.059 A 
ATOM     97  F   UNL A   1      44.075  23.412  32.661  1.00  0.00    -0.206 F 
ATOM     98  C   UNL A   1      46.346  22.065  35.036  1.00  0.00     0.060 A 
BRANCH  98  99
ATOM     99  S   UNL A   1      46.914  20.457  35.602  1.00  0.00     0.124 S 
ATOM    100  O   UNL A   1      45.702  19.917  36.213  1.00  0.00    -0.237 OA
ATOM    101  O   UNL A   1      47.329  19.819  34.356  1.00  0.00    -0.237 OA
ATOM    102  O   UNL A   1      47.995  20.776  36.528  1.00  0.00    -0.744 OA
ENDBRANCH  98  99
ENDBRANCH  66  91
ENDBRANCH  40  41
ENDBRANCH  33  35
ENDBRANCH  32  33
ENDBRANCH  31  32
ENDBRANCH  30  31
ENDBRANCH  29  30
ENDBRANCH  28  29
ENDBRANCH   1  28
TORSDOF 24
ENDMDL
MODEL 2
REMARK VINA RESULT:     -12.6      6.427     11.259
REMARK SMILES Cc1ccc(NC(=O)C[C@@H](C(=O)OCCOCCOCCOC(=O)c2ccc(-c3c4nc(c(-c5c(F)cc(S(=O)(=O)[O-])cc5F)c5ccc([nH]5)c(-c5c(F)cc(S(=O)(=O)[O-])cc5F)c5nc(c(-c6c(F)cc(S(=O)(=O)[O-])cc6F)c6ccc3[nH]6)C=C5)C=C4)cc2)[NH+]2CCOCC2)cc1
REMARK SMILES IDX 17 1 16 2 15 3 14 4 13 5 11 6 12 7 10 8 9 9 7 10 6 11 8 13
REMARK SMILES IDX 5 14 1 15 2 16 3 17 98 18 4 19 97 20 91 21 92 22 96 23 93 25
REMARK SMILES IDX 95 26 94 27 18 28 19 29 20 30 21 31 22 32 23 33 24 34 25 35
REMARK SMILES IDX 26 36 90 37 27 38 89 39 28 40 29 41 30 42 83 43 31 44 88 45
REMARK SMILES IDX 82 46 84 47 32 48 87 49 81 50 80 51 33 53 67 54 46 55 66 56
REMARK SMILES IDX 47 57 50 58 65 59 85 60 48 61 49 62 64 64 86 65 51 66 34 67
REMARK SMILES IDX 35 68 44 69 36 70 37 71 43 72 45 73 38 74 39 75 40 76 41 77
REMARK SMILES IDX 42 78 68 79 69 80 78 81 70 82 71 83 77 84 79 85 72 86 73 87
REMARK SMILES IDX 74 88 75 89 76 90 52 91 53 92 62 93 54 94 55 95 61 96 63 97
REMARK SMILES IDX 56 98 57 99 58 100 59 101 60 102
REMARK H PARENT 6 12 91 24 84 52 50 63
REMARK Flexibility Score: inf
ROOT
ATOM      1  C   UNL A   1      37.152  33.899  29.806  1.00  0.00     0.188 C 
ENDROOT
BRANCH   1   2
ATOM      2  O   UNL A   1      38.214  34.522  30.546  1.00  0.00    -0.376 OA
BRANCH   2   3
ATOM      3  C   UNL A   1      39.672  33.754  30.695  1.00  0.00     0.202 C 
BRANCH   3   4
ATOM      4  C   UNL A   1      41.708  34.392  30.034  1.00  0.00     0.261 C 
BRANCH   4   5
ATOM      5  O   UNL A   1      42.879  35.886  29.852  1.00  0.00    -0.459 OA
BRANCH   5   6
ATOM      6  C   UNL A   1      43.659  37.394  30.033  1.00  0.00     0.365 C 
ATOM      7  O   UNL A   1      43.898  37.907  31.128  1.00  0.00    -0.245 OA
BRANCH   6   8
ATOM      8  C   UNL A   1      44.091  38.630  28.653  1.00  0.00     0.304 C 
BRANCH   8   9
ATOM      9  C   UNL A   1      43.499  40.401  28.573  1.00  0.00     0.177 C 
BRANCH   9  10
ATOM     10  C   UNL A   1      44.363  42.069  28.884  1.00  0.00     0.231 C 
ATOM     11  N   UNL A   1      44.742  43.241  28.001  1.00  0.00    -0.326 N 
ATOM     12  H   UNL A   1      44.947  44.035  28.546  1.00  0.00     0.169 HD
ATOM     13  O   UNL A   1      44.629  42.275  30.089  1.00  0.00    -0.274 OA
BRANCH  11  14
ATOM     14  C   UNL A   1      44.900  43.552  26.517  1.00  0.00     0.041 A 
ATOM     15  C   UNL A   1      45.873  45.604  21.924  1.00  0.00     0.044 C 
ATOM     16  C   UNL A   1      45.671  44.615  23.051  1.00  0.00    -0.051 A 
ATOM     17  C   UNL A   1      46.685  45.095  24.389  1.00  0.00     0.005 A 
ATOM     18  C   UNL A   1      44.273  43.537  23.403  1.00  0.00     0.005 A 
ATOM     19  C   UNL A   1      46.219  44.613  26.066  1.00  0.00     0.026 A 
ATOM     20  C   UNL A   1      43.857  43.058  25.128  1.00  0.00     0.026 A 
ENDBRANCH  11  14
ENDBRANCH   9  10
ENDBRANCH   8   9
BRANCH   8  21
ATOM     21  N   UNL A   1      44.056  37.840  27.339  1.00  0.00    -0.319 N 
ATOM     22  C   UNL A   1      42.769  37.626  26.650  1.00  0.00     0.291 C 
ATOM     23  C   UNL A   1      44.956  36.739  26.990  1.00  0.00     0.291 C 
ATOM     24  H   UNL A   1      44.563  38.664  27.015  1.00  0.00     0.348 HD
ATOM     25  C   UNL A   1      42.199  36.229  26.885  1.00  0.00     0.221 C 
ATOM     26  C   UNL A   1      44.357  35.314  26.804  1.00  0.00     0.221 C 
ATOM     27  O   UNL A   1      43.044  35.273  26.239  1.00  0.00    -0.370 OA
ENDBRANCH   8  21
ENDBRANCH   6   8
ENDBRANCH   5   6
ENDBRANCH   4   5
ENDBRANCH   3   4
ENDBRANCH   2   3
ENDBRANCH   1   2
BRANCH   1  28
ATOM     28  C   UNL A   1      35.856  33.902  30.617  1.00  0.00     0.188 C 
BRANCH  28  29
ATOM     29  O   UNL A   1      34.926  32.916  30.239  1.00  0.00    -0.376 OA
BRANCH  29  30
ATOM     30  C   UNL A   1      34.346  33.219  28.973  1.00  0.00     0.202 C 
BRANCH  30  31
ATOM     31  C   UNL A   1      33.902  32.015  28.023  1.00  0.00     0.261 C 
BRANCH  31  32
ATOM     32  O   UNL A   1      35.001  31.199  27.488  1.00  0.00    -0.460 OA
BRANCH  32  33
ATOM     33  C   UNL A   1      35.375  29.954  27.964  1.00  0.00     0.338 C 
ATOM     34  O   UNL A   1      34.904  28.895  27.598  1.00  0.00    -0.246 OA
BRANCH  33  35
ATOM     35  C   UNL A   1      36.596  30.114  28.872  1.00  0.00     0.060 A 
ATOM     36  C   UNL A   1      37.677  30.990  28.713  1.00  0.00     0.016 A 
ATOM     37  C   UNL A   1      36.799  29.113  29.768  1.00  0.00     0.016 A 
ATOM     38  C   UNL A   1      39.026  30.601  29.078  1.00  0.00     0.010 A 
ATOM     39  C   UNL A   1      38.108  28.656  29.888  1.00  0.00     0.010 A 
ATOM     40  C   UNL A   1      39.316  29.306  29.548  1.00  0.00    -0.014 A 
BRANCH  40  41
ATOM     41  C   UNL A   1      40.849  28.437  29.506  1.00  0.00     0.031 A 
ATOM     42  C   UNL A   1      41.277  26.801  28.398  1.00  0.00     0.074 A 
ATOM     43  C   UNL A   1      41.802  29.270  30.350  1.00  0.00     0.049 A 
ATOM     44  N   UNL A   1      42.444  26.486  27.772  1.00  0.00    -0.248 NA
ATOM     45  C   UNL A   1      40.598  25.341  28.145  1.00  0.00     0.031 C 
ATOM     46  C   UNL A   1      43.401  29.281  30.530  1.00  0.00     0.029 A 
ATOM     47  N   UNL A   1      41.605  30.464  31.030  1.00  0.00    -0.354 N 
ATOM     48  C   UNL A   1      42.729  25.164  27.614  1.00  0.00     0.074 A 
ATOM     49  C   UNL A   1      41.446  24.637  27.396  1.00  0.00     0.031 C 
ATOM     50  C   UNL A   1      43.919  30.384  31.043  1.00  0.00     0.029 A 
ATOM     51  C   UNL A   1      42.783  30.962  31.636  1.00  0.00     0.049 A 
ATOM     52  H   UNL A   1      40.735  30.920  31.085  1.00  0.00     0.167 HD
ATOM     53  C   UNL A   1      43.862  24.504  28.037  1.00  0.00     0.037 A 
ATOM     54  C   UNL A   1      42.838  31.059  32.976  1.00  0.00     0.037 A 
ATOM     55  C   UNL A   1      44.769  25.260  28.970  1.00  0.00     0.049 A 
ATOM     56  C   UNL A   1      43.463  29.664  33.527  1.00  0.00     0.074 A 
ATOM     57  C   UNL A   1      45.799  26.180  28.847  1.00  0.00     0.029 A 
ATOM     58  N   UNL A   1      44.610  25.183  30.364  1.00  0.00    -0.354 N 
ATOM     59  N   UNL A   1      43.505  28.509  32.841  1.00  0.00    -0.248 NA
ATOM     60  C   UNL A   1      44.414  29.572  34.634  1.00  0.00     0.031 C 
ATOM     61  C   UNL A   1      46.081  26.772  30.148  1.00  0.00     0.029 A 
ATOM     62  C   UNL A   1      45.233  26.238  31.119  1.00  0.00     0.049 A 
ATOM     63  H   UNL A   1      44.106  24.456  30.796  1.00  0.00     0.167 HD
ATOM     64  C   UNL A   1      44.533  27.647  33.241  1.00  0.00     0.074 A 
ATOM     65  C   UNL A   1      45.031  28.387  34.410  1.00  0.00     0.031 C 
ATOM     66  C   UNL A   1      45.009  26.443  32.658  1.00  0.00     0.037 A 
BRANCH  53  67
ATOM     67  C   UNL A   1      44.211  23.163  27.340  1.00  0.00     0.058 A 
ATOM     68  C   UNL A   1      45.413  23.053  26.617  1.00  0.00     0.135 A 
ATOM     69  C   UNL A   1      43.360  22.033  27.191  1.00  0.00     0.135 A 
ATOM     70  F   UNL A   1      46.362  23.995  26.717  1.00  0.00    -0.206 F 
ATOM     71  C   UNL A   1      45.687  21.991  25.737  1.00  0.00     0.059 A 
ATOM     72  C   UNL A   1      43.563  21.012  26.251  1.00  0.00     0.059 A 
ATOM     73  F   UNL A   1      42.323  21.811  28.008  1.00  0.00    -0.206 F 
ATOM     74  C   UNL A   1      44.735  21.001  25.519  1.00  0.00     0.060 A 
BRANCH  74  75
ATOM     75  S   UNL A   1      45.056  19.699  24.309  1.00  0.00     0.124 S 
ATOM     76  O   UNL A   1      44.471  20.255  23.093  1.00  0.00    -0.237 OA
ATOM     77  O   UNL A   1      46.512  19.613  24.333  1.00  0.00    -0.237 OA
ATOM     78  O   UNL A   1      44.353  18.539  24.854  1.00  0.00    -0.744 OA
ENDBRANCH  74  75
ENDBRANCH  53  67
BRANCH  54  79
ATOM     79  C   UNL A   1      41.948  32.292  33.133  1.00  0.00     0.058 A 
ATOM     80  C   UNL A   1      40.728  32.038  33.881  1.00  0.00     0.135 A 
ATOM     81  C   UNL A   1      42.477  33.581  33.365  1.00  0.00     0.135 A 
ATOM     82  F   UNL A   1      40.170  30.814  33.825  1.00  0.00    -0.206 F 
ATOM     83  C   UNL A   1      40.204  32.892  34.872  1.00  0.00     0.059 A 
ATOM     84  C   UNL A   1      41.922  34.474  34.326  1.00  0.00     0.059 A 
ATOM     85  F   UNL A   1      43.663  33.915  32.835  1.00  0.00    -0.206 F 
ATOM     86  C   UNL A   1      40.814  34.112  35.096  1.00  0.00     0.060 A 
BRANCH  86  87
ATOM     87  S   UNL A   1      40.151  35.177  36.415  1.00  0.00     0.124 S 
ATOM     88  O   UNL A   1      41.261  35.212  37.358  1.00  0.00    -0.237 OA
ATOM     89  O   UNL A   1      39.877  36.427  35.711  1.00  0.00    -0.237 OA
ATOM     90  O   UNL A   1      38.974  34.441  36.850  1.00  0.00    -0.744 OA
ENDBRANCH  86  87
ENDBRANCH  54  79
BRANCH  66  91
ATOM     91  C   UNL A   1      45.254  25.199  33.595  1.00  0.00     0.058 A 
ATOM     92  C   UNL A   1      44.251  24.529  34.336  1.00  0.00     0.135 A 
ATOM     93  C   UNL A   1      46.517  24.539  33.677  1.00  0.00     0.135 A 
ATOM     94  F   UNL A   1      42.967  24.899  34.314  1.00  0.00    -0.206 F 
ATOM     95  C   UNL A   1      44.489  23.400  35.131  1.00  0.00     0.059 A 
ATOM     96  C   UNL A   1      46.757  23.364  34.402  1.00  0.00     0.059 A 
ATOM     97  F   UNL A   1      47.608  24.980  33.044  1.00  0.00    -0.206 F 
ATOM     98  C   UNL A   1      45.744  22.819  35.159  1.00  0.00     0.060 A 
BRANCH  98  99
ATOM     99  S   UNL A   1      46.012  21.364  36.179  1.00  0.00     0.124 S 
ATOM    100  O   UNL A   1      45.306  20.339  35.416  1.00  0.00    -0.237 OA
ATOM    101  O   UNL A   1      47.467  21.255  36.187  1.00  0.00    -0.237 OA
ATOM    102  O   UNL A   1      45.408  21.721  37.458  1.00  0.00    -0.744 OA
ENDBRANCH  98  99
ENDBRANCH  66  91
ENDBRANCH  40  41
ENDBRANCH  33  35
ENDBRANCH  32  33
ENDBRANCH  31  32
ENDBRANCH  30  31
ENDBRANCH  29  30
ENDBRANCH  28  29
ENDBRANCH   1  28
TORSDOF 24
ENDMDL
MODEL 3
REMARK VINA RESULT:     -12.5      2.209      2.940
REMARK SMILES Cc1ccc(NC(=O)C[C@@H](C(=O)OCCOCCOCCOC(=O)c2ccc(-c3c4nc(c(-c5c(F)cc(S(=O)(=O)[O-])cc5F)c5ccc([nH]5)c(-c5c(F)cc(S(=O)(=O)[O-])cc5F)c5nc(c(-c6c(F)cc(S(=O)(=O)[O-])cc6F)c6ccc3[nH]6)C=C5)C=C4)cc2)[NH+]2CCOCC2)cc1
REMARK SMILES IDX 17 1 16 2 15 3 14 4 13 5 11 6 12 7 10 8 9 9 7 10 6 11 8 13
REMARK SMILES IDX 5 14 1 15 2 16 3 17 98 18 4 19 97 20 91 21 92 22 96 23 93 25
REMARK SMILES IDX 95 26 94 27 18 28 19 29 20 30 21 31 22 32 23 33 24 34 25 35
REMARK SMILES IDX 26 36 90 37 27 38 89 39 28 40 29 41 30 42 83 43 31 44 88 45
REMARK SMILES IDX 82 46 84 47 32 48 87 49 81 50 80 51 33 53 67 54 46 55 66 56
REMARK SMILES IDX 47 57 50 58 65 59 85 60 48 61 49 62 64 64 86 65 51 66 34 67
REMARK SMILES IDX 35 68 44 69 36 70 37 71 43 72 45 73 38 74 39 75 40 76 41 77
REMARK SMILES IDX 42 78 68 79 69 80 78 81 70 82 71 83 77 84 79 85 72 86 73 87
REMARK SMILES IDX 74 88 75 89 76 90 52 91 53 92 62 93 54 94 55 95 61 96 63 97
REMARK SMILES IDX 56 98 57 99 58 100 59 101 60 102
REMARK H PARENT 6 12 91 24 84 52 50 63
REMARK Flexibility Score: inf
ROOT
ATOM      1  C   UNL A   1      32.061  28.350  25.858  1.00  0.00     0.188 C 
ENDROOT
BRANCH   1   2
ATOM      2  O   UNL A   1      31.276  27.298  26.443  1.00  0.00    -0.376 OA
BRANCH   2   3
ATOM      3  C   UNL A   1      31.822  25.737  26.389  1.00  0.00     0.202 C 
BRANCH   3   4
ATOM      4  C   UNL A   1      31.198  24.040  25.080  1.00  0.00     0.261 C 
BRANCH   4   5
ATOM      5  O   UNL A   1      31.642  22.270  24.523  1.00  0.00    -0.459 OA
BRANCH   5   6
ATOM      6  C   UNL A   1      32.446  20.892  23.915  1.00  0.00     0.365 C 
ATOM      7  O   UNL A   1      32.107  20.310  22.883  1.00  0.00    -0.245 OA
BRANCH   6   8
ATOM      8  C   UNL A   1      33.813  19.892  24.781  1.00  0.00     0.304 C 
BRANCH   8   9
ATOM      9  C   UNL A   1      35.574  20.468  25.030  1.00  0.00     0.177 C 
BRANCH   9  10
ATOM     10  C   UNL A   1      36.497  22.056  24.532  1.00  0.00     0.231 C 
ATOM     11  N   UNL A   1      37.867  22.623  24.850  1.00  0.00    -0.326 N 
ATOM     12  H   UNL A   1      38.101  23.340  24.217  1.00  0.00     0.169 HD
ATOM     13  O   UNL A   1      35.863  22.767  23.721  1.00  0.00    -0.274 OA
BRANCH  11  14
ATOM     14  C   UNL A   1      38.988  22.409  25.861  1.00  0.00     0.041 A 
ATOM     15  C   UNL A   1      43.068  22.771  28.938  1.00  0.00     0.044 C 
ATOM     16  C   UNL A   1      41.715  22.401  28.370  1.00  0.00    -0.051 A 
ATOM     17  C   UNL A   1      40.875  23.874  27.955  1.00  0.00     0.005 A 
ATOM     18  C   UNL A   1      41.173  20.876  27.581  1.00  0.00     0.005 A 
ATOM     19  C   UNL A   1      39.606  23.834  26.669  1.00  0.00     0.026 A 
ATOM     20  C   UNL A   1      39.861  20.890  26.295  1.00  0.00     0.026 A 
ENDBRANCH  11  14
ENDBRANCH   9  10
ENDBRANCH   8   9
BRANCH   8  21
ATOM     21  N   UNL A   1      33.629  18.436  24.336  1.00  0.00    -0.319 N 
ATOM     22  C   UNL A   1      32.472  17.663  24.825  1.00  0.00     0.291 C 
ATOM     23  C   UNL A   1      34.715  17.501  24.032  1.00  0.00     0.291 C 
ATOM     24  H   UNL A   1      33.466  18.897  23.441  1.00  0.00     0.348 HD
ATOM     25  C   UNL A   1      32.836  16.709  25.961  1.00  0.00     0.221 C 
ATOM     26  C   UNL A   1      34.895  16.246  24.937  1.00  0.00     0.221 C 
ATOM     27  O   UNL A   1      33.683  15.680  25.443  1.00  0.00    -0.370 OA
ENDBRANCH   8  21
ENDBRANCH   6   8
ENDBRANCH   5   6
ENDBRANCH   4   5
ENDBRANCH   3   4
ENDBRANCH   2   3
ENDBRANCH   1   2
BRANCH   1  28
ATOM     28  C   UNL A   1      33.241  28.709  26.763  1.00  0.00     0.188 C 
BRANCH  28  29
ATOM     29  O   UNL A   1      33.165  29.987  27.345  1.00  0.00    -0.376 OA
BRANCH  29  30
ATOM     30  C   UNL A   1      34.411  30.670  27.247  1.00  0.00     0.202 C 
BRANCH  30  31
ATOM     31  C   UNL A   1      35.400  30.649  28.499  1.00  0.00     0.261 C 
BRANCH  31  32
ATOM     32  O   UNL A   1      36.501  29.678  28.413  1.00  0.00    -0.460 OA
BRANCH  32  33
ATOM     33  C   UNL A   1      37.403  29.404  29.427  1.00  0.00     0.338 C 
ATOM     34  O   UNL A   1      37.237  29.670  30.601  1.00  0.00    -0.246 OA
BRANCH  33  35
ATOM     35  C   UNL A   1      38.540  28.550  28.865  1.00  0.00     0.060 A 
ATOM     36  C   UNL A   1      39.143  27.429  29.450  1.00  0.00     0.016 A 
ATOM     37  C   UNL A   1      39.229  29.094  27.828  1.00  0.00     0.016 A 
ATOM     38  C   UNL A   1      40.564  27.172  29.304  1.00  0.00     0.010 A 
ATOM     39  C   UNL A   1      40.615  28.984  27.890  1.00  0.00     0.010 A 
ATOM     40  C   UNL A   1      41.407  28.071  28.622  1.00  0.00    -0.014 A 
BRANCH  40  41
ATOM     41  C   UNL A   1      43.148  28.291  28.793  1.00  0.00     0.031 A 
ATOM     42  C   UNL A   1      44.581  27.553  27.573  1.00  0.00     0.074 A 
ATOM     43  C   UNL A   1      43.314  29.269  29.946  1.00  0.00     0.049 A 
ATOM     44  N   UNL A   1      45.745  28.142  27.184  1.00  0.00    -0.248 NA
ATOM     45  C   UNL A   1      44.963  26.094  26.954  1.00  0.00     0.031 C 
ATOM     46  C   UNL A   1      44.548  30.153  30.479  1.00  0.00     0.029 A 
ATOM     47  N   UNL A   1      42.369  29.908  30.738  1.00  0.00    -0.354 N 
ATOM     48  C   UNL A   1      46.792  27.321  26.894  1.00  0.00     0.074 A 
ATOM     49  C   UNL A   1      46.125  26.229  26.317  1.00  0.00     0.031 C 
ATOM     50  C   UNL A   1      44.236  31.175  31.257  1.00  0.00     0.029 A 
ATOM     51  C   UNL A   1      42.938  30.817  31.662  1.00  0.00     0.049 A 
ATOM     52  H   UNL A   1      41.401  29.745  30.665  1.00  0.00     0.167 HD
ATOM     53  C   UNL A   1      48.050  27.353  27.455  1.00  0.00     0.037 A 
ATOM     54  C   UNL A   1      42.806  30.580  32.978  1.00  0.00     0.037 A 
ATOM     55  C   UNL A   1      48.220  28.223  28.672  1.00  0.00     0.049 A 
ATOM     56  C   UNL A   1      44.104  29.715  33.436  1.00  0.00     0.074 A 
ATOM     57  C   UNL A   1      48.476  29.561  28.924  1.00  0.00     0.029 A 
ATOM     58  N   UNL A   1      48.022  27.713  29.966  1.00  0.00    -0.354 N 
ATOM     59  N   UNL A   1      44.904  29.019  32.609  1.00  0.00    -0.248 NA
ATOM     60  C   UNL A   1      44.813  29.907  34.701  1.00  0.00     0.031 C 
ATOM     61  C   UNL A   1      48.223  29.849  30.330  1.00  0.00     0.029 A 
ATOM     62  C   UNL A   1      47.801  28.696  30.994  1.00  0.00     0.049 A 
ATOM     63  H   UNL A   1      48.034  26.747  30.158  1.00  0.00     0.167 HD
ATOM     64  C   UNL A   1      46.205  28.840  33.093  1.00  0.00     0.074 A 
ATOM     65  C   UNL A   1      46.042  29.401  34.443  1.00  0.00     0.031 C 
ATOM     66  C   UNL A   1      47.366  28.330  32.455  1.00  0.00     0.037 A 
BRANCH  53  67
ATOM     67  C   UNL A   1      49.206  26.694  26.658  1.00  0.00     0.058 A 
ATOM     68  C   UNL A   1      49.904  25.609  27.221  1.00  0.00     0.135 A 
ATOM     69  C   UNL A   1      49.787  27.169  25.450  1.00  0.00     0.135 A 
ATOM     70  F   UNL A   1      49.440  24.991  28.316  1.00  0.00    -0.206 F 
ATOM     71  C   UNL A   1      51.122  25.130  26.709  1.00  0.00     0.059 A 
ATOM     72  C   UNL A   1      51.045  26.775  24.972  1.00  0.00     0.059 A 
ATOM     73  F   UNL A   1      49.128  27.984  24.617  1.00  0.00    -0.206 F 
ATOM     74  C   UNL A   1      51.713  25.751  25.614  1.00  0.00     0.060 A 
BRANCH  74  75
ATOM     75  S   UNL A   1      53.328  25.191  25.029  1.00  0.00     0.124 S 
ATOM     76  O   UNL A   1      53.253  23.749  25.246  1.00  0.00    -0.237 OA
ATOM     77  O   UNL A   1      53.315  25.627  23.638  1.00  0.00    -0.237 OA
ATOM     78  O   UNL A   1      54.273  25.894  25.896  1.00  0.00    -0.744 OA
ENDBRANCH  74  75
ENDBRANCH  53  67
BRANCH  54  79
ATOM     79  C   UNL A   1      41.338  30.983  33.117  1.00  0.00     0.058 A 
ATOM     80  C   UNL A   1      40.523  29.987  33.793  1.00  0.00     0.135 A 
ATOM     81  C   UNL A   1      40.944  32.307  33.410  1.00  0.00     0.135 A 
ATOM     82  F   UNL A   1      40.850  28.687  33.677  1.00  0.00    -0.206 F 
ATOM     83  C   UNL A   1      39.554  30.278  34.775  1.00  0.00     0.059 A 
ATOM     84  C   UNL A   1      39.927  32.610  34.360  1.00  0.00     0.059 A 
ATOM     85  F   UNL A   1      41.677  33.333  32.952  1.00  0.00    -0.206 F 
ATOM     86  C   UNL A   1      39.266  31.598  35.062  1.00  0.00     0.060 A 
BRANCH  86  87
ATOM     87  S   UNL A   1      38.049  31.951  36.369  1.00  0.00     0.124 S 
ATOM     88  O   UNL A   1      37.791  30.620  36.904  1.00  0.00    -0.237 OA
ATOM     89  O   UNL A   1      38.779  32.859  37.250  1.00  0.00    -0.237 OA
ATOM     90  O   UNL A   1      36.957  32.557  35.624  1.00  0.00    -0.744 OA
ENDBRANCH  86  87
ENDBRANCH  54  79
BRANCH  66  91
ATOM     91  C   UNL A   1      48.240  27.265  33.223  1.00  0.00     0.058 A 
ATOM     92  C   UNL A   1      48.146  25.864  33.054  1.00  0.00     0.135 A 
ATOM     93  C   UNL A   1      49.321  27.636  34.078  1.00  0.00     0.135 A 
ATOM     94  F   UNL A   1      47.283  25.293  32.208  1.00  0.00    -0.206 F 
ATOM     95  C   UNL A   1      48.963  24.940  33.719  1.00  0.00     0.059 A 
ATOM     96  C   UNL A   1      50.199  26.731  34.690  1.00  0.00     0.059 A 
ATOM     97  F   UNL A   1      49.614  28.906  34.370  1.00  0.00    -0.206 F 
ATOM     98  C   UNL A   1      49.991  25.378  34.535  1.00  0.00     0.060 A 
BRANCH  98  99
ATOM     99  S   UNL A   1      51.027  24.167  35.363  1.00  0.00     0.124 S 
ATOM    100  O   UNL A   1      50.617  24.335  36.754  1.00  0.00    -0.237 OA
ATOM    101  O   UNL A   1      50.612  22.919  34.730  1.00  0.00    -0.237 OA
ATOM    102  O   UNL A   1      52.385  24.601  35.053  1.00  0.00    -0.744 OA
ENDBRANCH  98  99
ENDBRANCH  66  91
ENDBRANCH  40  41
ENDBRANCH  33  35
ENDBRANCH  32  33
ENDBRANCH  31  32
ENDBRANCH  30  31
ENDBRANCH  29  30
ENDBRANCH  28  29
ENDBRANCH   1  28
TORSDOF 24
ENDMDL
