MODEL 1
REMARK VINA RESULT:     -10.6      0.000      0.000
REMARK SMILES C[N@@H+]1CCN(C(=O)c2cc(-n3cccn3)ccc2Cl)C[C@H]1C(=O)OCCOCCOCCOC(=O)c1ccc(-c2c3nc(c(-c4c(F)cc(S(=O)(=O)[O-])cc4F)c4ccc([nH]4)c(-c4c(F)cc(S(=O)(=O)[O-])cc4F)c4nc(c(-c5c(F)cc(S(=O)(=O)[O-])cc5F)c5ccc2[nH]5)C=C4)C=C3)cc1
REMARK SMILES IDX 28 1 27 2 26 3 25 4 24 5 22 6 23 7 21 8 1 9 2 10 3 11 4 13
REMARK SMILES IDX 20 14 5 15 6 16 7 17 8 18 9 19 18 20 10 21 17 22 19 23 16 24
REMARK SMILES IDX 11 25 12 26 15 27 13 28 14 29 29 30 30 31 31 32 32 33 33 34
REMARK SMILES IDX 34 35 35 36 36 37 37 38 101 39 38 40 100 41 39 42 40 43
REMARK SMILES IDX 41 44 94 45 42 46 99 47 93 48 95 49 43 50 98 51 92 52 91 53
REMARK SMILES IDX 44 55 78 56 57 57 77 58 58 59 61 60 76 61 96 62 59 63 60 64
REMARK SMILES IDX 75 66 97 67 62 68 45 69 46 70 55 71 47 72 48 73 54 74 56 75
REMARK SMILES IDX 49 76 50 77 51 78 52 79 53 80 79 81 80 82 89 83 81 84 82 85
REMARK SMILES IDX 88 86 90 87 83 88 84 89 85 90 86 91 87 92 63 93 64 94 73 95
REMARK SMILES IDX 65 96 66 97 72 98 74 99 67 100 68 101 69 102 70 103 71 104
REMARK H PARENT 2 12 95 54 61 65
REMARK Flexibility Score: inf
ROOT
ATOM      1  C   UNL A   1      38.845  21.404  25.516  1.00  0.00     0.188 C 
ENDROOT
BRANCH   1   2
ATOM      2  O   UNL A   1      37.544  20.823  25.502  1.00  0.00    -0.376 OA
BRANCH   2   3
ATOM      3  C   UNL A   1      36.554  21.490  24.729  1.00  0.00     0.202 C 
BRANCH   3   4
ATOM      4  C   UNL A   1      35.967  22.814  25.270  1.00  0.00     0.261 C 
BRANCH   4   5
ATOM      5  O   UNL A   1      35.316  22.809  26.562  1.00  0.00    -0.459 OA
BRANCH   5   6
ATOM      6  C   UNL A   1      34.037  22.373  26.546  1.00  0.00     0.366 C 
ATOM      7  O   UNL A   1      33.667  21.359  27.145  1.00  0.00    -0.245 OA
BRANCH   6   8
ATOM      8  C   UNL A   1      33.049  23.121  25.660  1.00  0.00     0.314 C 
ATOM      9  C   UNL A   1      32.858  21.652  23.682  1.00  0.00     0.333 C 
ATOM     10  N   UNL A   1      32.135  22.415  24.698  1.00  0.00    -0.323 N 
ATOM     11  C   UNL A   1      31.330  23.460  23.985  1.00  0.00     0.284 C 
ATOM     12  H   UNL A   1      31.563  21.763  25.235  1.00  0.00     0.348 HD
ATOM     13  C   UNL A   1      30.547  24.405  24.925  1.00  0.00     0.181 C 
ATOM     14  C   UNL A   1      32.181  23.894  26.670  1.00  0.00     0.197 C 
ATOM     15  N   UNL A   1      31.406  24.923  25.985  1.00  0.00    -0.326 N 
BRANCH  15  16
ATOM     16  C   UNL A   1      31.510  26.283  26.219  1.00  0.00     0.255 C 
ATOM     17  O   UNL A   1      31.429  26.806  27.327  1.00  0.00    -0.269 OA
BRANCH  16  18
ATOM     18  C   UNL A   1      31.766  27.164  25.067  1.00  0.00     0.060 A 
ATOM     19  C   UNL A   1      30.721  27.993  24.638  1.00  0.00     0.043 A 
ATOM     20  C   UNL A   1      32.994  27.160  24.394  1.00  0.00     0.053 A 
ATOM     21  C   UNL A   1      30.893  28.782  23.495  1.00  0.00     0.065 A 
ATOM     22  C   UNL A   1      33.180  28.002  23.295  1.00  0.00     0.023 A 
ATOM     23  Cl  UNL A   1      34.304  26.138  24.856  1.00  0.00    -0.083 Cl
ATOM     24  C   UNL A   1      32.127  28.797  22.830  1.00  0.00     0.030 A 
BRANCH  21  25
ATOM     25  N   UNL A   1      29.800  29.535  23.000  1.00  0.00    -0.241 N 
ATOM     26  C   UNL A   1      29.271  30.688  23.539  1.00  0.00     0.115 A 
ATOM     27  N   UNL A   1      29.163  29.186  21.854  1.00  0.00    -0.177 NA
ATOM     28  C   UNL A   1      28.238  31.077  22.720  1.00  0.00     0.042 A 
ATOM     29  C   UNL A   1      28.195  30.094  21.721  1.00  0.00     0.135 A 
ENDBRANCH  21  25
ENDBRANCH  16  18
ENDBRANCH  15  16
ENDBRANCH   6   8
ENDBRANCH   5   6
ENDBRANCH   4   5
ENDBRANCH   3   4
ENDBRANCH   2   3
ENDBRANCH   1   2
BRANCH   1  30
ATOM     30  C   UNL A   1      39.928  20.684  26.334  1.00  0.00     0.188 C 
BRANCH  30  31
ATOM     31  O   UNL A   1      41.199  20.715  25.702  1.00  0.00    -0.376 OA
BRANCH  31  32
ATOM     32  C   UNL A   1      42.276  21.493  26.206  1.00  0.00     0.202 C 
BRANCH  32  33
ATOM     33  C   UNL A   1      42.660  22.755  25.451  1.00  0.00     0.261 C 
BRANCH  33  34
ATOM     34  O   UNL A   1      42.677  23.935  26.247  1.00  0.00    -0.460 OA
BRANCH  34  35
ATOM     35  C   UNL A   1      41.576  24.704  26.371  1.00  0.00     0.338 C 
ATOM     36  O   UNL A   1      40.409  24.364  26.438  1.00  0.00    -0.246 OA
BRANCH  35  37
ATOM     37  C   UNL A   1      42.082  26.078  26.495  1.00  0.00     0.060 A 
ATOM     38  C   UNL A   1      43.254  26.288  27.214  1.00  0.00     0.016 A 
ATOM     39  C   UNL A   1      41.286  27.147  26.031  1.00  0.00     0.016 A 
ATOM     40  C   UNL A   1      43.457  27.549  27.730  1.00  0.00     0.010 A 
ATOM     41  C   UNL A   1      41.497  28.401  26.520  1.00  0.00     0.010 A 
ATOM     42  C   UNL A   1      42.489  28.528  27.479  1.00  0.00    -0.014 A 
BRANCH  42  43
ATOM     43  C   UNL A   1      42.311  29.559  28.472  1.00  0.00     0.031 A 
ATOM     44  C   UNL A   1      43.425  30.504  28.621  1.00  0.00     0.074 A 
ATOM     45  C   UNL A   1      41.113  29.680  29.077  1.00  0.00     0.049 A 
ATOM     46  N   UNL A   1      44.219  30.633  29.628  1.00  0.00    -0.248 NA
ATOM     47  C   UNL A   1      43.790  31.312  27.448  1.00  0.00     0.031 C 
ATOM     48  C   UNL A   1      39.839  29.038  28.717  1.00  0.00     0.029 A 
ATOM     49  N   UNL A   1      40.758  30.512  30.083  1.00  0.00    -0.354 N 
ATOM     50  C   UNL A   1      45.060  31.688  29.299  1.00  0.00     0.074 A 
ATOM     51  C   UNL A   1      44.888  31.923  27.889  1.00  0.00     0.031 C 
ATOM     52  C   UNL A   1      38.829  29.679  29.344  1.00  0.00     0.029 A 
ATOM     53  C   UNL A   1      39.392  30.684  30.228  1.00  0.00     0.049 A 
ATOM     54  H   UNL A   1      41.416  30.957  30.664  1.00  0.00     0.167 HD
ATOM     55  C   UNL A   1      45.659  32.446  30.255  1.00  0.00     0.037 A 
ATOM     56  C   UNL A   1      38.800  31.681  30.931  1.00  0.00     0.037 A 
ATOM     57  C   UNL A   1      45.602  31.810  31.546  1.00  0.00     0.049 A 
ATOM     58  C   UNL A   1      39.830  32.224  31.865  1.00  0.00     0.074 A 
ATOM     59  C   UNL A   1      46.064  30.607  32.045  1.00  0.00     0.029 A 
ATOM     60  N   UNL A   1      44.664  32.253  32.450  1.00  0.00    -0.354 N 
ATOM     61  N   UNL A   1      40.353  31.547  32.855  1.00  0.00    -0.248 NA
ATOM     62  C   UNL A   1      40.626  33.357  31.410  1.00  0.00     0.031 C 
ATOM     63  C   UNL A   1      45.056  30.167  32.952  1.00  0.00     0.029 A 
ATOM     64  C   UNL A   1      44.059  31.143  32.987  1.00  0.00     0.049 A 
ATOM     65  H   UNL A   1      44.463  33.192  32.670  1.00  0.00     0.167 HD
ATOM     66  C   UNL A   1      41.694  31.915  32.886  1.00  0.00     0.074 A 
ATOM     67  C   UNL A   1      41.781  33.091  32.026  1.00  0.00     0.031 C 
ATOM     68  C   UNL A   1      42.661  31.076  33.368  1.00  0.00     0.037 A 
BRANCH  55  69
ATOM     69  C   UNL A   1      46.009  33.899  30.072  1.00  0.00     0.058 A 
ATOM     70  C   UNL A   1      44.981  34.857  30.024  1.00  0.00     0.135 A 
ATOM     71  C   UNL A   1      47.293  34.357  29.693  1.00  0.00     0.135 A 
ATOM     72  F   UNL A   1      43.722  34.525  30.350  1.00  0.00    -0.206 F 
ATOM     73  C   UNL A   1      45.197  36.158  29.572  1.00  0.00     0.059 A 
ATOM     74  C   UNL A   1      47.544  35.665  29.304  1.00  0.00     0.059 A 
ATOM     75  F   UNL A   1      48.344  33.535  29.582  1.00  0.00    -0.206 F 
ATOM     76  C   UNL A   1      46.482  36.544  29.197  1.00  0.00     0.060 A 
BRANCH  76  77
ATOM     77  S   UNL A   1      46.744  38.173  28.478  1.00  0.00     0.124 S 
ATOM     78  O   UNL A   1      46.092  39.028  29.463  1.00  0.00    -0.237 OA
ATOM     79  O   UNL A   1      48.199  38.254  28.422  1.00  0.00    -0.237 OA
ATOM     80  O   UNL A   1      46.077  38.077  27.181  1.00  0.00    -0.744 OA
ENDBRANCH  76  77
ENDBRANCH  55  69
BRANCH  56  81
ATOM     81  C   UNL A   1      37.578  32.426  30.520  1.00  0.00     0.058 A 
ATOM     82  C   UNL A   1      37.629  33.426  29.537  1.00  0.00     0.135 A 
ATOM     83  C   UNL A   1      36.286  32.011  30.913  1.00  0.00     0.135 A 
ATOM     84  F   UNL A   1      38.814  33.855  29.076  1.00  0.00    -0.206 F 
ATOM     85  C   UNL A   1      36.472  33.965  28.961  1.00  0.00     0.059 A 
ATOM     86  C   UNL A   1      35.121  32.546  30.371  1.00  0.00     0.059 A 
ATOM     87  F   UNL A   1      36.109  31.003  31.779  1.00  0.00    -0.206 F 
ATOM     88  C   UNL A   1      35.220  33.510  29.378  1.00  0.00     0.060 A 
BRANCH  88  89
ATOM     89  S   UNL A   1      33.729  34.095  28.542  1.00  0.00     0.124 S 
ATOM     90  O   UNL A   1      34.262  35.129  27.663  1.00  0.00    -0.237 OA
ATOM     91  O   UNL A   1      33.249  32.883  27.886  1.00  0.00    -0.237 OA
ATOM     92  O   UNL A   1      32.893  34.578  29.638  1.00  0.00    -0.744 OA
ENDBRANCH  88  89
ENDBRANCH  56  81
BRANCH  68  93
ATOM     93  C   UNL A   1      42.236  29.836  34.118  1.00  0.00     0.058 A 
ATOM     94  C   UNL A   1      41.964  28.603  33.499  1.00  0.00     0.135 A 
ATOM     95  C   UNL A   1      42.299  29.842  35.521  1.00  0.00     0.135 A 
ATOM     96  F   UNL A   1      41.996  28.482  32.165  1.00  0.00    -0.206 F 
ATOM     97  C   UNL A   1      41.732  27.441  34.237  1.00  0.00     0.059 A 
ATOM     98  C   UNL A   1      42.102  28.688  36.277  1.00  0.00     0.059 A 
ATOM     99  F   UNL A   1      42.621  30.972  36.174  1.00  0.00    -0.206 F 
ATOM    100  C   UNL A   1      41.810  27.491  35.628  1.00  0.00     0.060 A 
BRANCH 100 101
ATOM    101  S   UNL A   1      41.625  25.961  36.571  1.00  0.00     0.124 S 
ATOM    102  O   UNL A   1      42.934  25.830  37.201  1.00  0.00    -0.237 OA
ATOM    103  O   UNL A   1      40.517  26.272  37.469  1.00  0.00    -0.237 OA
ATOM    104  O   UNL A   1      41.323  24.964  35.547  1.00  0.00    -0.744 OA
ENDBRANCH 100 101
ENDBRANCH  68  93
ENDBRANCH  42  43
ENDBRANCH  35  37
ENDBRANCH  34  35
ENDBRANCH  33  34
ENDBRANCH  32  33
ENDBRANCH  31  32
ENDBRANCH  30  31
ENDBRANCH   1  30
TORSDOF 23
ENDMDL
MODEL 2
REMARK VINA RESULT:      -9.9      1.944      2.845
REMARK SMILES C[N@@H+]1CCN(C(=O)c2cc(-n3cccn3)ccc2Cl)C[C@H]1C(=O)OCCOCCOCCOC(=O)c1ccc(-c2c3nc(c(-c4c(F)cc(S(=O)(=O)[O-])cc4F)c4ccc([nH]4)c(-c4c(F)cc(S(=O)(=O)[O-])cc4F)c4nc(c(-c5c(F)cc(S(=O)(=O)[O-])cc5F)c5ccc2[nH]5)C=C4)C=C3)cc1
REMARK SMILES IDX 28 1 27 2 26 3 25 4 24 5 22 6 23 7 21 8 1 9 2 10 3 11 4 13
REMARK SMILES IDX 20 14 5 15 6 16 7 17 8 18 9 19 18 20 10 21 17 22 19 23 16 24
REMARK SMILES IDX 11 25 12 26 15 27 13 28 14 29 29 30 30 31 31 32 32 33 33 34
REMARK SMILES IDX 34 35 35 36 36 37 37 38 101 39 38 40 100 41 39 42 40 43
REMARK SMILES IDX 41 44 94 45 42 46 99 47 93 48 95 49 43 50 98 51 92 52 91 53
REMARK SMILES IDX 44 55 78 56 57 57 77 58 58 59 61 60 76 61 96 62 59 63 60 64
REMARK SMILES IDX 75 66 97 67 62 68 45 69 46 70 55 71 47 72 48 73 54 74 56 75
REMARK SMILES IDX 49 76 50 77 51 78 52 79 53 80 79 81 80 82 89 83 81 84 82 85
REMARK SMILES IDX 88 86 90 87 83 88 84 89 85 90 86 91 87 92 63 93 64 94 73 95
REMARK SMILES IDX 65 96 66 97 72 98 74 99 67 100 68 101 69 102 70 103 71 104
REMARK H PARENT 2 12 95 54 61 65
REMARK Flexibility Score: inf
ROOT
ATOM      1  C   UNL A   1      38.923  21.998  25.795  1.00  0.00     0.188 C 
ENDROOT
BRANCH   1   2
ATOM      2  O   UNL A   1      37.678  21.306  25.744  1.00  0.00    -0.376 OA
BRANCH   2   3
ATOM      3  C   UNL A   1      36.632  21.926  25.007  1.00  0.00     0.202 C 
BRANCH   3   4
ATOM      4  C   UNL A   1      35.941  23.169  25.615  1.00  0.00     0.261 C 
BRANCH   4   5
ATOM      5  O   UNL A   1      35.149  23.006  26.815  1.00  0.00    -0.459 OA
BRANCH   5   6
ATOM      6  C   UNL A   1      33.905  22.522  26.607  1.00  0.00     0.366 C 
ATOM      7  O   UNL A   1      33.509  21.460  27.098  1.00  0.00    -0.245 OA
BRANCH   6   8
ATOM      8  C   UNL A   1      33.007  23.279  25.638  1.00  0.00     0.314 C 
ATOM      9  C   UNL A   1      33.042  21.853  23.620  1.00  0.00     0.333 C 
ATOM     10  N   UNL A   1      32.207  22.586  24.570  1.00  0.00    -0.323 N 
ATOM     11  C   UNL A   1      31.469  23.639  23.799  1.00  0.00     0.284 C 
ATOM     12  H   UNL A   1      31.590  21.917  25.030  1.00  0.00     0.348 HD
ATOM     13  C   UNL A   1      30.580  24.555  24.671  1.00  0.00     0.181 C 
ATOM     14  C   UNL A   1      32.029  24.021  26.567  1.00  0.00     0.197 C 
ATOM     15  N   UNL A   1      31.317  25.058  25.826  1.00  0.00    -0.326 N 
BRANCH  15  16
ATOM     16  C   UNL A   1      31.379  26.413  26.099  1.00  0.00     0.255 C 
ATOM     17  O   UNL A   1      31.223  26.907  27.212  1.00  0.00    -0.269 OA
BRANCH  16  18
ATOM     18  C   UNL A   1      31.687  27.328  24.985  1.00  0.00     0.060 A 
ATOM     19  C   UNL A   1      30.648  28.135  24.504  1.00  0.00     0.043 A 
ATOM     20  C   UNL A   1      32.957  27.374  24.398  1.00  0.00     0.053 A 
ATOM     21  C   UNL A   1      30.873  28.955  23.392  1.00  0.00     0.065 A 
ATOM     22  C   UNL A   1      33.191  28.246  23.332  1.00  0.00     0.023 A 
ATOM     23  Cl  UNL A   1      34.263  26.380  24.927  1.00  0.00    -0.083 Cl
ATOM     24  C   UNL A   1      32.149  29.021  22.813  1.00  0.00     0.030 A 
BRANCH  21  25
ATOM     25  N   UNL A   1      29.794  29.687  22.838  1.00  0.00    -0.241 N 
ATOM     26  C   UNL A   1      29.012  30.627  23.476  1.00  0.00     0.115 A 
ATOM     27  N   UNL A   1      29.439  29.549  21.536  1.00  0.00    -0.177 NA
ATOM     28  C   UNL A   1      28.105  31.087  22.553  1.00  0.00     0.042 A 
ATOM     29  C   UNL A   1      28.392  30.360  21.388  1.00  0.00     0.135 A 
ENDBRANCH  21  25
ENDBRANCH  16  18
ENDBRANCH  15  16
ENDBRANCH   6   8
ENDBRANCH   5   6
ENDBRANCH   4   5
ENDBRANCH   3   4
ENDBRANCH   2   3
ENDBRANCH   1   2
BRANCH   1  30
ATOM     30  C   UNL A   1      40.091  21.292  26.499  1.00  0.00     0.188 C 
BRANCH  30  31
ATOM     31  O   UNL A   1      41.285  21.314  25.729  1.00  0.00    -0.376 OA
BRANCH  31  32
ATOM     32  C   UNL A   1      42.473  21.941  26.194  1.00  0.00     0.202 C 
BRANCH  32  33
ATOM     33  C   UNL A   1      43.037  23.094  25.379  1.00  0.00     0.261 C 
BRANCH  33  34
ATOM     34  O   UNL A   1      43.203  24.305  26.109  1.00  0.00    -0.460 OA
BRANCH  34  35
ATOM     35  C   UNL A   1      42.174  25.160  26.279  1.00  0.00     0.338 C 
ATOM     36  O   UNL A   1      40.999  24.913  26.483  1.00  0.00    -0.246 OA
BRANCH  35  37
ATOM     37  C   UNL A   1      42.780  26.498  26.248  1.00  0.00     0.060 A 
ATOM     38  C   UNL A   1      43.954  26.708  26.962  1.00  0.00     0.016 A 
ATOM     39  C   UNL A   1      42.073  27.558  25.640  1.00  0.00     0.016 A 
ATOM     40  C   UNL A   1      44.245  28.004  27.327  1.00  0.00     0.010 A 
ATOM     41  C   UNL A   1      42.371  28.843  25.979  1.00  0.00     0.010 A 
ATOM     42  C   UNL A   1      43.357  29.014  26.938  1.00  0.00    -0.014 A 
BRANCH  42  43
ATOM     43  C   UNL A   1      43.244  30.168  27.795  1.00  0.00     0.031 A 
ATOM     44  C   UNL A   1      43.942  31.376  27.338  1.00  0.00     0.074 A 
ATOM     45  C   UNL A   1      42.408  30.115  28.852  1.00  0.00     0.049 A 
ATOM     46  N   UNL A   1      44.971  31.940  27.872  1.00  0.00    -0.248 NA
ATOM     47  C   UNL A   1      43.531  31.950  26.049  1.00  0.00     0.031 C 
ATOM     48  C   UNL A   1      41.390  29.099  29.160  1.00  0.00     0.029 A 
ATOM     49  N   UNL A   1      42.214  31.040  29.819  1.00  0.00    -0.354 N 
ATOM     50  C   UNL A   1      45.212  33.068  27.098  1.00  0.00     0.074 A 
ATOM     51  C   UNL A   1      44.441  32.910  25.894  1.00  0.00     0.031 C 
ATOM     52  C   UNL A   1      40.550  29.587  30.099  1.00  0.00     0.029 A 
ATOM     53  C   UNL A   1      41.039  30.882  30.534  1.00  0.00     0.049 A 
ATOM     54  H   UNL A   1      42.855  31.764  30.000  1.00  0.00     0.167 HD
ATOM     55  C   UNL A   1      45.843  34.159  27.607  1.00  0.00     0.037 A 
ATOM     56  C   UNL A   1      40.470  31.829  31.319  1.00  0.00     0.037 A 
ATOM     57  C   UNL A   1      46.508  33.854  28.849  1.00  0.00     0.049 A 
ATOM     58  C   UNL A   1      41.534  32.825  31.640  1.00  0.00     0.074 A 
ATOM     59  C   UNL A   1      47.500  32.964  29.213  1.00  0.00     0.029 A 
ATOM     60  N   UNL A   1      45.903  34.240  30.023  1.00  0.00    -0.354 N 
ATOM     61  N   UNL A   1      42.594  32.560  32.362  1.00  0.00    -0.248 NA
ATOM     62  C   UNL A   1      41.663  33.984  30.767  1.00  0.00     0.031 C 
ATOM     63  C   UNL A   1      47.133  32.507  30.512  1.00  0.00     0.029 A 
ATOM     64  C   UNL A   1      45.964  33.171  30.883  1.00  0.00     0.049 A 
ATOM     65  H   UNL A   1      45.502  35.120  30.211  1.00  0.00     0.167 HD
ATOM     66  C   UNL A   1      43.635  33.259  31.759  1.00  0.00     0.074 A 
ATOM     67  C   UNL A   1      42.982  34.180  30.833  1.00  0.00     0.031 C 
ATOM     68  C   UNL A   1      44.932  32.837  31.847  1.00  0.00     0.037 A 
BRANCH  55  69
ATOM     69  C   UNL A   1      45.587  35.567  27.140  1.00  0.00     0.058 A 
ATOM     70  C   UNL A   1      46.597  36.258  26.446  1.00  0.00     0.135 A 
ATOM     71  C   UNL A   1      44.487  36.349  27.561  1.00  0.00     0.135 A 
ATOM     72  F   UNL A   1      47.692  35.614  26.013  1.00  0.00    -0.206 F 
ATOM     73  C   UNL A   1      46.548  37.637  26.243  1.00  0.00     0.059 A 
ATOM     74  C   UNL A   1      44.386  37.709  27.310  1.00  0.00     0.059 A 
ATOM     75  F   UNL A   1      43.506  35.853  28.326  1.00  0.00    -0.206 F 
ATOM     76  C   UNL A   1      45.445  38.354  26.696  1.00  0.00     0.060 A 
BRANCH  76  77
ATOM     77  S   UNL A   1      45.439  40.149  26.566  1.00  0.00     0.124 S 
ATOM     78  O   UNL A   1      44.064  40.458  26.942  1.00  0.00    -0.237 OA
ATOM     79  O   UNL A   1      46.468  40.530  27.528  1.00  0.00    -0.237 OA
ATOM     80  O   UNL A   1      45.781  40.384  25.166  1.00  0.00    -0.744 OA
ENDBRANCH  76  77
ENDBRANCH  55  69
BRANCH  56  81
ATOM     81  C   UNL A   1      39.011  32.114  31.416  1.00  0.00     0.058 A 
ATOM     82  C   UNL A   1      38.366  32.199  32.660  1.00  0.00     0.135 A 
ATOM     83  C   UNL A   1      38.260  32.544  30.299  1.00  0.00     0.135 A 
ATOM     84  F   UNL A   1      39.015  31.846  33.780  1.00  0.00    -0.206 F 
ATOM     85  C   UNL A   1      37.066  32.702  32.792  1.00  0.00     0.059 A 
ATOM     86  C   UNL A   1      36.960  33.029  30.403  1.00  0.00     0.059 A 
ATOM     87  F   UNL A   1      38.799  32.593  29.072  1.00  0.00    -0.206 F 
ATOM     88  C   UNL A   1      36.374  33.125  31.656  1.00  0.00     0.060 A 
BRANCH  88  89
ATOM     89  S   UNL A   1      34.754  33.907  31.832  1.00  0.00     0.124 S 
ATOM     90  O   UNL A   1      35.007  34.894  32.876  1.00  0.00    -0.237 OA
ATOM     91  O   UNL A   1      34.522  34.438  30.492  1.00  0.00    -0.237 OA
ATOM     92  O   UNL A   1      33.883  32.800  32.218  1.00  0.00    -0.744 OA
ENDBRANCH  88  89
ENDBRANCH  56  81
BRANCH  68  93
ATOM     93  C   UNL A   1      45.273  31.743  32.832  1.00  0.00     0.058 A 
ATOM     94  C   UNL A   1      45.541  31.974  34.193  1.00  0.00     0.135 A 
ATOM     95  C   UNL A   1      45.129  30.406  32.430  1.00  0.00     0.135 A 
ATOM     96  F   UNL A   1      45.581  33.219  34.684  1.00  0.00    -0.206 F 
ATOM     97  C   UNL A   1      45.692  30.926  35.104  1.00  0.00     0.059 A 
ATOM     98  C   UNL A   1      45.244  29.345  33.328  1.00  0.00     0.059 A 
ATOM     99  F   UNL A   1      44.806  30.117  31.158  1.00  0.00    -0.206 F 
ATOM    100  C   UNL A   1      45.535  29.613  34.664  1.00  0.00     0.060 A 
BRANCH 100 101
ATOM    101  S   UNL A   1      45.616  28.270  35.869  1.00  0.00     0.124 S 
ATOM    102  O   UNL A   1      44.209  27.921  36.033  1.00  0.00    -0.237 OA
ATOM    103  O   UNL A   1      46.439  27.277  35.185  1.00  0.00    -0.237 OA
ATOM    104  O   UNL A   1      46.245  28.892  37.031  1.00  0.00    -0.744 OA
ENDBRANCH 100 101
ENDBRANCH  68  93
ENDBRANCH  42  43
ENDBRANCH  35  37
ENDBRANCH  34  35
ENDBRANCH  33  34
ENDBRANCH  32  33
ENDBRANCH  31  32
ENDBRANCH  30  31
ENDBRANCH   1  30
TORSDOF 23
ENDMDL
MODEL 3
REMARK VINA RESULT:      -9.4      3.202      8.281
REMARK SMILES C[N@@H+]1CCN(C(=O)c2cc(-n3cccn3)ccc2Cl)C[C@H]1C(=O)OCCOCCOCCOC(=O)c1ccc(-c2c3nc(c(-c4c(F)cc(S(=O)(=O)[O-])cc4F)c4ccc([nH]4)c(-c4c(F)cc(S(=O)(=O)[O-])cc4F)c4nc(c(-c5c(F)cc(S(=O)(=O)[O-])cc5F)c5ccc2[nH]5)C=C4)C=C3)cc1
REMARK SMILES IDX 28 1 27 2 26 3 25 4 24 5 22 6 23 7 21 8 1 9 2 10 3 11 4 13
REMARK SMILES IDX 20 14 5 15 6 16 7 17 8 18 9 19 18 20 10 21 17 22 19 23 16 24
REMARK SMILES IDX 11 25 12 26 15 27 13 28 14 29 29 30 30 31 31 32 32 33 33 34
REMARK SMILES IDX 34 35 35 36 36 37 37 38 101 39 38 40 100 41 39 42 40 43
REMARK SMILES IDX 41 44 94 45 42 46 99 47 93 48 95 49 43 50 98 51 92 52 91 53
REMARK SMILES IDX 44 55 78 56 57 57 77 58 58 59 61 60 76 61 96 62 59 63 60 64
REMARK SMILES IDX 75 66 97 67 62 68 45 69 46 70 55 71 47 72 48 73 54 74 56 75
REMARK SMILES IDX 49 76 50 77 51 78 52 79 53 80 79 81 80 82 89 83 81 84 82 85
REMARK SMILES IDX 88 86 90 87 83 88 84 89 85 90 86 91 87 92 63 93 64 94 73 95
REMARK SMILES IDX 65 96 66 97 72 98 74 99 67 100 68 101 69 102 70 103 71 104
REMARK H PARENT 2 12 95 54 61 65
REMARK Flexibility Score: inf
ROOT
ATOM      1  C   UNL A   1      39.603  21.763  26.127  1.00  0.00     0.188 C 
ENDROOT
BRANCH   1   2
ATOM      2  O   UNL A   1      38.689  20.718  25.808  1.00  0.00    -0.376 OA
BRANCH   2   3
ATOM      3  C   UNL A   1      37.511  21.092  25.103  1.00  0.00     0.202 C 
BRANCH   3   4
ATOM      4  C   UNL A   1      36.716  22.320  25.601  1.00  0.00     0.261 C 
BRANCH   4   5
ATOM      5  O   UNL A   1      35.489  22.102  26.338  1.00  0.00    -0.459 OA
BRANCH   5   6
ATOM      6  C   UNL A   1      34.412  21.829  25.569  1.00  0.00     0.366 C 
ATOM      7  O   UNL A   1      33.925  20.698  25.474  1.00  0.00    -0.245 OA
BRANCH   6   8
ATOM      8  C   UNL A   1      33.856  22.957  24.710  1.00  0.00     0.314 C 
ATOM      9  C   UNL A   1      35.360  22.952  22.749  1.00  0.00     0.333 C 
ATOM     10  N   UNL A   1      33.973  22.961  23.211  1.00  0.00    -0.323 N 
ATOM     11  C   UNL A   1      33.341  24.225  22.709  1.00  0.00     0.284 C 
ATOM     12  H   UNL A   1      33.518  22.118  22.862  1.00  0.00     0.348 HD
ATOM     13  C   UNL A   1      31.878  24.426  23.166  1.00  0.00     0.181 C 
ATOM     14  C   UNL A   1      32.361  22.978  25.076  1.00  0.00     0.197 C 
ATOM     15  N   UNL A   1      31.742  24.212  24.604  1.00  0.00    -0.326 N 
BRANCH  15  16
ATOM     16  C   UNL A   1      31.153  25.166  25.415  1.00  0.00     0.255 C 
ATOM     17  O   UNL A   1      30.534  24.917  26.445  1.00  0.00    -0.269 OA
BRANCH  16  18
ATOM     18  C   UNL A   1      31.306  26.582  25.037  1.00  0.00     0.060 A 
ATOM     19  C   UNL A   1      30.242  27.190  24.358  1.00  0.00     0.043 A 
ATOM     20  C   UNL A   1      32.478  27.296  25.310  1.00  0.00     0.053 A 
ATOM     21  C   UNL A   1      30.378  28.508  23.905  1.00  0.00     0.065 A 
ATOM     22  C   UNL A   1      32.579  28.633  24.915  1.00  0.00     0.023 A 
ATOM     23  Cl  UNL A   1      33.831  26.590  26.114  1.00  0.00    -0.083 Cl
ATOM     24  C   UNL A   1      31.542  29.234  24.194  1.00  0.00     0.030 A 
BRANCH  21  25
ATOM     25  N   UNL A   1      29.347  29.084  23.123  1.00  0.00    -0.241 N 
ATOM     26  C   UNL A   1      29.472  30.095  22.194  1.00  0.00     0.115 A 
ATOM     27  N   UNL A   1      28.069  28.635  23.197  1.00  0.00    -0.177 NA
ATOM     28  C   UNL A   1      28.221  30.318  21.672  1.00  0.00     0.042 A 
ATOM     29  C   UNL A   1      27.392  29.416  22.354  1.00  0.00     0.135 A 
ENDBRANCH  21  25
ENDBRANCH  16  18
ENDBRANCH  15  16
ENDBRANCH   6   8
ENDBRANCH   5   6
ENDBRANCH   4   5
ENDBRANCH   3   4
ENDBRANCH   2   3
ENDBRANCH   1   2
BRANCH   1  30
ATOM     30  C   UNL A   1      40.684  21.456  27.174  1.00  0.00     0.188 C 
BRANCH  30  31
ATOM     31  O   UNL A   1      41.907  22.129  26.909  1.00  0.00    -0.376 OA
BRANCH  31  32
ATOM     32  C   UNL A   1      42.162  23.447  27.375  1.00  0.00     0.202 C 
BRANCH  32  33
ATOM     33  C   UNL A   1      41.712  24.611  26.505  1.00  0.00     0.261 C 
BRANCH  33  34
ATOM     34  O   UNL A   1      40.977  25.613  27.198  1.00  0.00    -0.460 OA
BRANCH  34  35
ATOM     35  C   UNL A   1      39.629  25.601  27.211  1.00  0.00     0.338 C 
ATOM     36  O   UNL A   1      38.864  24.852  26.631  1.00  0.00    -0.246 OA
BRANCH  35  37
ATOM     37  C   UNL A   1      39.246  26.657  28.159  1.00  0.00     0.060 A 
ATOM     38  C   UNL A   1      39.336  27.981  27.745  1.00  0.00     0.016 A 
ATOM     39  C   UNL A   1      38.964  26.308  29.498  1.00  0.00     0.016 A 
ATOM     40  C   UNL A   1      39.452  28.941  28.726  1.00  0.00     0.010 A 
ATOM     41  C   UNL A   1      39.054  27.258  30.470  1.00  0.00     0.010 A 
ATOM     42  C   UNL A   1      39.448  28.522  30.061  1.00  0.00    -0.014 A 
BRANCH  42  43
ATOM     43  C   UNL A   1      40.194  29.314  31.009  1.00  0.00     0.031 A 
ATOM     44  C   UNL A   1      39.394  30.085  31.969  1.00  0.00     0.074 A 
ATOM     45  C   UNL A   1      41.535  29.185  31.053  1.00  0.00     0.049 A 
ATOM     46  N   UNL A   1      39.271  31.366  32.041  1.00  0.00    -0.248 NA
ATOM     47  C   UNL A   1      38.509  29.335  32.871  1.00  0.00     0.031 C 
ATOM     48  C   UNL A   1      42.376  28.165  30.408  1.00  0.00     0.029 A 
ATOM     49  N   UNL A   1      42.424  29.882  31.798  1.00  0.00    -0.354 N 
ATOM     50  C   UNL A   1      38.452  31.594  33.140  1.00  0.00     0.074 A 
ATOM     51  C   UNL A   1      37.858  30.327  33.476  1.00  0.00     0.031 C 
ATOM     52  C   UNL A   1      43.602  28.181  30.974  1.00  0.00     0.029 A 
ATOM     53  C   UNL A   1      43.663  29.278  31.923  1.00  0.00     0.049 A 
ATOM     54  H   UNL A   1      42.207  30.747  32.215  1.00  0.00     0.167 HD
ATOM     55  C   UNL A   1      38.506  32.758  33.839  1.00  0.00     0.037 A 
ATOM     56  C   UNL A   1      44.599  29.601  32.848  1.00  0.00     0.037 A 
ATOM     57  C   UNL A   1      39.204  33.783  33.106  1.00  0.00     0.049 A 
ATOM     58  C   UNL A   1      44.265  30.968  33.345  1.00  0.00     0.074 A 
ATOM     59  C   UNL A   1      39.007  34.391  31.880  1.00  0.00     0.029 A 
ATOM     60  N   UNL A   1      40.506  34.061  33.455  1.00  0.00    -0.354 N 
ATOM     61  N   UNL A   1      44.312  32.049  32.609  1.00  0.00    -0.248 NA
ATOM     62  C   UNL A   1      43.421  31.070  34.530  1.00  0.00     0.031 C 
ATOM     63  C   UNL A   1      40.314  34.591  31.348  1.00  0.00     0.029 A 
ATOM     64  C   UNL A   1      41.234  34.133  32.292  1.00  0.00     0.049 A 
ATOM     65  H   UNL A   1      40.851  34.185  34.369  1.00  0.00     0.167 HD
ATOM     66  C   UNL A   1      43.221  32.815  33.009  1.00  0.00     0.074 A 
ATOM     67  C   UNL A   1      42.761  32.196  34.249  1.00  0.00     0.031 C 
ATOM     68  C   UNL A   1      42.611  33.698  32.161  1.00  0.00     0.037 A 
BRANCH  55  69
ATOM     69  C   UNL A   1      38.203  32.865  35.309  1.00  0.00     0.058 A 
ATOM     70  C   UNL A   1      38.943  32.097  36.225  1.00  0.00     0.135 A 
ATOM     71  C   UNL A   1      37.053  33.501  35.832  1.00  0.00     0.135 A 
ATOM     72  F   UNL A   1      40.046  31.440  35.831  1.00  0.00    -0.206 F 
ATOM     73  C   UNL A   1      38.537  31.919  37.547  1.00  0.00     0.059 A 
ATOM     74  C   UNL A   1      36.667  33.393  37.160  1.00  0.00     0.059 A 
ATOM     75  F   UNL A   1      36.190  34.173  35.058  1.00  0.00    -0.206 F 
ATOM     76  C   UNL A   1      37.385  32.559  37.998  1.00  0.00     0.060 A 
BRANCH  76  77
ATOM     77  S   UNL A   1      36.775  32.223  39.657  1.00  0.00     0.124 S 
ATOM     78  O   UNL A   1      35.420  31.766  39.375  1.00  0.00    -0.237 OA
ATOM     79  O   UNL A   1      37.710  31.206  40.128  1.00  0.00    -0.237 OA
ATOM     80  O   UNL A   1      36.881  33.519  40.321  1.00  0.00    -0.744 OA
ENDBRANCH  76  77
ENDBRANCH  55  69
BRANCH  56  81
ATOM     81  C   UNL A   1      45.456  28.635  33.590  1.00  0.00     0.058 A 
ATOM     82  C   UNL A   1      44.900  27.690  34.466  1.00  0.00     0.135 A 
ATOM     83  C   UNL A   1      46.823  28.460  33.279  1.00  0.00     0.135 A 
ATOM     84  F   UNL A   1      43.599  27.756  34.789  1.00  0.00    -0.206 F 
ATOM     85  C   UNL A   1      45.645  26.623  34.982  1.00  0.00     0.059 A 
ATOM     86  C   UNL A   1      47.590  27.420  33.795  1.00  0.00     0.059 A 
ATOM     87  F   UNL A   1      47.443  29.247  32.387  1.00  0.00    -0.206 F 
ATOM     88  C   UNL A   1      46.990  26.490  34.631  1.00  0.00     0.060 A 
BRANCH  88  89
ATOM     89  S   UNL A   1      47.921  25.040  35.176  1.00  0.00     0.124 S 
ATOM     90  O   UNL A   1      48.739  24.750  34.003  1.00  0.00    -0.237 OA
ATOM     91  O   UNL A   1      48.634  25.553  36.341  1.00  0.00    -0.237 OA
ATOM     92  O   UNL A   1      46.880  24.058  35.468  1.00  0.00    -0.744 OA
ENDBRANCH  88  89
ENDBRANCH  56  81
BRANCH  68  93
ATOM     93  C   UNL A   1      43.294  34.040  30.857  1.00  0.00     0.058 A 
ATOM     94  C   UNL A   1      43.127  33.301  29.672  1.00  0.00     0.135 A 
ATOM     95  C   UNL A   1      43.977  35.261  30.754  1.00  0.00     0.135 A 
ATOM     96  F   UNL A   1      42.392  32.182  29.657  1.00  0.00    -0.206 F 
ATOM     97  C   UNL A   1      43.644  33.739  28.451  1.00  0.00     0.059 A 
ATOM     98  C   UNL A   1      44.474  35.733  29.540  1.00  0.00     0.059 A 
ATOM     99  F   UNL A   1      44.113  36.049  31.835  1.00  0.00    -0.206 F 
ATOM    100  C   UNL A   1      44.311  34.961  28.392  1.00  0.00     0.060 A 
BRANCH 100 101
ATOM    101  S   UNL A   1      44.873  35.576  26.789  1.00  0.00     0.124 S 
ATOM    102  O   UNL A   1      44.547  36.995  26.874  1.00  0.00    -0.237 OA
ATOM    103  O   UNL A   1      46.297  35.250  26.805  1.00  0.00    -0.237 OA
ATOM    104  O   UNL A   1      44.080  34.809  25.832  1.00  0.00    -0.744 OA
ENDBRANCH 100 101
ENDBRANCH  68  93
ENDBRANCH  42  43
ENDBRANCH  35  37
ENDBRANCH  34  35
ENDBRANCH  33  34
ENDBRANCH  32  33
ENDBRANCH  31  32
ENDBRANCH  30  31
ENDBRANCH   1  30
TORSDOF 23
ENDMDL
