MODEL 1
REMARK VINA RESULT:     -10.5      0.000      0.000
REMARK SMILES O=C(OCCOCCOCCOC(=O)c1ccc(-c2c3nc(c(-c4c(F)cc(S(=O)(=O)[O-])cc4F)c4ccc([nH]4)c(-c4c(F)cc(S(=O)(=O)[O-])cc4F)c4nc(c(-c5c(F)cc(S(=O)(=O)[O-])cc5F)c5ccc2[nH]5)C=C4)C=C3)cc1)C1=Cc2cc(S(F)(F)(F)(F)F)ccc2O[C@H]1C(F)(F)F
REMARK SMILES IDX 8 1 7 2 6 3 5 4 4 5 3 6 2 7 1 8 81 9 82 10 96 11 83 12 95 13
REMARK SMILES IDX 84 14 94 15 85 16 93 17 92 18 97 19 98 20 99 21 100 22 86 23
REMARK SMILES IDX 87 24 88 25 89 26 90 27 91 28 9 29 10 30 11 31 12 32 13 33
REMARK SMILES IDX 14 34 15 35 16 36 80 37 17 38 79 39 18 40 19 41 20 42 73 43
REMARK SMILES IDX 21 44 78 45 72 46 74 47 22 48 77 49 71 50 70 51 23 53 57 54
REMARK SMILES IDX 36 55 56 56 37 57 40 58 55 59 75 60 38 61 39 62 54 64 76 65
REMARK SMILES IDX 41 66 24 67 25 68 34 69 26 70 27 71 33 72 35 73 28 74 29 75
REMARK SMILES IDX 30 76 31 77 32 78 58 79 59 80 68 81 60 82 61 83 67 84 69 85
REMARK SMILES IDX 62 86 63 87 64 88 65 89 66 90 42 91 43 92 52 93 44 94 45 95
REMARK SMILES IDX 51 96 53 97 46 98 47 99 48 100 49 101 50 102
REMARK H PARENT 74 52 40 63
REMARK Flexibility Score: inf
ROOT
ATOM      1  C   UNL A   1      32.384  25.690  24.925  1.00  0.00     0.188 C 
ENDROOT
BRANCH   1   2
ATOM      2  C   UNL A   1      32.241  24.841  26.177  1.00  0.00     0.188 C 
BRANCH   2   3
ATOM      3  O   UNL A   1      32.057  23.482  25.809  1.00  0.00    -0.376 OA
BRANCH   3   4
ATOM      4  C   UNL A   1      32.509  22.641  26.861  1.00  0.00     0.202 C 
BRANCH   4   5
ATOM      5  C   UNL A   1      33.855  23.137  27.363  1.00  0.00     0.261 C 
BRANCH   5   6
ATOM      6  O   UNL A   1      34.874  22.236  26.954  1.00  0.00    -0.460 OA
BRANCH   6   7
ATOM      7  C   UNL A   1      35.632  22.505  25.783  1.00  0.00     0.338 C 
ATOM      8  O   UNL A   1      35.381  23.538  25.087  1.00  0.00    -0.246 OA
BRANCH   7   9
ATOM      9  C   UNL A   1      36.743  21.557  25.364  1.00  0.00     0.087 C 
ATOM     10  C   UNL A   1      36.438  20.328  24.868  1.00  0.00     0.027 C 
ATOM     11  C   UNL A   1      38.197  21.983  25.498  1.00  0.00     0.316 C 
ATOM     12  C   UNL A   1      34.985  19.902  24.735  1.00  0.00     0.019 A 
ATOM     13  O   UNL A   1      34.487  22.091  23.957  1.00  0.00    -0.475 OA
ATOM     14  C   UNL A   1      34.607  18.635  25.151  1.00  0.00     0.036 A 
ATOM     15  C   UNL A   1      34.102  20.751  24.223  1.00  0.00     0.128 A 
ATOM     16  C   UNL A   1      33.317  18.250  24.715  1.00  0.00     0.107 A 
ATOM     17  C   UNL A   1      32.818  20.344  23.948  1.00  0.00     0.048 A 
ATOM     18  C   UNL A   1      32.393  19.086  24.279  1.00  0.00     0.028 A 
BRANCH  11  19
ATOM     19  C   UNL A   1      38.261  23.389  26.071  1.00  0.00     0.430 C 
ATOM     20  F   UNL A   1      39.523  23.692  26.361  1.00  0.00    -0.167 F 
ATOM     21  F   UNL A   1      37.791  24.254  25.177  1.00  0.00    -0.167 F 
ATOM     22  F   UNL A   1      37.525  23.451  27.177  1.00  0.00    -0.167 F 
ENDBRANCH  11  19
BRANCH  16  23
ATOM     23  S   UNL A   1      32.905  16.488  24.760  1.00  0.00     0.310 S 
ATOM     24  F   UNL A   1      34.414  16.077  25.019  1.00  0.00    -0.094 F 
ATOM     25  F   UNL A   1      33.218  16.404  23.218  1.00  0.00    -0.094 F 
ATOM     26  F   UNL A   1      32.550  14.975  24.799  1.00  0.00    -0.094 F 
ATOM     27  F   UNL A   1      32.731  16.561  26.327  1.00  0.00    -0.094 F 
ATOM     28  F   UNL A   1      33.370  17.999  24.756  1.00  0.00    -0.094 F 
ENDBRANCH  16  23
ENDBRANCH   7   9
ENDBRANCH   6   7
ENDBRANCH   5   6
ENDBRANCH   4   5
ENDBRANCH   3   4
ENDBRANCH   2   3
ENDBRANCH   1   2
BRANCH   1  29
ATOM     29  O   UNL A   1      32.426  27.062  25.285  1.00  0.00    -0.376 OA
BRANCH  29  30
ATOM     30  C   UNL A   1      33.591  27.313  26.057  1.00  0.00     0.202 C 
BRANCH  30  31
ATOM     31  C   UNL A   1      33.280  28.352  27.122  1.00  0.00     0.261 C 
BRANCH  31  32
ATOM     32  O   UNL A   1      33.943  29.568  26.805  1.00  0.00    -0.460 OA
BRANCH  32  33
ATOM     33  C   UNL A   1      34.608  30.301  27.823  1.00  0.00     0.338 C 
ATOM     34  O   UNL A   1      33.987  31.206  28.463  1.00  0.00    -0.246 OA
BRANCH  33  35
ATOM     35  C   UNL A   1      36.062  30.002  28.146  1.00  0.00     0.060 A 
ATOM     36  C   UNL A   1      37.034  30.233  27.186  1.00  0.00     0.016 A 
ATOM     37  C   UNL A   1      36.379  29.523  29.344  1.00  0.00     0.016 A 
ATOM     38  C   UNL A   1      38.287  29.649  27.486  1.00  0.00     0.010 A 
ATOM     39  C   UNL A   1      37.657  29.097  29.612  1.00  0.00     0.010 A 
ATOM     40  C   UNL A   1      38.654  29.240  28.686  1.00  0.00    -0.014 A 
BRANCH  40  41
ATOM     41  C   UNL A   1      40.106  28.942  29.023  1.00  0.00     0.031 A 
ATOM     42  C   UNL A   1      40.855  29.944  29.642  1.00  0.00     0.074 A 
ATOM     43  C   UNL A   1      40.605  27.692  28.697  1.00  0.00     0.049 A 
ATOM     44  N   UNL A   1      42.123  29.877  30.051  1.00  0.00    -0.248 NA
ATOM     45  C   UNL A   1      40.337  31.284  29.958  1.00  0.00     0.031 C 
ATOM     46  C   UNL A   1      39.854  26.673  28.080  1.00  0.00     0.029 A 
ATOM     47  N   UNL A   1      41.880  27.211  28.901  1.00  0.00    -0.354 N 
ATOM     48  C   UNL A   1      42.487  31.031  30.617  1.00  0.00     0.074 A 
ATOM     49  C   UNL A   1      41.345  31.954  30.559  1.00  0.00     0.031 C 
ATOM     50  C   UNL A   1      40.667  25.598  27.903  1.00  0.00     0.029 A 
ATOM     51  C   UNL A   1      41.940  25.927  28.408  1.00  0.00     0.049 A 
ATOM     52  H   UNL A   1      42.621  27.701  29.326  1.00  0.00     0.167 HD
ATOM     53  C   UNL A   1      43.724  31.347  31.179  1.00  0.00     0.037 A 
ATOM     54  C   UNL A   1      43.032  25.075  28.388  1.00  0.00     0.037 A 
ATOM     55  C   UNL A   1      44.804  30.479  31.199  1.00  0.00     0.049 A 
ATOM     56  C   UNL A   1      44.288  25.413  28.899  1.00  0.00     0.074 A 
ATOM     57  C   UNL A   1      46.056  30.780  31.769  1.00  0.00     0.029 A 
ATOM     58  N   UNL A   1      44.871  29.203  30.684  1.00  0.00    -0.354 N 
ATOM     59  N   UNL A   1      44.638  26.551  29.500  1.00  0.00    -0.248 NA
ATOM     60  C   UNL A   1      45.461  24.530  28.855  1.00  0.00     0.031 C 
ATOM     61  C   UNL A   1      46.869  29.705  31.593  1.00  0.00     0.029 A 
ATOM     62  C   UNL A   1      46.138  28.715  30.908  1.00  0.00     0.049 A 
ATOM     63  H   UNL A   1      44.138  28.724  30.233  1.00  0.00     0.167 HD
ATOM     64  C   UNL A   1      45.919  26.498  29.871  1.00  0.00     0.074 A 
ATOM     65  C   UNL A   1      46.469  25.201  29.455  1.00  0.00     0.031 C 
ATOM     66  C   UNL A   1      46.651  27.480  30.544  1.00  0.00     0.037 A 
BRANCH  53  67
ATOM     67  C   UNL A   1      43.896  32.721  31.806  1.00  0.00     0.058 A 
ATOM     68  C   UNL A   1      43.618  32.924  33.148  1.00  0.00     0.135 A 
ATOM     69  C   UNL A   1      44.330  33.710  31.034  1.00  0.00     0.135 A 
ATOM     70  F   UNL A   1      43.429  31.929  34.009  1.00  0.00    -0.206 F 
ATOM     71  C   UNL A   1      43.554  34.288  33.520  1.00  0.00     0.059 A 
ATOM     72  C   UNL A   1      44.370  35.000  31.508  1.00  0.00     0.059 A 
ATOM     73  F   UNL A   1      44.730  33.451  29.793  1.00  0.00    -0.206 F 
ATOM     74  C   UNL A   1      44.052  35.283  32.807  1.00  0.00     0.060 A 
BRANCH  74  75
ATOM     75  S   UNL A   1      44.299  36.932  33.512  1.00  0.00     0.124 S 
ATOM     76  O   UNL A   1      45.786  37.142  33.808  1.00  0.00    -0.237 OA
ATOM     77  O   UNL A   1      43.824  37.990  32.513  1.00  0.00    -0.237 OA
ATOM     78  O   UNL A   1      43.404  37.072  34.962  1.00  0.00    -0.744 OA
ENDBRANCH  74  75
ENDBRANCH  53  67
BRANCH  54  79
ATOM     79  C   UNL A   1      42.855  23.695  27.777  1.00  0.00     0.058 A 
ATOM     80  C   UNL A   1      43.068  23.490  26.423  1.00  0.00     0.135 A 
ATOM     81  C   UNL A   1      42.512  22.694  28.579  1.00  0.00     0.135 A 
ATOM     82  F   UNL A   1      43.650  24.390  25.636  1.00  0.00    -0.206 F 
ATOM     83  C   UNL A   1      42.608  22.238  25.954  1.00  0.00     0.059 A 
ATOM     84  C   UNL A   1      42.206  21.457  28.063  1.00  0.00     0.059 A 
ATOM     85  F   UNL A   1      42.463  22.891  29.894  1.00  0.00    -0.206 F 
ATOM     86  C   UNL A   1      42.336  21.201  26.727  1.00  0.00     0.060 A 
BRANCH  86  87
ATOM     87  S   UNL A   1      42.148  19.532  26.052  1.00  0.00     0.124 S 
ATOM     88  O   UNL A   1      42.985  19.400  24.778  1.00  0.00    -0.237 OA
ATOM     89  O   UNL A   1      42.625  18.508  27.085  1.00  0.00    -0.237 OA
ATOM     90  O   UNL A   1      40.502  19.248  25.686  1.00  0.00    -0.744 OA
ENDBRANCH  86  87
ENDBRANCH  54  79
BRANCH  66  91
ATOM     91  C   UNL A   1      48.098  27.174  30.897  1.00  0.00     0.058 A 
ATOM     92  C   UNL A   1      49.105  27.551  30.024  1.00  0.00     0.135 A 
ATOM     93  C   UNL A   1      48.372  26.549  32.036  1.00  0.00     0.135 A 
ATOM     94  F   UNL A   1      48.910  28.389  29.011  1.00  0.00    -0.206 F 
ATOM     95  C   UNL A   1      50.360  26.962  30.309  1.00  0.00     0.059 A 
ATOM     96  C   UNL A   1      49.648  26.121  32.310  1.00  0.00     0.059 A 
ATOM     97  F   UNL A   1      47.401  26.335  32.920  1.00  0.00    -0.206 F 
ATOM     98  C   UNL A   1      50.682  26.406  31.462  1.00  0.00     0.060 A 
BRANCH  98  99
ATOM     99  S   UNL A   1      52.400  26.043  31.899  1.00  0.00     0.124 S 
ATOM    100  O   UNL A   1      52.492  24.627  32.473  1.00  0.00    -0.237 OA
ATOM    101  O   UNL A   1      53.277  26.143  30.649  1.00  0.00    -0.237 OA
ATOM    102  O   UNL A   1      52.942  27.168  33.067  1.00  0.00    -0.744 OA
ENDBRANCH  98  99
ENDBRANCH  66  91
ENDBRANCH  40  41
ENDBRANCH  33  35
ENDBRANCH  32  33
ENDBRANCH  31  32
ENDBRANCH  30  31
ENDBRANCH  29  30
ENDBRANCH   1  29
TORSDOF 22
ENDMDL
MODEL 2
REMARK VINA RESULT:     -10.2      4.188      9.622
REMARK SMILES O=C(OCCOCCOCCOC(=O)c1ccc(-c2c3nc(c(-c4c(F)cc(S(=O)(=O)[O-])cc4F)c4ccc([nH]4)c(-c4c(F)cc(S(=O)(=O)[O-])cc4F)c4nc(c(-c5c(F)cc(S(=O)(=O)[O-])cc5F)c5ccc2[nH]5)C=C4)C=C3)cc1)C1=Cc2cc(S(F)(F)(F)(F)F)ccc2O[C@H]1C(F)(F)F
REMARK SMILES IDX 8 1 7 2 6 3 5 4 4 5 3 6 2 7 1 8 81 9 82 10 96 11 83 12 95 13
REMARK SMILES IDX 84 14 94 15 85 16 93 17 92 18 97 19 98 20 99 21 100 22 86 23
REMARK SMILES IDX 87 24 88 25 89 26 90 27 91 28 9 29 10 30 11 31 12 32 13 33
REMARK SMILES IDX 14 34 15 35 16 36 80 37 17 38 79 39 18 40 19 41 20 42 73 43
REMARK SMILES IDX 21 44 78 45 72 46 74 47 22 48 77 49 71 50 70 51 23 53 57 54
REMARK SMILES IDX 36 55 56 56 37 57 40 58 55 59 75 60 38 61 39 62 54 64 76 65
REMARK SMILES IDX 41 66 24 67 25 68 34 69 26 70 27 71 33 72 35 73 28 74 29 75
REMARK SMILES IDX 30 76 31 77 32 78 58 79 59 80 68 81 60 82 61 83 67 84 69 85
REMARK SMILES IDX 62 86 63 87 64 88 65 89 66 90 42 91 43 92 52 93 44 94 45 95
REMARK SMILES IDX 51 96 53 97 46 98 47 99 48 100 49 101 50 102
REMARK H PARENT 74 52 40 63
REMARK Flexibility Score: inf
ROOT
ATOM      1  C   UNL A   1      33.674  29.084  27.292  1.00  0.00     0.188 C 
ENDROOT
BRANCH   1   2
ATOM      2  C   UNL A   1      32.465  28.426  26.650  1.00  0.00     0.188 C 
BRANCH   2   3
ATOM      3  O   UNL A   1      32.856  27.199  26.053  1.00  0.00    -0.376 OA
BRANCH   3   4
ATOM      4  C   UNL A   1      32.021  26.153  26.530  1.00  0.00     0.202 C 
BRANCH   4   5
ATOM      5  C   UNL A   1      32.561  24.816  26.049  1.00  0.00     0.261 C 
BRANCH   5   6
ATOM      6  O   UNL A   1      33.595  25.035  25.101  1.00  0.00    -0.460 OA
BRANCH   6   7
ATOM      7  C   UNL A   1      33.491  24.486  23.796  1.00  0.00     0.338 C 
ATOM      8  O   UNL A   1      34.514  24.438  23.043  1.00  0.00    -0.246 OA
BRANCH   7   9
ATOM      9  C   UNL A   1      32.156  23.955  23.300  1.00  0.00     0.087 C 
ATOM     10  C   UNL A   1      31.195  24.819  22.879  1.00  0.00     0.027 C 
ATOM     11  C   UNL A   1      31.896  22.457  23.275  1.00  0.00     0.316 C 
ATOM     12  C   UNL A   1      31.454  26.316  22.904  1.00  0.00     0.019 A 
ATOM     13  O   UNL A   1      33.650  25.879  22.107  1.00  0.00    -0.475 OA
ATOM     14  C   UNL A   1      30.478  27.168  23.397  1.00  0.00     0.036 A 
ATOM     15  C   UNL A   1      32.613  26.784  22.455  1.00  0.00     0.128 A 
ATOM     16  C   UNL A   1      30.707  28.533  23.105  1.00  0.00     0.107 A 
ATOM     17  C   UNL A   1      32.817  28.136  22.322  1.00  0.00     0.048 A 
ATOM     18  C   UNL A   1      31.871  29.034  22.735  1.00  0.00     0.028 A 
BRANCH  11  19
ATOM     19  C   UNL A   1      33.121  21.722  23.792  1.00  0.00     0.430 C 
ATOM     20  F   UNL A   1      34.184  22.070  23.073  1.00  0.00    -0.167 F 
ATOM     21  F   UNL A   1      33.325  22.043  25.067  1.00  0.00    -0.167 F 
ATOM     22  F   UNL A   1      32.927  20.410  23.691  1.00  0.00    -0.167 F 
ENDBRANCH  11  19
BRANCH  16  23
ATOM     23  S   UNL A   1      29.307  29.671  23.249  1.00  0.00     0.310 S 
ATOM     24  F   UNL A   1      29.900  30.641  22.144  1.00  0.00    -0.094 F 
ATOM     25  F   UNL A   1      30.124  30.497  24.313  1.00  0.00    -0.094 F 
ATOM     26  F   UNL A   1      28.104  30.648  23.374  1.00  0.00    -0.094 F 
ATOM     27  F   UNL A   1      28.561  28.913  22.082  1.00  0.00    -0.094 F 
ATOM     28  F   UNL A   1      30.564  28.738  23.032  1.00  0.00    -0.094 F 
ENDBRANCH  16  23
ENDBRANCH   7   9
ENDBRANCH   6   7
ENDBRANCH   5   6
ENDBRANCH   4   5
ENDBRANCH   3   4
ENDBRANCH   2   3
ENDBRANCH   1   2
BRANCH   1  29
ATOM     29  O   UNL A   1      33.323  30.386  27.738  1.00  0.00    -0.376 OA
BRANCH  29  30
ATOM     30  C   UNL A   1      34.428  31.260  27.558  1.00  0.00     0.202 C 
BRANCH  30  31
ATOM     31  C   UNL A   1      34.906  31.758  28.913  1.00  0.00     0.261 C 
BRANCH  31  32
ATOM     32  O   UNL A   1      35.573  30.705  29.594  1.00  0.00    -0.460 OA
BRANCH  32  33
ATOM     33  C   UNL A   1      36.720  30.984  30.384  1.00  0.00     0.338 C 
ATOM     34  O   UNL A   1      36.595  31.587  31.496  1.00  0.00    -0.246 OA
BRANCH  33  35
ATOM     35  C   UNL A   1      38.097  30.561  29.899  1.00  0.00     0.060 A 
ATOM     36  C   UNL A   1      38.304  30.345  28.546  1.00  0.00     0.016 A 
ATOM     37  C   UNL A   1      39.078  30.402  30.780  1.00  0.00     0.016 A 
ATOM     38  C   UNL A   1      39.517  29.679  28.251  1.00  0.00     0.010 A 
ATOM     39  C   UNL A   1      40.285  29.871  30.395  1.00  0.00     0.010 A 
ATOM     40  C   UNL A   1      40.538  29.579  29.083  1.00  0.00    -0.014 A 
BRANCH  40  41
ATOM     41  C   UNL A   1      41.920  29.161  28.609  1.00  0.00     0.031 A 
ATOM     42  C   UNL A   1      42.118  27.823  28.263  1.00  0.00     0.074 A 
ATOM     43  C   UNL A   1      42.906  30.132  28.544  1.00  0.00     0.049 A 
ATOM     44  N   UNL A   1      43.233  27.260  27.794  1.00  0.00    -0.248 NA
ATOM     45  C   UNL A   1      41.082  26.783  28.364  1.00  0.00     0.031 C 
ATOM     46  C   UNL A   1      42.712  31.484  28.882  1.00  0.00     0.029 A 
ATOM     47  N   UNL A   1      44.218  29.978  28.153  1.00  0.00    -0.354 N 
ATOM     48  C   UNL A   1      43.031  25.961  27.560  1.00  0.00     0.074 A 
ATOM     49  C   UNL A   1      41.646  25.635  27.930  1.00  0.00     0.031 C 
ATOM     50  C   UNL A   1      43.892  32.136  28.710  1.00  0.00     0.029 A 
ATOM     51  C   UNL A   1      44.844  31.201  28.260  1.00  0.00     0.049 A 
ATOM     52  H   UNL A   1      44.636  29.140  27.850  1.00  0.00     0.167 HD
ATOM     53  C   UNL A   1      43.945  25.038  27.053  1.00  0.00     0.037 A 
ATOM     54  C   UNL A   1      46.168  31.502  27.987  1.00  0.00     0.037 A 
ATOM     55  C   UNL A   1      45.259  25.350  26.738  1.00  0.00     0.049 A 
ATOM     56  C   UNL A   1      47.100  30.565  27.534  1.00  0.00     0.074 A 
ATOM     57  C   UNL A   1      46.192  24.432  26.218  1.00  0.00     0.029 A 
ATOM     58  N   UNL A   1      45.891  26.567  26.868  1.00  0.00    -0.354 N 
ATOM     59  N   UNL A   1      46.886  29.276  27.264  1.00  0.00    -0.248 NA
ATOM     60  C   UNL A   1      48.513  30.867  27.272  1.00  0.00     0.031 C 
ATOM     61  C   UNL A   1      47.373  25.083  26.046  1.00  0.00     0.029 A 
ATOM     62  C   UNL A   1      47.197  26.419  26.457  1.00  0.00     0.049 A 
ATOM     63  H   UNL A   1      45.480  27.398  27.198  1.00  0.00     0.167 HD
ATOM     64  C   UNL A   1      48.013  28.705  26.834  1.00  0.00     0.074 A 
ATOM     65  C   UNL A   1      49.078  29.718  26.839  1.00  0.00     0.031 C 
ATOM     66  C   UNL A   1      48.195  27.380  26.432  1.00  0.00     0.037 A 
BRANCH  53  67
ATOM     67  C   UNL A   1      43.475  23.609  26.833  1.00  0.00     0.058 A 
ATOM     68  C   UNL A   1      43.125  23.169  25.567  1.00  0.00     0.135 A 
ATOM     69  C   UNL A   1      43.422  22.800  27.884  1.00  0.00     0.135 A 
ATOM     70  F   UNL A   1      43.399  23.852  24.459  1.00  0.00    -0.206 F 
ATOM     71  C   UNL A   1      42.451  21.925  25.559  1.00  0.00     0.059 A 
ATOM     72  C   UNL A   1      42.872  21.544  27.772  1.00  0.00     0.059 A 
ATOM     73  F   UNL A   1      43.905  23.206  29.054  1.00  0.00    -0.206 F 
ATOM     74  C   UNL A   1      42.451  21.066  26.562  1.00  0.00     0.060 A 
BRANCH  74  75
ATOM     75  S   UNL A   1      41.923  19.348  26.348  1.00  0.00     0.124 S 
ATOM     76  O   UNL A   1      40.444  19.314  25.954  1.00  0.00    -0.237 OA
ATOM     77  O   UNL A   1      42.759  18.691  25.248  1.00  0.00    -0.237 OA
ATOM     78  O   UNL A   1      42.141  18.498  27.816  1.00  0.00    -0.744 OA
ENDBRANCH  74  75
ENDBRANCH  53  67
BRANCH  54  79
ATOM     79  C   UNL A   1      46.634  32.935  28.191  1.00  0.00     0.058 A 
ATOM     80  C   UNL A   1      47.194  33.330  29.394  1.00  0.00     0.135 A 
ATOM     81  C   UNL A   1      46.506  33.785  27.179  1.00  0.00     0.135 A 
ATOM     82  F   UNL A   1      47.573  32.470  30.335  1.00  0.00    -0.206 F 
ATOM     83  C   UNL A   1      47.327  34.731  29.532  1.00  0.00     0.059 A 
ATOM     84  C   UNL A   1      46.783  35.121  27.348  1.00  0.00     0.059 A 
ATOM     85  F   UNL A   1      46.105  33.340  25.991  1.00  0.00    -0.206 F 
ATOM     86  C   UNL A   1      47.283  35.591  28.530  1.00  0.00     0.060 A 
BRANCH  86  87
ATOM     87  S   UNL A   1      47.856  37.298  28.712  1.00  0.00     0.124 S 
ATOM     88  O   UNL A   1      49.383  37.335  28.620  1.00  0.00    -0.237 OA
ATOM     89  O   UNL A   1      47.257  38.159  27.597  1.00  0.00    -0.237 OA
ATOM     90  O   UNL A   1      47.361  37.906  30.232  1.00  0.00    -0.744 OA
ENDBRANCH  86  87
ENDBRANCH  54  79
BRANCH  66  91
ATOM     91  C   UNL A   1      49.573  26.967  25.940  1.00  0.00     0.058 A 
ATOM     92  C   UNL A   1      50.473  26.407  26.830  1.00  0.00     0.135 A 
ATOM     93  C   UNL A   1      49.890  27.151  24.664  1.00  0.00     0.135 A 
ATOM     94  F   UNL A   1      50.125  25.974  28.038  1.00  0.00    -0.206 F 
ATOM     95  C   UNL A   1      51.799  26.339  26.338  1.00  0.00     0.059 A 
ATOM     96  C   UNL A   1      51.174  26.934  24.223  1.00  0.00     0.059 A 
ATOM     97  F   UNL A   1      48.957  27.549  23.803  1.00  0.00    -0.206 F 
ATOM     98  C   UNL A   1      52.130  26.439  25.065  1.00  0.00     0.060 A 
BRANCH  98  99
ATOM     99  S   UNL A   1      53.764  25.945  24.463  1.00  0.00     0.124 S 
ATOM    100  O   UNL A   1      54.028  24.486  24.844  1.00  0.00    -0.237 OA
ATOM    101  O   UNL A   1      53.814  26.090  22.941  1.00  0.00    -0.237 OA
ATOM    102  O   UNL A   1      54.958  26.943  25.170  1.00  0.00    -0.744 OA
ENDBRANCH  98  99
ENDBRANCH  66  91
ENDBRANCH  40  41
ENDBRANCH  33  35
ENDBRANCH  32  33
ENDBRANCH  31  32
ENDBRANCH  30  31
ENDBRANCH  29  30
ENDBRANCH   1  29
TORSDOF 22
ENDMDL
MODEL 3
REMARK VINA RESULT:     -10.1      4.885     10.344
REMARK SMILES O=C(OCCOCCOCCOC(=O)c1ccc(-c2c3nc(c(-c4c(F)cc(S(=O)(=O)[O-])cc4F)c4ccc([nH]4)c(-c4c(F)cc(S(=O)(=O)[O-])cc4F)c4nc(c(-c5c(F)cc(S(=O)(=O)[O-])cc5F)c5ccc2[nH]5)C=C4)C=C3)cc1)C1=Cc2cc(S(F)(F)(F)(F)F)ccc2O[C@H]1C(F)(F)F
REMARK SMILES IDX 8 1 7 2 6 3 5 4 4 5 3 6 2 7 1 8 81 9 82 10 96 11 83 12 95 13
REMARK SMILES IDX 84 14 94 15 85 16 93 17 92 18 97 19 98 20 99 21 100 22 86 23
REMARK SMILES IDX 87 24 88 25 89 26 90 27 91 28 9 29 10 30 11 31 12 32 13 33
REMARK SMILES IDX 14 34 15 35 16 36 80 37 17 38 79 39 18 40 19 41 20 42 73 43
REMARK SMILES IDX 21 44 78 45 72 46 74 47 22 48 77 49 71 50 70 51 23 53 57 54
REMARK SMILES IDX 36 55 56 56 37 57 40 58 55 59 75 60 38 61 39 62 54 64 76 65
REMARK SMILES IDX 41 66 24 67 25 68 34 69 26 70 27 71 33 72 35 73 28 74 29 75
REMARK SMILES IDX 30 76 31 77 32 78 58 79 59 80 68 81 60 82 61 83 67 84 69 85
REMARK SMILES IDX 62 86 63 87 64 88 65 89 66 90 42 91 43 92 52 93 44 94 45 95
REMARK SMILES IDX 51 96 53 97 46 98 47 99 48 100 49 101 50 102
REMARK H PARENT 74 52 40 63
REMARK Flexibility Score: inf
ROOT
ATOM      1  C   UNL A   1      40.826  21.224  26.364  1.00  0.00     0.188 C 
ENDROOT
BRANCH   1   2
ATOM      2  C   UNL A   1      39.513  21.948  26.121  1.00  0.00     0.188 C 
BRANCH   2   3
ATOM      3  O   UNL A   1      38.504  21.003  25.798  1.00  0.00    -0.376 OA
BRANCH   3   4
ATOM      4  C   UNL A   1      37.467  21.646  25.071  1.00  0.00     0.202 C 
BRANCH   4   5
ATOM      5  C   UNL A   1      36.123  21.080  25.499  1.00  0.00     0.261 C 
BRANCH   5   6
ATOM      6  O   UNL A   1      35.143  21.394  24.520  1.00  0.00    -0.460 OA
BRANCH   6   7
ATOM      7  C   UNL A   1      33.815  21.702  24.918  1.00  0.00     0.338 C 
ATOM      8  O   UNL A   1      33.603  22.281  26.029  1.00  0.00    -0.246 OA
BRANCH   7   9
ATOM      9  C   UNL A   1      32.648  21.338  24.016  1.00  0.00     0.087 C 
ATOM     10  C   UNL A   1      31.973  22.313  23.350  1.00  0.00     0.027 C 
ATOM     11  C   UNL A   1      32.234  19.884  23.857  1.00  0.00     0.316 C 
ATOM     12  C   UNL A   1      32.386  23.767  23.509  1.00  0.00     0.019 A 
ATOM     13  O   UNL A   1      34.653  23.061  23.413  1.00  0.00    -0.475 OA
ATOM     14  C   UNL A   1      31.413  24.733  23.708  1.00  0.00     0.036 A 
ATOM     15  C   UNL A   1      33.674  24.087  23.456  1.00  0.00     0.128 A 
ATOM     16  C   UNL A   1      31.881  26.059  23.550  1.00  0.00     0.107 A 
ATOM     17  C   UNL A   1      34.067  25.404  23.442  1.00  0.00     0.048 A 
ATOM     18  C   UNL A   1      33.152  26.413  23.575  1.00  0.00     0.028 A 
BRANCH  11  19
ATOM     19  C   UNL A   1      33.142  19.004  24.700  1.00  0.00     0.430 C 
ATOM     20  F   UNL A   1      32.657  17.766  24.731  1.00  0.00    -0.167 F 
ATOM     21  F   UNL A   1      34.362  18.989  24.169  1.00  0.00    -0.167 F 
ATOM     22  F   UNL A   1      33.205  19.488  25.938  1.00  0.00    -0.167 F 
ENDBRANCH  11  19
BRANCH  16  23
ATOM     23  S   UNL A   1      30.649  27.362  23.297  1.00  0.00     0.310 S 
ATOM     24  F   UNL A   1      29.449  26.327  23.362  1.00  0.00    -0.094 F 
ATOM     25  F   UNL A   1      30.714  27.083  21.748  1.00  0.00    -0.094 F 
ATOM     26  F   UNL A   1      29.592  28.480  23.080  1.00  0.00    -0.094 F 
ATOM     27  F   UNL A   1      30.494  27.529  24.859  1.00  0.00    -0.094 F 
ATOM     28  F   UNL A   1      31.638  26.152  23.539  1.00  0.00    -0.094 F 
ENDBRANCH  16  23
ENDBRANCH   7   9
ENDBRANCH   6   7
ENDBRANCH   5   6
ENDBRANCH   4   5
ENDBRANCH   3   4
ENDBRANCH   2   3
ENDBRANCH   1   2
BRANCH   1  29
ATOM     29  O   UNL A   1      41.808  21.708  25.459  1.00  0.00    -0.376 OA
BRANCH  29  30
ATOM     30  C   UNL A   1      43.028  21.918  26.154  1.00  0.00     0.202 C 
BRANCH  30  31
ATOM     31  C   UNL A   1      43.017  23.298  26.791  1.00  0.00     0.261 C 
BRANCH  31  32
ATOM     32  O   UNL A   1      42.098  24.132  26.099  1.00  0.00    -0.460 OA
BRANCH  32  33
ATOM     33  C   UNL A   1      42.302  25.536  26.061  1.00  0.00     0.338 C 
ATOM     34  O   UNL A   1      42.692  26.093  24.987  1.00  0.00    -0.246 OA
BRANCH  33  35
ATOM     35  C   UNL A   1      42.055  26.373  27.305  1.00  0.00     0.060 A 
ATOM     36  C   UNL A   1      41.152  25.926  28.256  1.00  0.00     0.016 A 
ATOM     37  C   UNL A   1      42.707  27.520  27.459  1.00  0.00     0.016 A 
ATOM     38  C   UNL A   1      40.787  26.909  29.206  1.00  0.00     0.010 A 
ATOM     39  C   UNL A   1      42.390  28.371  28.490  1.00  0.00     0.010 A 
ATOM     40  C   UNL A   1      41.464  28.020  29.434  1.00  0.00    -0.014 A 
BRANCH  40  41
ATOM     41  C   UNL A   1      41.229  28.862  30.676  1.00  0.00     0.031 A 
ATOM     42  C   UNL A   1      42.071  28.667  31.771  1.00  0.00     0.074 A 
ATOM     43  C   UNL A   1      40.191  29.779  30.652  1.00  0.00     0.049 A 
ATOM     44  N   UNL A   1      42.060  29.320  32.934  1.00  0.00    -0.248 NA
ATOM     45  C   UNL A   1      43.153  27.670  31.812  1.00  0.00     0.031 C 
ATOM     46  C   UNL A   1      39.341  29.988  29.549  1.00  0.00     0.029 A 
ATOM     47  N   UNL A   1      39.795  30.634  31.657  1.00  0.00    -0.354 N 
ATOM     48  C   UNL A   1      43.033  28.866  33.728  1.00  0.00     0.074 A 
ATOM     49  C   UNL A   1      43.745  27.794  33.020  1.00  0.00     0.031 C 
ATOM     50  C   UNL A   1      38.439  30.946  29.886  1.00  0.00     0.029 A 
ATOM     51  C   UNL A   1      38.710  31.353  31.207  1.00  0.00     0.049 A 
ATOM     52  H   UNL A   1      40.215  30.718  32.543  1.00  0.00     0.167 HD
ATOM     53  C   UNL A   1      43.353  29.305  35.013  1.00  0.00     0.037 A 
ATOM     54  C   UNL A   1      37.984  32.312  31.894  1.00  0.00     0.037 A 
ATOM     55  C   UNL A   1      42.654  30.296  35.684  1.00  0.00     0.049 A 
ATOM     56  C   UNL A   1      38.269  32.712  33.203  1.00  0.00     0.074 A 
ATOM     57  C   UNL A   1      42.969  30.756  36.977  1.00  0.00     0.029 A 
ATOM     58  N   UNL A   1      41.553  30.998  35.244  1.00  0.00    -0.354 N 
ATOM     59  N   UNL A   1      39.265  32.285  33.980  1.00  0.00    -0.248 NA
ATOM     60  C   UNL A   1      37.487  33.704  33.951  1.00  0.00     0.031 C 
ATOM     61  C   UNL A   1      42.067  31.715  37.316  1.00  0.00     0.029 A 
ATOM     62  C   UNL A   1      41.172  31.869  36.239  1.00  0.00     0.049 A 
ATOM     63  H   UNL A   1      41.116  30.895  34.368  1.00  0.00     0.167 HD
ATOM     64  C   UNL A   1      39.227  32.910  35.158  1.00  0.00     0.074 A 
ATOM     65  C   UNL A   1      38.078  33.826  35.160  1.00  0.00     0.031 C 
ATOM     66  C   UNL A   1      40.107  32.756  36.232  1.00  0.00     0.037 A 
BRANCH  53  67
ATOM     67  C   UNL A   1      44.537  28.662  35.716  1.00  0.00     0.058 A 
ATOM     68  C   UNL A   1      44.357  27.562  36.539  1.00  0.00     0.135 A 
ATOM     69  C   UNL A   1      45.743  29.178  35.509  1.00  0.00     0.135 A 
ATOM     70  F   UNL A   1      43.228  26.862  36.579  1.00  0.00    -0.206 F 
ATOM     71  C   UNL A   1      45.486  27.250  37.334  1.00  0.00     0.059 A 
ATOM     72  C   UNL A   1      46.828  28.730  36.225  1.00  0.00     0.059 A 
ATOM     73  F   UNL A   1      45.903  30.136  34.599  1.00  0.00    -0.206 F 
ATOM     74  C   UNL A   1      46.711  27.685  37.099  1.00  0.00     0.060 A 
BRANCH  74  75
ATOM     75  S   UNL A   1      48.157  26.940  37.892  1.00  0.00     0.124 S 
ATOM     76  O   UNL A   1      48.198  27.350  39.367  1.00  0.00    -0.237 OA
ATOM     77  O   UNL A   1      48.066  25.416  37.789  1.00  0.00    -0.237 OA
ATOM     78  O   UNL A   1      49.578  27.483  37.112  1.00  0.00    -0.744 OA
ENDBRANCH  74  75
ENDBRANCH  53  67
BRANCH  54  79
ATOM     79  C   UNL A   1      36.810  32.968  31.185  1.00  0.00     0.058 A 
ATOM     80  C   UNL A   1      35.512  32.567  31.449  1.00  0.00     0.135 A 
ATOM     81  C   UNL A   1      37.066  33.946  30.323  1.00  0.00     0.135 A 
ATOM     82  F   UNL A   1      35.190  31.782  32.473  1.00  0.00    -0.206 F 
ATOM     83  C   UNL A   1      34.559  33.066  30.531  1.00  0.00     0.059 A 
ATOM     84  C   UNL A   1      36.061  34.482  29.554  1.00  0.00     0.059 A 
ATOM     85  F   UNL A   1      38.307  34.410  30.203  1.00  0.00    -0.206 F 
ATOM     86  C   UNL A   1      34.763  34.089  29.721  1.00  0.00     0.060 A 
BRANCH  86  87
ATOM     87  S   UNL A   1      33.397  34.926  28.877  1.00  0.00     0.124 S 
ATOM     88  O   UNL A   1      32.745  33.962  27.884  1.00  0.00    -0.237 OA
ATOM     89  O   UNL A   1      32.360  35.375  29.908  1.00  0.00    -0.237 OA
ATOM     90  O   UNL A   1      33.997  36.290  28.038  1.00  0.00    -0.744 OA
ENDBRANCH  86  87
ENDBRANCH  54  79
BRANCH  66  91
ATOM     91  C   UNL A   1      39.882  33.613  37.467  1.00  0.00     0.058 A 
ATOM     92  C   UNL A   1      39.004  33.178  38.446  1.00  0.00     0.135 A 
ATOM     93  C   UNL A   1      40.530  34.766  37.587  1.00  0.00     0.135 A 
ATOM     94  F   UNL A   1      38.532  31.936  38.496  1.00  0.00    -0.206 F 
ATOM     95  C   UNL A   1      38.655  34.176  39.387  1.00  0.00     0.059 A 
ATOM     96  C   UNL A   1      40.233  35.633  38.610  1.00  0.00     0.059 A 
ATOM     97  F   UNL A   1      41.476  35.084  36.707  1.00  0.00    -0.206 F 
ATOM     98  C   UNL A   1      39.331  35.293  39.579  1.00  0.00     0.060 A 
BRANCH  98  99
ATOM     99  S   UNL A   1      39.079  36.320  41.048  1.00  0.00     0.124 S 
ATOM    100  O   UNL A   1      37.901  35.770  41.858  1.00  0.00    -0.237 OA
ATOM    101  O   UNL A   1      40.343  36.299  41.910  1.00  0.00    -0.237 OA
ATOM    102  O   UNL A   1      38.741  37.926  40.570  1.00  0.00    -0.744 OA
ENDBRANCH  98  99
ENDBRANCH  66  91
ENDBRANCH  40  41
ENDBRANCH  33  35
ENDBRANCH  32  33
ENDBRANCH  31  32
ENDBRANCH  30  31
ENDBRANCH  29  30
ENDBRANCH   1  29
TORSDOF 22
ENDMDL
