MODEL 1
REMARK VINA RESULT:     -10.3      0.000      0.000
REMARK SMILES Cc1cccc([C@@H](CC(F)(F)F)C(=O)OCCOCCOCCOC(=O)c2ccc(-c3c4nc(c(-c5c(F)cc(S(=O)(=O)[O-])cc5F)c5ccc([nH]5)c(-c5c(F)cc(S(=O)(=O)[O-])cc5F)c5nc(c(-c6c(F)cc(S(=O)(=O)[O-])cc6F)c6ccc3[nH]6)C=C5)C=C4)cc2)c1
REMARK SMILES IDX 20 1 19 2 18 3 17 4 16 5 15 6 13 7 14 8 7 9 6 10 1 11 2 12
REMARK SMILES IDX 3 13 93 14 4 15 5 16 8 17 9 18 10 19 11 20 12 21 21 22 22 23
REMARK SMILES IDX 23 24 24 25 25 26 26 27 27 28 28 29 92 30 29 31 91 32 30 33
REMARK SMILES IDX 31 34 32 35 85 36 33 37 90 38 84 39 86 40 34 41 89 42 83 43
REMARK SMILES IDX 82 44 35 46 69 47 48 48 68 49 49 50 52 51 67 52 87 53 50 54
REMARK SMILES IDX 51 55 66 57 88 58 53 59 36 60 37 61 46 62 38 63 39 64 45 65
REMARK SMILES IDX 47 66 40 67 41 68 42 69 43 70 44 71 70 72 71 73 80 74 72 75
REMARK SMILES IDX 73 76 79 77 81 78 74 79 75 80 76 81 77 82 78 83 54 84 55 85
REMARK SMILES IDX 64 86 56 87 57 88 63 89 65 90 58 91 59 92 60 93 61 94 62 95
REMARK H PARENT 86 45 52 56
REMARK Flexibility Score: inf
ROOT
ATOM      1  C   UNL A   1      44.401  41.118  26.117  1.00  0.00     0.188 C 
ENDROOT
BRANCH   1   2
ATOM      2  C   UNL A   1      43.123  41.527  25.352  1.00  0.00     0.188 C 
BRANCH   2   3
ATOM      3  O   UNL A   1      43.388  42.641  24.481  1.00  0.00    -0.376 OA
BRANCH   3   4
ATOM      4  C   UNL A   1      42.779  42.656  23.177  1.00  0.00     0.202 C 
BRANCH   4   5
ATOM      5  C   UNL A   1      43.645  43.173  21.961  1.00  0.00     0.261 C 
BRANCH   5   6
ATOM      6  O   UNL A   1      43.565  44.031  20.726  1.00  0.00    -0.463 OA
BRANCH   6   7
ATOM      7  C   UNL A   1      44.734  44.792  20.415  1.00  0.00     0.313 C 
ATOM      8  O   UNL A   1      45.622  44.978  21.245  1.00  0.00    -0.252 OA
BRANCH   7   9
ATOM      9  C   UNL A   1      44.942  45.489  19.013  1.00  0.00     0.138 C 
BRANCH   9  10
ATOM     10  C   UNL A   1      43.908  46.481  18.489  1.00  0.00    -0.033 A 
ATOM     11  C   UNL A   1      43.764  50.265  18.403  1.00  0.00     0.044 C 
ATOM     12  C   UNL A   1      43.345  48.841  18.223  1.00  0.00    -0.051 A 
ATOM     13  C   UNL A   1      42.231  48.509  17.449  1.00  0.00     0.003 A 
ATOM     14  C   UNL A   1      44.161  47.831  18.742  1.00  0.00     0.008 A 
ATOM     15  C   UNL A   1      41.936  47.174  17.202  1.00  0.00     0.001 A 
ATOM     16  C   UNL A   1      42.773  46.172  17.710  1.00  0.00     0.004 A 
ENDBRANCH   9  10
BRANCH   9  17
ATOM     17  C   UNL A   1      46.427  45.907  18.668  1.00  0.00     0.135 C 
BRANCH  17  18
ATOM     18  C   UNL A   1      46.927  46.142  17.252  1.00  0.00     0.390 C 
ATOM     19  F   UNL A   1      46.165  45.532  16.340  1.00  0.00    -0.171 F 
ATOM     20  F   UNL A   1      46.909  47.472  16.977  1.00  0.00    -0.171 F 
ATOM     21  F   UNL A   1      48.209  45.767  17.064  1.00  0.00    -0.171 F 
ENDBRANCH  17  18
ENDBRANCH   9  17
ENDBRANCH   7   9
ENDBRANCH   6   7
ENDBRANCH   5   6
ENDBRANCH   4   5
ENDBRANCH   3   4
ENDBRANCH   2   3
ENDBRANCH   1   2
BRANCH   1  22
ATOM     22  O   UNL A   1      44.736  39.736  26.109  1.00  0.00    -0.376 OA
BRANCH  22  23
ATOM     23  C   UNL A   1      45.608  39.271  27.140  1.00  0.00     0.202 C 
BRANCH  23  24
ATOM     24  C   UNL A   1      45.441  37.855  27.761  1.00  0.00     0.261 C 
BRANCH  24  25
ATOM     25  O   UNL A   1      44.633  36.960  26.962  1.00  0.00    -0.460 OA
BRANCH  25  26
ATOM     26  C   UNL A   1      45.301  35.880  26.453  1.00  0.00     0.338 C 
ATOM     27  O   UNL A   1      46.323  35.963  25.789  1.00  0.00    -0.246 OA
BRANCH  26  28
ATOM     28  C   UNL A   1      44.604  34.584  26.761  1.00  0.00     0.060 A 
ATOM     29  C   UNL A   1      44.297  34.310  28.063  1.00  0.00     0.016 A 
ATOM     30  C   UNL A   1      44.351  33.543  25.861  1.00  0.00     0.016 A 
ATOM     31  C   UNL A   1      44.006  32.965  28.415  1.00  0.00     0.010 A 
ATOM     32  C   UNL A   1      44.177  32.175  26.308  1.00  0.00     0.010 A 
ATOM     33  C   UNL A   1      44.162  31.820  27.659  1.00  0.00    -0.014 A 
BRANCH  33  34
ATOM     34  C   UNL A   1      44.383  30.375  28.264  1.00  0.00     0.031 A 
ATOM     35  C   UNL A   1      45.691  29.701  27.992  1.00  0.00     0.074 A 
ATOM     36  C   UNL A   1      43.552  29.464  28.940  1.00  0.00     0.049 A 
ATOM     37  N   UNL A   1      45.838  28.413  28.050  1.00  0.00    -0.248 NA
ATOM     38  C   UNL A   1      46.899  30.388  27.564  1.00  0.00     0.031 C 
ATOM     39  C   UNL A   1      43.925  28.430  29.937  1.00  0.00     0.029 A 
ATOM     40  N   UNL A   1      42.196  29.149  28.825  1.00  0.00    -0.354 N 
ATOM     41  C   UNL A   1      47.160  28.119  27.922  1.00  0.00     0.074 A 
ATOM     42  C   UNL A   1      47.787  29.387  27.602  1.00  0.00     0.031 C 
ATOM     43  C   UNL A   1      42.856  27.690  30.316  1.00  0.00     0.029 A 
ATOM     44  C   UNL A   1      41.653  28.131  29.623  1.00  0.00     0.049 A 
ATOM     45  H   UNL A   1      41.625  29.636  28.188  1.00  0.00     0.167 HD
ATOM     46  C   UNL A   1      47.619  26.863  28.180  1.00  0.00     0.037 A 
ATOM     47  C   UNL A   1      40.520  27.420  29.266  1.00  0.00     0.037 A 
ATOM     48  C   UNL A   1      46.589  25.887  28.552  1.00  0.00     0.049 A 
ATOM     49  C   UNL A   1      40.958  26.187  28.503  1.00  0.00     0.074 A 
ATOM     50  C   UNL A   1      46.239  25.238  29.728  1.00  0.00     0.029 A 
ATOM     51  N   UNL A   1      45.574  25.576  27.652  1.00  0.00    -0.354 N 
ATOM     52  N   UNL A   1      42.158  25.690  28.616  1.00  0.00    -0.248 NA
ATOM     53  C   UNL A   1      40.161  25.483  27.492  1.00  0.00     0.031 C 
ATOM     54  C   UNL A   1      45.053  24.488  29.507  1.00  0.00     0.029 A 
ATOM     55  C   UNL A   1      44.668  24.676  28.196  1.00  0.00     0.049 A 
ATOM     56  H   UNL A   1      45.506  25.947  26.742  1.00  0.00     0.167 HD
ATOM     57  C   UNL A   1      42.346  24.763  27.630  1.00  0.00     0.074 A 
ATOM     58  C   UNL A   1      41.068  24.649  26.960  1.00  0.00     0.031 C 
ATOM     59  C   UNL A   1      43.554  24.182  27.404  1.00  0.00     0.037 A 
BRANCH  46  60
ATOM     60  C   UNL A   1      49.103  26.660  28.303  1.00  0.00     0.058 A 
ATOM     61  C   UNL A   1      49.798  26.947  29.491  1.00  0.00     0.135 A 
ATOM     62  C   UNL A   1      49.900  26.309  27.196  1.00  0.00     0.135 A 
ATOM     63  F   UNL A   1      49.154  27.226  30.631  1.00  0.00    -0.206 F 
ATOM     64  C   UNL A   1      51.188  27.027  29.538  1.00  0.00     0.059 A 
ATOM     65  C   UNL A   1      51.288  26.442  27.201  1.00  0.00     0.059 A 
ATOM     66  F   UNL A   1      49.332  25.898  26.050  1.00  0.00    -0.206 F 
ATOM     67  C   UNL A   1      51.922  26.830  28.375  1.00  0.00     0.060 A 
BRANCH  67  68
ATOM     68  S   UNL A   1      53.686  27.208  28.381  1.00  0.00     0.124 S 
ATOM     69  O   UNL A   1      53.865  27.909  27.113  1.00  0.00    -0.237 OA
ATOM     70  O   UNL A   1      53.816  28.024  29.582  1.00  0.00    -0.237 OA
ATOM     71  O   UNL A   1      54.309  25.887  28.444  1.00  0.00    -0.744 OA
ENDBRANCH  67  68
ENDBRANCH  46  60
BRANCH  47  72
ATOM     72  C   UNL A   1      39.223  28.200  29.011  1.00  0.00     0.058 A 
ATOM     73  C   UNL A   1      38.305  28.277  30.086  1.00  0.00     0.135 A 
ATOM     74  C   UNL A   1      38.957  29.098  27.948  1.00  0.00     0.135 A 
ATOM     75  F   UNL A   1      38.389  27.395  31.094  1.00  0.00    -0.206 F 
ATOM     76  C   UNL A   1      37.370  29.320  30.223  1.00  0.00     0.059 A 
ATOM     77  C   UNL A   1      38.055  30.176  28.082  1.00  0.00     0.059 A 
ATOM     78  F   UNL A   1      39.670  29.080  26.815  1.00  0.00    -0.206 F 
ATOM     79  C   UNL A   1      37.318  30.320  29.257  1.00  0.00     0.060 A 
BRANCH  79  80
ATOM     80  S   UNL A   1      36.569  31.946  29.637  1.00  0.00     0.124 S 
ATOM     81  O   UNL A   1      35.179  31.716  29.465  1.00  0.00    -0.237 OA
ATOM     82  O   UNL A   1      37.028  32.197  31.020  1.00  0.00    -0.237 OA
ATOM     83  O   UNL A   1      37.226  32.813  28.638  1.00  0.00    -0.744 OA
ENDBRANCH  79  80
ENDBRANCH  47  72
BRANCH  59  84
ATOM     84  C   UNL A   1      43.740  23.025  26.471  1.00  0.00     0.058 A 
ATOM     85  C   UNL A   1      43.243  21.741  26.766  1.00  0.00     0.135 A 
ATOM     86  C   UNL A   1      44.580  23.127  25.347  1.00  0.00     0.135 A 
ATOM     87  F   UNL A   1      42.486  21.524  27.853  1.00  0.00    -0.206 F 
ATOM     88  C   UNL A   1      43.538  20.632  25.979  1.00  0.00     0.059 A 
ATOM     89  C   UNL A   1      44.930  22.022  24.575  1.00  0.00     0.059 A 
ATOM     90  F   UNL A   1      45.089  24.310  24.969  1.00  0.00    -0.206 F 
ATOM     91  C   UNL A   1      44.394  20.778  24.891  1.00  0.00     0.060 A 
BRANCH  91  92
ATOM     92  S   UNL A   1      44.858  19.321  23.938  1.00  0.00     0.124 S 
ATOM     93  O   UNL A   1      46.308  19.273  24.110  1.00  0.00    -0.237 OA
ATOM     94  O   UNL A   1      44.109  18.274  24.625  1.00  0.00    -0.237 OA
ATOM     95  O   UNL A   1      44.406  19.642  22.589  1.00  0.00    -0.744 OA
ENDBRANCH  91  92
ENDBRANCH  59  84
ENDBRANCH  33  34
ENDBRANCH  26  28
ENDBRANCH  25  26
ENDBRANCH  24  25
ENDBRANCH  23  24
ENDBRANCH  22  23
ENDBRANCH   1  22
TORSDOF 23
ENDMDL
MODEL 2
REMARK VINA RESULT:     -10.0      6.211     15.888
REMARK SMILES Cc1cccc([C@@H](CC(F)(F)F)C(=O)OCCOCCOCCOC(=O)c2ccc(-c3c4nc(c(-c5c(F)cc(S(=O)(=O)[O-])cc5F)c5ccc([nH]5)c(-c5c(F)cc(S(=O)(=O)[O-])cc5F)c5nc(c(-c6c(F)cc(S(=O)(=O)[O-])cc6F)c6ccc3[nH]6)C=C5)C=C4)cc2)c1
REMARK SMILES IDX 20 1 19 2 18 3 17 4 16 5 15 6 13 7 14 8 7 9 6 10 1 11 2 12
REMARK SMILES IDX 3 13 93 14 4 15 5 16 8 17 9 18 10 19 11 20 12 21 21 22 22 23
REMARK SMILES IDX 23 24 24 25 25 26 26 27 27 28 28 29 92 30 29 31 91 32 30 33
REMARK SMILES IDX 31 34 32 35 85 36 33 37 90 38 84 39 86 40 34 41 89 42 83 43
REMARK SMILES IDX 82 44 35 46 69 47 48 48 68 49 49 50 52 51 67 52 87 53 50 54
REMARK SMILES IDX 51 55 66 57 88 58 53 59 36 60 37 61 46 62 38 63 39 64 45 65
REMARK SMILES IDX 47 66 40 67 41 68 42 69 43 70 44 71 70 72 71 73 80 74 72 75
REMARK SMILES IDX 73 76 79 77 81 78 74 79 75 80 76 81 77 82 78 83 54 84 55 85
REMARK SMILES IDX 64 86 56 87 57 88 63 89 65 90 58 91 59 92 60 93 61 94 62 95
REMARK H PARENT 86 45 52 56
REMARK Flexibility Score: inf
ROOT
ATOM      1  C   UNL A   1      38.743  21.599  25.849  1.00  0.00     0.188 C 
ENDROOT
BRANCH   1   2
ATOM      2  C   UNL A   1      38.983  23.028  26.385  1.00  0.00     0.188 C 
BRANCH   2   3
ATOM      3  O   UNL A   1      37.768  23.797  26.336  1.00  0.00    -0.376 OA
BRANCH   3   4
ATOM      4  C   UNL A   1      36.670  23.302  25.549  1.00  0.00     0.202 C 
BRANCH   4   5
ATOM      5  C   UNL A   1      35.454  24.275  25.278  1.00  0.00     0.261 C 
BRANCH   5   6
ATOM      6  O   UNL A   1      34.336  25.001  25.979  1.00  0.00    -0.463 OA
BRANCH   6   7
ATOM      7  C   UNL A   1      33.103  25.092  25.263  1.00  0.00     0.313 C 
ATOM      8  O   UNL A   1      32.464  24.089  24.948  1.00  0.00    -0.252 OA
BRANCH   7   9
ATOM      9  C   UNL A   1      32.504  26.472  24.780  1.00  0.00     0.138 C 
BRANCH   9  10
ATOM     10  C   UNL A   1      32.855  27.759  25.520  1.00  0.00    -0.033 A 
ATOM     11  C   UNL A   1      31.128  31.116  25.832  1.00  0.00     0.044 C 
ATOM     12  C   UNL A   1      32.162  30.050  26.002  1.00  0.00    -0.051 A 
ATOM     13  C   UNL A   1      33.196  30.188  26.930  1.00  0.00     0.003 A 
ATOM     14  C   UNL A   1      32.008  28.849  25.302  1.00  0.00     0.008 A 
ATOM     15  C   UNL A   1      34.072  29.132  27.150  1.00  0.00     0.001 A 
ATOM     16  C   UNL A   1      33.895  27.928  26.457  1.00  0.00     0.004 A 
ENDBRANCH   9  10
BRANCH   9  17
ATOM     17  C   UNL A   1      32.406  26.666  23.215  1.00  0.00     0.135 C 
BRANCH  17  18
ATOM     18  C   UNL A   1      31.815  25.628  22.274  1.00  0.00     0.390 C 
ATOM     19  F   UNL A   1      30.682  25.104  22.749  1.00  0.00    -0.171 F 
ATOM     20  F   UNL A   1      31.530  26.207  21.078  1.00  0.00    -0.171 F 
ATOM     21  F   UNL A   1      32.666  24.624  21.978  1.00  0.00    -0.171 F 
ENDBRANCH  17  18
ENDBRANCH   9  17
ENDBRANCH   7   9
ENDBRANCH   6   7
ENDBRANCH   5   6
ENDBRANCH   4   5
ENDBRANCH   3   4
ENDBRANCH   2   3
ENDBRANCH   1   2
BRANCH   1  22
ATOM     22  O   UNL A   1      39.834  20.692  25.938  1.00  0.00    -0.376 OA
BRANCH  22  23
ATOM     23  C   UNL A   1      40.964  21.105  26.709  1.00  0.00     0.202 C 
BRANCH  23  24
ATOM     24  C   UNL A   1      42.332  21.410  26.036  1.00  0.00     0.261 C 
BRANCH  24  25
ATOM     25  O   UNL A   1      42.288  22.511  25.099  1.00  0.00    -0.460 OA
BRANCH  25  26
ATOM     26  C   UNL A   1      43.111  23.560  25.404  1.00  0.00     0.338 C 
ATOM     27  O   UNL A   1      44.298  23.600  25.118  1.00  0.00    -0.246 OA
BRANCH  26  28
ATOM     28  C   UNL A   1      42.399  24.635  26.179  1.00  0.00     0.060 A 
ATOM     29  C   UNL A   1      42.365  25.895  25.652  1.00  0.00     0.016 A 
ATOM     30  C   UNL A   1      41.872  24.518  27.470  1.00  0.00     0.016 A 
ATOM     31  C   UNL A   1      42.053  26.976  26.519  1.00  0.00     0.010 A 
ATOM     32  C   UNL A   1      41.694  25.673  28.327  1.00  0.00     0.010 A 
ATOM     33  C   UNL A   1      41.948  26.978  27.896  1.00  0.00    -0.014 A 
BRANCH  33  34
ATOM     34  C   UNL A   1      42.182  28.250  28.807  1.00  0.00     0.031 A 
ATOM     35  C   UNL A   1      40.988  29.081  29.160  1.00  0.00     0.074 A 
ATOM     36  C   UNL A   1      43.328  28.897  29.301  1.00  0.00     0.049 A 
ATOM     37  N   UNL A   1      41.084  30.325  29.516  1.00  0.00    -0.248 NA
ATOM     38  C   UNL A   1      39.610  28.624  29.071  1.00  0.00     0.031 C 
ATOM     39  C   UNL A   1      43.483  29.690  30.546  1.00  0.00     0.029 A 
ATOM     40  N   UNL A   1      44.603  29.111  28.770  1.00  0.00    -0.354 N 
ATOM     41  C   UNL A   1      39.862  30.754  29.931  1.00  0.00     0.074 A 
ATOM     42  C   UNL A   1      38.963  29.659  29.619  1.00  0.00     0.031 C 
ATOM     43  C   UNL A   1      44.724  30.222  30.651  1.00  0.00     0.029 A 
ATOM     44  C   UNL A   1      45.539  29.857  29.500  1.00  0.00     0.049 A 
ATOM     45  H   UNL A   1      44.841  28.743  27.889  1.00  0.00     0.167 HD
ATOM     46  C   UNL A   1      39.729  31.947  30.576  1.00  0.00     0.037 A 
ATOM     47  C   UNL A   1      46.591  30.532  28.905  1.00  0.00     0.037 A 
ATOM     48  C   UNL A   1      40.970  32.712  30.734  1.00  0.00     0.049 A 
ATOM     49  C   UNL A   1      46.136  31.945  28.604  1.00  0.00     0.074 A 
ATOM     50  C   UNL A   1      41.792  33.028  31.807  1.00  0.00     0.029 A 
ATOM     51  N   UNL A   1      41.667  33.141  29.607  1.00  0.00    -0.354 N 
ATOM     52  N   UNL A   1      45.141  32.503  29.236  1.00  0.00    -0.248 NA
ATOM     53  C   UNL A   1      46.658  32.799  27.531  1.00  0.00     0.031 C 
ATOM     54  C   UNL A   1      42.945  33.703  31.323  1.00  0.00     0.029 A 
ATOM     55  C   UNL A   1      42.837  33.802  29.952  1.00  0.00     0.049 A 
ATOM     56  H   UNL A   1      41.367  32.993  28.681  1.00  0.00     0.167 HD
ATOM     57  C   UNL A   1      44.793  33.651  28.583  1.00  0.00     0.074 A 
ATOM     58  C   UNL A   1      45.777  33.811  27.533  1.00  0.00     0.031 C 
ATOM     59  C   UNL A   1      43.691  34.372  28.924  1.00  0.00     0.037 A 
BRANCH  46  60
ATOM     60  C   UNL A   1      38.424  32.242  31.261  1.00  0.00     0.058 A 
ATOM     61  C   UNL A   1      37.409  32.990  30.640  1.00  0.00     0.135 A 
ATOM     62  C   UNL A   1      38.202  31.910  32.611  1.00  0.00     0.135 A 
ATOM     63  F   UNL A   1      37.467  33.310  29.341  1.00  0.00    -0.206 F 
ATOM     64  C   UNL A   1      36.323  33.500  31.347  1.00  0.00     0.059 A 
ATOM     65  C   UNL A   1      37.158  32.459  33.355  1.00  0.00     0.059 A 
ATOM     66  F   UNL A   1      39.050  31.095  33.262  1.00  0.00    -0.206 F 
ATOM     67  C   UNL A   1      36.235  33.278  32.716  1.00  0.00     0.060 A 
BRANCH  67  68
ATOM     68  S   UNL A   1      34.987  34.169  33.667  1.00  0.00     0.124 S 
ATOM     69  O   UNL A   1      35.278  35.563  33.343  1.00  0.00    -0.237 OA
ATOM     70  O   UNL A   1      33.748  33.635  33.116  1.00  0.00    -0.237 OA
ATOM     71  O   UNL A   1      35.284  33.786  35.045  1.00  0.00    -0.744 OA
ENDBRANCH  67  68
ENDBRANCH  46  60
BRANCH  47  72
ATOM     72  C   UNL A   1      47.582  29.726  28.053  1.00  0.00     0.058 A 
ATOM     73  C   UNL A   1      48.606  29.039  28.749  1.00  0.00     0.135 A 
ATOM     74  C   UNL A   1      47.434  29.339  26.700  1.00  0.00     0.135 A 
ATOM     75  F   UNL A   1      48.916  29.405  30.004  1.00  0.00    -0.206 F 
ATOM     76  C   UNL A   1      49.246  27.895  28.240  1.00  0.00     0.059 A 
ATOM     77  C   UNL A   1      48.033  28.170  26.181  1.00  0.00     0.059 A 
ATOM     78  F   UNL A   1      46.580  29.964  25.878  1.00  0.00    -0.206 F 
ATOM     79  C   UNL A   1      48.882  27.412  26.986  1.00  0.00     0.060 A 
BRANCH  79  80
ATOM     80  S   UNL A   1      49.231  25.678  26.516  1.00  0.00     0.124 S 
ATOM     81  O   UNL A   1      48.963  24.955  27.707  1.00  0.00    -0.237 OA
ATOM     82  O   UNL A   1      48.300  25.457  25.388  1.00  0.00    -0.237 OA
ATOM     83  O   UNL A   1      50.644  25.765  26.096  1.00  0.00    -0.744 OA
ENDBRANCH  79  80
ENDBRANCH  47  72
BRANCH  59  84
ATOM     84  C   UNL A   1      43.402  35.731  28.364  1.00  0.00     0.058 A 
ATOM     85  C   UNL A   1      43.512  36.899  29.142  1.00  0.00     0.135 A 
ATOM     86  C   UNL A   1      42.826  35.882  27.088  1.00  0.00     0.135 A 
ATOM     87  F   UNL A   1      43.986  36.853  30.397  1.00  0.00    -0.206 F 
ATOM     88  C   UNL A   1      43.102  38.144  28.674  1.00  0.00     0.059 A 
ATOM     89  C   UNL A   1      42.364  37.109  26.619  1.00  0.00     0.059 A 
ATOM     90  F   UNL A   1      42.695  34.834  26.261  1.00  0.00    -0.206 F 
ATOM     91  C   UNL A   1      42.517  38.239  27.416  1.00  0.00     0.060 A 
BRANCH  91  92
ATOM     92  S   UNL A   1      41.892  39.834  26.857  1.00  0.00     0.124 S 
ATOM     93  O   UNL A   1      41.507  40.484  28.107  1.00  0.00    -0.237 OA
ATOM     94  O   UNL A   1      43.069  40.391  26.196  1.00  0.00    -0.237 OA
ATOM     95  O   UNL A   1      40.784  39.475  25.979  1.00  0.00    -0.744 OA
ENDBRANCH  91  92
ENDBRANCH  59  84
ENDBRANCH  33  34
ENDBRANCH  26  28
ENDBRANCH  25  26
ENDBRANCH  24  25
ENDBRANCH  23  24
ENDBRANCH  22  23
ENDBRANCH   1  22
TORSDOF 23
ENDMDL
MODEL 3
REMARK VINA RESULT:      -9.8      6.061     17.149
REMARK SMILES Cc1cccc([C@@H](CC(F)(F)F)C(=O)OCCOCCOCCOC(=O)c2ccc(-c3c4nc(c(-c5c(F)cc(S(=O)(=O)[O-])cc5F)c5ccc([nH]5)c(-c5c(F)cc(S(=O)(=O)[O-])cc5F)c5nc(c(-c6c(F)cc(S(=O)(=O)[O-])cc6F)c6ccc3[nH]6)C=C5)C=C4)cc2)c1
REMARK SMILES IDX 20 1 19 2 18 3 17 4 16 5 15 6 13 7 14 8 7 9 6 10 1 11 2 12
REMARK SMILES IDX 3 13 93 14 4 15 5 16 8 17 9 18 10 19 11 20 12 21 21 22 22 23
REMARK SMILES IDX 23 24 24 25 25 26 26 27 27 28 28 29 92 30 29 31 91 32 30 33
REMARK SMILES IDX 31 34 32 35 85 36 33 37 90 38 84 39 86 40 34 41 89 42 83 43
REMARK SMILES IDX 82 44 35 46 69 47 48 48 68 49 49 50 52 51 67 52 87 53 50 54
REMARK SMILES IDX 51 55 66 57 88 58 53 59 36 60 37 61 46 62 38 63 39 64 45 65
REMARK SMILES IDX 47 66 40 67 41 68 42 69 43 70 44 71 70 72 71 73 80 74 72 75
REMARK SMILES IDX 73 76 79 77 81 78 74 79 75 80 76 81 77 82 78 83 54 84 55 85
REMARK SMILES IDX 64 86 56 87 57 88 63 89 65 90 58 91 59 92 60 93 61 94 62 95
REMARK H PARENT 86 45 52 56
REMARK Flexibility Score: inf
ROOT
ATOM      1  C   UNL A   1      38.280  22.110  25.477  1.00  0.00     0.188 C 
ENDROOT
BRANCH   1   2
ATOM      2  C   UNL A   1      38.181  23.533  26.069  1.00  0.00     0.188 C 
BRANCH   2   3
ATOM      3  O   UNL A   1      36.805  23.914  26.246  1.00  0.00    -0.376 OA
BRANCH   3   4
ATOM      4  C   UNL A   1      35.784  23.130  25.600  1.00  0.00     0.202 C 
BRANCH   4   5
ATOM      5  C   UNL A   1      35.180  23.674  24.244  1.00  0.00     0.261 C 
BRANCH   5   6
ATOM      6  O   UNL A   1      34.783  23.233  22.860  1.00  0.00    -0.463 OA
BRANCH   6   7
ATOM      7  C   UNL A   1      33.478  23.626  22.429  1.00  0.00     0.313 C 
ATOM      8  O   UNL A   1      33.300  24.636  21.751  1.00  0.00    -0.252 OA
BRANCH   7   9
ATOM      9  C   UNL A   1      32.177  22.828  22.834  1.00  0.00     0.138 C 
BRANCH   9  10
ATOM     10  C   UNL A   1      32.293  21.467  23.514  1.00  0.00    -0.033 A 
ATOM     11  C   UNL A   1      32.410  17.918  22.196  1.00  0.00     0.044 C 
ATOM     12  C   UNL A   1      32.383  19.052  23.169  1.00  0.00    -0.051 A 
ATOM     13  C   UNL A   1      32.669  18.850  24.521  1.00  0.00     0.003 A 
ATOM     14  C   UNL A   1      32.188  20.349  22.683  1.00  0.00     0.008 A 
ATOM     15  C   UNL A   1      32.753  19.939  25.379  1.00  0.00     0.001 A 
ATOM     16  C   UNL A   1      32.576  21.235  24.876  1.00  0.00     0.004 A 
ENDBRANCH   9  10
BRANCH   9  17
ATOM     17  C   UNL A   1      30.986  23.700  23.400  1.00  0.00     0.135 C 
BRANCH  17  18
ATOM     18  C   UNL A   1      31.023  24.398  24.750  1.00  0.00     0.390 C 
ATOM     19  F   UNL A   1      32.272  24.612  25.173  1.00  0.00    -0.171 F 
ATOM     20  F   UNL A   1      30.410  25.607  24.656  1.00  0.00    -0.171 F 
ATOM     21  F   UNL A   1      30.347  23.741  25.715  1.00  0.00    -0.171 F 
ENDBRANCH  17  18
ENDBRANCH   9  17
ENDBRANCH   7   9
ENDBRANCH   6   7
ENDBRANCH   5   6
ENDBRANCH   4   5
ENDBRANCH   3   4
ENDBRANCH   2   3
ENDBRANCH   1   2
BRANCH   1  22
ATOM     22  O   UNL A   1      39.107  21.185  26.171  1.00  0.00    -0.376 OA
BRANCH  22  23
ATOM     23  C   UNL A   1      40.213  21.720  26.900  1.00  0.00     0.202 C 
BRANCH  23  24
ATOM     24  C   UNL A   1      41.625  21.829  26.259  1.00  0.00     0.261 C 
BRANCH  24  25
ATOM     25  O   UNL A   1      41.874  23.098  25.609  1.00  0.00    -0.460 OA
BRANCH  25  26
ATOM     26  C   UNL A   1      42.786  23.898  26.240  1.00  0.00     0.338 C 
ATOM     27  O   UNL A   1      43.984  23.663  26.281  1.00  0.00    -0.246 OA
BRANCH  26  28
ATOM     28  C   UNL A   1      42.138  25.072  26.922  1.00  0.00     0.060 A 
ATOM     29  C   UNL A   1      42.184  26.286  26.298  1.00  0.00     0.016 A 
ATOM     30  C   UNL A   1      41.599  25.088  28.213  1.00  0.00     0.016 A 
ATOM     31  C   UNL A   1      41.936  27.449  27.076  1.00  0.00     0.010 A 
ATOM     32  C   UNL A   1      41.487  26.316  28.976  1.00  0.00     0.010 A 
ATOM     33  C   UNL A   1      41.824  27.565  28.446  1.00  0.00    -0.014 A 
BRANCH  33  34
ATOM     34  C   UNL A   1      42.131  28.887  29.258  1.00  0.00     0.031 A 
ATOM     35  C   UNL A   1      41.020  29.876  29.423  1.00  0.00     0.074 A 
ATOM     36  C   UNL A   1      43.301  29.451  29.798  1.00  0.00     0.049 A 
ATOM     37  N   UNL A   1      41.233  31.131  29.673  1.00  0.00    -0.248 NA
ATOM     38  C   UNL A   1      39.609  29.567  29.247  1.00  0.00     0.031 C 
ATOM     39  C   UNL A   1      43.447  30.341  30.975  1.00  0.00     0.029 A 
ATOM     40  N   UNL A   1      44.632  29.469  29.370  1.00  0.00    -0.354 N 
ATOM     41  C   UNL A   1      40.041  31.732  29.933  1.00  0.00     0.074 A 
ATOM     42  C   UNL A   1      39.047  30.717  29.638  1.00  0.00     0.031 C 
ATOM     43  C   UNL A   1      44.729  30.741  31.148  1.00  0.00     0.029 A 
ATOM     44  C   UNL A   1      45.587  30.175  30.115  1.00  0.00     0.049 A 
ATOM     45  H   UNL A   1      44.897  28.991  28.551  1.00  0.00     0.167 HD
ATOM     46  C   UNL A   1      39.997  32.990  30.453  1.00  0.00     0.037 A 
ATOM     47  C   UNL A   1      46.757  30.668  29.562  1.00  0.00     0.037 A 
ATOM     48  C   UNL A   1      41.303  33.625  30.657  1.00  0.00     0.049 A 
ATOM     49  C   UNL A   1      46.499  32.085  29.096  1.00  0.00     0.074 A 
ATOM     50  C   UNL A   1      42.065  33.954  31.770  1.00  0.00     0.029 A 
ATOM     51  N   UNL A   1      42.136  33.861  29.567  1.00  0.00    -0.354 N 
ATOM     52  N   UNL A   1      45.529  32.809  29.579  1.00  0.00    -0.248 NA
ATOM     53  C   UNL A   1      47.205  32.765  28.004  1.00  0.00     0.031 C 
ATOM     54  C   UNL A   1      43.327  34.447  31.337  1.00  0.00     0.029 A 
ATOM     55  C   UNL A   1      43.344  34.419  29.959  1.00  0.00     0.049 A 
ATOM     56  H   UNL A   1      41.899  33.656  28.633  1.00  0.00     0.167 HD
ATOM     57  C   UNL A   1      45.374  33.919  28.797  1.00  0.00     0.074 A 
ATOM     58  C   UNL A   1      46.453  33.864  27.834  1.00  0.00     0.031 C 
ATOM     59  C   UNL A   1      44.342  34.787  28.968  1.00  0.00     0.037 A 
BRANCH  46  60
ATOM     60  C   UNL A   1      38.685  33.494  30.985  1.00  0.00     0.058 A 
ATOM     61  C   UNL A   1      38.373  33.455  32.355  1.00  0.00     0.135 A 
ATOM     62  C   UNL A   1      37.643  33.900  30.130  1.00  0.00     0.135 A 
ATOM     63  F   UNL A   1      39.294  33.154  33.277  1.00  0.00    -0.206 F 
ATOM     64  C   UNL A   1      37.078  33.659  32.828  1.00  0.00     0.059 A 
ATOM     65  C   UNL A   1      36.328  34.048  30.569  1.00  0.00     0.059 A 
ATOM     66  F   UNL A   1      37.870  34.089  28.818  1.00  0.00    -0.206 F 
ATOM     67  C   UNL A   1      36.050  33.897  31.923  1.00  0.00     0.060 A 
BRANCH  67  68
ATOM     68  S   UNL A   1      34.346  33.880  32.513  1.00  0.00     0.124 S 
ATOM     69  O   UNL A   1      34.054  32.452  32.596  1.00  0.00    -0.237 OA
ATOM     70  O   UNL A   1      34.460  34.581  33.787  1.00  0.00    -0.237 OA
ATOM     71  O   UNL A   1      33.623  34.593  31.461  1.00  0.00    -0.744 OA
ENDBRANCH  67  68
ENDBRANCH  46  60
BRANCH  47  72
ATOM     72  C   UNL A   1      47.712  29.677  28.882  1.00  0.00     0.058 A 
ATOM     73  C   UNL A   1      48.685  29.063  29.708  1.00  0.00     0.135 A 
ATOM     74  C   UNL A   1      47.561  29.075  27.610  1.00  0.00     0.135 A 
ATOM     75  F   UNL A   1      48.997  29.618  30.890  1.00  0.00    -0.206 F 
ATOM     76  C   UNL A   1      49.265  27.815  29.414  1.00  0.00     0.059 A 
ATOM     77  C   UNL A   1      48.099  27.804  27.309  1.00  0.00     0.059 A 
ATOM     78  F   UNL A   1      46.757  29.597  26.674  1.00  0.00    -0.206 F 
ATOM     79  C   UNL A   1      48.892  27.148  28.251  1.00  0.00     0.060 A 
BRANCH  79  80
ATOM     80  S   UNL A   1      49.147  25.343  28.087  1.00  0.00     0.124 S 
ATOM     81  O   UNL A   1      49.990  25.030  29.185  1.00  0.00    -0.237 OA
ATOM     82  O   UNL A   1      47.766  24.817  28.145  1.00  0.00    -0.237 OA
ATOM     83  O   UNL A   1      49.750  25.252  26.742  1.00  0.00    -0.744 OA
ENDBRANCH  79  80
ENDBRANCH  47  72
BRANCH  59  84
ATOM     84  C   UNL A   1      44.263  36.107  28.264  1.00  0.00     0.058 A 
ATOM     85  C   UNL A   1      45.030  37.216  28.668  1.00  0.00     0.135 A 
ATOM     86  C   UNL A   1      43.280  36.349  27.286  1.00  0.00     0.135 A 
ATOM     87  F   UNL A   1      45.948  37.106  29.641  1.00  0.00    -0.206 F 
ATOM     88  C   UNL A   1      44.853  38.482  28.116  1.00  0.00     0.059 A 
ATOM     89  C   UNL A   1      43.052  37.617  26.756  1.00  0.00     0.059 A 
ATOM     90  F   UNL A   1      42.510  35.355  26.818  1.00  0.00    -0.206 F 
ATOM     91  C   UNL A   1      43.852  38.677  27.170  1.00  0.00     0.060 A 
BRANCH  91  92
ATOM     92  S   UNL A   1      43.556  40.338  26.536  1.00  0.00     0.124 S 
ATOM     93  O   UNL A   1      43.754  41.173  27.718  1.00  0.00    -0.237 OA
ATOM     94  O   UNL A   1      44.590  40.445  25.511  1.00  0.00    -0.237 OA
ATOM     95  O   UNL A   1      42.184  40.273  26.046  1.00  0.00    -0.744 OA
ENDBRANCH  91  92
ENDBRANCH  59  84
ENDBRANCH  33  34
ENDBRANCH  26  28
ENDBRANCH  25  26
ENDBRANCH  24  25
ENDBRANCH  23  24
ENDBRANCH  22  23
ENDBRANCH   1  22
TORSDOF 23
ENDMDL
