MODEL 1
REMARK VINA RESULT:     -11.1      0.000      0.000
REMARK SMILES O=C(OCCOCCOCCOC(=O)[C@H]1[C@H]2CC[C@H](CC2)[C@H]1C(=O)Nc1ccc(C(=O)N2CCCC2)cc1)c1ccc(-c2c3nc(c(-c4c(F)cc(S(=O)(=O)[O-])cc4F)c4ccc([nH]4)c(-c4c(F)cc(S(=O)(=O)[O-])cc4F)c4nc(c(-c5c(F)cc(S(=O)(=O)[O-])cc5F)c5ccc2[nH]5)C=C4)C=C3)cc1
REMARK SMILES IDX 7 1 6 2 5 3 4 4 3 5 2 6 1 7 39 8 40 9 104 10 41 11 103 12
REMARK SMILES IDX 42 13 43 14 44 15 97 16 45 17 102 18 96 19 98 20 46 21
REMARK SMILES IDX 101 22 95 23 94 24 47 26 81 27 60 28 80 29 61 30 64 31 79 32
REMARK SMILES IDX 99 33 62 34 63 35 78 37 100 38 65 39 48 40 49 41 58 42 50 43
REMARK SMILES IDX 51 44 57 45 59 46 52 47 53 48 54 49 55 50 56 51 82 52 83 53
REMARK SMILES IDX 92 54 84 55 85 56 91 57 93 58 86 59 87 60 88 61 89 62 90 63
REMARK SMILES IDX 66 64 67 65 76 66 68 67 69 68 75 69 77 70 70 71 71 72 72 73
REMARK SMILES IDX 73 74 74 75 8 76 9 77 10 78 11 79 12 80 13 81 14 82 15 83
REMARK SMILES IDX 16 84 22 85 21 86 17 87 19 88 20 89 18 90 23 91 24 92 25 93
REMARK SMILES IDX 26 95 27 96 38 97 28 98 37 99 29 100 30 101 31 102 32 103
REMARK SMILES IDX 33 104 36 105 34 106 35 107
REMARK H PARENT 98 25 64 36 25 94
REMARK Flexibility Score: inf
ROOT
ATOM      1  C   UNL A   1      40.722  21.683  26.744  1.00  0.00     0.188 C 
ENDROOT
BRANCH   1   2
ATOM      2  O   UNL A   1      41.622  22.011  25.690  1.00  0.00    -0.376 OA
BRANCH   2   3
ATOM      3  C   UNL A   1      42.775  22.754  26.069  1.00  0.00     0.202 C 
BRANCH   3   4
ATOM      4  C   UNL A   1      43.357  23.659  24.962  1.00  0.00     0.261 C 
BRANCH   4   5
ATOM      5  O   UNL A   1      43.308  25.074  25.272  1.00  0.00    -0.460 OA
BRANCH   5   6
ATOM      6  C   UNL A   1      43.413  25.691  26.483  1.00  0.00     0.338 C 
ATOM      7  O   UNL A   1      44.505  25.690  27.049  1.00  0.00    -0.246 OA
BRANCH   6   8
ATOM      8  C   UNL A   1      42.244  26.281  27.223  1.00  0.00     0.060 A 
ATOM      9  C   UNL A   1      41.986  27.632  27.286  1.00  0.00     0.016 A 
ATOM     10  C   UNL A   1      41.294  25.458  27.854  1.00  0.00     0.016 A 
ATOM     11  C   UNL A   1      40.896  28.148  27.963  1.00  0.00     0.010 A 
ATOM     12  C   UNL A   1      40.336  26.009  28.751  1.00  0.00     0.010 A 
ATOM     13  C   UNL A   1      40.329  27.400  28.980  1.00  0.00    -0.014 A 
BRANCH  13  14
ATOM     14  C   UNL A   1      39.895  28.251  30.380  1.00  0.00     0.031 A 
ATOM     15  C   UNL A   1      38.063  29.290  30.897  1.00  0.00     0.074 A 
ATOM     16  C   UNL A   1      41.127  27.947  31.124  1.00  0.00     0.049 A 
ATOM     17  N   UNL A   1      37.849  30.385  31.726  1.00  0.00    -0.248 NA
ATOM     18  C   UNL A   1      36.485  29.277  30.304  1.00  0.00     0.031 C 
ATOM     19  C   UNL A   1      42.526  27.803  30.635  1.00  0.00     0.029 A 
ATOM     20  N   UNL A   1      41.384  28.005  32.509  1.00  0.00    -0.354 N 
ATOM     21  C   UNL A   1      36.787  31.192  31.466  1.00  0.00     0.074 A 
ATOM     22  C   UNL A   1      35.954  30.466  30.573  1.00  0.00     0.031 C 
ATOM     23  C   UNL A   1      43.401  27.906  31.674  1.00  0.00     0.029 A 
ATOM     24  C   UNL A   1      42.666  28.204  32.890  1.00  0.00     0.049 A 
ATOM     25  H   UNL A   1      40.661  27.908  33.170  1.00  0.00     0.167 HD
ATOM     26  C   UNL A   1      36.720  32.489  31.871  1.00  0.00     0.037 A 
ATOM     27  C   UNL A   1      43.089  28.721  34.063  1.00  0.00     0.037 A 
ATOM     28  C   UNL A   1      37.574  33.061  32.911  1.00  0.00     0.049 A 
ATOM     29  C   UNL A   1      42.275  29.822  34.803  1.00  0.00     0.074 A 
ATOM     30  C   UNL A   1      37.454  34.262  33.588  1.00  0.00     0.029 A 
ATOM     31  N   UNL A   1      38.702  32.456  33.456  1.00  0.00    -0.354 N 
ATOM     32  N   UNL A   1      41.310  30.622  34.376  1.00  0.00    -0.248 NA
ATOM     33  C   UNL A   1      42.738  30.163  36.155  1.00  0.00     0.031 C 
ATOM     34  C   UNL A   1      38.471  34.322  34.566  1.00  0.00     0.029 A 
ATOM     35  C   UNL A   1      39.219  33.147  34.529  1.00  0.00     0.049 A 
ATOM     36  H   UNL A   1      39.089  31.619  33.110  1.00  0.00     0.167 HD
ATOM     37  C   UNL A   1      41.072  31.576  35.382  1.00  0.00     0.074 A 
ATOM     38  C   UNL A   1      41.982  31.211  36.461  1.00  0.00     0.031 C 
ATOM     39  C   UNL A   1      40.250  32.676  35.456  1.00  0.00     0.037 A 
BRANCH  26  40
ATOM     40  C   UNL A   1      35.796  33.379  31.093  1.00  0.00     0.058 A 
ATOM     41  C   UNL A   1      36.080  33.829  29.798  1.00  0.00     0.135 A 
ATOM     42  C   UNL A   1      34.635  33.879  31.716  1.00  0.00     0.135 A 
ATOM     43  F   UNL A   1      37.170  33.386  29.152  1.00  0.00    -0.206 F 
ATOM     44  C   UNL A   1      35.307  34.808  29.183  1.00  0.00     0.059 A 
ATOM     45  C   UNL A   1      33.824  34.830  31.104  1.00  0.00     0.059 A 
ATOM     46  F   UNL A   1      34.304  33.483  32.956  1.00  0.00    -0.206 F 
ATOM     47  C   UNL A   1      34.196  35.321  29.855  1.00  0.00     0.060 A 
BRANCH  47  48
ATOM     48  S   UNL A   1      33.260  36.670  29.105  1.00  0.00     0.124 S 
ATOM     49  O   UNL A   1      32.120  35.951  28.545  1.00  0.00    -0.237 OA
ATOM     50  O   UNL A   1      32.962  37.529  30.248  1.00  0.00    -0.237 OA
ATOM     51  O   UNL A   1      34.196  37.227  28.135  1.00  0.00    -0.744 OA
ENDBRANCH  47  48
ENDBRANCH  26  40
BRANCH  27  52
ATOM     52  C   UNL A   1      44.115  27.906  34.780  1.00  0.00     0.058 A 
ATOM     53  C   UNL A   1      43.705  26.730  35.446  1.00  0.00     0.135 A 
ATOM     54  C   UNL A   1      45.484  28.183  34.761  1.00  0.00     0.135 A 
ATOM     55  F   UNL A   1      42.406  26.395  35.484  1.00  0.00    -0.206 F 
ATOM     56  C   UNL A   1      44.606  25.881  36.082  1.00  0.00     0.059 A 
ATOM     57  C   UNL A   1      46.411  27.328  35.361  1.00  0.00     0.059 A 
ATOM     58  F   UNL A   1      45.943  29.279  34.141  1.00  0.00    -0.206 F 
ATOM     59  C   UNL A   1      45.962  26.186  36.025  1.00  0.00     0.060 A 
BRANCH  59  60
ATOM     60  S   UNL A   1      47.145  25.027  36.751  1.00  0.00     0.124 S 
ATOM     61  O   UNL A   1      48.204  25.021  35.750  1.00  0.00    -0.237 OA
ATOM     62  O   UNL A   1      47.470  25.669  38.022  1.00  0.00    -0.237 OA
ATOM     63  O   UNL A   1      46.369  23.796  36.863  1.00  0.00    -0.744 OA
ENDBRANCH  59  60
ENDBRANCH  27  52
BRANCH  39  64
ATOM     64  C   UNL A   1      40.438  33.562  36.675  1.00  0.00     0.058 A 
ATOM     65  C   UNL A   1      41.390  34.597  36.680  1.00  0.00     0.135 A 
ATOM     66  C   UNL A   1      39.596  33.448  37.793  1.00  0.00     0.135 A 
ATOM     67  F   UNL A   1      42.219  34.756  35.637  1.00  0.00    -0.206 F 
ATOM     68  C   UNL A   1      41.506  35.478  37.752  1.00  0.00     0.059 A 
ATOM     69  C   UNL A   1      39.680  34.333  38.867  1.00  0.00     0.059 A 
ATOM     70  F   UNL A   1      38.658  32.489  37.837  1.00  0.00    -0.206 F 
ATOM     71  C   UNL A   1      40.642  35.342  38.840  1.00  0.00     0.060 A 
BRANCH  71  72
ATOM     72  S   UNL A   1      40.757  36.534  40.194  1.00  0.00     0.124 S 
ATOM     73  O   UNL A   1      39.479  36.341  40.868  1.00  0.00    -0.237 OA
ATOM     74  O   UNL A   1      41.934  36.069  40.924  1.00  0.00    -0.237 OA
ATOM     75  O   UNL A   1      40.921  37.812  39.508  1.00  0.00    -0.744 OA
ENDBRANCH  71  72
ENDBRANCH  39  64
ENDBRANCH  13  14
ENDBRANCH   6   8
ENDBRANCH   5   6
ENDBRANCH   4   5
ENDBRANCH   3   4
ENDBRANCH   2   3
ENDBRANCH   1   2
BRANCH   1  76
ATOM     76  C   UNL A   1      39.269  21.981  26.399  1.00  0.00     0.188 C 
BRANCH  76  77
ATOM     77  O   UNL A   1      38.813  23.201  26.974  1.00  0.00    -0.376 OA
BRANCH  77  78
ATOM     78  C   UNL A   1      38.037  24.005  26.088  1.00  0.00     0.202 C 
BRANCH  78  79
ATOM     79  C   UNL A   1      36.523  23.736  26.091  1.00  0.00     0.261 C 
BRANCH  79  80
ATOM     80  O   UNL A   1      35.679  24.566  25.262  1.00  0.00    -0.463 OA
BRANCH  80  81
ATOM     81  C   UNL A   1      34.389  24.617  25.628  1.00  0.00     0.310 C 
ATOM     82  O   UNL A   1      33.864  25.588  26.164  1.00  0.00    -0.252 OA
BRANCH  81  83
ATOM     83  C   UNL A   1      33.623  23.335  25.446  1.00  0.00     0.115 C 
ATOM     84  C   UNL A   1      32.087  23.149  25.526  1.00  0.00     0.004 C 
ATOM     85  C   UNL A   1      34.132  22.594  24.202  1.00  0.00     0.096 C 
ATOM     86  C   UNL A   1      31.513  23.050  24.111  1.00  0.00     0.005 C 
ATOM     87  C   UNL A   1      31.829  21.757  26.131  1.00  0.00     0.005 C 
ATOM     88  C   UNL A   1      33.225  21.336  24.011  1.00  0.00     0.002 C 
ATOM     89  C   UNL A   1      31.955  21.802  23.335  1.00  0.00     0.005 C 
ATOM     90  C   UNL A   1      32.747  20.745  25.392  1.00  0.00     0.005 C 
BRANCH  85  91
ATOM     91  C   UNL A   1      34.567  23.447  22.924  1.00  0.00     0.228 C 
ATOM     92  O   UNL A   1      35.522  22.958  22.286  1.00  0.00    -0.274 OA
ATOM     93  N   UNL A   1      34.047  24.560  22.304  1.00  0.00    -0.326 N 
ATOM     94  H   UNL A   1      34.305  24.534  21.355  1.00  0.00     0.169 HD
BRANCH  93  95
ATOM     95  C   UNL A   1      33.270  25.740  22.530  1.00  0.00     0.041 A 
ATOM     96  C   UNL A   1      31.881  25.648  22.434  1.00  0.00     0.027 A 
ATOM     97  C   UNL A   1      33.758  27.033  22.756  1.00  0.00     0.027 A 
ATOM     98  C   UNL A   1      31.038  26.713  22.867  1.00  0.00     0.016 A 
ATOM     99  C   UNL A   1      32.904  28.116  23.141  1.00  0.00     0.016 A 
ATOM    100  C   UNL A   1      31.542  27.942  23.347  1.00  0.00     0.040 A 
BRANCH 100 101
ATOM    101  C   UNL A   1      30.584  28.846  24.158  1.00  0.00     0.253 C 
ATOM    102  O   UNL A   1      30.771  28.875  25.377  1.00  0.00    -0.269 OA
ATOM    103  N   UNL A   1      29.821  29.888  23.554  1.00  0.00    -0.339 N 
ATOM    104  C   UNL A   1      28.723  29.687  22.015  1.00  0.00     0.120 C 
ATOM    105  C   UNL A   1      29.869  31.756  24.174  1.00  0.00     0.120 C 
ATOM    106  C   UNL A   1      28.006  31.533  21.525  1.00  0.00     0.023 C 
ATOM    107  C   UNL A   1      28.769  32.838  22.853  1.00  0.00     0.023 C 
ENDBRANCH 100 101
ENDBRANCH  93  95
ENDBRANCH  85  91
ENDBRANCH  81  83
ENDBRANCH  80  81
ENDBRANCH  79  80
ENDBRANCH  78  79
ENDBRANCH  77  78
ENDBRANCH  76  77
ENDBRANCH   1  76
TORSDOF 23
ENDMDL
MODEL 2
REMARK VINA RESULT:     -10.9      5.772     10.426
REMARK SMILES O=C(OCCOCCOCCOC(=O)[C@H]1[C@H]2CC[C@H](CC2)[C@H]1C(=O)Nc1ccc(C(=O)N2CCCC2)cc1)c1ccc(-c2c3nc(c(-c4c(F)cc(S(=O)(=O)[O-])cc4F)c4ccc([nH]4)c(-c4c(F)cc(S(=O)(=O)[O-])cc4F)c4nc(c(-c5c(F)cc(S(=O)(=O)[O-])cc5F)c5ccc2[nH]5)C=C4)C=C3)cc1
REMARK SMILES IDX 7 1 6 2 5 3 4 4 3 5 2 6 1 7 39 8 40 9 104 10 41 11 103 12
REMARK SMILES IDX 42 13 43 14 44 15 97 16 45 17 102 18 96 19 98 20 46 21
REMARK SMILES IDX 101 22 95 23 94 24 47 26 81 27 60 28 80 29 61 30 64 31 79 32
REMARK SMILES IDX 99 33 62 34 63 35 78 37 100 38 65 39 48 40 49 41 58 42 50 43
REMARK SMILES IDX 51 44 57 45 59 46 52 47 53 48 54 49 55 50 56 51 82 52 83 53
REMARK SMILES IDX 92 54 84 55 85 56 91 57 93 58 86 59 87 60 88 61 89 62 90 63
REMARK SMILES IDX 66 64 67 65 76 66 68 67 69 68 75 69 77 70 70 71 71 72 72 73
REMARK SMILES IDX 73 74 74 75 8 76 9 77 10 78 11 79 12 80 13 81 14 82 15 83
REMARK SMILES IDX 16 84 22 85 21 86 17 87 19 88 20 89 18 90 23 91 24 92 25 93
REMARK SMILES IDX 26 95 27 96 38 97 28 98 37 99 29 100 30 101 31 102 32 103
REMARK SMILES IDX 33 104 36 105 34 106 35 107
REMARK H PARENT 98 25 64 36 25 94
REMARK Flexibility Score: inf
ROOT
ATOM      1  C   UNL A   1      33.445  30.283  27.251  1.00  0.00     0.188 C 
ENDROOT
BRANCH   1   2
ATOM      2  O   UNL A   1      34.802  30.534  27.600  1.00  0.00    -0.376 OA
BRANCH   2   3
ATOM      3  C   UNL A   1      35.074  31.820  28.145  1.00  0.00     0.202 C 
BRANCH   3   4
ATOM      4  C   UNL A   1      35.709  31.807  29.553  1.00  0.00     0.261 C 
BRANCH   4   5
ATOM      5  O   UNL A   1      34.756  31.987  30.630  1.00  0.00    -0.460 OA
BRANCH   5   6
ATOM      6  C   UNL A   1      34.933  32.588  31.842  1.00  0.00     0.338 C 
ATOM      7  O   UNL A   1      33.939  32.851  32.516  1.00  0.00    -0.246 OA
BRANCH   6   8
ATOM      8  C   UNL A   1      36.269  33.050  32.356  1.00  0.00     0.060 A 
ATOM      9  C   UNL A   1      36.861  34.235  31.981  1.00  0.00     0.016 A 
ATOM     10  C   UNL A   1      36.974  32.305  33.319  1.00  0.00     0.016 A 
ATOM     11  C   UNL A   1      38.085  34.642  32.479  1.00  0.00     0.010 A 
ATOM     12  C   UNL A   1      38.331  32.607  33.621  1.00  0.00     0.010 A 
ATOM     13  C   UNL A   1      38.958  33.685  32.964  1.00  0.00    -0.014 A 
BRANCH  13  14
ATOM     14  C   UNL A   1      40.587  33.877  32.538  1.00  0.00     0.031 A 
ATOM     15  C   UNL A   1      42.056  35.341  33.171  1.00  0.00     0.074 A 
ATOM     16  C   UNL A   1      40.661  32.670  31.699  1.00  0.00     0.049 A 
ATOM     17  N   UNL A   1      43.163  35.855  32.505  1.00  0.00    -0.248 NA
ATOM     18  C   UNL A   1      42.168  36.431  34.452  1.00  0.00     0.031 C 
ATOM     19  C   UNL A   1      39.632  32.061  30.812  1.00  0.00     0.029 A 
ATOM     20  N   UNL A   1      41.785  31.939  31.266  1.00  0.00    -0.354 N 
ATOM     21  C   UNL A   1      43.581  37.108  32.823  1.00  0.00     0.074 A 
ATOM     22  C   UNL A   1      42.938  37.436  34.046  1.00  0.00     0.031 C 
ATOM     23  C   UNL A   1      40.218  31.198  29.936  1.00  0.00     0.029 A 
ATOM     24  C   UNL A   1      41.658  31.234  30.119  1.00  0.00     0.049 A 
ATOM     25  H   UNL A   1      42.628  31.943  31.774  1.00  0.00     0.167 HD
ATOM     26  C   UNL A   1      44.312  37.886  31.979  1.00  0.00     0.037 A 
ATOM     27  C   UNL A   1      42.654  30.841  29.296  1.00  0.00     0.037 A 
ATOM     28  C   UNL A   1      45.034  37.369  30.817  1.00  0.00     0.049 A 
ATOM     29  C   UNL A   1      43.925  31.715  29.092  1.00  0.00     0.074 A 
ATOM     30  C   UNL A   1      45.998  37.979  30.035  1.00  0.00     0.029 A 
ATOM     31  N   UNL A   1      44.894  36.093  30.279  1.00  0.00    -0.354 N 
ATOM     32  N   UNL A   1      44.156  32.991  29.364  1.00  0.00    -0.248 NA
ATOM     33  C   UNL A   1      45.014  31.094  28.326  1.00  0.00     0.031 C 
ATOM     34  C   UNL A   1      46.462  37.039  29.089  1.00  0.00     0.029 A 
ATOM     35  C   UNL A   1      45.811  35.823  29.289  1.00  0.00     0.049 A 
ATOM     36  H   UNL A   1      44.210  35.451  30.576  1.00  0.00     0.167 HD
ATOM     37  C   UNL A   1      45.389  33.335  28.782  1.00  0.00     0.074 A 
ATOM     38  C   UNL A   1      45.869  32.099  28.174  1.00  0.00     0.031 C 
ATOM     39  C   UNL A   1      46.081  34.518  28.681  1.00  0.00     0.037 A 
BRANCH  26  40
ATOM     40  C   UNL A   1      44.243  39.366  32.214  1.00  0.00     0.058 A 
ATOM     41  C   UNL A   1      44.927  40.007  33.254  1.00  0.00     0.135 A 
ATOM     42  C   UNL A   1      43.374  40.148  31.427  1.00  0.00     0.135 A 
ATOM     43  F   UNL A   1      45.770  39.315  34.036  1.00  0.00    -0.206 F 
ATOM     44  C   UNL A   1      44.686  41.341  33.568  1.00  0.00     0.059 A 
ATOM     45  C   UNL A   1      43.148  41.494  31.698  1.00  0.00     0.059 A 
ATOM     46  F   UNL A   1      42.693  39.594  30.410  1.00  0.00    -0.206 F 
ATOM     47  C   UNL A   1      43.775  42.068  32.801  1.00  0.00     0.060 A 
BRANCH  47  48
ATOM     48  S   UNL A   1      43.379  43.763  33.277  1.00  0.00     0.124 S 
ATOM     49  O   UNL A   1      42.965  43.582  34.665  1.00  0.00    -0.237 OA
ATOM     50  O   UNL A   1      44.648  44.458  33.084  1.00  0.00    -0.237 OA
ATOM     51  O   UNL A   1      42.319  44.133  32.344  1.00  0.00    -0.744 OA
ENDBRANCH  47  48
ENDBRANCH  26  40
BRANCH  27  52
ATOM     52  C   UNL A   1      42.648  29.390  28.945  1.00  0.00     0.058 A 
ATOM     53  C   UNL A   1      42.356  29.013  27.615  1.00  0.00     0.135 A 
ATOM     54  C   UNL A   1      43.005  28.371  29.832  1.00  0.00     0.135 A 
ATOM     55  F   UNL A   1      42.026  29.946  26.708  1.00  0.00    -0.206 F 
ATOM     56  C   UNL A   1      42.394  27.689  27.191  1.00  0.00     0.059 A 
ATOM     57  C   UNL A   1      43.084  27.039  29.421  1.00  0.00     0.059 A 
ATOM     58  F   UNL A   1      43.301  28.659  31.107  1.00  0.00    -0.206 F 
ATOM     59  C   UNL A   1      42.770  26.707  28.103  1.00  0.00     0.060 A 
BRANCH  59  60
ATOM     60  S   UNL A   1      42.930  25.001  27.527  1.00  0.00     0.124 S 
ATOM     61  O   UNL A   1      42.417  24.255  28.668  1.00  0.00    -0.237 OA
ATOM     62  O   UNL A   1      42.092  24.996  26.330  1.00  0.00    -0.237 OA
ATOM     63  O   UNL A   1      44.362  24.874  27.277  1.00  0.00    -0.744 OA
ENDBRANCH  59  60
ENDBRANCH  27  52
BRANCH  39  64
ATOM     64  C   UNL A   1      47.312  34.492  27.791  1.00  0.00     0.058 A 
ATOM     65  C   UNL A   1      47.225  34.806  26.423  1.00  0.00     0.135 A 
ATOM     66  C   UNL A   1      48.590  34.261  28.325  1.00  0.00     0.135 A 
ATOM     67  F   UNL A   1      46.029  35.040  25.859  1.00  0.00    -0.206 F 
ATOM     68  C   UNL A   1      48.357  34.881  25.617  1.00  0.00     0.059 A 
ATOM     69  C   UNL A   1      49.739  34.353  27.541  1.00  0.00     0.059 A 
ATOM     70  F   UNL A   1      48.736  33.973  29.628  1.00  0.00    -0.206 F 
ATOM     71  C   UNL A   1      49.612  34.659  26.187  1.00  0.00     0.060 A 
BRANCH  71  72
ATOM     72  S   UNL A   1      51.080  34.827  25.145  1.00  0.00     0.124 S 
ATOM     73  O   UNL A   1      52.118  35.088  26.135  1.00  0.00    -0.237 OA
ATOM     74  O   UNL A   1      51.149  33.526  24.484  1.00  0.00    -0.237 OA
ATOM     75  O   UNL A   1      50.749  35.947  24.270  1.00  0.00    -0.744 OA
ENDBRANCH  71  72
ENDBRANCH  39  64
ENDBRANCH  13  14
ENDBRANCH   6   8
ENDBRANCH   5   6
ENDBRANCH   4   5
ENDBRANCH   3   4
ENDBRANCH   2   3
ENDBRANCH   1   2
BRANCH   1  76
ATOM     76  C   UNL A   1      33.191  28.835  26.854  1.00  0.00     0.188 C 
BRANCH  76  77
ATOM     77  O   UNL A   1      32.019  28.687  26.058  1.00  0.00    -0.376 OA
BRANCH  77  78
ATOM     78  C   UNL A   1      32.065  27.581  25.159  1.00  0.00     0.202 C 
BRANCH  78  79
ATOM     79  C   UNL A   1      33.313  27.495  24.264  1.00  0.00     0.261 C 
BRANCH  79  80
ATOM     80  O   UNL A   1      33.812  26.187  23.908  1.00  0.00    -0.463 OA
BRANCH  80  81
ATOM     81  C   UNL A   1      34.072  25.372  24.941  1.00  0.00     0.310 C 
ATOM     82  O   UNL A   1      34.936  25.587  25.786  1.00  0.00    -0.252 OA
BRANCH  81  83
ATOM     83  C   UNL A   1      33.302  24.080  24.945  1.00  0.00     0.115 C 
ATOM     84  C   UNL A   1      32.046  23.743  24.102  1.00  0.00     0.004 C 
ATOM     85  C   UNL A   1      34.270  22.893  24.861  1.00  0.00     0.096 C 
ATOM     86  C   UNL A   1      32.451  22.860  22.920  1.00  0.00     0.005 C 
ATOM     87  C   UNL A   1      31.154  22.829  24.961  1.00  0.00     0.005 C 
ATOM     88  C   UNL A   1      33.404  21.596  24.757  1.00  0.00     0.002 C 
ATOM     89  C   UNL A   1      32.964  21.469  23.317  1.00  0.00     0.005 C 
ATOM     90  C   UNL A   1      32.060  21.726  25.573  1.00  0.00     0.005 C 
BRANCH  85  91
ATOM     91  C   UNL A   1      35.579  23.033  23.957  1.00  0.00     0.228 C 
ATOM     92  O   UNL A   1      35.350  23.373  22.777  1.00  0.00    -0.274 OA
ATOM     93  N   UNL A   1      36.927  22.963  24.222  1.00  0.00    -0.326 N 
ATOM     94  H   UNL A   1      37.403  23.506  23.553  1.00  0.00     0.169 HD
BRANCH  93  95
ATOM     95  C   UNL A   1      37.893  22.393  25.111  1.00  0.00     0.041 A 
ATOM     96  C   UNL A   1      38.079  21.010  25.088  1.00  0.00     0.027 A 
ATOM     97  C   UNL A   1      38.632  23.069  26.089  1.00  0.00     0.027 A 
ATOM     98  C   UNL A   1      39.173  20.400  25.769  1.00  0.00     0.016 A 
ATOM     99  C   UNL A   1      39.698  22.441  26.812  1.00  0.00     0.016 A 
ATOM    100  C   UNL A   1      40.086  21.131  26.560  1.00  0.00     0.040 A 
BRANCH 100 101
ATOM    101  C   UNL A   1      41.437  20.462  26.907  1.00  0.00     0.253 C 
ATOM    102  O   UNL A   1      41.398  19.578  27.766  1.00  0.00    -0.269 OA
ATOM    103  N   UNL A   1      42.568  20.530  26.041  1.00  0.00    -0.339 N 
ATOM    104  C   UNL A   1      43.272  22.127  25.287  1.00  0.00     0.120 C 
ATOM    105  C   UNL A   1      43.531  18.937  25.400  1.00  0.00     0.120 C 
ATOM    106  C   UNL A   1      44.782  21.597  24.023  1.00  0.00     0.023 C 
ATOM    107  C   UNL A   1      44.909  19.589  24.058  1.00  0.00     0.023 C 
ENDBRANCH 100 101
ENDBRANCH  93  95
ENDBRANCH  85  91
ENDBRANCH  81  83
ENDBRANCH  80  81
ENDBRANCH  79  80
ENDBRANCH  78  79
ENDBRANCH  77  78
ENDBRANCH  76  77
ENDBRANCH   1  76
TORSDOF 23
ENDMDL
MODEL 3
REMARK VINA RESULT:     -10.7      1.635      2.225
REMARK SMILES O=C(OCCOCCOCCOC(=O)[C@H]1[C@H]2CC[C@H](CC2)[C@H]1C(=O)Nc1ccc(C(=O)N2CCCC2)cc1)c1ccc(-c2c3nc(c(-c4c(F)cc(S(=O)(=O)[O-])cc4F)c4ccc([nH]4)c(-c4c(F)cc(S(=O)(=O)[O-])cc4F)c4nc(c(-c5c(F)cc(S(=O)(=O)[O-])cc5F)c5ccc2[nH]5)C=C4)C=C3)cc1
REMARK SMILES IDX 7 1 6 2 5 3 4 4 3 5 2 6 1 7 39 8 40 9 104 10 41 11 103 12
REMARK SMILES IDX 42 13 43 14 44 15 97 16 45 17 102 18 96 19 98 20 46 21
REMARK SMILES IDX 101 22 95 23 94 24 47 26 81 27 60 28 80 29 61 30 64 31 79 32
REMARK SMILES IDX 99 33 62 34 63 35 78 37 100 38 65 39 48 40 49 41 58 42 50 43
REMARK SMILES IDX 51 44 57 45 59 46 52 47 53 48 54 49 55 50 56 51 82 52 83 53
REMARK SMILES IDX 92 54 84 55 85 56 91 57 93 58 86 59 87 60 88 61 89 62 90 63
REMARK SMILES IDX 66 64 67 65 76 66 68 67 69 68 75 69 77 70 70 71 71 72 72 73
REMARK SMILES IDX 73 74 74 75 8 76 9 77 10 78 11 79 12 80 13 81 14 82 15 83
REMARK SMILES IDX 16 84 22 85 21 86 17 87 19 88 20 89 18 90 23 91 24 92 25 93
REMARK SMILES IDX 26 95 27 96 38 97 28 98 37 99 29 100 30 101 31 102 32 103
REMARK SMILES IDX 33 104 36 105 34 106 35 107
REMARK H PARENT 98 25 64 36 25 94
REMARK Flexibility Score: inf
ROOT
ATOM      1  C   UNL A   1      42.073  20.299  26.514  1.00  0.00     0.188 C 
ENDROOT
BRANCH   1   2
ATOM      2  O   UNL A   1      42.447  21.074  25.379  1.00  0.00    -0.376 OA
BRANCH   2   3
ATOM      3  C   UNL A   1      43.697  21.747  25.473  1.00  0.00     0.202 C 
BRANCH   3   4
ATOM      4  C   UNL A   1      43.605  23.289  25.472  1.00  0.00     0.261 C 
BRANCH   4   5
ATOM      5  O   UNL A   1      42.823  23.833  26.564  1.00  0.00    -0.460 OA
BRANCH   5   6
ATOM      6  C   UNL A   1      43.135  23.908  27.889  1.00  0.00     0.338 C 
ATOM      7  O   UNL A   1      43.358  22.864  28.499  1.00  0.00    -0.246 OA
BRANCH   6   8
ATOM      8  C   UNL A   1      43.117  25.188  28.679  1.00  0.00     0.060 A 
ATOM      9  C   UNL A   1      43.516  25.278  29.994  1.00  0.00     0.016 A 
ATOM     10  C   UNL A   1      42.739  26.405  28.082  1.00  0.00     0.016 A 
ATOM     11  C   UNL A   1      43.500  26.471  30.693  1.00  0.00     0.010 A 
ATOM     12  C   UNL A   1      42.486  27.558  28.877  1.00  0.00     0.010 A 
ATOM     13  C   UNL A   1      42.648  27.477  30.275  1.00  0.00    -0.014 A 
BRANCH  13  14
ATOM     14  C   UNL A   1      41.819  28.309  31.497  1.00  0.00     0.031 A 
ATOM     15  C   UNL A   1      39.747  28.934  31.633  1.00  0.00     0.074 A 
ATOM     16  C   UNL A   1      42.951  28.354  32.437  1.00  0.00     0.049 A 
ATOM     17  N   UNL A   1      39.171  30.011  32.298  1.00  0.00    -0.248 NA
ATOM     18  C   UNL A   1      38.327  28.513  30.830  1.00  0.00     0.031 C 
ATOM     19  C   UNL A   1      44.408  28.500  32.168  1.00  0.00     0.029 A 
ATOM     20  N   UNL A   1      42.961  28.575  33.828  1.00  0.00    -0.354 N 
ATOM     21  C   UNL A   1      38.016  30.528  31.803  1.00  0.00     0.074 A 
ATOM     22  C   UNL A   1      37.516  29.564  30.888  1.00  0.00     0.031 C 
ATOM     23  C   UNL A   1      45.060  28.880  33.302  1.00  0.00     0.029 A 
ATOM     24  C   UNL A   1      44.091  29.092  34.362  1.00  0.00     0.049 A 
ATOM     25  H   UNL A   1      42.179  28.365  34.388  1.00  0.00     0.167 HD
ATOM     26  C   UNL A   1      37.606  31.803  32.049  1.00  0.00     0.037 A 
ATOM     27  C   UNL A   1      44.197  29.780  35.519  1.00  0.00     0.037 A 
ATOM     28  C   UNL A   1      38.136  32.634  33.128  1.00  0.00     0.049 A 
ATOM     29  C   UNL A   1      43.055  30.717  36.010  1.00  0.00     0.074 A 
ATOM     30  C   UNL A   1      37.652  33.822  33.645  1.00  0.00     0.029 A 
ATOM     31  N   UNL A   1      39.265  32.347  33.891  1.00  0.00    -0.354 N 
ATOM     32  N   UNL A   1      42.022  31.239  35.366  1.00  0.00    -0.248 NA
ATOM     33  C   UNL A   1      43.208  31.258  37.367  1.00  0.00     0.031 C 
ATOM     34  C   UNL A   1      38.460  34.189  34.744  1.00  0.00     0.029 A 
ATOM     35  C   UNL A   1      39.440  33.218  34.943  1.00  0.00     0.049 A 
ATOM     36  H   UNL A   1      39.874  31.599  33.698  1.00  0.00     0.167 HD
ATOM     37  C   UNL A   1      41.424  32.187  36.216  1.00  0.00     0.074 A 
ATOM     38  C   UNL A   1      42.205  32.125  37.446  1.00  0.00     0.031 C 
ATOM     39  C   UNL A   1      40.384  33.070  36.051  1.00  0.00     0.037 A 
BRANCH  26  40
ATOM     40  C   UNL A   1      36.650  32.394  31.055  1.00  0.00     0.058 A 
ATOM     41  C   UNL A   1      37.061  32.940  29.833  1.00  0.00     0.135 A 
ATOM     42  C   UNL A   1      35.287  32.507  31.393  1.00  0.00     0.135 A 
ATOM     43  F   UNL A   1      38.346  32.862  29.454  1.00  0.00    -0.206 F 
ATOM     44  C   UNL A   1      36.183  33.658  29.027  1.00  0.00     0.059 A 
ATOM     45  C   UNL A   1      34.382  33.186  30.583  1.00  0.00     0.059 A 
ATOM     46  F   UNL A   1      34.829  31.999  32.549  1.00  0.00    -0.206 F 
ATOM     47  C   UNL A   1      34.852  33.797  29.423  1.00  0.00     0.060 A 
BRANCH  47  48
ATOM     48  S   UNL A   1      33.742  34.821  28.435  1.00  0.00     0.124 S 
ATOM     49  O   UNL A   1      34.644  35.300  27.393  1.00  0.00    -0.237 OA
ATOM     50  O   UNL A   1      32.726  33.867  27.999  1.00  0.00    -0.237 OA
ATOM     51  O   UNL A   1      33.282  35.828  29.386  1.00  0.00    -0.744 OA
ENDBRANCH  47  48
ENDBRANCH  26  40
BRANCH  27  52
ATOM     52  C   UNL A   1      45.244  29.281  36.458  1.00  0.00     0.058 A 
ATOM     53  C   UNL A   1      46.482  29.958  36.520  1.00  0.00     0.135 A 
ATOM     54  C   UNL A   1      45.049  28.228  37.356  1.00  0.00     0.135 A 
ATOM     55  F   UNL A   1      46.726  30.992  35.698  1.00  0.00    -0.206 F 
ATOM     56  C   UNL A   1      47.485  29.597  37.414  1.00  0.00     0.059 A 
ATOM     57  C   UNL A   1      46.027  27.870  38.286  1.00  0.00     0.059 A 
ATOM     58  F   UNL A   1      43.895  27.546  37.357  1.00  0.00    -0.206 F 
ATOM     59  C   UNL A   1      47.243  28.554  38.302  1.00  0.00     0.060 A 
BRANCH  59  60
ATOM     60  S   UNL A   1      48.500  28.156  39.539  1.00  0.00     0.124 S 
ATOM     61  O   UNL A   1      49.226  29.416  39.637  1.00  0.00    -0.237 OA
ATOM     62  O   UNL A   1      47.691  27.792  40.700  1.00  0.00    -0.237 OA
ATOM     63  O   UNL A   1      49.226  27.050  38.923  1.00  0.00    -0.744 OA
ENDBRANCH  59  60
ENDBRANCH  27  52
BRANCH  39  64
ATOM     64  C   UNL A   1      40.176  34.066  37.180  1.00  0.00     0.058 A 
ATOM     65  C   UNL A   1      40.818  35.316  37.171  1.00  0.00     0.135 A 
ATOM     66  C   UNL A   1      39.254  33.815  38.209  1.00  0.00     0.135 A 
ATOM     67  F   UNL A   1      41.706  35.612  36.209  1.00  0.00    -0.206 F 
ATOM     68  C   UNL A   1      40.563  36.276  38.146  1.00  0.00     0.059 A 
ATOM     69  C   UNL A   1      38.966  34.771  39.183  1.00  0.00     0.059 A 
ATOM     70  F   UNL A   1      38.598  32.645  38.260  1.00  0.00    -0.206 F 
ATOM     71  C   UNL A   1      39.629  35.997  39.146  1.00  0.00     0.060 A 
BRANCH  71  72
ATOM     72  S   UNL A   1      39.255  37.277  40.366  1.00  0.00     0.124 S 
ATOM     73  O   UNL A   1      38.519  36.521  41.373  1.00  0.00    -0.237 OA
ATOM     74  O   UNL A   1      40.585  37.731  40.765  1.00  0.00    -0.237 OA
ATOM     75  O   UNL A   1      38.471  38.249  39.610  1.00  0.00    -0.744 OA
ENDBRANCH  71  72
ENDBRANCH  39  64
ENDBRANCH  13  14
ENDBRANCH   6   8
ENDBRANCH   5   6
ENDBRANCH   4   5
ENDBRANCH   3   4
ENDBRANCH   2   3
ENDBRANCH   1   2
BRANCH   1  76
ATOM     76  C   UNL A   1      40.575  20.034  26.585  1.00  0.00     0.188 C 
BRANCH  76  77
ATOM     77  O   UNL A   1      39.811  21.234  26.626  1.00  0.00    -0.376 OA
BRANCH  77  78
ATOM     78  C   UNL A   1      38.871  21.360  25.561  1.00  0.00     0.202 C 
BRANCH  78  79
ATOM     79  C   UNL A   1      37.885  22.535  25.671  1.00  0.00     0.261 C 
BRANCH  79  80
ATOM     80  O   UNL A   1      36.500  22.242  25.962  1.00  0.00    -0.463 OA
BRANCH  80  81
ATOM     81  C   UNL A   1      35.651  23.267  25.796  1.00  0.00     0.310 C 
ATOM     82  O   UNL A   1      35.993  24.446  25.765  1.00  0.00    -0.252 OA
BRANCH  81  83
ATOM     83  C   UNL A   1      34.195  22.891  25.764  1.00  0.00     0.115 C 
ATOM     84  C   UNL A   1      33.035  23.596  26.510  1.00  0.00     0.004 C 
ATOM     85  C   UNL A   1      33.751  22.637  24.317  1.00  0.00     0.096 C 
ATOM     86  C   UNL A   1      32.262  24.479  25.528  1.00  0.00     0.005 C 
ATOM     87  C   UNL A   1      32.023  22.507  26.908  1.00  0.00     0.005 C 
ATOM     88  C   UNL A   1      32.214  22.362  24.346  1.00  0.00     0.002 C 
ATOM     89  C   UNL A   1      31.523  23.704  24.428  1.00  0.00     0.005 C 
ATOM     90  C   UNL A   1      31.781  21.611  25.664  1.00  0.00     0.005 C 
BRANCH  85  91
ATOM     91  C   UNL A   1      34.361  23.550  23.156  1.00  0.00     0.228 C 
ATOM     92  O   UNL A   1      35.227  22.980  22.461  1.00  0.00    -0.274 OA
ATOM     93  N   UNL A   1      34.063  24.806  22.681  1.00  0.00    -0.326 N 
ATOM     94  H   UNL A   1      34.333  24.853  21.737  1.00  0.00     0.169 HD
BRANCH  93  95
ATOM     95  C   UNL A   1      33.505  26.071  23.054  1.00  0.00     0.041 A 
ATOM     96  C   UNL A   1      32.374  26.523  22.373  1.00  0.00     0.027 A 
ATOM     97  C   UNL A   1      34.027  26.973  23.989  1.00  0.00     0.027 A 
ATOM     98  C   UNL A   1      31.634  27.649  22.837  1.00  0.00     0.016 A 
ATOM     99  C   UNL A   1      33.306  28.133  24.417  1.00  0.00     0.016 A 
ATOM    100  C   UNL A   1      32.027  28.417  23.955  1.00  0.00     0.040 A 
BRANCH 100 101
ATOM    101  C   UNL A   1      30.967  29.334  24.609  1.00  0.00     0.253 C 
ATOM    102  O   UNL A   1      31.211  29.710  25.758  1.00  0.00    -0.269 OA
ATOM    103  N   UNL A   1      29.995  30.045  23.845  1.00  0.00    -0.339 N 
ATOM    104  C   UNL A   1      28.870  29.276  22.520  1.00  0.00     0.120 C 
ATOM    105  C   UNL A   1      29.737  31.993  23.976  1.00  0.00     0.120 C 
ATOM    106  C   UNL A   1      27.804  30.789  21.662  1.00  0.00     0.023 C 
ATOM    107  C   UNL A   1      28.389  32.500  22.545  1.00  0.00     0.023 C 
ENDBRANCH 100 101
ENDBRANCH  93  95
ENDBRANCH  85  91
ENDBRANCH  81  83
ENDBRANCH  80  81
ENDBRANCH  79  80
ENDBRANCH  78  79
ENDBRANCH  77  78
ENDBRANCH  76  77
ENDBRANCH   1  76
TORSDOF 23
ENDMDL
