MODEL 1
REMARK VINA RESULT:     -10.8      0.000      0.000
REMARK SMILES Cc1ccc(C(=O)OCCOCCOCCOC(=O)c2ccc(-c3c4nc(c(-c5c(F)cc(S(=O)(=O)[O-])cc5F)c5ccc([nH]5)c(-c5c(F)cc(S(=O)(=O)[O-])cc5F)c5nc(c(-c6c(F)cc(S(=O)(=O)[O-])cc6F)c6ccc3[nH]6)C=C5)C=C4)cc2)c2c1N[C@H](c1ccccc1F)[C@H]1CC=C[C@@H]21
REMARK SMILES IDX 13 1 12 2 11 3 10 4 9 5 8 6 6 7 7 8 5 9 1 10 2 11 3 12 87 13
REMARK SMILES IDX 4 14 86 15 88 16 101 17 89 18 97 20 100 21 98 22 99 23 90 24
REMARK SMILES IDX 91 25 95 26 92 27 94 28 96 29 93 30 14 31 15 32 16 33 17 34
REMARK SMILES IDX 18 35 19 36 20 37 21 38 85 39 22 40 84 41 23 42 24 43 25 44
REMARK SMILES IDX 78 45 26 46 83 47 77 48 79 49 27 50 82 51 76 52 75 53 28 55
REMARK SMILES IDX 62 56 41 57 61 58 42 59 45 60 60 61 80 62 43 63 44 64 59 66
REMARK SMILES IDX 81 67 46 68 29 69 30 70 39 71 31 72 32 73 38 74 40 75 33 76
REMARK SMILES IDX 34 77 35 78 36 79 37 80 63 81 64 82 73 83 65 84 66 85 72 86
REMARK SMILES IDX 74 87 67 88 68 89 69 90 70 91 71 92 47 93 48 94 57 95 49 96
REMARK SMILES IDX 50 97 56 98 58 99 51 100 52 101 53 102 54 103 55 104
REMARK H PARENT 88 19 79 54 45 65
REMARK Flexibility Score: inf
ROOT
ATOM      1  C   UNL A   1      38.833  21.424  26.047  1.00  0.00     0.188 C 
ENDROOT
BRANCH   1   2
ATOM      2  C   UNL A   1      38.190  22.763  25.633  1.00  0.00     0.188 C 
BRANCH   2   3
ATOM      3  O   UNL A   1      36.840  22.927  26.050  1.00  0.00    -0.376 OA
BRANCH   3   4
ATOM      4  C   UNL A   1      36.038  21.754  25.985  1.00  0.00     0.202 C 
BRANCH   4   5
ATOM      5  C   UNL A   1      35.381  21.563  24.619  1.00  0.00     0.261 C 
BRANCH   5   6
ATOM      6  O   UNL A   1      34.358  22.537  24.347  1.00  0.00    -0.460 OA
BRANCH   6   7
ATOM      7  C   UNL A   1      33.167  22.071  23.899  1.00  0.00     0.338 C 
ATOM      8  O   UNL A   1      33.019  21.208  23.054  1.00  0.00    -0.246 OA
BRANCH   7   9
ATOM      9  C   UNL A   1      32.085  22.797  24.626  1.00  0.00     0.065 A 
ATOM     10  C   UNL A   1      28.999  24.601  27.045  1.00  0.00     0.046 C 
ATOM     11  C   UNL A   1      30.026  23.991  26.124  1.00  0.00    -0.028 A 
ATOM     12  C   UNL A   1      30.608  22.786  26.543  1.00  0.00     0.006 A 
ATOM     13  C   UNL A   1      30.461  24.605  24.926  1.00  0.00     0.042 A 
ATOM     14  C   UNL A   1      31.625  22.195  25.805  1.00  0.00     0.016 A 
ATOM     15  C   UNL A   1      31.501  24.003  24.163  1.00  0.00    -0.003 A 
ATOM     16  N   UNL A   1      29.903  25.806  24.515  1.00  0.00    -0.377 N 
ATOM     17  C   UNL A   1      31.839  24.577  22.800  1.00  0.00     0.050 C 
ATOM     18  C   UNL A   1      30.562  26.627  23.509  1.00  0.00     0.117 C 
ATOM     19  H   UNL A   1      29.050  26.107  24.907  1.00  0.00     0.161 HD
ATOM     20  C   UNL A   1      30.914  25.722  22.315  1.00  0.00     0.031 C 
ATOM     21  C   UNL A   1      33.192  25.203  22.620  1.00  0.00    -0.023 C 
ATOM     22  C   UNL A   1      31.757  26.444  21.250  1.00  0.00     0.034 C 
ATOM     23  C   UNL A   1      33.149  26.206  21.733  1.00  0.00    -0.030 C 
BRANCH  18  24
ATOM     24  C   UNL A   1      29.724  27.870  23.254  1.00  0.00     0.010 A 
ATOM     25  C   UNL A   1      28.320  27.750  23.290  1.00  0.00     0.009 A 
ATOM     26  C   UNL A   1      30.256  29.143  23.020  1.00  0.00     0.128 A 
ATOM     27  C   UNL A   1      27.494  28.868  23.151  1.00  0.00     0.001 A 
ATOM     28  C   UNL A   1      29.438  30.265  22.893  1.00  0.00     0.039 A 
ATOM     29  F   UNL A   1      31.580  29.325  22.934  1.00  0.00    -0.207 F 
ATOM     30  C   UNL A   1      28.054  30.129  22.967  1.00  0.00     0.003 A 
ENDBRANCH  18  24
ENDBRANCH   7   9
ENDBRANCH   6   7
ENDBRANCH   5   6
ENDBRANCH   4   5
ENDBRANCH   3   4
ENDBRANCH   2   3
ENDBRANCH   1   2
BRANCH   1  31
ATOM     31  O   UNL A   1      40.026  21.420  26.822  1.00  0.00    -0.376 OA
BRANCH  31  32
ATOM     32  C   UNL A   1      41.192  20.827  26.272  1.00  0.00     0.202 C 
BRANCH  32  33
ATOM     33  C   UNL A   1      42.474  21.666  26.240  1.00  0.00     0.261 C 
BRANCH  33  34
ATOM     34  O   UNL A   1      42.405  22.878  27.012  1.00  0.00    -0.460 OA
BRANCH  34  35
ATOM     35  C   UNL A   1      42.427  24.027  26.294  1.00  0.00     0.338 C 
ATOM     36  O   UNL A   1      42.692  24.154  25.111  1.00  0.00    -0.246 OA
BRANCH  35  37
ATOM     37  C   UNL A   1      41.944  25.149  27.122  1.00  0.00     0.060 A 
ATOM     38  C   UNL A   1      42.622  26.372  27.045  1.00  0.00     0.016 A 
ATOM     39  C   UNL A   1      40.919  24.966  28.052  1.00  0.00     0.016 A 
ATOM     40  C   UNL A   1      42.287  27.410  27.913  1.00  0.00     0.010 A 
ATOM     41  C   UNL A   1      40.606  26.000  28.944  1.00  0.00     0.010 A 
ATOM     42  C   UNL A   1      41.308  27.216  28.895  1.00  0.00    -0.014 A 
BRANCH  42  43
ATOM     43  C   UNL A   1      41.173  28.221  29.979  1.00  0.00     0.031 A 
ATOM     44  C   UNL A   1      42.182  28.210  31.095  1.00  0.00     0.074 A 
ATOM     45  C   UNL A   1      40.211  29.161  29.945  1.00  0.00     0.049 A 
ATOM     46  N   UNL A   1      42.257  28.978  32.150  1.00  0.00    -0.248 NA
ATOM     47  C   UNL A   1      43.253  27.201  31.006  1.00  0.00     0.031 C 
ATOM     48  C   UNL A   1      39.218  29.314  28.885  1.00  0.00     0.029 A 
ATOM     49  N   UNL A   1      39.922  30.175  30.825  1.00  0.00    -0.354 N 
ATOM     50  C   UNL A   1      43.380  28.549  32.848  1.00  0.00     0.074 A 
ATOM     51  C   UNL A   1      43.954  27.452  32.104  1.00  0.00     0.031 C 
ATOM     52  C   UNL A   1      38.433  30.368  29.171  1.00  0.00     0.029 A 
ATOM     53  C   UNL A   1      38.839  30.938  30.454  1.00  0.00     0.049 A 
ATOM     54  H   UNL A   1      40.440  30.339  31.645  1.00  0.00     0.167 HD
ATOM     55  C   UNL A   1      43.884  29.027  34.009  1.00  0.00     0.037 A 
ATOM     56  C   UNL A   1      38.235  31.961  31.092  1.00  0.00     0.037 A 
ATOM     57  C   UNL A   1      43.299  30.102  34.763  1.00  0.00     0.049 A 
ATOM     58  C   UNL A   1      38.763  32.411  32.433  1.00  0.00     0.074 A 
ATOM     59  C   UNL A   1      43.720  30.633  35.970  1.00  0.00     0.029 A 
ATOM     60  N   UNL A   1      42.164  30.805  34.390  1.00  0.00    -0.354 N 
ATOM     61  N   UNL A   1      39.820  31.991  33.087  1.00  0.00    -0.248 NA
ATOM     62  C   UNL A   1      38.005  33.460  33.133  1.00  0.00     0.031 C 
ATOM     63  C   UNL A   1      42.817  31.631  36.346  1.00  0.00     0.029 A 
ATOM     64  C   UNL A   1      41.860  31.752  35.351  1.00  0.00     0.049 A 
ATOM     65  H   UNL A   1      41.651  30.652  33.563  1.00  0.00     0.167 HD
ATOM     66  C   UNL A   1      39.859  32.731  34.265  1.00  0.00     0.074 A 
ATOM     67  C   UNL A   1      38.734  33.640  34.227  1.00  0.00     0.031 C 
ATOM     68  C   UNL A   1      40.741  32.658  35.291  1.00  0.00     0.037 A 
BRANCH  55  69
ATOM     69  C   UNL A   1      45.116  28.373  34.559  1.00  0.00     0.058 A 
ATOM     70  C   UNL A   1      45.036  27.262  35.412  1.00  0.00     0.135 A 
ATOM     71  C   UNL A   1      46.390  28.813  34.166  1.00  0.00     0.135 A 
ATOM     72  F   UNL A   1      43.842  26.820  35.834  1.00  0.00    -0.206 F 
ATOM     73  C   UNL A   1      46.179  26.604  35.852  1.00  0.00     0.059 A 
ATOM     74  C   UNL A   1      47.546  28.160  34.580  1.00  0.00     0.059 A 
ATOM     75  F   UNL A   1      46.517  29.879  33.359  1.00  0.00    -0.206 F 
ATOM     76  C   UNL A   1      47.430  27.055  35.422  1.00  0.00     0.060 A 
BRANCH  76  77
ATOM     77  S   UNL A   1      48.899  26.154  35.960  1.00  0.00     0.124 S 
ATOM     78  O   UNL A   1      49.780  27.245  36.365  1.00  0.00    -0.237 OA
ATOM     79  O   UNL A   1      48.376  25.326  37.042  1.00  0.00    -0.237 OA
ATOM     80  O   UNL A   1      49.311  25.428  34.762  1.00  0.00    -0.744 OA
ENDBRANCH  76  77
ENDBRANCH  55  69
BRANCH  56  81
ATOM     81  C   UNL A   1      37.032  32.615  30.506  1.00  0.00     0.058 A 
ATOM     82  C   UNL A   1      37.149  33.563  29.478  1.00  0.00     0.135 A 
ATOM     83  C   UNL A   1      35.744  32.340  30.996  1.00  0.00     0.135 A 
ATOM     84  F   UNL A   1      38.358  33.874  28.987  1.00  0.00    -0.206 F 
ATOM     85  C   UNL A   1      36.039  34.234  28.974  1.00  0.00     0.059 A 
ATOM     86  C   UNL A   1      34.616  32.979  30.489  1.00  0.00     0.059 A 
ATOM     87  F   UNL A   1      35.576  31.440  31.975  1.00  0.00    -0.206 F 
ATOM     88  C   UNL A   1      34.775  33.936  29.489  1.00  0.00     0.060 A 
BRANCH  88  89
ATOM     89  S   UNL A   1      33.338  34.802  28.821  1.00  0.00     0.124 S 
ATOM     90  O   UNL A   1      32.518  34.972  30.014  1.00  0.00    -0.237 OA
ATOM     91  O   UNL A   1      33.936  36.017  28.277  1.00  0.00    -0.237 OA
ATOM     92  O   UNL A   1      32.819  33.869  27.826  1.00  0.00    -0.744 OA
ENDBRANCH  88  89
ENDBRANCH  56  81
BRANCH  68  93
ATOM     93  C   UNL A   1      40.548  33.593  36.453  1.00  0.00     0.058 A 
ATOM     94  C   UNL A   1      41.155  34.857  36.484  1.00  0.00     0.135 A 
ATOM     95  C   UNL A   1      39.677  33.255  37.501  1.00  0.00     0.135 A 
ATOM     96  F   UNL A   1      42.000  35.225  35.508  1.00  0.00    -0.206 F 
ATOM     97  C   UNL A   1      40.910  35.754  37.519  1.00  0.00     0.059 A 
ATOM     98  C   UNL A   1      39.399  34.145  38.534  1.00  0.00     0.059 A 
ATOM     99  F   UNL A   1      39.063  32.061  37.512  1.00  0.00    -0.206 F 
ATOM    100  C   UNL A   1      40.025  35.391  38.537  1.00  0.00     0.060 A 
BRANCH 100 101
ATOM    101  S   UNL A   1      39.675  36.587  39.843  1.00  0.00     0.124 S 
ATOM    102  O   UNL A   1      38.583  35.933  40.556  1.00  0.00    -0.237 OA
ATOM    103  O   UNL A   1      40.948  36.652  40.556  1.00  0.00    -0.237 OA
ATOM    104  O   UNL A   1      39.312  37.796  39.109  1.00  0.00    -0.744 OA
ENDBRANCH 100 101
ENDBRANCH  68  93
ENDBRANCH  42  43
ENDBRANCH  35  37
ENDBRANCH  34  35
ENDBRANCH  33  34
ENDBRANCH  32  33
ENDBRANCH  31  32
ENDBRANCH   1  31
TORSDOF 21
ENDMDL
MODEL 2
REMARK VINA RESULT:     -10.7      5.573     12.718
REMARK SMILES Cc1ccc(C(=O)OCCOCCOCCOC(=O)c2ccc(-c3c4nc(c(-c5c(F)cc(S(=O)(=O)[O-])cc5F)c5ccc([nH]5)c(-c5c(F)cc(S(=O)(=O)[O-])cc5F)c5nc(c(-c6c(F)cc(S(=O)(=O)[O-])cc6F)c6ccc3[nH]6)C=C5)C=C4)cc2)c2c1N[C@H](c1ccccc1F)[C@H]1CC=C[C@@H]21
REMARK SMILES IDX 13 1 12 2 11 3 10 4 9 5 8 6 6 7 7 8 5 9 1 10 2 11 3 12 87 13
REMARK SMILES IDX 4 14 86 15 88 16 101 17 89 18 97 20 100 21 98 22 99 23 90 24
REMARK SMILES IDX 91 25 95 26 92 27 94 28 96 29 93 30 14 31 15 32 16 33 17 34
REMARK SMILES IDX 18 35 19 36 20 37 21 38 85 39 22 40 84 41 23 42 24 43 25 44
REMARK SMILES IDX 78 45 26 46 83 47 77 48 79 49 27 50 82 51 76 52 75 53 28 55
REMARK SMILES IDX 62 56 41 57 61 58 42 59 45 60 60 61 80 62 43 63 44 64 59 66
REMARK SMILES IDX 81 67 46 68 29 69 30 70 39 71 31 72 32 73 38 74 40 75 33 76
REMARK SMILES IDX 34 77 35 78 36 79 37 80 63 81 64 82 73 83 65 84 66 85 72 86
REMARK SMILES IDX 74 87 67 88 68 89 69 90 70 91 71 92 47 93 48 94 57 95 49 96
REMARK SMILES IDX 50 97 56 98 58 99 51 100 52 101 53 102 54 103 55 104
REMARK H PARENT 88 19 79 54 45 65
REMARK Flexibility Score: inf
ROOT
ATOM      1  C   UNL A   1      34.028  36.756  33.393  1.00  0.00     0.188 C 
ENDROOT
BRANCH   1   2
ATOM      2  C   UNL A   1      32.787  36.771  32.478  1.00  0.00     0.188 C 
BRANCH   2   3
ATOM      3  O   UNL A   1      32.935  37.541  31.291  1.00  0.00    -0.376 OA
BRANCH   3   4
ATOM      4  C   UNL A   1      32.898  36.799  30.078  1.00  0.00     0.202 C 
BRANCH   4   5
ATOM      5  C   UNL A   1      33.261  35.328  30.275  1.00  0.00     0.261 C 
BRANCH   5   6
ATOM      6  O   UNL A   1      32.906  34.506  29.149  1.00  0.00    -0.460 OA
BRANCH   6   7
ATOM      7  C   UNL A   1      33.846  34.337  28.189  1.00  0.00     0.338 C 
ATOM      8  O   UNL A   1      34.407  35.231  27.584  1.00  0.00    -0.246 OA
BRANCH   7   9
ATOM      9  C   UNL A   1      34.068  32.872  28.013  1.00  0.00     0.065 A 
ATOM     10  C   UNL A   1      34.369  28.638  27.229  1.00  0.00     0.046 C 
ATOM     11  C   UNL A   1      34.287  30.100  27.592  1.00  0.00    -0.028 A 
ATOM     12  C   UNL A   1      33.215  30.822  27.048  1.00  0.00     0.006 A 
ATOM     13  C   UNL A   1      35.258  30.763  28.378  1.00  0.00     0.042 A 
ATOM     14  C   UNL A   1      33.106  32.192  27.254  1.00  0.00     0.016 A 
ATOM     15  C   UNL A   1      35.150  32.166  28.596  1.00  0.00    -0.003 A 
ATOM     16  N   UNL A   1      36.330  30.058  28.904  1.00  0.00    -0.377 N 
ATOM     17  C   UNL A   1      36.097  32.832  29.576  1.00  0.00     0.050 C 
ATOM     18  C   UNL A   1      37.509  30.756  29.398  1.00  0.00     0.117 C 
ATOM     19  H   UNL A   1      36.294  29.075  28.945  1.00  0.00     0.161 HD
ATOM     20  C   UNL A   1      37.037  31.871  30.347  1.00  0.00     0.031 C 
ATOM     21  C   UNL A   1      37.084  33.825  29.032  1.00  0.00    -0.023 C 
ATOM     22  C   UNL A   1      38.186  32.782  30.812  1.00  0.00     0.034 C 
ATOM     23  C   UNL A   1      38.218  33.823  29.742  1.00  0.00    -0.030 C 
BRANCH  18  24
ATOM     24  C   UNL A   1      38.510  29.737  29.918  1.00  0.00     0.010 A 
ATOM     25  C   UNL A   1      38.018  28.601  30.595  1.00  0.00     0.009 A 
ATOM     26  C   UNL A   1      39.894  29.829  29.737  1.00  0.00     0.128 A 
ATOM     27  C   UNL A   1      38.877  27.585  31.021  1.00  0.00     0.001 A 
ATOM     28  C   UNL A   1      40.755  28.813  30.149  1.00  0.00     0.039 A 
ATOM     29  F   UNL A   1      40.435  30.898  29.137  1.00  0.00    -0.207 F 
ATOM     30  C   UNL A   1      40.245  27.684  30.785  1.00  0.00     0.003 A 
ENDBRANCH  18  24
ENDBRANCH   7   9
ENDBRANCH   6   7
ENDBRANCH   5   6
ENDBRANCH   4   5
ENDBRANCH   3   4
ENDBRANCH   2   3
ENDBRANCH   1   2
BRANCH   1  31
ATOM     31  O   UNL A   1      34.539  35.519  33.872  1.00  0.00    -0.376 OA
BRANCH  31  32
ATOM     32  C   UNL A   1      35.608  34.905  33.167  1.00  0.00     0.202 C 
BRANCH  32  33
ATOM     33  C   UNL A   1      36.750  34.296  33.989  1.00  0.00     0.261 C 
BRANCH  33  34
ATOM     34  O   UNL A   1      36.406  33.070  34.658  1.00  0.00    -0.460 OA
BRANCH  34  35
ATOM     35  C   UNL A   1      37.257  32.687  35.641  1.00  0.00     0.338 C 
ATOM     36  O   UNL A   1      37.082  32.769  36.844  1.00  0.00    -0.246 OA
BRANCH  35  37
ATOM     37  C   UNL A   1      38.428  32.004  35.057  1.00  0.00     0.060 A 
ATOM     38  C   UNL A   1      39.706  32.421  35.450  1.00  0.00     0.016 A 
ATOM     39  C   UNL A   1      38.274  31.053  34.045  1.00  0.00     0.016 A 
ATOM     40  C   UNL A   1      40.834  31.902  34.818  1.00  0.00     0.010 A 
ATOM     41  C   UNL A   1      39.408  30.556  33.390  1.00  0.00     0.010 A 
ATOM     42  C   UNL A   1      40.691  30.999  33.755  1.00  0.00    -0.014 A 
BRANCH  42  43
ATOM     43  C   UNL A   1      41.876  30.686  32.919  1.00  0.00     0.031 A 
ATOM     44  C   UNL A   1      42.345  31.717  31.928  1.00  0.00     0.074 A 
ATOM     45  C   UNL A   1      42.558  29.537  33.074  1.00  0.00     0.049 A 
ATOM     46  N   UNL A   1      43.342  31.660  31.085  1.00  0.00    -0.248 NA
ATOM     47  C   UNL A   1      41.592  32.983  31.886  1.00  0.00     0.031 C 
ATOM     48  C   UNL A   1      42.240  28.492  34.044  1.00  0.00     0.029 A 
ATOM     49  N   UNL A   1      43.669  29.063  32.422  1.00  0.00    -0.354 N 
ATOM     50  C   UNL A   1      43.339  32.879  30.416  1.00  0.00     0.074 A 
ATOM     51  C   UNL A   1      42.240  33.654  30.944  1.00  0.00     0.031 C 
ATOM     52  C   UNL A   1      43.143  27.502  33.932  1.00  0.00     0.029 A 
ATOM     53  C   UNL A   1      44.077  27.822  32.854  1.00  0.00     0.049 A 
ATOM     54  H   UNL A   1      44.131  29.564  31.712  1.00  0.00     0.167 HD
ATOM     55  C   UNL A   1      44.176  33.309  29.445  1.00  0.00     0.037 A 
ATOM     56  C   UNL A   1      45.074  27.030  32.409  1.00  0.00     0.037 A 
ATOM     57  C   UNL A   1      45.254  32.528  28.901  1.00  0.00     0.049 A 
ATOM     58  C   UNL A   1      45.933  27.497  31.260  1.00  0.00     0.074 A 
ATOM     59  C   UNL A   1      46.136  32.869  27.890  1.00  0.00     0.029 A 
ATOM     60  N   UNL A   1      45.594  31.250  29.316  1.00  0.00    -0.354 N 
ATOM     61  N   UNL A   1      45.914  28.648  30.630  1.00  0.00    -0.248 NA
ATOM     62  C   UNL A   1      46.937  26.552  30.747  1.00  0.00     0.031 C 
ATOM     63  C   UNL A   1      46.983  31.780  27.667  1.00  0.00     0.029 A 
ATOM     64  C   UNL A   1      46.658  30.780  28.569  1.00  0.00     0.049 A 
ATOM     65  H   UNL A   1      45.142  30.751  30.036  1.00  0.00     0.167 HD
ATOM     66  C   UNL A   1      46.907  28.567  29.658  1.00  0.00     0.074 A 
ATOM     67  C   UNL A   1      47.524  27.266  29.795  1.00  0.00     0.031 C 
ATOM     68  C   UNL A   1      47.269  29.485  28.728  1.00  0.00     0.037 A 
BRANCH  55  69
ATOM     69  C   UNL A   1      43.947  34.679  28.879  1.00  0.00     0.058 A 
ATOM     70  C   UNL A   1      43.314  34.861  27.641  1.00  0.00     0.135 A 
ATOM     71  C   UNL A   1      44.292  35.821  29.618  1.00  0.00     0.135 A 
ATOM     72  F   UNL A   1      42.987  33.801  26.886  1.00  0.00    -0.206 F 
ATOM     73  C   UNL A   1      43.025  36.133  27.156  1.00  0.00     0.059 A 
ATOM     74  C   UNL A   1      43.996  37.101  29.162  1.00  0.00     0.059 A 
ATOM     75  F   UNL A   1      44.909  35.696  30.805  1.00  0.00    -0.206 F 
ATOM     76  C   UNL A   1      43.362  37.246  27.930  1.00  0.00     0.060 A 
BRANCH  76  77
ATOM     77  S   UNL A   1      42.928  38.885  27.310  1.00  0.00     0.124 S 
ATOM     78  O   UNL A   1      41.780  38.584  26.461  1.00  0.00    -0.237 OA
ATOM     79  O   UNL A   1      42.634  39.614  28.541  1.00  0.00    -0.237 OA
ATOM     80  O   UNL A   1      44.133  39.314  26.605  1.00  0.00    -0.744 OA
ENDBRANCH  76  77
ENDBRANCH  55  69
BRANCH  56  81
ATOM     81  C   UNL A   1      45.301  25.687  33.014  1.00  0.00     0.058 A 
ATOM     82  C   UNL A   1      44.699  24.538  32.478  1.00  0.00     0.135 A 
ATOM     83  C   UNL A   1      46.086  25.534  34.168  1.00  0.00     0.135 A 
ATOM     84  F   UNL A   1      43.926  24.634  31.385  1.00  0.00    -0.206 F 
ATOM     85  C   UNL A   1      44.844  23.291  33.077  1.00  0.00     0.059 A 
ATOM     86  C   UNL A   1      46.267  24.292  34.770  1.00  0.00     0.059 A 
ATOM     87  F   UNL A   1      46.686  26.599  34.720  1.00  0.00    -0.206 F 
ATOM     88  C   UNL A   1      45.629  23.179  34.227  1.00  0.00     0.060 A 
BRANCH  88  89
ATOM     89  S   UNL A   1      45.823  21.555  34.992  1.00  0.00     0.124 S 
ATOM     90  O   UNL A   1      46.124  21.915  36.373  1.00  0.00    -0.237 OA
ATOM     91  O   UNL A   1      44.516  20.947  34.760  1.00  0.00    -0.237 OA
ATOM     92  O   UNL A   1      46.924  20.961  34.241  1.00  0.00    -0.744 OA
ENDBRANCH  88  89
ENDBRANCH  56  81
BRANCH  68  93
ATOM     93  C   UNL A   1      48.394  29.134  27.794  1.00  0.00     0.058 A 
ATOM     94  C   UNL A   1      49.731  29.404  28.124  1.00  0.00     0.135 A 
ATOM     95  C   UNL A   1      48.138  28.442  26.600  1.00  0.00     0.135 A 
ATOM     96  F   UNL A   1      50.027  30.067  29.253  1.00  0.00    -0.206 F 
ATOM     97  C   UNL A   1      50.777  29.005  27.298  1.00  0.00     0.059 A 
ATOM     98  C   UNL A   1      49.170  28.012  25.770  1.00  0.00     0.059 A 
ATOM     99  F   UNL A   1      46.876  28.150  26.244  1.00  0.00    -0.206 F 
ATOM    100  C   UNL A   1      50.486  28.303  26.126  1.00  0.00     0.060 A 
BRANCH 100 101
ATOM    101  S   UNL A   1      51.856  27.744  25.092  1.00  0.00     0.124 S 
ATOM    102  O   UNL A   1      52.992  27.908  25.993  1.00  0.00    -0.237 OA
ATOM    103  O   UNL A   1      51.479  26.366  24.793  1.00  0.00    -0.237 OA
ATOM    104  O   UNL A   1      51.819  28.658  23.954  1.00  0.00    -0.744 OA
ENDBRANCH 100 101
ENDBRANCH  68  93
ENDBRANCH  42  43
ENDBRANCH  35  37
ENDBRANCH  34  35
ENDBRANCH  33  34
ENDBRANCH  32  33
ENDBRANCH  31  32
ENDBRANCH   1  31
TORSDOF 21
ENDMDL
MODEL 3
REMARK VINA RESULT:     -10.6      6.033     12.733
REMARK SMILES Cc1ccc(C(=O)OCCOCCOCCOC(=O)c2ccc(-c3c4nc(c(-c5c(F)cc(S(=O)(=O)[O-])cc5F)c5ccc([nH]5)c(-c5c(F)cc(S(=O)(=O)[O-])cc5F)c5nc(c(-c6c(F)cc(S(=O)(=O)[O-])cc6F)c6ccc3[nH]6)C=C5)C=C4)cc2)c2c1N[C@H](c1ccccc1F)[C@H]1CC=C[C@@H]21
REMARK SMILES IDX 13 1 12 2 11 3 10 4 9 5 8 6 6 7 7 8 5 9 1 10 2 11 3 12 87 13
REMARK SMILES IDX 4 14 86 15 88 16 101 17 89 18 97 20 100 21 98 22 99 23 90 24
REMARK SMILES IDX 91 25 95 26 92 27 94 28 96 29 93 30 14 31 15 32 16 33 17 34
REMARK SMILES IDX 18 35 19 36 20 37 21 38 85 39 22 40 84 41 23 42 24 43 25 44
REMARK SMILES IDX 78 45 26 46 83 47 77 48 79 49 27 50 82 51 76 52 75 53 28 55
REMARK SMILES IDX 62 56 41 57 61 58 42 59 45 60 60 61 80 62 43 63 44 64 59 66
REMARK SMILES IDX 81 67 46 68 29 69 30 70 39 71 31 72 32 73 38 74 40 75 33 76
REMARK SMILES IDX 34 77 35 78 36 79 37 80 63 81 64 82 73 83 65 84 66 85 72 86
REMARK SMILES IDX 74 87 67 88 68 89 69 90 70 91 71 92 47 93 48 94 57 95 49 96
REMARK SMILES IDX 50 97 56 98 58 99 51 100 52 101 53 102 54 103 55 104
REMARK H PARENT 88 19 79 54 45 65
REMARK Flexibility Score: inf
ROOT
ATOM      1  C   UNL A   1      35.926  34.931  32.579  1.00  0.00     0.188 C 
ENDROOT
BRANCH   1   2
ATOM      2  C   UNL A   1      34.802  35.638  33.361  1.00  0.00     0.188 C 
BRANCH   2   3
ATOM      3  O   UNL A   1      34.208  36.738  32.682  1.00  0.00    -0.376 OA
BRANCH   3   4
ATOM      4  C   UNL A   1      32.947  36.471  32.080  1.00  0.00     0.202 C 
BRANCH   4   5
ATOM      5  C   UNL A   1      32.981  36.597  30.558  1.00  0.00     0.261 C 
BRANCH   5   6
ATOM      6  O   UNL A   1      32.978  35.325  29.888  1.00  0.00    -0.460 OA
BRANCH   6   7
ATOM      7  C   UNL A   1      33.610  35.257  28.692  1.00  0.00     0.338 C 
ATOM      8  O   UNL A   1      34.136  36.192  28.117  1.00  0.00    -0.246 OA
BRANCH   7   9
ATOM      9  C   UNL A   1      33.548  33.845  28.216  1.00  0.00     0.065 A 
ATOM     10  C   UNL A   1      32.994  29.864  26.642  1.00  0.00     0.046 C 
ATOM     11  C   UNL A   1      33.223  31.216  27.271  1.00  0.00    -0.028 A 
ATOM     12  C   UNL A   1      32.214  32.172  27.084  1.00  0.00     0.006 A 
ATOM     13  C   UNL A   1      34.408  31.566  27.958  1.00  0.00     0.042 A 
ATOM     14  C   UNL A   1      32.373  33.471  27.549  1.00  0.00     0.016 A 
ATOM     15  C   UNL A   1      34.576  32.895  28.441  1.00  0.00    -0.003 A 
ATOM     16  N   UNL A   1      35.417  30.630  28.130  1.00  0.00    -0.377 N 
ATOM     17  C   UNL A   1      35.771  33.210  29.321  1.00  0.00     0.050 C 
ATOM     18  C   UNL A   1      36.762  31.046  28.502  1.00  0.00     0.117 C 
ATOM     19  H   UNL A   1      35.221  29.673  28.001  1.00  0.00     0.161 HD
ATOM     20  C   UNL A   1      36.649  31.993  29.710  1.00  0.00     0.031 C 
ATOM     21  C   UNL A   1      36.808  34.154  28.782  1.00  0.00    -0.023 C 
ATOM     22  C   UNL A   1      37.996  32.626  30.097  1.00  0.00     0.034 C 
ATOM     23  C   UNL A   1      38.027  33.852  29.246  1.00  0.00    -0.030 C 
BRANCH  18  24
ATOM     24  C   UNL A   1      37.647  29.817  28.626  1.00  0.00     0.010 A 
ATOM     25  C   UNL A   1      38.637  29.603  27.644  1.00  0.00     0.009 A 
ATOM     26  C   UNL A   1      37.572  28.895  29.676  1.00  0.00     0.128 A 
ATOM     27  C   UNL A   1      39.540  28.542  27.746  1.00  0.00     0.001 A 
ATOM     28  C   UNL A   1      38.478  27.841  29.790  1.00  0.00     0.039 A 
ATOM     29  F   UNL A   1      36.632  29.013  30.623  1.00  0.00    -0.207 F 
ATOM     30  C   UNL A   1      39.469  27.668  28.828  1.00  0.00     0.003 A 
ENDBRANCH  18  24
ENDBRANCH   7   9
ENDBRANCH   6   7
ENDBRANCH   5   6
ENDBRANCH   4   5
ENDBRANCH   3   4
ENDBRANCH   2   3
ENDBRANCH   1   2
BRANCH   1  31
ATOM     31  O   UNL A   1      36.606  33.825  33.161  1.00  0.00    -0.376 OA
BRANCH  31  32
ATOM     32  C   UNL A   1      35.867  32.649  33.453  1.00  0.00     0.202 C 
BRANCH  32  33
ATOM     33  C   UNL A   1      36.528  31.298  33.156  1.00  0.00     0.261 C 
BRANCH  33  34
ATOM     34  O   UNL A   1      37.966  31.333  33.154  1.00  0.00    -0.460 OA
BRANCH  34  35
ATOM     35  C   UNL A   1      38.576  30.132  33.310  1.00  0.00     0.338 C 
ATOM     36  O   UNL A   1      38.099  29.117  33.787  1.00  0.00    -0.246 OA
BRANCH  35  37
ATOM     37  C   UNL A   1      39.913  30.161  32.685  1.00  0.00     0.060 A 
ATOM     38  C   UNL A   1      40.047  30.767  31.430  1.00  0.00     0.016 A 
ATOM     39  C   UNL A   1      40.992  29.493  33.268  1.00  0.00     0.016 A 
ATOM     40  C   UNL A   1      41.259  30.690  30.745  1.00  0.00     0.010 A 
ATOM     41  C   UNL A   1      42.199  29.391  32.564  1.00  0.00     0.010 A 
ATOM     42  C   UNL A   1      42.328  29.965  31.288  1.00  0.00    -0.014 A 
BRANCH  42  43
ATOM     43  C   UNL A   1      43.494  29.657  30.424  1.00  0.00     0.031 A 
ATOM     44  C   UNL A   1      43.513  28.344  29.689  1.00  0.00     0.074 A 
ATOM     45  C   UNL A   1      44.489  30.545  30.248  1.00  0.00     0.049 A 
ATOM     46  N   UNL A   1      44.427  27.854  28.894  1.00  0.00    -0.248 NA
ATOM     47  C   UNL A   1      42.341  27.469  29.870  1.00  0.00     0.031 C 
ATOM     48  C   UNL A   1      44.550  31.873  30.854  1.00  0.00     0.029 A 
ATOM     49  N   UNL A   1      45.635  30.466  29.496  1.00  0.00    -0.354 N 
ATOM     50  C   UNL A   1      43.943  26.619  28.478  1.00  0.00     0.074 A 
ATOM     51  C   UNL A   1      42.658  26.429  29.111  1.00  0.00     0.031 C 
ATOM     52  C   UNL A   1      45.672  32.490  30.441  1.00  0.00     0.029 A 
ATOM     53  C   UNL A   1      46.429  31.586  29.577  1.00  0.00     0.049 A 
ATOM     54  H   UNL A   1      45.867  29.681  28.950  1.00  0.00     0.167 HD
ATOM     55  C   UNL A   1      44.522  25.723  27.647  1.00  0.00     0.037 A 
ATOM     56  C   UNL A   1      47.638  31.838  29.035  1.00  0.00     0.037 A 
ATOM     57  C   UNL A   1      45.811  25.901  27.037  1.00  0.00     0.049 A 
ATOM     58  C   UNL A   1      48.303  30.780  28.188  1.00  0.00     0.074 A 
ATOM     59  C   UNL A   1      46.495  25.031  26.205  1.00  0.00     0.029 A 
ATOM     60  N   UNL A   1      46.616  27.019  27.197  1.00  0.00    -0.354 N 
ATOM     61  N   UNL A   1      47.838  29.612  27.810  1.00  0.00    -0.248 NA
ATOM     62  C   UNL A   1      49.664  31.065  27.708  1.00  0.00     0.031 C 
ATOM     63  C   UNL A   1      47.730  25.606  25.895  1.00  0.00     0.029 A 
ATOM     64  C   UNL A   1      47.796  26.853  26.496  1.00  0.00     0.049 A 
ATOM     65  H   UNL A   1      46.381  27.812  27.731  1.00  0.00     0.167 HD
ATOM     66  C   UNL A   1      48.843  29.032  27.042  1.00  0.00     0.074 A 
ATOM     67  C   UNL A   1      49.932  29.983  26.989  1.00  0.00     0.031 C 
ATOM     68  C   UNL A   1      48.866  27.817  26.443  1.00  0.00     0.037 A 
BRANCH  55  69
ATOM     69  C   UNL A   1      43.782  24.449  27.366  1.00  0.00     0.058 A 
ATOM     70  C   UNL A   1      43.024  24.286  26.198  1.00  0.00     0.135 A 
ATOM     71  C   UNL A   1      43.897  23.354  28.237  1.00  0.00     0.135 A 
ATOM     72  F   UNL A   1      42.865  25.312  25.347  1.00  0.00    -0.206 F 
ATOM     73  C   UNL A   1      42.409  23.076  25.897  1.00  0.00     0.059 A 
ATOM     74  C   UNL A   1      43.306  22.129  27.948  1.00  0.00     0.059 A 
ATOM     75  F   UNL A   1      44.604  23.466  29.373  1.00  0.00    -0.206 F 
ATOM     76  C   UNL A   1      42.564  22.000  26.775  1.00  0.00     0.060 A 
BRANCH  76  77
ATOM     77  S   UNL A   1      41.804  20.421  26.340  1.00  0.00     0.124 S 
ATOM     78  O   UNL A   1      41.633  19.806  27.653  1.00  0.00    -0.237 OA
ATOM     79  O   UNL A   1      40.577  20.841  25.671  1.00  0.00    -0.237 OA
ATOM     80  O   UNL A   1      42.799  19.789  25.478  1.00  0.00    -0.744 OA
ENDBRANCH  76  77
ENDBRANCH  55  69
BRANCH  56  81
ATOM     81  C   UNL A   1      48.335  33.127  29.303  1.00  0.00     0.058 A 
ATOM     82  C   UNL A   1      49.189  33.275  30.407  1.00  0.00     0.135 A 
ATOM     83  C   UNL A   1      48.122  34.250  28.488  1.00  0.00     0.135 A 
ATOM     84  F   UNL A   1      49.412  32.236  31.226  1.00  0.00    -0.206 F 
ATOM     85  C   UNL A   1      49.787  34.495  30.709  1.00  0.00     0.059 A 
ATOM     86  C   UNL A   1      48.730  35.474  28.754  1.00  0.00     0.059 A 
ATOM     87  F   UNL A   1      47.318  34.163  27.418  1.00  0.00    -0.206 F 
ATOM     88  C   UNL A   1      49.548  35.590  29.877  1.00  0.00     0.060 A 
BRANCH  88  89
ATOM     89  S   UNL A   1      50.337  37.167  30.268  1.00  0.00     0.124 S 
ATOM     90  O   UNL A   1      51.183  36.800  31.397  1.00  0.00    -0.237 OA
ATOM     91  O   UNL A   1      51.033  37.480  29.023  1.00  0.00    -0.237 OA
ATOM     92  O   UNL A   1      49.208  38.037  30.581  1.00  0.00    -0.744 OA
ENDBRANCH  88  89
ENDBRANCH  56  81
BRANCH  68  93
ATOM     93  C   UNL A   1      50.093  27.442  25.659  1.00  0.00     0.058 A 
ATOM     94  C   UNL A   1      50.139  27.574  24.263  1.00  0.00     0.135 A 
ATOM     95  C   UNL A   1      51.262  27.032  26.320  1.00  0.00     0.135 A 
ATOM     96  F   UNL A   1      49.046  27.957  23.585  1.00  0.00    -0.206 F 
ATOM     97  C   UNL A   1      51.301  27.306  23.547  1.00  0.00     0.059 A 
ATOM     98  C   UNL A   1      52.443  26.782  25.626  1.00  0.00     0.059 A 
ATOM     99  F   UNL A   1      51.274  26.901  27.656  1.00  0.00    -0.206 F 
ATOM    100  C   UNL A   1      52.450  26.916  24.238  1.00  0.00     0.060 A 
BRANCH 100 101
ATOM    101  S   UNL A   1      53.965  26.626  23.301  1.00  0.00     0.124 S 
ATOM    102  O   UNL A   1      54.661  25.669  24.153  1.00  0.00    -0.237 OA
ATOM    103  O   UNL A   1      53.455  26.098  22.039  1.00  0.00    -0.237 OA
ATOM    104  O   UNL A   1      54.573  27.951  23.218  1.00  0.00    -0.744 OA
ENDBRANCH 100 101
ENDBRANCH  68  93
ENDBRANCH  42  43
ENDBRANCH  35  37
ENDBRANCH  34  35
ENDBRANCH  33  34
ENDBRANCH  32  33
ENDBRANCH  31  32
ENDBRANCH   1  31
TORSDOF 21
ENDMDL
