MODEL 1
REMARK VINA RESULT:     -10.0      0.000      0.000
REMARK SMILES COC1=CC2=NC(C(=O)OCCOCCOCCOC(=O)c3ccc(-c4c5nc(c(-c6c(F)cc(S(=O)(=O)[O-])cc6F)c6ccc([nH]6)c(-c6c(F)cc(S(=O)(=O)[O-])cc6F)c6nc(c(-c7c(F)cc(S(=O)(=O)[O-])cc7F)c7ccc4[nH]7)C=C6)C=C5)cc3)=C[C@@H]2C(OC)=C1
REMARK SMILES IDX 15 1 14 2 13 3 12 4 11 5 10 6 8 7 9 8 7 9 3 10 4 11 93 12
REMARK SMILES IDX 5 13 90 14 6 15 89 16 88 17 2 18 1 19 91 20 92 21 16 22
REMARK SMILES IDX 17 23 18 24 19 25 20 26 21 27 22 28 23 29 87 30 24 31 86 32
REMARK SMILES IDX 25 33 26 34 27 35 80 36 28 37 85 38 79 39 81 40 29 41 84 42
REMARK SMILES IDX 78 43 77 44 30 46 64 47 43 48 63 49 44 50 47 51 62 52 82 53
REMARK SMILES IDX 45 54 46 55 61 57 83 58 48 59 31 60 32 61 41 62 33 63 34 64
REMARK SMILES IDX 40 65 42 66 35 67 36 68 37 69 38 70 39 71 65 72 66 73 75 74
REMARK SMILES IDX 67 75 68 76 74 77 76 78 69 79 70 80 71 81 72 82 73 83 49 84
REMARK SMILES IDX 50 85 59 86 51 87 52 88 58 89 60 90 53 91 54 92 55 93 56 94
REMARK SMILES IDX 57 95
REMARK H PARENT 81 45 47 56
REMARK Flexibility Score: inf
ROOT
ATOM      1  C   UNL A   1      35.338  20.715  25.252  1.00  0.00     0.188 C 
ENDROOT
BRANCH   1   2
ATOM      2  C   UNL A   1      33.854  20.674  24.820  1.00  0.00     0.188 C 
BRANCH   2   3
ATOM      3  O   UNL A   1      32.992  21.769  25.109  1.00  0.00    -0.376 OA
BRANCH   3   4
ATOM      4  C   UNL A   1      33.127  22.981  24.378  1.00  0.00     0.202 C 
BRANCH   4   5
ATOM      5  C   UNL A   1      31.891  23.608  23.703  1.00  0.00     0.261 C 
BRANCH   5   6
ATOM      6  O   UNL A   1      32.109  24.119  22.376  1.00  0.00    -0.459 OA
BRANCH   6   7
ATOM      7  C   UNL A   1      32.816  25.275  22.291  1.00  0.00     0.356 C 
ATOM      8  O   UNL A   1      33.809  25.457  21.597  1.00  0.00    -0.244 OA
BRANCH   7   9
ATOM      9  C   UNL A   1      32.158  26.366  23.075  1.00  0.00     0.145 C 
ATOM     10  C   UNL A   1      31.550  29.924  25.618  1.00  0.00     0.124 C 
ATOM     11  C   UNL A   1      32.256  28.787  25.665  1.00  0.00     0.071 C 
ATOM     12  C   UNL A   1      30.636  30.235  24.527  1.00  0.00     0.089 C 
ATOM     13  C   UNL A   1      31.952  27.805  24.614  1.00  0.00     0.060 C 
ATOM     14  C   UNL A   1      30.185  29.281  23.683  1.00  0.00     0.112 C 
ATOM     15  N   UNL A   1      32.759  26.872  24.213  1.00  0.00    -0.245 NA
ATOM     16  C   UNL A   1      30.602  27.855  23.915  1.00  0.00     0.129 C 
ATOM     17  C   UNL A   1      30.993  26.967  22.777  1.00  0.00     0.027 C 
BRANCH  10  18
ATOM     18  O   UNL A   1      31.781  30.932  26.532  1.00  0.00    -0.497 OA
ATOM     19  C   UNL A   1      33.068  30.808  27.138  1.00  0.00     0.278 C 
ENDBRANCH  10  18
BRANCH  14  20
ATOM     20  O   UNL A   1      29.257  29.453  22.678  1.00  0.00    -0.500 OA
ATOM     21  C   UNL A   1      29.560  30.410  21.665  1.00  0.00     0.278 C 
ENDBRANCH  14  20
ENDBRANCH   7   9
ENDBRANCH   6   7
ENDBRANCH   5   6
ENDBRANCH   4   5
ENDBRANCH   3   4
ENDBRANCH   2   3
ENDBRANCH   1   2
BRANCH   1  22
ATOM     22  O   UNL A   1      36.212  21.325  24.314  1.00  0.00    -0.376 OA
BRANCH  22  23
ATOM     23  C   UNL A   1      37.208  22.201  24.825  1.00  0.00     0.202 C 
BRANCH  23  24
ATOM     24  C   UNL A   1      38.245  21.607  25.777  1.00  0.00     0.261 C 
BRANCH  24  25
ATOM     25  O   UNL A   1      39.510  22.252  25.775  1.00  0.00    -0.460 OA
BRANCH  25  26
ATOM     26  C   UNL A   1      40.044  22.498  26.989  1.00  0.00     0.338 C 
ATOM     27  O   UNL A   1      40.289  21.682  27.861  1.00  0.00    -0.246 OA
BRANCH  26  28
ATOM     28  C   UNL A   1      40.234  23.946  27.118  1.00  0.00     0.060 A 
ATOM     29  C   UNL A   1      41.534  24.450  27.004  1.00  0.00     0.016 A 
ATOM     30  C   UNL A   1      39.173  24.733  27.591  1.00  0.00     0.016 A 
ATOM     31  C   UNL A   1      41.810  25.689  27.544  1.00  0.00     0.010 A 
ATOM     32  C   UNL A   1      39.453  25.960  28.142  1.00  0.00     0.010 A 
ATOM     33  C   UNL A   1      40.783  26.381  28.189  1.00  0.00    -0.014 A 
BRANCH  33  34
ATOM     34  C   UNL A   1      41.138  27.508  29.032  1.00  0.00     0.031 A 
ATOM     35  C   UNL A   1      42.207  28.396  28.525  1.00  0.00     0.074 A 
ATOM     36  C   UNL A   1      40.384  27.790  30.114  1.00  0.00     0.049 A 
ATOM     37  N   UNL A   1      43.273  28.796  29.137  1.00  0.00    -0.248 NA
ATOM     38  C   UNL A   1      42.110  28.845  27.125  1.00  0.00     0.031 C 
ATOM     39  C   UNL A   1      39.126  27.139  30.505  1.00  0.00     0.029 A 
ATOM     40  N   UNL A   1      40.492  28.813  31.006  1.00  0.00    -0.354 N 
ATOM     41  C   UNL A   1      43.872  29.711  28.278  1.00  0.00     0.074 A 
ATOM     42  C   UNL A   1      43.202  29.596  27.009  1.00  0.00     0.031 C 
ATOM     43  C   UNL A   1      38.481  27.925  31.391  1.00  0.00     0.029 A 
ATOM     44  C   UNL A   1      39.314  29.076  31.695  1.00  0.00     0.049 A 
ATOM     45  H   UNL A   1      41.325  29.318  31.150  1.00  0.00     0.167 HD
ATOM     46  C   UNL A   1      44.719  30.675  28.726  1.00  0.00     0.037 A 
ATOM     47  C   UNL A   1      39.003  30.218  32.355  1.00  0.00     0.037 A 
ATOM     48  C   UNL A   1      45.276  30.361  30.013  1.00  0.00     0.049 A 
ATOM     49  C   UNL A   1      40.279  30.928  32.640  1.00  0.00     0.074 A 
ATOM     50  C   UNL A   1      46.017  29.308  30.513  1.00  0.00     0.029 A 
ATOM     51  N   UNL A   1      44.814  31.047  31.109  1.00  0.00    -0.354 N 
ATOM     52  N   UNL A   1      41.201  30.502  33.460  1.00  0.00    -0.248 NA
ATOM     53  C   UNL A   1      40.711  31.959  31.708  1.00  0.00     0.031 C 
ATOM     54  C   UNL A   1      45.592  29.153  31.862  1.00  0.00     0.029 A 
ATOM     55  C   UNL A   1      44.630  30.132  32.116  1.00  0.00     0.049 A 
ATOM     56  H   UNL A   1      44.646  32.016  31.162  1.00  0.00     0.167 HD
ATOM     57  C   UNL A   1      42.401  30.899  32.887  1.00  0.00     0.074 A 
ATOM     58  C   UNL A   1      42.031  31.893  31.888  1.00  0.00     0.031 C 
ATOM     59  C   UNL A   1      43.550  30.185  33.077  1.00  0.00     0.037 A 
BRANCH  46  60
ATOM     60  C   UNL A   1      44.765  32.052  28.123  1.00  0.00     0.058 A 
ATOM     61  C   UNL A   1      45.933  32.505  27.483  1.00  0.00     0.135 A 
ATOM     62  C   UNL A   1      43.783  33.035  28.387  1.00  0.00     0.135 A 
ATOM     63  F   UNL A   1      46.937  31.654  27.216  1.00  0.00    -0.206 F 
ATOM     64  C   UNL A   1      46.130  33.850  27.169  1.00  0.00     0.059 A 
ATOM     65  C   UNL A   1      43.934  34.368  28.031  1.00  0.00     0.059 A 
ATOM     66  F   UNL A   1      42.679  32.760  29.094  1.00  0.00    -0.206 F 
ATOM     67  C   UNL A   1      45.130  34.775  27.463  1.00  0.00     0.060 A 
BRANCH  67  68
ATOM     68  S   UNL A   1      45.424  36.528  27.174  1.00  0.00     0.124 S 
ATOM     69  O   UNL A   1      45.979  36.938  28.459  1.00  0.00    -0.237 OA
ATOM     70  O   UNL A   1      46.358  36.503  26.052  1.00  0.00    -0.237 OA
ATOM     71  O   UNL A   1      44.094  37.042  26.863  1.00  0.00    -0.744 OA
ENDBRANCH  67  68
ENDBRANCH  46  60
BRANCH  47  72
ATOM     72  C   UNL A   1      37.675  30.889  32.428  1.00  0.00     0.058 A 
ATOM     73  C   UNL A   1      37.259  31.531  33.609  1.00  0.00     0.135 A 
ATOM     74  C   UNL A   1      36.896  31.151  31.279  1.00  0.00     0.135 A 
ATOM     75  F   UNL A   1      37.949  31.362  34.747  1.00  0.00    -0.206 F 
ATOM     76  C   UNL A   1      36.176  32.417  33.637  1.00  0.00     0.059 A 
ATOM     77  C   UNL A   1      35.797  32.007  31.290  1.00  0.00     0.059 A 
ATOM     78  F   UNL A   1      37.229  30.661  30.078  1.00  0.00    -0.206 F 
ATOM     79  C   UNL A   1      35.462  32.662  32.466  1.00  0.00     0.060 A 
BRANCH  79  80
ATOM     80  S   UNL A   1      34.187  33.942  32.446  1.00  0.00     0.124 S 
ATOM     81  O   UNL A   1      34.857  35.045  33.123  1.00  0.00    -0.237 OA
ATOM     82  O   UNL A   1      33.950  34.119  31.017  1.00  0.00    -0.237 OA
ATOM     83  O   UNL A   1      33.083  33.333  33.184  1.00  0.00    -0.744 OA
ENDBRANCH  79  80
ENDBRANCH  47  72
BRANCH  59  84
ATOM     84  C   UNL A   1      43.590  29.177  34.198  1.00  0.00     0.058 A 
ATOM     85  C   UNL A   1      43.178  27.840  34.069  1.00  0.00     0.135 A 
ATOM     86  C   UNL A   1      44.214  29.542  35.401  1.00  0.00     0.135 A 
ATOM     87  F   UNL A   1      42.674  27.380  32.915  1.00  0.00    -0.206 F 
ATOM     88  C   UNL A   1      43.336  26.919  35.107  1.00  0.00     0.059 A 
ATOM     89  C   UNL A   1      44.412  28.631  36.437  1.00  0.00     0.059 A 
ATOM     90  F   UNL A   1      44.691  30.788  35.562  1.00  0.00    -0.206 F 
ATOM     91  C   UNL A   1      43.957  27.323  36.287  1.00  0.00     0.060 A 
BRANCH  91  92
ATOM     92  S   UNL A   1      44.246  26.104  37.589  1.00  0.00     0.124 S 
ATOM     93  O   UNL A   1      43.660  24.898  37.015  1.00  0.00    -0.237 OA
ATOM     94  O   UNL A   1      45.701  26.105  37.714  1.00  0.00    -0.237 OA
ATOM     95  O   UNL A   1      43.534  26.659  38.739  1.00  0.00    -0.744 OA
ENDBRANCH  91  92
ENDBRANCH  59  84
ENDBRANCH  33  34
ENDBRANCH  26  28
ENDBRANCH  25  26
ENDBRANCH  24  25
ENDBRANCH  23  24
ENDBRANCH  22  23
ENDBRANCH   1  22
TORSDOF 22
ENDMDL
MODEL 2
REMARK VINA RESULT:      -9.5      2.761      4.539
REMARK SMILES COC1=CC2=NC(C(=O)OCCOCCOCCOC(=O)c3ccc(-c4c5nc(c(-c6c(F)cc(S(=O)(=O)[O-])cc6F)c6ccc([nH]6)c(-c6c(F)cc(S(=O)(=O)[O-])cc6F)c6nc(c(-c7c(F)cc(S(=O)(=O)[O-])cc7F)c7ccc4[nH]7)C=C6)C=C5)cc3)=C[C@@H]2C(OC)=C1
REMARK SMILES IDX 15 1 14 2 13 3 12 4 11 5 10 6 8 7 9 8 7 9 3 10 4 11 93 12
REMARK SMILES IDX 5 13 90 14 6 15 89 16 88 17 2 18 1 19 91 20 92 21 16 22
REMARK SMILES IDX 17 23 18 24 19 25 20 26 21 27 22 28 23 29 87 30 24 31 86 32
REMARK SMILES IDX 25 33 26 34 27 35 80 36 28 37 85 38 79 39 81 40 29 41 84 42
REMARK SMILES IDX 78 43 77 44 30 46 64 47 43 48 63 49 44 50 47 51 62 52 82 53
REMARK SMILES IDX 45 54 46 55 61 57 83 58 48 59 31 60 32 61 41 62 33 63 34 64
REMARK SMILES IDX 40 65 42 66 35 67 36 68 37 69 38 70 39 71 65 72 66 73 75 74
REMARK SMILES IDX 67 75 68 76 74 77 76 78 69 79 70 80 71 81 72 82 73 83 49 84
REMARK SMILES IDX 50 85 59 86 51 87 52 88 58 89 60 90 53 91 54 92 55 93 56 94
REMARK SMILES IDX 57 95
REMARK H PARENT 81 45 47 56
REMARK Flexibility Score: inf
ROOT
ATOM      1  C   UNL A   1      41.802  21.471  25.948  1.00  0.00     0.188 C 
ENDROOT
BRANCH   1   2
ATOM      2  C   UNL A   1      41.066  22.582  26.732  1.00  0.00     0.188 C 
BRANCH   2   3
ATOM      3  O   UNL A   1      39.725  22.385  27.166  1.00  0.00    -0.376 OA
BRANCH   3   4
ATOM      4  C   UNL A   1      38.680  22.310  26.205  1.00  0.00     0.202 C 
BRANCH   4   5
ATOM      5  C   UNL A   1      37.973  23.599  25.742  1.00  0.00     0.261 C 
BRANCH   5   6
ATOM      6  O   UNL A   1      37.042  23.433  24.658  1.00  0.00    -0.459 OA
BRANCH   6   7
ATOM      7  C   UNL A   1      35.886  22.787  24.959  1.00  0.00     0.356 C 
ATOM      8  O   UNL A   1      35.745  21.573  25.046  1.00  0.00    -0.244 OA
BRANCH   7   9
ATOM      9  C   UNL A   1      34.799  23.760  25.294  1.00  0.00     0.145 C 
ATOM     10  C   UNL A   1      31.683  26.864  24.909  1.00  0.00     0.124 C 
ATOM     11  C   UNL A   1      32.964  26.703  24.552  1.00  0.00     0.071 C 
ATOM     12  C   UNL A   1      30.954  25.870  25.684  1.00  0.00     0.089 C 
ATOM     13  C   UNL A   1      33.634  25.517  25.106  1.00  0.00     0.060 C 
ATOM     14  C   UNL A   1      31.591  24.898  26.374  1.00  0.00     0.112 C 
ATOM     15  N   UNL A   1      34.676  24.944  24.589  1.00  0.00    -0.245 NA
ATOM     16  C   UNL A   1      33.094  24.882  26.378  1.00  0.00     0.129 C 
ATOM     17  C   UNL A   1      33.856  23.602  26.239  1.00  0.00     0.027 C 
BRANCH  10  18
ATOM     18  O   UNL A   1      30.945  27.922  24.416  1.00  0.00    -0.497 OA
ATOM     19  C   UNL A   1      29.947  27.481  23.494  1.00  0.00     0.278 C 
ENDBRANCH  10  18
BRANCH  14  20
ATOM     20  O   UNL A   1      31.002  23.966  27.203  1.00  0.00    -0.500 OA
ATOM     21  C   UNL A   1      30.359  22.855  26.584  1.00  0.00     0.278 C 
ENDBRANCH  14  20
ENDBRANCH   7   9
ENDBRANCH   6   7
ENDBRANCH   5   6
ENDBRANCH   4   5
ENDBRANCH   3   4
ENDBRANCH   2   3
ENDBRANCH   1   2
BRANCH   1  22
ATOM     22  O   UNL A   1      42.773  21.942  25.024  1.00  0.00    -0.376 OA
BRANCH  22  23
ATOM     23  C   UNL A   1      43.903  22.620  25.554  1.00  0.00     0.202 C 
BRANCH  23  24
ATOM     24  C   UNL A   1      44.354  23.897  24.844  1.00  0.00     0.261 C 
BRANCH  24  25
ATOM     25  O   UNL A   1      44.206  25.092  25.596  1.00  0.00    -0.460 OA
BRANCH  25  26
ATOM     26  C   UNL A   1      43.064  25.779  25.385  1.00  0.00     0.338 C 
ATOM     27  O   UNL A   1      41.996  25.328  25.009  1.00  0.00    -0.246 OA
BRANCH  26  28
ATOM     28  C   UNL A   1      43.335  27.199  25.632  1.00  0.00     0.060 A 
ATOM     29  C   UNL A   1      44.511  27.534  26.309  1.00  0.00     0.016 A 
ATOM     30  C   UNL A   1      42.314  28.135  25.411  1.00  0.00     0.016 A 
ATOM     31  C   UNL A   1      44.584  28.762  26.935  1.00  0.00     0.010 A 
ATOM     32  C   UNL A   1      42.381  29.351  26.047  1.00  0.00     0.010 A 
ATOM     33  C   UNL A   1      43.477  29.611  26.872  1.00  0.00    -0.014 A 
BRANCH  33  34
ATOM     34  C   UNL A   1      43.422  30.736  27.787  1.00  0.00     0.031 A 
ATOM     35  C   UNL A   1      44.087  31.979  27.339  1.00  0.00     0.074 A 
ATOM     36  C   UNL A   1      42.644  30.660  28.886  1.00  0.00     0.049 A 
ATOM     37  N   UNL A   1      44.951  32.700  27.975  1.00  0.00    -0.248 NA
ATOM     38  C   UNL A   1      43.800  32.448  25.972  1.00  0.00     0.031 C 
ATOM     39  C   UNL A   1      41.716  29.576  29.233  1.00  0.00     0.029 A 
ATOM     40  N   UNL A   1      42.398  31.596  29.843  1.00  0.00    -0.354 N 
ATOM     41  C   UNL A   1      45.159  33.820  27.178  1.00  0.00     0.074 A 
ATOM     42  C   UNL A   1      44.545  33.549  25.905  1.00  0.00     0.031 C 
ATOM     43  C   UNL A   1      40.852  30.020  30.169  1.00  0.00     0.029 A 
ATOM     44  C   UNL A   1      41.221  31.373  30.548  1.00  0.00     0.049 A 
ATOM     45  H   UNL A   1      42.995  32.358  30.019  1.00  0.00     0.167 HD
ATOM     46  C   UNL A   1      45.613  34.995  27.688  1.00  0.00     0.037 A 
ATOM     47  C   UNL A   1      40.535  32.283  31.282  1.00  0.00     0.037 A 
ATOM     48  C   UNL A   1      46.276  34.826  28.951  1.00  0.00     0.049 A 
ATOM     49  C   UNL A   1      41.476  33.387  31.612  1.00  0.00     0.074 A 
ATOM     50  C   UNL A   1      47.359  34.084  29.380  1.00  0.00     0.029 A 
ATOM     51  N   UNL A   1      45.624  35.231  30.090  1.00  0.00    -0.354 N 
ATOM     52  N   UNL A   1      42.509  33.274  32.402  1.00  0.00    -0.248 NA
ATOM     53  C   UNL A   1      41.484  34.560  30.750  1.00  0.00     0.031 C 
ATOM     54  C   UNL A   1      47.051  33.703  30.717  1.00  0.00     0.029 A 
ATOM     55  C   UNL A   1      45.807  34.252  31.034  1.00  0.00     0.049 A 
ATOM     56  H   UNL A   1      45.119  36.068  30.207  1.00  0.00     0.167 HD
ATOM     57  C   UNL A   1      43.470  34.112  31.856  1.00  0.00     0.074 A 
ATOM     58  C   UNL A   1      42.744  34.964  30.924  1.00  0.00     0.031 C 
ATOM     59  C   UNL A   1      44.804  33.852  31.998  1.00  0.00     0.037 A 
BRANCH  46  60
ATOM     60  C   UNL A   1      45.144  36.330  27.176  1.00  0.00     0.058 A 
ATOM     61  C   UNL A   1      46.077  37.283  26.728  1.00  0.00     0.135 A 
ATOM     62  C   UNL A   1      43.822  36.798  27.361  1.00  0.00     0.135 A 
ATOM     63  F   UNL A   1      47.364  36.945  26.552  1.00  0.00    -0.206 F 
ATOM     64  C   UNL A   1      45.730  38.618  26.522  1.00  0.00     0.059 A 
ATOM     65  C   UNL A   1      43.442  38.108  27.105  1.00  0.00     0.059 A 
ATOM     66  F   UNL A   1      42.865  36.026  27.894  1.00  0.00    -0.206 F 
ATOM     67  C   UNL A   1      44.412  39.022  26.729  1.00  0.00     0.060 A 
BRANCH  67  68
ATOM     68  S   UNL A   1      43.982  40.765  26.584  1.00  0.00     0.124 S 
ATOM     69  O   UNL A   1      44.658  41.323  27.749  1.00  0.00    -0.237 OA
ATOM     70  O   UNL A   1      44.548  41.116  25.285  1.00  0.00    -0.237 OA
ATOM     71  O   UNL A   1      42.523  40.753  26.641  1.00  0.00    -0.744 OA
ENDBRANCH  67  68
ENDBRANCH  46  60
BRANCH  47  72
ATOM     72  C   UNL A   1      39.057  32.423  31.399  1.00  0.00     0.058 A 
ATOM     73  C   UNL A   1      38.418  32.273  32.644  1.00  0.00     0.135 A 
ATOM     74  C   UNL A   1      38.263  32.964  30.363  1.00  0.00     0.135 A 
ATOM     75  F   UNL A   1      39.096  31.789  33.696  1.00  0.00    -0.206 F 
ATOM     76  C   UNL A   1      37.098  32.684  32.862  1.00  0.00     0.059 A 
ATOM     77  C   UNL A   1      36.939  33.353  30.550  1.00  0.00     0.059 A 
ATOM     78  F   UNL A   1      38.773  33.226  29.152  1.00  0.00    -0.206 F 
ATOM     79  C   UNL A   1      36.372  33.240  31.810  1.00  0.00     0.060 A 
BRANCH  79  80
ATOM     80  S   UNL A   1      34.739  33.946  32.125  1.00  0.00     0.124 S 
ATOM     81  O   UNL A   1      35.008  34.840  33.244  1.00  0.00    -0.237 OA
ATOM     82  O   UNL A   1      34.430  34.588  30.852  1.00  0.00    -0.237 OA
ATOM     83  O   UNL A   1      33.920  32.777  32.441  1.00  0.00    -0.744 OA
ENDBRANCH  79  80
ENDBRANCH  47  72
BRANCH  59  84
ATOM     84  C   UNL A   1      45.232  32.860  33.050  1.00  0.00     0.058 A 
ATOM     85  C   UNL A   1      45.476  33.193  34.393  1.00  0.00     0.135 A 
ATOM     86  C   UNL A   1      45.244  31.496  32.716  1.00  0.00     0.135 A 
ATOM     87  F   UNL A   1      45.374  34.459  34.820  1.00  0.00    -0.206 F 
ATOM     88  C   UNL A   1      45.765  32.218  35.351  1.00  0.00     0.059 A 
ATOM     89  C   UNL A   1      45.497  30.505  33.662  1.00  0.00     0.059 A 
ATOM     90  F   UNL A   1      44.952  31.107  31.463  1.00  0.00    -0.206 F 
ATOM     91  C   UNL A   1      45.771  30.876  34.976  1.00  0.00     0.060 A 
BRANCH  91  92
ATOM     92  S   UNL A   1      46.051  29.614  36.239  1.00  0.00     0.124 S 
ATOM     93  O   UNL A   1      45.724  28.386  35.523  1.00  0.00    -0.237 OA
ATOM     94  O   UNL A   1      47.461  29.799  36.572  1.00  0.00    -0.237 OA
ATOM     95  O   UNL A   1      45.119  29.984  37.302  1.00  0.00    -0.744 OA
ENDBRANCH  91  92
ENDBRANCH  59  84
ENDBRANCH  33  34
ENDBRANCH  26  28
ENDBRANCH  25  26
ENDBRANCH  24  25
ENDBRANCH  23  24
ENDBRANCH  22  23
ENDBRANCH   1  22
TORSDOF 22
ENDMDL
MODEL 3
REMARK VINA RESULT:      -9.3      6.679     13.747
REMARK SMILES COC1=CC2=NC(C(=O)OCCOCCOCCOC(=O)c3ccc(-c4c5nc(c(-c6c(F)cc(S(=O)(=O)[O-])cc6F)c6ccc([nH]6)c(-c6c(F)cc(S(=O)(=O)[O-])cc6F)c6nc(c(-c7c(F)cc(S(=O)(=O)[O-])cc7F)c7ccc4[nH]7)C=C6)C=C5)cc3)=C[C@@H]2C(OC)=C1
REMARK SMILES IDX 15 1 14 2 13 3 12 4 11 5 10 6 8 7 9 8 7 9 3 10 4 11 93 12
REMARK SMILES IDX 5 13 90 14 6 15 89 16 88 17 2 18 1 19 91 20 92 21 16 22
REMARK SMILES IDX 17 23 18 24 19 25 20 26 21 27 22 28 23 29 87 30 24 31 86 32
REMARK SMILES IDX 25 33 26 34 27 35 80 36 28 37 85 38 79 39 81 40 29 41 84 42
REMARK SMILES IDX 78 43 77 44 30 46 64 47 43 48 63 49 44 50 47 51 62 52 82 53
REMARK SMILES IDX 45 54 46 55 61 57 83 58 48 59 31 60 32 61 41 62 33 63 34 64
REMARK SMILES IDX 40 65 42 66 35 67 36 68 37 69 38 70 39 71 65 72 66 73 75 74
REMARK SMILES IDX 67 75 68 76 74 77 76 78 69 79 70 80 71 81 72 82 73 83 49 84
REMARK SMILES IDX 50 85 59 86 51 87 52 88 58 89 60 90 53 91 54 92 55 93 56 94
REMARK SMILES IDX 57 95
REMARK H PARENT 81 45 47 56
REMARK Flexibility Score: inf
ROOT
ATOM      1  C   UNL A   1      46.456  42.189  31.287  1.00  0.00     0.188 C 
ENDROOT
BRANCH   1   2
ATOM      2  C   UNL A   1      44.930  42.351  31.477  1.00  0.00     0.188 C 
BRANCH   2   3
ATOM      3  O   UNL A   1      44.106  42.720  30.377  1.00  0.00    -0.376 OA
BRANCH   3   4
ATOM      4  C   UNL A   1      42.716  42.421  30.411  1.00  0.00     0.202 C 
BRANCH   4   5
ATOM      5  C   UNL A   1      42.245  40.959  30.285  1.00  0.00     0.261 C 
BRANCH   5   6
ATOM      6  O   UNL A   1      41.473  40.662  29.108  1.00  0.00    -0.459 OA
BRANCH   6   7
ATOM      7  C   UNL A   1      42.053  39.824  28.210  1.00  0.00     0.356 C 
ATOM      8  O   UNL A   1      42.179  38.613  28.340  1.00  0.00    -0.244 OA
BRANCH   7   9
ATOM      9  C   UNL A   1      42.427  40.554  26.959  1.00  0.00     0.145 C 
ATOM     10  C   UNL A   1      42.154  42.943  23.255  1.00  0.00     0.124 C 
ATOM     11  C   UNL A   1      41.553  41.867  23.782  1.00  0.00     0.071 C 
ATOM     12  C   UNL A   1      43.256  43.628  23.916  1.00  0.00     0.089 C 
ATOM     13  C   UNL A   1      42.165  41.335  25.009  1.00  0.00     0.060 C 
ATOM     14  C   UNL A   1      43.962  43.046  24.911  1.00  0.00     0.112 C 
ATOM     15  N   UNL A   1      41.548  40.613  25.892  1.00  0.00    -0.245 NA
ATOM     16  C   UNL A   1      43.626  41.634  25.304  1.00  0.00     0.129 C 
ATOM     17  C   UNL A   1      43.574  41.221  26.741  1.00  0.00     0.027 C 
BRANCH  10  18
ATOM     18  O   UNL A   1      41.642  43.550  22.126  1.00  0.00    -0.497 OA
ATOM     19  C   UNL A   1      42.225  43.020  20.935  1.00  0.00     0.278 C 
ENDBRANCH  10  18
BRANCH  14  20
ATOM     20  O   UNL A   1      45.071  43.571  25.540  1.00  0.00    -0.500 OA
ATOM     21  C   UNL A   1      45.250  44.984  25.477  1.00  0.00     0.278 C 
ENDBRANCH  14  20
ENDBRANCH   7   9
ENDBRANCH   6   7
ENDBRANCH   5   6
ENDBRANCH   4   5
ENDBRANCH   3   4
ENDBRANCH   2   3
ENDBRANCH   1   2
BRANCH   1  22
ATOM     22  O   UNL A   1      47.068  41.260  32.169  1.00  0.00    -0.376 OA
BRANCH  22  23
ATOM     23  C   UNL A   1      46.371  40.048  32.426  1.00  0.00     0.202 C 
BRANCH  23  24
ATOM     24  C   UNL A   1      46.245  39.605  33.883  1.00  0.00     0.261 C 
BRANCH  24  25
ATOM     25  O   UNL A   1      45.227  40.257  34.629  1.00  0.00    -0.460 OA
BRANCH  25  26
ATOM     26  C   UNL A   1      43.961  40.008  34.234  1.00  0.00     0.338 C 
ATOM     27  O   UNL A   1      43.106  40.828  33.951  1.00  0.00    -0.246 OA
BRANCH  26  28
ATOM     28  C   UNL A   1      43.756  38.556  34.255  1.00  0.00     0.060 A 
ATOM     29  C   UNL A   1      43.482  37.914  33.043  1.00  0.00     0.016 A 
ATOM     30  C   UNL A   1      43.594  37.909  35.490  1.00  0.00     0.016 A 
ATOM     31  C   UNL A   1      42.862  36.682  33.075  1.00  0.00     0.010 A 
ATOM     32  C   UNL A   1      42.962  36.688  35.520  1.00  0.00     0.010 A 
ATOM     33  C   UNL A   1      42.526  36.135  34.315  1.00  0.00    -0.014 A 
BRANCH  33  34
ATOM     34  C   UNL A   1      41.595  35.021  34.345  1.00  0.00     0.031 A 
ATOM     35  C   UNL A   1      41.973  33.829  33.556  1.00  0.00     0.074 A 
ATOM     36  C   UNL A   1      40.554  35.050  35.201  1.00  0.00     0.049 A 
ATOM     37  N   UNL A   1      41.266  33.188  32.683  1.00  0.00    -0.248 NA
ATOM     38  C   UNL A   1      43.347  33.320  33.708  1.00  0.00     0.031 C 
ATOM     39  C   UNL A   1      40.292  36.062  36.234  1.00  0.00     0.029 A 
ATOM     40  N   UNL A   1      39.598  34.111  35.440  1.00  0.00    -0.354 N 
ATOM     41  C   UNL A   1      42.025  32.077  32.333  1.00  0.00     0.074 A 
ATOM     42  C   UNL A   1      43.342  32.281  32.876  1.00  0.00     0.031 C 
ATOM     43  C   UNL A   1      39.409  35.563  37.124  1.00  0.00     0.029 A 
ATOM     44  C   UNL A   1      38.980  34.249  36.677  1.00  0.00     0.049 A 
ATOM     45  H   UNL A   1      39.367  33.401  34.798  1.00  0.00     0.167 HD
ATOM     46  C   UNL A   1      41.462  30.949  31.825  1.00  0.00     0.037 A 
ATOM     47  C   UNL A   1      38.277  33.297  37.338  1.00  0.00     0.037 A 
ATOM     48  C   UNL A   1      40.160  31.189  31.267  1.00  0.00     0.049 A 
ATOM     49  C   UNL A   1      37.862  32.277  36.339  1.00  0.00     0.074 A 
ATOM     50  C   UNL A   1      39.672  32.020  30.278  1.00  0.00     0.029 A 
ATOM     51  N   UNL A   1      39.061  30.748  31.963  1.00  0.00    -0.354 N 
ATOM     52  N   UNL A   1      37.005  32.483  35.376  1.00  0.00    -0.248 NA
ATOM     53  C   UNL A   1      38.698  31.096  36.178  1.00  0.00     0.031 C 
ATOM     54  C   UNL A   1      38.368  32.393  30.708  1.00  0.00     0.029 A 
ATOM     55  C   UNL A   1      38.125  31.752  31.924  1.00  0.00     0.049 A 
ATOM     56  H   UNL A   1      38.963  29.875  32.407  1.00  0.00     0.167 HD
ATOM     57  C   UNL A   1      37.468  31.717  34.316  1.00  0.00     0.074 A 
ATOM     58  C   UNL A   1      38.431  30.796  34.907  1.00  0.00     0.031 C 
ATOM     59  C   UNL A   1      37.240  32.084  33.020  1.00  0.00     0.037 A 
BRANCH  46  60
ATOM     60  C   UNL A   1      41.979  29.574  32.151  1.00  0.00     0.058 A 
ATOM     61  C   UNL A   1      41.977  29.114  33.480  1.00  0.00     0.135 A 
ATOM     62  C   UNL A   1      42.719  28.798  31.229  1.00  0.00     0.135 A 
ATOM     63  F   UNL A   1      41.329  29.799  34.437  1.00  0.00    -0.206 F 
ATOM     64  C   UNL A   1      42.698  27.987  33.874  1.00  0.00     0.059 A 
ATOM     65  C   UNL A   1      43.395  27.640  31.587  1.00  0.00     0.059 A 
ATOM     66  F   UNL A   1      42.898  29.187  29.959  1.00  0.00    -0.206 F 
ATOM     67  C   UNL A   1      43.416  27.267  32.921  1.00  0.00     0.060 A 
BRANCH  67  68
ATOM     68  S   UNL A   1      44.447  25.884  33.439  1.00  0.00     0.124 S 
ATOM     69  O   UNL A   1      45.119  25.547  32.191  1.00  0.00    -0.237 OA
ATOM     70  O   UNL A   1      45.280  26.491  34.473  1.00  0.00    -0.237 OA
ATOM     71  O   UNL A   1      43.475  24.907  33.922  1.00  0.00    -0.744 OA
ENDBRANCH  67  68
ENDBRANCH  46  60
BRANCH  47  72
ATOM     72  C   UNL A   1      38.258  33.042  38.806  1.00  0.00     0.058 A 
ATOM     73  C   UNL A   1      37.071  32.650  39.451  1.00  0.00     0.135 A 
ATOM     74  C   UNL A   1      39.442  32.914  39.567  1.00  0.00     0.135 A 
ATOM     75  F   UNL A   1      35.898  32.714  38.803  1.00  0.00    -0.206 F 
ATOM     76  C   UNL A   1      37.064  32.116  40.745  1.00  0.00     0.059 A 
ATOM     77  C   UNL A   1      39.455  32.411  40.865  1.00  0.00     0.059 A 
ATOM     78  F   UNL A   1      40.645  33.182  39.043  1.00  0.00    -0.206 F 
ATOM     79  C   UNL A   1      38.266  31.984  41.437  1.00  0.00     0.060 A 
BRANCH  79  80
ATOM     80  S   UNL A   1      38.294  31.123  43.026  1.00  0.00     0.124 S 
ATOM     81  O   UNL A   1      39.519  31.638  43.625  1.00  0.00    -0.237 OA
ATOM     82  O   UNL A   1      37.046  31.566  43.638  1.00  0.00    -0.237 OA
ATOM     83  O   UNL A   1      38.328  29.712  42.646  1.00  0.00    -0.744 OA
ENDBRANCH  79  80
ENDBRANCH  47  72
BRANCH  59  84
ATOM     84  C   UNL A   1      36.181  33.122  32.746  1.00  0.00     0.058 A 
ATOM     85  C   UNL A   1      36.327  34.490  33.030  1.00  0.00     0.135 A 
ATOM     86  C   UNL A   1      35.039  32.735  32.026  1.00  0.00     0.135 A 
ATOM     87  F   UNL A   1      37.437  34.960  33.615  1.00  0.00    -0.206 F 
ATOM     88  C   UNL A   1      35.358  35.425  32.658  1.00  0.00     0.059 A 
ATOM     89  C   UNL A   1      34.077  33.656  31.615  1.00  0.00     0.059 A 
ATOM     90  F   UNL A   1      34.874  31.452  31.664  1.00  0.00    -0.206 F 
ATOM     91  C   UNL A   1      34.238  34.999  31.948  1.00  0.00     0.060 A 
BRANCH  91  92
ATOM     92  S   UNL A   1      33.036  36.226  31.384  1.00  0.00     0.124 S 
ATOM     93  O   UNL A   1      32.971  35.956  29.952  1.00  0.00    -0.237 OA
ATOM     94  O   UNL A   1      31.842  35.881  32.151  1.00  0.00    -0.237 OA
ATOM     95  O   UNL A   1      33.653  37.499  31.753  1.00  0.00    -0.744 OA
ENDBRANCH  91  92
ENDBRANCH  59  84
ENDBRANCH  33  34
ENDBRANCH  26  28
ENDBRANCH  25  26
ENDBRANCH  24  25
ENDBRANCH  23  24
ENDBRANCH  22  23
ENDBRANCH   1  22
TORSDOF 22
ENDMDL
