MODEL 1
REMARK VINA RESULT:     -11.6      0.000      0.000
REMARK SMILES O=C(CC1(NC(=O)C2(c3ccccc3)CC2)CCC1)OCCOCCOCCOC(=O)c1ccc(-c2c3nc(c(-c4c(F)cc(S(=O)(=O)[O-])cc4F)c4ccc([nH]4)c(-c4c(F)cc(S(=O)(=O)[O-])cc4F)c4nc(c(-c5c(F)cc(S(=O)(=O)[O-])cc5F)c5ccc2[nH]5)C=C4)C=C3)cc1
REMARK SMILES IDX 24 1 23 2 22 3 21 4 20 5 2 6 1 7 3 8 4 9 17 10 19 11 18 12
REMARK SMILES IDX 5 13 6 14 7 16 8 17 15 18 16 19 9 20 10 21 14 22 11 23 13 24
REMARK SMILES IDX 12 25 25 26 26 27 27 28 28 29 29 30 30 31 31 32 32 33 33 34
REMARK SMILES IDX 97 35 34 36 96 37 35 38 36 39 37 40 90 41 38 42 95 43 89 44
REMARK SMILES IDX 91 45 39 46 94 47 88 48 87 49 40 51 74 52 53 53 73 54 54 55
REMARK SMILES IDX 57 56 72 57 92 58 55 59 56 60 71 62 93 63 58 64 41 65 42 66
REMARK SMILES IDX 51 67 43 68 44 69 50 70 52 71 45 72 46 73 47 74 48 75 49 76
REMARK SMILES IDX 75 77 76 78 85 79 77 80 78 81 84 82 86 83 79 84 80 85 81 86
REMARK SMILES IDX 82 87 83 88 59 89 60 90 69 91 61 92 62 93 68 94 70 95 63 96
REMARK SMILES IDX 64 97 65 98 66 99 67 100
REMARK H PARENT 5 15 91 50 57 61
REMARK Flexibility Score: inf
ROOT
ATOM      1  C   UNL A   1      38.346  21.150  25.623  1.00  0.00     0.188 C 
ENDROOT
BRANCH   1   2
ATOM      2  O   UNL A   1      37.468  22.157  25.128  1.00  0.00    -0.376 OA
BRANCH   2   3
ATOM      3  C   UNL A   1      36.570  22.025  24.035  1.00  0.00     0.202 C 
BRANCH   3   4
ATOM      4  C   UNL A   1      36.274  23.265  23.145  1.00  0.00     0.261 C 
BRANCH   4   5
ATOM      5  O   UNL A   1      34.708  23.764  22.747  1.00  0.00    -0.463 OA
BRANCH   5   6
ATOM      6  C   UNL A   1      33.644  25.432  22.350  1.00  0.00     0.308 C 
ATOM      7  O   UNL A   1      34.003  26.472  21.782  1.00  0.00    -0.252 OA
BRANCH   6   8
ATOM      8  C   UNL A   1      31.748  24.499  22.382  1.00  0.00     0.151 C 
BRANCH   8   9
ATOM      9  C   UNL A   1      31.565  25.823  24.193  1.00  0.00     0.051 C 
ATOM     10  C   UNL A   1      32.499  26.984  25.017  1.00  0.00     0.029 C 
ATOM     11  C   UNL A   1      30.332  27.142  24.543  1.00  0.00     0.029 C 
ATOM     12  C   UNL A   1      31.410  28.056  25.033  1.00  0.00     0.005 C 
BRANCH   9  13
ATOM     13  N   UNL A   1      30.537  24.743  25.634  1.00  0.00    -0.349 N 
ATOM     14  C   UNL A   1      31.267  23.274  26.480  1.00  0.00     0.231 C 
ATOM     15  H   UNL A   1      29.625  25.024  25.875  1.00  0.00     0.164 HD
ATOM     16  O   UNL A   1      30.846  22.747  27.503  1.00  0.00    -0.274 OA
BRANCH  14  17
ATOM     17  C   UNL A   1      33.194  23.089  25.882  1.00  0.00     0.074 C 
ATOM     18  C   UNL A   1      34.164  24.241  26.111  1.00  0.00     0.023 C 
ATOM     19  C   UNL A   1      34.241  23.083  27.046  1.00  0.00     0.023 C 
BRANCH  17  20
ATOM     20  C   UNL A   1      32.773  21.460  24.595  1.00  0.00    -0.032 A 
ATOM     21  C   UNL A   1      32.208  21.228  23.063  1.00  0.00     0.005 A 
ATOM     22  C   UNL A   1      33.144  19.731  25.752  1.00  0.00     0.005 A 
ATOM     23  C   UNL A   1      32.146  19.710  22.530  1.00  0.00     0.000 A 
ATOM     24  C   UNL A   1      33.050  18.239  24.883  1.00  0.00     0.000 A 
ATOM     25  C   UNL A   1      32.545  18.339  23.343  1.00  0.00     0.000 A 
ENDBRANCH  17  20
ENDBRANCH  14  17
ENDBRANCH   9  13
ENDBRANCH   8   9
ENDBRANCH   6   8
ENDBRANCH   5   6
ENDBRANCH   4   5
ENDBRANCH   3   4
ENDBRANCH   2   3
ENDBRANCH   1   2
BRANCH   1  26
ATOM     26  C   UNL A   1      39.579  21.752  26.335  1.00  0.00     0.188 C 
BRANCH  26  27
ATOM     27  O   UNL A   1      40.796  21.027  26.319  1.00  0.00    -0.376 OA
BRANCH  27  28
ATOM     28  C   UNL A   1      40.723  19.615  26.293  1.00  0.00     0.202 C 
BRANCH  28  29
ATOM     29  C   UNL A   1      42.025  18.804  26.099  1.00  0.00     0.261 C 
BRANCH  29  30
ATOM     30  O   UNL A   1      42.915  19.130  25.001  1.00  0.00    -0.460 OA
BRANCH  30  31
ATOM     31  C   UNL A   1      44.004  19.891  25.287  1.00  0.00     0.338 C 
ATOM     32  O   UNL A   1      45.167  19.533  25.192  1.00  0.00    -0.246 OA
BRANCH  31  33
ATOM     33  C   UNL A   1      43.641  21.287  25.684  1.00  0.00     0.060 A 
ATOM     34  C   UNL A   1      43.355  22.273  24.721  1.00  0.00     0.016 A 
ATOM     35  C   UNL A   1      43.830  21.675  27.009  1.00  0.00     0.016 A 
ATOM     36  C   UNL A   1      43.343  23.637  25.063  1.00  0.00     0.010 A 
ATOM     37  C   UNL A   1      43.822  23.038  27.349  1.00  0.00     0.010 A 
ATOM     38  C   UNL A   1      43.645  24.035  26.371  1.00  0.00    -0.014 A 
BRANCH  38  39
ATOM     39  C   UNL A   1      43.986  25.456  26.694  1.00  0.00     0.031 A 
ATOM     40  C   UNL A   1      45.389  25.949  26.411  1.00  0.00     0.074 A 
ATOM     41  C   UNL A   1      43.094  26.298  27.250  1.00  0.00     0.049 A 
ATOM     42  N   UNL A   1      45.949  27.096  26.704  1.00  0.00    -0.248 NA
ATOM     43  C   UNL A   1      46.284  25.010  25.716  1.00  0.00     0.031 C 
ATOM     44  C   UNL A   1      41.696  25.981  27.535  1.00  0.00     0.029 A 
ATOM     45  N   UNL A   1      43.241  27.592  27.694  1.00  0.00    -0.354 N 
ATOM     46  C   UNL A   1      47.265  27.005  26.254  1.00  0.00     0.074 A 
ATOM     47  C   UNL A   1      47.426  25.679  25.702  1.00  0.00     0.031 C 
ATOM     48  C   UNL A   1      41.117  27.048  28.115  1.00  0.00     0.029 A 
ATOM     49  C   UNL A   1      42.109  28.110  28.282  1.00  0.00     0.049 A 
ATOM     50  H   UNL A   1      44.078  28.101  27.599  1.00  0.00     0.167 HD
ATOM     51  C   UNL A   1      48.248  27.939  26.293  1.00  0.00     0.037 A 
ATOM     52  C   UNL A   1      41.902  29.292  28.902  1.00  0.00     0.037 A 
ATOM     53  C   UNL A   1      48.085  29.261  26.849  1.00  0.00     0.049 A 
ATOM     54  C   UNL A   1      43.031  30.289  29.004  1.00  0.00     0.074 A 
ATOM     55  C   UNL A   1      49.010  30.290  26.906  1.00  0.00     0.029 A 
ATOM     56  N   UNL A   1      46.932  29.731  27.458  1.00  0.00    -0.354 N 
ATOM     57  N   UNL A   1      44.259  30.200  28.549  1.00  0.00    -0.248 NA
ATOM     58  C   UNL A   1      42.744  31.552  29.700  1.00  0.00     0.031 C 
ATOM     59  C   UNL A   1      48.445  31.347  27.627  1.00  0.00     0.029 A 
ATOM     60  C   UNL A   1      47.135  31.018  27.932  1.00  0.00     0.049 A 
ATOM     61  H   UNL A   1      46.091  29.225  27.542  1.00  0.00     0.167 HD
ATOM     62  C   UNL A   1      44.872  31.412  28.860  1.00  0.00     0.074 A 
ATOM     63  C   UNL A   1      43.877  32.218  29.536  1.00  0.00     0.031 C 
ATOM     64  C   UNL A   1      46.140  31.822  28.602  1.00  0.00     0.037 A 
BRANCH  51  65
ATOM     65  C   UNL A   1      49.610  27.554  25.763  1.00  0.00     0.058 A 
ATOM     66  C   UNL A   1      50.693  27.267  26.611  1.00  0.00     0.135 A 
ATOM     67  C   UNL A   1      49.825  27.439  24.378  1.00  0.00     0.135 A 
ATOM     68  F   UNL A   1      50.555  27.366  27.943  1.00  0.00    -0.206 F 
ATOM     69  C   UNL A   1      51.946  26.928  26.107  1.00  0.00     0.059 A 
ATOM     70  C   UNL A   1      51.057  27.061  23.853  1.00  0.00     0.059 A 
ATOM     71  F   UNL A   1      48.829  27.695  23.516  1.00  0.00    -0.206 F 
ATOM     72  C   UNL A   1      52.118  26.827  24.725  1.00  0.00     0.060 A 
BRANCH  72  73
ATOM     73  S   UNL A   1      53.749  26.390  24.088  1.00  0.00     0.124 S 
ATOM     74  O   UNL A   1      53.669  26.884  22.716  1.00  0.00    -0.237 OA
ATOM     75  O   UNL A   1      54.637  27.132  24.976  1.00  0.00    -0.237 OA
ATOM     76  O   UNL A   1      53.795  24.939  24.228  1.00  0.00    -0.744 OA
ENDBRANCH  72  73
ENDBRANCH  51  65
BRANCH  52  77
ATOM     77  C   UNL A   1      40.562  29.614  29.475  1.00  0.00     0.058 A 
ATOM     78  C   UNL A   1      40.362  29.663  30.863  1.00  0.00     0.135 A 
ATOM     79  C   UNL A   1      39.452  29.863  28.651  1.00  0.00     0.135 A 
ATOM     80  F   UNL A   1      41.384  29.414  31.697  1.00  0.00    -0.206 F 
ATOM     81  C   UNL A   1      39.114  29.935  31.415  1.00  0.00     0.059 A 
ATOM     82  C   UNL A   1      38.202  30.172  29.178  1.00  0.00     0.059 A 
ATOM     83  F   UNL A   1      39.584  29.833  27.315  1.00  0.00    -0.206 F 
ATOM     84  C   UNL A   1      38.041  30.199  30.562  1.00  0.00     0.060 A 
BRANCH  84  85
ATOM     85  S   UNL A   1      36.443  30.619  31.290  1.00  0.00     0.124 S 
ATOM     86  O   UNL A   1      35.541  29.744  30.550  1.00  0.00    -0.237 OA
ATOM     87  O   UNL A   1      36.654  30.283  32.694  1.00  0.00    -0.237 OA
ATOM     88  O   UNL A   1      36.310  32.045  31.006  1.00  0.00    -0.744 OA
ENDBRANCH  84  85
ENDBRANCH  52  77
BRANCH  64  89
ATOM     89  C   UNL A   1      46.518  33.231  28.993  1.00  0.00     0.058 A 
ATOM     90  C   UNL A   1      46.332  34.327  28.134  1.00  0.00     0.135 A 
ATOM     91  C   UNL A   1      47.047  33.490  30.270  1.00  0.00     0.135 A 
ATOM     92  F   UNL A   1      45.832  34.144  26.902  1.00  0.00    -0.206 F 
ATOM     93  C   UNL A   1      46.698  35.617  28.509  1.00  0.00     0.059 A 
ATOM     94  C   UNL A   1      47.377  34.777  30.682  1.00  0.00     0.059 A 
ATOM     95  F   UNL A   1      47.235  32.487  31.141  1.00  0.00    -0.206 F 
ATOM     96  C   UNL A   1      47.216  35.833  29.787  1.00  0.00     0.060 A 
BRANCH  96  97
ATOM     97  S   UNL A   1      47.669  37.514  30.264  1.00  0.00     0.124 S 
ATOM     98  O   UNL A   1      47.099  37.604  31.604  1.00  0.00    -0.237 OA
ATOM     99  O   UNL A   1      49.126  37.473  30.196  1.00  0.00    -0.237 OA
ATOM    100  O   UNL A   1      47.022  38.343  29.251  1.00  0.00    -0.744 OA
ENDBRANCH  96  97
ENDBRANCH  64  89
ENDBRANCH  38  39
ENDBRANCH  31  33
ENDBRANCH  30  31
ENDBRANCH  29  30
ENDBRANCH  28  29
ENDBRANCH  27  28
ENDBRANCH  26  27
ENDBRANCH   1  26
TORSDOF 24
ENDMDL
MODEL 2
REMARK VINA RESULT:     -11.3      4.726      5.775
REMARK SMILES O=C(CC1(NC(=O)C2(c3ccccc3)CC2)CCC1)OCCOCCOCCOC(=O)c1ccc(-c2c3nc(c(-c4c(F)cc(S(=O)(=O)[O-])cc4F)c4ccc([nH]4)c(-c4c(F)cc(S(=O)(=O)[O-])cc4F)c4nc(c(-c5c(F)cc(S(=O)(=O)[O-])cc5F)c5ccc2[nH]5)C=C4)C=C3)cc1
REMARK SMILES IDX 24 1 23 2 22 3 21 4 20 5 2 6 1 7 3 8 4 9 17 10 19 11 18 12
REMARK SMILES IDX 5 13 6 14 7 16 8 17 15 18 16 19 9 20 10 21 14 22 11 23 13 24
REMARK SMILES IDX 12 25 25 26 26 27 27 28 28 29 29 30 30 31 31 32 32 33 33 34
REMARK SMILES IDX 97 35 34 36 96 37 35 38 36 39 37 40 90 41 38 42 95 43 89 44
REMARK SMILES IDX 91 45 39 46 94 47 88 48 87 49 40 51 74 52 53 53 73 54 54 55
REMARK SMILES IDX 57 56 72 57 92 58 55 59 56 60 71 62 93 63 58 64 41 65 42 66
REMARK SMILES IDX 51 67 43 68 44 69 50 70 52 71 45 72 46 73 47 74 48 75 49 76
REMARK SMILES IDX 75 77 76 78 85 79 77 80 78 81 84 82 86 83 79 84 80 85 81 86
REMARK SMILES IDX 82 87 83 88 59 89 60 90 69 91 61 92 62 93 68 94 70 95 63 96
REMARK SMILES IDX 64 97 65 98 66 99 67 100
REMARK H PARENT 5 15 91 50 57 61
REMARK Flexibility Score: inf
ROOT
ATOM      1  C   UNL A   1      38.266  21.594  25.572  1.00  0.00     0.188 C 
ENDROOT
BRANCH   1   2
ATOM      2  O   UNL A   1      37.223  22.400  25.032  1.00  0.00    -0.376 OA
BRANCH   2   3
ATOM      3  C   UNL A   1      36.458  22.116  23.868  1.00  0.00     0.202 C 
BRANCH   3   4
ATOM      4  C   UNL A   1      36.065  23.283  22.919  1.00  0.00     0.261 C 
BRANCH   4   5
ATOM      5  O   UNL A   1      34.512  23.950  22.870  1.00  0.00    -0.463 OA
BRANCH   5   6
ATOM      6  C   UNL A   1      33.540  25.628  22.309  1.00  0.00     0.308 C 
ATOM      7  O   UNL A   1      33.971  26.615  21.700  1.00  0.00    -0.252 OA
BRANCH   6   8
ATOM      8  C   UNL A   1      31.609  24.770  22.289  1.00  0.00     0.151 C 
BRANCH   8   9
ATOM      9  C   UNL A   1      31.495  25.950  24.203  1.00  0.00     0.051 C 
ATOM     10  C   UNL A   1      32.496  26.972  25.126  1.00  0.00     0.029 C 
ATOM     11  C   UNL A   1      30.351  27.318  24.653  1.00  0.00     0.029 C 
ATOM     12  C   UNL A   1      31.483  28.112  25.223  1.00  0.00     0.005 C 
BRANCH   9  13
ATOM     13  N   UNL A   1      30.378  24.828  25.543  1.00  0.00    -0.349 N 
ATOM     14  C   UNL A   1      31.043  23.316  26.365  1.00  0.00     0.231 C 
ATOM     15  H   UNL A   1      29.458  25.114  25.747  1.00  0.00     0.164 HD
ATOM     16  O   UNL A   1      30.562  22.755  27.343  1.00  0.00    -0.274 OA
BRANCH  14  17
ATOM     17  C   UNL A   1      32.996  23.126  25.861  1.00  0.00     0.074 C 
ATOM     18  C   UNL A   1      33.968  24.252  26.187  1.00  0.00     0.023 C 
ATOM     19  C   UNL A   1      33.980  23.056  27.077  1.00  0.00     0.023 C 
BRANCH  17  20
ATOM     20  C   UNL A   1      32.622  21.556  24.488  1.00  0.00    -0.032 A 
ATOM     21  C   UNL A   1      32.121  21.394  22.925  1.00  0.00     0.005 A 
ATOM     22  C   UNL A   1      32.935  19.777  25.583  1.00  0.00     0.005 A 
ATOM     23  C   UNL A   1      32.074  19.901  22.324  1.00  0.00     0.000 A 
ATOM     24  C   UNL A   1      32.870  18.324  24.648  1.00  0.00     0.000 A 
ATOM     25  C   UNL A   1      32.431  18.494  23.094  1.00  0.00     0.000 A 
ENDBRANCH  17  20
ENDBRANCH  14  17
ENDBRANCH   9  13
ENDBRANCH   8   9
ENDBRANCH   6   8
ENDBRANCH   5   6
ENDBRANCH   4   5
ENDBRANCH   3   4
ENDBRANCH   2   3
ENDBRANCH   1   2
BRANCH   1  26
ATOM     26  C   UNL A   1      39.183  22.391  26.527  1.00  0.00     0.188 C 
BRANCH  26  27
ATOM     27  O   UNL A   1      40.582  22.182  26.461  1.00  0.00    -0.376 OA
BRANCH  27  28
ATOM     28  C   UNL A   1      41.041  20.890  26.116  1.00  0.00     0.202 C 
BRANCH  28  29
ATOM     29  C   UNL A   1      42.563  20.615  26.117  1.00  0.00     0.261 C 
BRANCH  29  30
ATOM     30  O   UNL A   1      43.448  21.483  25.365  1.00  0.00    -0.460 OA
BRANCH  30  31
ATOM     31  C   UNL A   1      44.304  22.265  26.076  1.00  0.00     0.338 C 
ATOM     32  O   UNL A   1      45.520  22.176  26.070  1.00  0.00    -0.246 OA
BRANCH  31  33
ATOM     33  C   UNL A   1      43.596  23.334  26.847  1.00  0.00     0.060 A 
ATOM     34  C   UNL A   1      43.448  24.635  26.333  1.00  0.00     0.016 A 
ATOM     35  C   UNL A   1      43.302  23.103  28.190  1.00  0.00     0.016 A 
ATOM     36  C   UNL A   1      43.092  25.709  27.169  1.00  0.00     0.010 A 
ATOM     37  C   UNL A   1      42.951  24.177  29.026  1.00  0.00     0.010 A 
ATOM     38  C   UNL A   1      42.907  25.498  28.541  1.00  0.00    -0.014 A 
BRANCH  38  39
ATOM     39  C   UNL A   1      42.877  26.639  29.507  1.00  0.00     0.031 A 
ATOM     40  C   UNL A   1      43.974  26.741  30.547  1.00  0.00     0.074 A 
ATOM     41  C   UNL A   1      41.895  27.561  29.498  1.00  0.00     0.049 A 
ATOM     42  N   UNL A   1      44.101  27.571  31.552  1.00  0.00    -0.248 NA
ATOM     43  C   UNL A   1      45.066  25.761  30.441  1.00  0.00     0.031 C 
ATOM     44  C   UNL A   1      40.802  27.621  28.530  1.00  0.00     0.029 A 
ATOM     45  N   UNL A   1      41.648  28.616  30.347  1.00  0.00    -0.354 N 
ATOM     46  C   UNL A   1      45.270  27.195  32.212  1.00  0.00     0.074 A 
ATOM     47  C   UNL A   1      45.791  26.042  31.512  1.00  0.00     0.031 C 
ATOM     48  C   UNL A   1      39.996  28.651  28.846  1.00  0.00     0.029 A 
ATOM     49  C   UNL A   1      40.489  29.301  30.060  1.00  0.00     0.049 A 
ATOM     50  H   UNL A   1      42.246  28.859  31.090  1.00  0.00     0.167 HD
ATOM     51  C   UNL A   1      45.857  27.758  33.298  1.00  0.00     0.037 A 
ATOM     52  C   UNL A   1      39.884  30.318  30.711  1.00  0.00     0.037 A 
ATOM     53  C   UNL A   1      45.331  28.906  33.997  1.00  0.00     0.049 A 
ATOM     54  C   UNL A   1      40.514  30.881  31.963  1.00  0.00     0.074 A 
ATOM     55  C   UNL A   1      45.868  29.570  35.086  1.00  0.00     0.029 A 
ATOM     56  N   UNL A   1      44.141  29.548  33.689  1.00  0.00    -0.354 N 
ATOM     57  N   UNL A   1      41.632  30.535  32.557  1.00  0.00    -0.248 NA
ATOM     58  C   UNL A   1      39.800  31.980  32.631  1.00  0.00     0.031 C 
ATOM     59  C   UNL A   1      44.962  30.555  35.490  1.00  0.00     0.029 A 
ATOM     60  C   UNL A   1      43.907  30.573  34.593  1.00  0.00     0.049 A 
ATOM     61  H   UNL A   1      43.549  29.311  32.938  1.00  0.00     0.167 HD
ATOM     62  C   UNL A   1      41.778  31.404  33.636  1.00  0.00     0.074 A 
ATOM     63  C   UNL A   1      40.637  32.295  33.608  1.00  0.00     0.031 C 
ATOM     64  C   UNL A   1      42.771  31.463  34.560  1.00  0.00     0.037 A 
BRANCH  51  65
ATOM     65  C   UNL A   1      47.114  27.113  33.834  1.00  0.00     0.058 A 
ATOM     66  C   UNL A   1      47.083  26.092  34.799  1.00  0.00     0.135 A 
ATOM     67  C   UNL A   1      48.374  27.506  33.349  1.00  0.00     0.135 A 
ATOM     68  F   UNL A   1      45.912  25.677  35.309  1.00  0.00    -0.206 F 
ATOM     69  C   UNL A   1      48.251  25.519  35.294  1.00  0.00     0.059 A 
ATOM     70  C   UNL A   1      49.553  26.918  33.799  1.00  0.00     0.059 A 
ATOM     71  F   UNL A   1      48.471  28.472  32.423  1.00  0.00    -0.206 F 
ATOM     72  C   UNL A   1      49.482  25.938  34.787  1.00  0.00     0.060 A 
BRANCH  72  73
ATOM     73  S   UNL A   1      50.987  25.187  35.443  1.00  0.00     0.124 S 
ATOM     74  O   UNL A   1      51.950  25.495  34.389  1.00  0.00    -0.237 OA
ATOM     75  O   UNL A   1      51.171  25.908  36.698  1.00  0.00    -0.237 OA
ATOM     76  O   UNL A   1      50.636  23.778  35.577  1.00  0.00    -0.744 OA
ENDBRANCH  72  73
ENDBRANCH  51  65
BRANCH  52  77
ATOM     77  C   UNL A   1      38.607  30.887  30.192  1.00  0.00     0.058 A 
ATOM     78  C   UNL A   1      37.400  30.179  30.305  1.00  0.00     0.135 A 
ATOM     79  C   UNL A   1      38.565  32.140  29.558  1.00  0.00     0.135 A 
ATOM     80  F   UNL A   1      37.386  28.968  30.884  1.00  0.00    -0.206 F 
ATOM     81  C   UNL A   1      36.204  30.682  29.803  1.00  0.00     0.059 A 
ATOM     82  C   UNL A   1      37.376  32.680  29.079  1.00  0.00     0.059 A 
ATOM     83  F   UNL A   1      39.687  32.865  29.425  1.00  0.00    -0.206 F 
ATOM     84  C   UNL A   1      36.202  31.941  29.200  1.00  0.00     0.060 A 
BRANCH  84  85
ATOM     85  S   UNL A   1      34.632  32.614  28.614  1.00  0.00     0.124 S 
ATOM     86  O   UNL A   1      34.028  31.448  27.979  1.00  0.00    -0.237 OA
ATOM     87  O   UNL A   1      34.013  33.059  29.857  1.00  0.00    -0.237 OA
ATOM     88  O   UNL A   1      35.043  33.682  27.707  1.00  0.00    -0.744 OA
ENDBRANCH  84  85
ENDBRANCH  52  77
BRANCH  64  89
ATOM     89  C   UNL A   1      42.710  32.568  35.588  1.00  0.00     0.058 A 
ATOM     90  C   UNL A   1      42.107  32.395  36.845  1.00  0.00     0.135 A 
ATOM     91  C   UNL A   1      43.299  33.816  35.319  1.00  0.00     0.135 A 
ATOM     92  F   UNL A   1      41.526  31.227  37.162  1.00  0.00    -0.206 F 
ATOM     93  C   UNL A   1      42.051  33.429  37.775  1.00  0.00     0.059 A 
ATOM     94  C   UNL A   1      43.294  34.848  36.250  1.00  0.00     0.059 A 
ATOM     95  F   UNL A   1      43.903  34.039  34.140  1.00  0.00    -0.206 F 
ATOM     96  C   UNL A   1      42.651  34.652  37.470  1.00  0.00     0.060 A 
BRANCH  96  97
ATOM     97  S   UNL A   1      42.585  35.977  38.694  1.00  0.00     0.124 S 
ATOM     98  O   UNL A   1      43.951  36.489  38.650  1.00  0.00    -0.237 OA
ATOM     99  O   UNL A   1      41.560  36.857  38.142  1.00  0.00    -0.237 OA
ATOM    100  O   UNL A   1      42.214  35.287  39.926  1.00  0.00    -0.744 OA
ENDBRANCH  96  97
ENDBRANCH  64  89
ENDBRANCH  38  39
ENDBRANCH  31  33
ENDBRANCH  30  31
ENDBRANCH  29  30
ENDBRANCH  28  29
ENDBRANCH  27  28
ENDBRANCH  26  27
ENDBRANCH   1  26
TORSDOF 24
ENDMDL
MODEL 3
REMARK VINA RESULT:     -11.3      3.266      4.758
REMARK SMILES O=C(CC1(NC(=O)C2(c3ccccc3)CC2)CCC1)OCCOCCOCCOC(=O)c1ccc(-c2c3nc(c(-c4c(F)cc(S(=O)(=O)[O-])cc4F)c4ccc([nH]4)c(-c4c(F)cc(S(=O)(=O)[O-])cc4F)c4nc(c(-c5c(F)cc(S(=O)(=O)[O-])cc5F)c5ccc2[nH]5)C=C4)C=C3)cc1
REMARK SMILES IDX 24 1 23 2 22 3 21 4 20 5 2 6 1 7 3 8 4 9 17 10 19 11 18 12
REMARK SMILES IDX 5 13 6 14 7 16 8 17 15 18 16 19 9 20 10 21 14 22 11 23 13 24
REMARK SMILES IDX 12 25 25 26 26 27 27 28 28 29 29 30 30 31 31 32 32 33 33 34
REMARK SMILES IDX 97 35 34 36 96 37 35 38 36 39 37 40 90 41 38 42 95 43 89 44
REMARK SMILES IDX 91 45 39 46 94 47 88 48 87 49 40 51 74 52 53 53 73 54 54 55
REMARK SMILES IDX 57 56 72 57 92 58 55 59 56 60 71 62 93 63 58 64 41 65 42 66
REMARK SMILES IDX 51 67 43 68 44 69 50 70 52 71 45 72 46 73 47 74 48 75 49 76
REMARK SMILES IDX 75 77 76 78 85 79 77 80 78 81 84 82 86 83 79 84 80 85 81 86
REMARK SMILES IDX 82 87 83 88 59 89 60 90 69 91 61 92 62 93 68 94 70 95 63 96
REMARK SMILES IDX 64 97 65 98 66 99 67 100
REMARK H PARENT 5 15 91 50 57 61
REMARK Flexibility Score: inf
ROOT
ATOM      1  C   UNL A   1      38.577  21.958  25.898  1.00  0.00     0.188 C 
ENDROOT
BRANCH   1   2
ATOM      2  O   UNL A   1      37.407  22.543  25.333  1.00  0.00    -0.376 OA
BRANCH   2   3
ATOM      3  C   UNL A   1      36.709  22.084  24.183  1.00  0.00     0.202 C 
BRANCH   3   4
ATOM      4  C   UNL A   1      36.314  23.106  23.080  1.00  0.00     0.261 C 
BRANCH   4   5
ATOM      5  O   UNL A   1      34.725  23.631  22.835  1.00  0.00    -0.463 OA
BRANCH   5   6
ATOM      6  C   UNL A   1      33.668  25.303  22.430  1.00  0.00     0.308 C 
ATOM      7  O   UNL A   1      34.040  26.349  21.884  1.00  0.00    -0.252 OA
BRANCH   6   8
ATOM      8  C   UNL A   1      31.775  24.367  22.402  1.00  0.00     0.151 C 
BRANCH   8   9
ATOM      9  C   UNL A   1      31.523  25.707  24.192  1.00  0.00     0.051 C 
ATOM     10  C   UNL A   1      32.418  26.890  25.028  1.00  0.00     0.029 C 
ATOM     11  C   UNL A   1      30.263  27.014  24.492  1.00  0.00     0.029 C 
ATOM     12  C   UNL A   1      31.314  27.948  25.001  1.00  0.00     0.005 C 
BRANCH   9  13
ATOM     13  N   UNL A   1      30.469  24.629  25.616  1.00  0.00    -0.349 N 
ATOM     14  C   UNL A   1      31.184  23.162  26.476  1.00  0.00     0.231 C 
ATOM     15  H   UNL A   1      29.553  24.912  25.840  1.00  0.00     0.164 HD
ATOM     16  O   UNL A   1      30.745  22.636  27.493  1.00  0.00    -0.274 OA
BRANCH  14  17
ATOM     17  C   UNL A   1      33.121  22.975  25.912  1.00  0.00     0.074 C 
ATOM     18  C   UNL A   1      34.084  24.133  26.142  1.00  0.00     0.023 C 
ATOM     19  C   UNL A   1      34.149  22.988  27.093  1.00  0.00     0.023 C 
BRANCH  17  20
ATOM     20  C   UNL A   1      32.726  21.327  24.640  1.00  0.00    -0.032 A 
ATOM     21  C   UNL A   1      32.249  21.074  23.082  1.00  0.00     0.005 A 
ATOM     22  C   UNL A   1      32.969  19.618  25.858  1.00  0.00     0.005 A 
ATOM     23  C   UNL A   1      32.169  19.546  22.582  1.00  0.00     0.000 A 
ATOM     24  C   UNL A   1      32.879  18.108  25.021  1.00  0.00     0.000 A 
ATOM     25  C   UNL A   1      32.472  18.185  23.451  1.00  0.00     0.000 A 
ENDBRANCH  17  20
ENDBRANCH  14  17
ENDBRANCH   9  13
ENDBRANCH   8   9
ENDBRANCH   6   8
ENDBRANCH   5   6
ENDBRANCH   4   5
ENDBRANCH   3   4
ENDBRANCH   2   3
ENDBRANCH   1   2
BRANCH   1  26
ATOM     26  C   UNL A   1      39.479  23.008  26.585  1.00  0.00     0.188 C 
BRANCH  26  27
ATOM     27  O   UNL A   1      40.884  22.890  26.453  1.00  0.00    -0.376 OA
BRANCH  27  28
ATOM     28  C   UNL A   1      41.411  21.624  26.111  1.00  0.00     0.202 C 
BRANCH  28  29
ATOM     29  C   UNL A   1      42.924  21.368  26.305  1.00  0.00     0.261 C 
BRANCH  29  30
ATOM     30  O   UNL A   1      43.857  21.773  25.271  1.00  0.00    -0.460 OA
BRANCH  30  31
ATOM     31  C   UNL A   1      45.134  22.038  25.654  1.00  0.00     0.338 C 
ATOM     32  O   UNL A   1      46.047  21.231  25.694  1.00  0.00    -0.246 OA
BRANCH  31  33
ATOM     33  C   UNL A   1      45.347  23.484  25.975  1.00  0.00     0.060 A 
ATOM     34  C   UNL A   1      45.249  24.479  24.984  1.00  0.00     0.016 A 
ATOM     35  C   UNL A   1      45.892  23.819  27.213  1.00  0.00     0.016 A 
ATOM     36  C   UNL A   1      45.767  25.768  25.199  1.00  0.00     0.010 A 
ATOM     37  C   UNL A   1      46.413  25.107  27.426  1.00  0.00     0.010 A 
ATOM     38  C   UNL A   1      46.416  26.073  26.401  1.00  0.00    -0.014 A 
BRANCH  38  39
ATOM     39  C   UNL A   1      47.275  27.291  26.536  1.00  0.00     0.031 A 
ATOM     40  C   UNL A   1      48.779  27.128  26.497  1.00  0.00     0.074 A 
ATOM     41  C   UNL A   1      46.752  28.519  26.717  1.00  0.00     0.049 A 
ATOM     42  N   UNL A   1      49.724  28.011  26.701  1.00  0.00    -0.248 NA
ATOM     43  C   UNL A   1      49.282  25.776  26.200  1.00  0.00     0.031 C 
ATOM     44  C   UNL A   1      45.327  28.838  26.728  1.00  0.00     0.029 A 
ATOM     45  N   UNL A   1      47.368  29.729  26.947  1.00  0.00    -0.354 N 
ATOM     46  C   UNL A   1      50.928  27.318  26.585  1.00  0.00     0.074 A 
ATOM     47  C   UNL A   1      50.590  25.936  26.328  1.00  0.00     0.031 C 
ATOM     48  C   UNL A   1      45.176  30.154  26.964  1.00  0.00     0.029 A 
ATOM     49  C   UNL A   1      46.490  30.767  27.161  1.00  0.00     0.049 A 
ATOM     50  H   UNL A   1      48.345  29.841  26.956  1.00  0.00     0.167 HD
ATOM     51  C   UNL A   1      52.197  27.788  26.681  1.00  0.00     0.037 A 
ATOM     52  C   UNL A   1      46.716  32.055  27.499  1.00  0.00     0.037 A 
ATOM     53  C   UNL A   1      52.530  29.168  26.942  1.00  0.00     0.049 A 
ATOM     54  C   UNL A   1      48.135  32.541  27.676  1.00  0.00     0.074 A 
ATOM     55  C   UNL A   1      53.784  29.749  27.025  1.00  0.00     0.029 A 
ATOM     56  N   UNL A   1      51.610  30.177  27.181  1.00  0.00    -0.354 N 
ATOM     57  N   UNL A   1      49.261  31.882  27.535  1.00  0.00    -0.248 NA
ATOM     58  C   UNL A   1      48.313  33.951  28.054  1.00  0.00     0.031 C 
ATOM     59  C   UNL A   1      53.624  31.086  27.400  1.00  0.00     0.029 A 
ATOM     60  C   UNL A   1      52.268  31.366  27.453  1.00  0.00     0.049 A 
ATOM     61  H   UNL A   1      50.631  30.066  27.160  1.00  0.00     0.167 HD
ATOM     62  C   UNL A   1      50.278  32.808  27.758  1.00  0.00     0.074 A 
ATOM     63  C   UNL A   1      49.632  34.074  28.037  1.00  0.00     0.031 C 
ATOM     64  C   UNL A   1      51.623  32.628  27.726  1.00  0.00     0.037 A 
BRANCH  51  65
ATOM     65  C   UNL A   1      53.328  26.796  26.551  1.00  0.00     0.058 A 
ATOM     66  C   UNL A   1      53.895  26.151  27.664  1.00  0.00     0.135 A 
ATOM     67  C   UNL A   1      53.835  26.461  25.283  1.00  0.00     0.135 A 
ATOM     68  F   UNL A   1      53.462  26.432  28.903  1.00  0.00    -0.206 F 
ATOM     69  C   UNL A   1      54.948  25.249  27.529  1.00  0.00     0.059 A 
ATOM     70  C   UNL A   1      54.859  25.531  25.121  1.00  0.00     0.059 A 
ATOM     71  F   UNL A   1      53.334  27.037  24.180  1.00  0.00    -0.206 F 
ATOM     72  C   UNL A   1      55.423  24.945  26.252  1.00  0.00     0.060 A 
BRANCH  72  73
ATOM     73  S   UNL A   1      56.790  23.778  26.095  1.00  0.00     0.124 S 
ATOM     74  O   UNL A   1      56.163  22.533  26.528  1.00  0.00    -0.237 OA
ATOM     75  O   UNL A   1      57.109  23.864  24.673  1.00  0.00    -0.237 OA
ATOM     76  O   UNL A   1      57.804  24.315  26.996  1.00  0.00    -0.744 OA
ENDBRANCH  72  73
ENDBRANCH  51  65
BRANCH  52  77
ATOM     77  C   UNL A   1      45.572  32.994  27.686  1.00  0.00     0.058 A 
ATOM     78  C   UNL A   1      44.928  33.111  28.928  1.00  0.00     0.135 A 
ATOM     79  C   UNL A   1      45.086  33.780  26.628  1.00  0.00     0.135 A 
ATOM     80  F   UNL A   1      45.339  32.369  29.968  1.00  0.00    -0.206 F 
ATOM     81  C   UNL A   1      43.842  33.962  29.114  1.00  0.00     0.059 A 
ATOM     82  C   UNL A   1      44.025  34.663  26.798  1.00  0.00     0.059 A 
ATOM     83  F   UNL A   1      45.664  33.712  25.418  1.00  0.00    -0.206 F 
ATOM     84  C   UNL A   1      43.404  34.742  28.043  1.00  0.00     0.060 A 
BRANCH  84  85
ATOM     85  S   UNL A   1      42.039  35.893  28.315  1.00  0.00     0.124 S 
ATOM     86  O   UNL A   1      41.160  35.111  29.177  1.00  0.00    -0.237 OA
ATOM     87  O   UNL A   1      42.718  37.020  28.944  1.00  0.00    -0.237 OA
ATOM     88  O   UNL A   1      41.539  36.143  26.966  1.00  0.00    -0.744 OA
ENDBRANCH  84  85
ENDBRANCH  52  77
BRANCH  64  89
ATOM     89  C   UNL A   1      52.500  33.839  27.937  1.00  0.00     0.058 A 
ATOM     90  C   UNL A   1      52.979  34.211  29.204  1.00  0.00     0.135 A 
ATOM     91  C   UNL A   1      52.895  34.624  26.839  1.00  0.00     0.135 A 
ATOM     92  F   UNL A   1      52.636  33.503  30.292  1.00  0.00    -0.206 F 
ATOM     93  C   UNL A   1      53.778  35.338  29.379  1.00  0.00     0.059 A 
ATOM     94  C   UNL A   1      53.729  35.727  26.985  1.00  0.00     0.059 A 
ATOM     95  F   UNL A   1      52.481  34.312  25.600  1.00  0.00    -0.206 F 
ATOM     96  C   UNL A   1      54.150  36.088  28.263  1.00  0.00     0.060 A 
BRANCH  96  97
ATOM     97  S   UNL A   1      55.200  37.536  28.505  1.00  0.00     0.124 S 
ATOM     98  O   UNL A   1      55.463  37.474  29.939  1.00  0.00    -0.237 OA
ATOM     99  O   UNL A   1      56.336  37.244  27.638  1.00  0.00    -0.237 OA
ATOM    100  O   UNL A   1      54.357  38.647  28.071  1.00  0.00    -0.744 OA
ENDBRANCH  96  97
ENDBRANCH  64  89
ENDBRANCH  38  39
ENDBRANCH  31  33
ENDBRANCH  30  31
ENDBRANCH  29  30
ENDBRANCH  28  29
ENDBRANCH  27  28
ENDBRANCH  26  27
ENDBRANCH   1  26
TORSDOF 24
ENDMDL
