MODEL 1
REMARK VINA RESULT:     -10.1      0.000      0.000
REMARK SMILES Cc1ccc(S(=O)(=O)n2cc(C(=O)C(=O)NCC(=O)N[C@H](Cc3c[nH]c4ccccc34)C(=O)OCCOCCOCCOC(=O)c3ccc(-c4c5nc(c(-c6c(F)cc(S(=O)(=O)[O-])cc6F)c6ccc([nH]6)c(-c6c(F)cc(S(=O)(=O)[O-])cc6F)c6nc(c(-c7c(F)cc(S(=O)(=O)[O-])cc7F)c7ccc4[nH]7)C=C6)C=C5)cc3)c3ccccc32)cc1
REMARK SMILES IDX 36 1 35 2 34 3 32 4 33 5 21 6 20 7 18 8 19 9 17 11 16 12
REMARK SMILES IDX 14 13 15 14 12 16 13 17 11 18 9 19 10 20 117 21 112 22
REMARK SMILES IDX 116 23 113 24 115 25 114 26 6 27 7 28 8 29 5 30 1 31 2 32
REMARK SMILES IDX 3 33 119 34 4 35 118 36 22 37 23 38 24 39 31 40 25 41 26 42
REMARK SMILES IDX 30 43 27 45 29 46 28 47 37 48 38 49 39 50 40 51 41 52 42 53
REMARK SMILES IDX 43 54 44 55 45 56 46 57 47 58 111 59 48 60 110 61 49 62
REMARK SMILES IDX 50 63 51 64 104 65 52 66 109 67 103 68 105 69 53 70 108 71
REMARK SMILES IDX 102 72 101 73 54 75 88 76 67 77 87 78 68 79 71 80 86 81
REMARK SMILES IDX 106 82 69 83 70 84 85 86 107 87 72 88 55 89 56 90 65 91
REMARK SMILES IDX 57 92 58 93 64 94 66 95 59 96 60 97 61 98 62 99 63 100
REMARK SMILES IDX 89 101 90 102 99 103 91 104 92 105 98 106 100 107 93 108
REMARK SMILES IDX 94 109 95 110 96 111 97 112 73 113 74 114 83 115 75 116
REMARK SMILES IDX 76 117 82 118 84 119 77 120 78 121 79 122 80 123 81 124
REMARK H PARENT 20 10 16 15 25 44 105 74 71 85
REMARK Flexibility Score: inf
ROOT
ATOM      1  C   UNL A   1      41.819  42.194  23.864  1.00  0.00     0.202 C 
ENDROOT
BRANCH   1   2
ATOM      2  C   UNL A   1      41.924  42.174  22.346  1.00  0.00     0.261 C 
BRANCH   2   3
ATOM      3  O   UNL A   1      42.942  42.914  21.521  1.00  0.00    -0.462 OA
BRANCH   3   4
ATOM      4  C   UNL A   1      43.504  43.646  20.534  1.00  0.00     0.329 C 
ATOM      5  O   UNL A   1      42.939  43.910  19.498  1.00  0.00    -0.250 OA
BRANCH   4   6
ATOM      6  C   UNL A   1      44.985  44.092  20.534  1.00  0.00     0.196 C 
BRANCH   6   7
ATOM      7  N   UNL A   1      45.214  43.755  22.442  1.00  0.00    -0.341 N 
ATOM      8  C   UNL A   1      45.528  44.077  23.765  1.00  0.00     0.240 C 
ATOM      9  O   UNL A   1      45.912  45.247  23.981  1.00  0.00    -0.273 OA
ATOM     10  H   UNL A   1      44.964  42.806  22.515  1.00  0.00     0.164 HD
BRANCH   8  11
ATOM     11  C   UNL A   1      45.547  43.181  24.981  1.00  0.00     0.216 C 
BRANCH  11  12
ATOM     12  N   UNL A   1      45.819  41.821  24.671  1.00  0.00    -0.340 N 
ATOM     13  C   UNL A   1      45.959  40.834  25.623  1.00  0.00     0.292 C 
ATOM     14  O   UNL A   1      45.698  39.657  25.407  1.00  0.00    -0.265 OA
ATOM     15  H   UNL A   1      45.912  41.570  23.723  1.00  0.00     0.164 HD
BRANCH  13  16
ATOM     16  C   UNL A   1      46.587  41.260  26.951  1.00  0.00     0.252 C 
ATOM     17  O   UNL A   1      47.570  42.005  26.874  1.00  0.00    -0.283 OA
BRANCH  16  18
ATOM     18  C   UNL A   1      46.155  40.912  28.300  1.00  0.00     0.054 A 
ATOM     19  N   UNL A   1      46.035  40.321  30.474  1.00  0.00    -0.240 N 
ATOM     20  C   UNL A   1      45.866  39.836  29.140  1.00  0.00     0.117 A 
ATOM     21  C   UNL A   1      46.143  41.728  30.344  1.00  0.00     0.065 A 
ATOM     22  C   UNL A   1      45.661  41.956  29.075  1.00  0.00     0.012 A 
ATOM     23  C   UNL A   1      46.132  42.757  31.291  1.00  0.00     0.028 A 
ATOM     24  C   UNL A   1      44.901  43.082  28.773  1.00  0.00     0.011 A 
ATOM     25  C   UNL A   1      45.114  43.696  31.084  1.00  0.00     0.002 A 
ATOM     26  C   UNL A   1      44.486  43.841  29.849  1.00  0.00     0.001 A 
BRANCH  19  27
ATOM     27  S   UNL A   1      45.007  39.895  31.796  1.00  0.00     0.268 S 
ATOM     28  O   UNL A   1      43.790  40.624  31.451  1.00  0.00    -0.201 OA
ATOM     29  O   UNL A   1      45.792  40.326  32.952  1.00  0.00    -0.201 OA
BRANCH  27  30
ATOM     30  C   UNL A   1      44.384  38.386  32.438  1.00  0.00     0.088 A 
ATOM     31  C   UNL A   1      42.573  35.645  35.207  1.00  0.00     0.044 C 
ATOM     32  C   UNL A   1      43.241  36.547  34.224  1.00  0.00    -0.051 A 
ATOM     33  C   UNL A   1      42.898  37.881  34.317  1.00  0.00     0.005 A 
ATOM     34  C   UNL A   1      44.158  36.128  33.236  1.00  0.00     0.005 A 
ATOM     35  C   UNL A   1      43.431  38.758  33.416  1.00  0.00     0.022 A 
ATOM     36  C   UNL A   1      44.727  37.047  32.319  1.00  0.00     0.022 A 
ENDBRANCH  27  30
ENDBRANCH  19  27
ENDBRANCH  16  18
ENDBRANCH  13  16
ENDBRANCH  11  12
ENDBRANCH   8  11
ENDBRANCH   6   7
BRANCH   6  37
ATOM     37  C   UNL A   1      46.044  45.743  19.541  1.00  0.00     0.074 C 
BRANCH  37  38
ATOM     38  C   UNL A   1      45.743  47.455  19.251  1.00  0.00    -0.020 A 
ATOM     39  C   UNL A   1      45.985  48.549  20.074  1.00  0.00     0.087 A 
ATOM     40  C   UNL A   1      44.896  47.936  18.199  1.00  0.00     0.003 A 
ATOM     41  N   UNL A   1      44.850  49.317  19.947  1.00  0.00    -0.361 N 
ATOM     42  C   UNL A   1      44.208  49.004  18.775  1.00  0.00     0.046 A 
ATOM     43  C   UNL A   1      44.403  47.351  17.020  1.00  0.00     0.010 A 
ATOM     44  H   UNL A   1      44.545  49.989  20.598  1.00  0.00     0.166 HD
ATOM     45  C   UNL A   1      42.991  49.464  18.276  1.00  0.00     0.026 A 
ATOM     46  C   UNL A   1      43.182  47.794  16.516  1.00  0.00     0.001 A 
ATOM     47  C   UNL A   1      42.483  48.823  17.144  1.00  0.00     0.002 A 
ENDBRANCH  37  38
ENDBRANCH   6  37
ENDBRANCH   4   6
ENDBRANCH   3   4
ENDBRANCH   2   3
ENDBRANCH   1   2
BRANCH   1  48
ATOM     48  O   UNL A   1      42.549  41.373  24.732  1.00  0.00    -0.376 OA
BRANCH  48  49
ATOM     49  C   UNL A   1      41.898  40.862  25.855  1.00  0.00     0.188 C 
BRANCH  49  50
ATOM     50  C   UNL A   1      42.667  40.637  27.114  1.00  0.00     0.188 C 
BRANCH  50  51
ATOM     51  O   UNL A   1      42.783  39.258  27.360  1.00  0.00    -0.376 OA
BRANCH  51  52
ATOM     52  C   UNL A   1      41.927  38.372  26.727  1.00  0.00     0.202 C 
BRANCH  52  53
ATOM     53  C   UNL A   1      42.569  37.014  26.724  1.00  0.00     0.261 C 
BRANCH  53  54
ATOM     54  O   UNL A   1      42.436  36.114  28.035  1.00  0.00    -0.460 OA
BRANCH  54  55
ATOM     55  C   UNL A   1      42.893  35.454  29.198  1.00  0.00     0.338 C 
ATOM     56  O   UNL A   1      42.292  35.704  30.244  1.00  0.00    -0.246 OA
BRANCH  55  57
ATOM     57  C   UNL A   1      43.975  34.302  29.309  1.00  0.00     0.060 A 
ATOM     58  C   UNL A   1      45.440  33.826  28.355  1.00  0.00     0.016 A 
ATOM     59  C   UNL A   1      43.643  33.448  30.699  1.00  0.00     0.016 A 
ATOM     60  C   UNL A   1      46.409  32.354  28.910  1.00  0.00     0.010 A 
ATOM     61  C   UNL A   1      44.463  32.036  31.291  1.00  0.00     0.010 A 
ATOM     62  C   UNL A   1      45.710  31.341  30.377  1.00  0.00    -0.014 A 
BRANCH  62  63
ATOM     63  C   UNL A   1      44.919  29.676  30.611  1.00  0.00     0.031 A 
ATOM     64  C   UNL A   1      46.276  29.080  30.242  1.00  0.00     0.074 A 
ATOM     65  C   UNL A   1      43.582  28.995  31.140  1.00  0.00     0.049 A 
ATOM     66  N   UNL A   1      46.570  28.176  29.365  1.00  0.00    -0.248 NA
ATOM     67  C   UNL A   1      47.595  29.788  30.552  1.00  0.00     0.031 C 
ATOM     68  C   UNL A   1      43.165  27.686  31.905  1.00  0.00     0.029 A 
ATOM     69  N   UNL A   1      42.175  29.439  31.359  1.00  0.00    -0.354 N 
ATOM     70  C   UNL A   1      47.785  27.749  29.880  1.00  0.00     0.074 A 
ATOM     71  C   UNL A   1      48.513  28.942  30.115  1.00  0.00     0.031 C 
ATOM     72  C   UNL A   1      41.825  27.391  32.024  1.00  0.00     0.029 A 
ATOM     73  C   UNL A   1      41.091  28.562  31.657  1.00  0.00     0.049 A 
ATOM     74  H   UNL A   1      41.981  30.402  31.296  1.00  0.00     0.167 HD
ATOM     75  C   UNL A   1      47.717  26.750  30.814  1.00  0.00     0.037 A 
ATOM     76  C   UNL A   1      39.881  28.596  31.005  1.00  0.00     0.037 A 
ATOM     77  C   UNL A   1      46.345  26.204  30.959  1.00  0.00     0.049 A 
ATOM     78  C   UNL A   1      40.414  27.837  29.705  1.00  0.00     0.074 A 
ATOM     79  C   UNL A   1      45.541  25.769  31.985  1.00  0.00     0.029 A 
ATOM     80  N   UNL A   1      45.486  26.233  29.852  1.00  0.00    -0.354 N 
ATOM     81  N   UNL A   1      41.711  27.742  29.418  1.00  0.00    -0.248 NA
ATOM     82  C   UNL A   1      39.666  26.814  28.976  1.00  0.00     0.031 C 
ATOM     83  C   UNL A   1      44.286  25.343  31.386  1.00  0.00     0.029 A 
ATOM     84  C   UNL A   1      44.189  25.848  30.083  1.00  0.00     0.049 A 
ATOM     85  H   UNL A   1      45.795  26.514  28.960  1.00  0.00     0.167 HD
ATOM     86  C   UNL A   1      41.998  26.490  28.939  1.00  0.00     0.074 A 
ATOM     87  C   UNL A   1      40.667  26.009  28.559  1.00  0.00     0.031 C 
ATOM     88  C   UNL A   1      43.220  25.830  28.947  1.00  0.00     0.037 A 
BRANCH  75  89
ATOM     89  C   UNL A   1      48.931  26.309  31.597  1.00  0.00     0.058 A 
ATOM     90  C   UNL A   1      49.819  25.484  30.898  1.00  0.00     0.135 A 
ATOM     91  C   UNL A   1      49.371  26.719  32.887  1.00  0.00     0.135 A 
ATOM     92  F   UNL A   1      49.500  24.981  29.699  1.00  0.00    -0.206 F 
ATOM     93  C   UNL A   1      51.084  25.177  31.371  1.00  0.00     0.059 A 
ATOM     94  C   UNL A   1      50.658  26.459  33.363  1.00  0.00     0.059 A 
ATOM     95  F   UNL A   1      48.583  27.357  33.765  1.00  0.00    -0.206 F 
ATOM     96  C   UNL A   1      51.511  25.698  32.583  1.00  0.00     0.060 A 
BRANCH  96  97
ATOM     97  S   UNL A   1      53.189  25.334  33.102  1.00  0.00     0.124 S 
ATOM     98  O   UNL A   1      53.518  26.526  33.877  1.00  0.00    -0.237 OA
ATOM     99  O   UNL A   1      53.008  24.104  33.866  1.00  0.00    -0.237 OA
ATOM    100  O   UNL A   1      53.914  25.188  31.843  1.00  0.00    -0.744 OA
ENDBRANCH  96  97
ENDBRANCH  75  89
BRANCH  76 101
ATOM    101  C   UNL A   1      39.167  29.995  31.158  1.00  0.00     0.058 A 
ATOM    102  C   UNL A   1      39.222  31.172  30.344  1.00  0.00     0.135 A 
ATOM    103  C   UNL A   1      37.992  29.948  31.841  1.00  0.00     0.135 A 
ATOM    104  F   UNL A   1      40.340  31.455  29.655  1.00  0.00    -0.206 F 
ATOM    105  C   UNL A   1      38.109  32.103  30.152  1.00  0.00     0.059 A 
ATOM    106  C   UNL A   1      36.863  30.749  31.558  1.00  0.00     0.059 A 
ATOM    107  F   UNL A   1      37.797  28.874  32.580  1.00  0.00    -0.206 F 
ATOM    108  C   UNL A   1      36.880  31.835  30.731  1.00  0.00     0.060 A 
BRANCH 108 109
ATOM    109  S   UNL A   1      35.235  32.549  30.288  1.00  0.00     0.124 S 
ATOM    110  O   UNL A   1      34.501  32.363  31.514  1.00  0.00    -0.237 OA
ATOM    111  O   UNL A   1      35.508  33.934  29.939  1.00  0.00    -0.237 OA
ATOM    112  O   UNL A   1      34.783  31.694  29.195  1.00  0.00    -0.744 OA
ENDBRANCH 108 109
ENDBRANCH  76 101
BRANCH  88 113
ATOM    113  C   UNL A   1      43.600  24.979  27.752  1.00  0.00     0.058 A 
ATOM    114  C   UNL A   1      43.708  23.584  27.823  1.00  0.00     0.135 A 
ATOM    115  C   UNL A   1      43.767  25.522  26.450  1.00  0.00     0.135 A 
ATOM    116  F   UNL A   1      43.286  22.880  28.881  1.00  0.00    -0.206 F 
ATOM    117  C   UNL A   1      44.210  22.832  26.781  1.00  0.00     0.059 A 
ATOM    118  C   UNL A   1      44.119  24.760  25.352  1.00  0.00     0.059 A 
ATOM    119  F   UNL A   1      43.576  26.810  26.149  1.00  0.00    -0.206 F 
ATOM    120  C   UNL A   1      44.415  23.430  25.549  1.00  0.00     0.060 A 
BRANCH 120 121
ATOM    121  S   UNL A   1      45.014  22.416  24.212  1.00  0.00     0.124 S 
ATOM    122  O   UNL A   1      46.243  23.117  23.851  1.00  0.00    -0.237 OA
ATOM    123  O   UNL A   1      45.190  21.127  24.872  1.00  0.00    -0.237 OA
ATOM    124  O   UNL A   1      43.941  22.476  23.226  1.00  0.00    -0.744 OA
ENDBRANCH 120 121
ENDBRANCH  88 113
ENDBRANCH  62  63
ENDBRANCH  55  57
ENDBRANCH  54  55
ENDBRANCH  53  54
ENDBRANCH  52  53
ENDBRANCH  51  52
ENDBRANCH  50  51
ENDBRANCH  49  50
ENDBRANCH  48  49
ENDBRANCH   1  48
TORSDOF 29
ENDMDL
MODEL 2
REMARK VINA RESULT:      -9.6      7.227     13.405
REMARK SMILES Cc1ccc(S(=O)(=O)n2cc(C(=O)C(=O)NCC(=O)N[C@H](Cc3c[nH]c4ccccc34)C(=O)OCCOCCOCCOC(=O)c3ccc(-c4c5nc(c(-c6c(F)cc(S(=O)(=O)[O-])cc6F)c6ccc([nH]6)c(-c6c(F)cc(S(=O)(=O)[O-])cc6F)c6nc(c(-c7c(F)cc(S(=O)(=O)[O-])cc7F)c7ccc4[nH]7)C=C6)C=C5)cc3)c3ccccc32)cc1
REMARK SMILES IDX 36 1 35 2 34 3 32 4 33 5 21 6 20 7 18 8 19 9 17 11 16 12
REMARK SMILES IDX 14 13 15 14 12 16 13 17 11 18 9 19 10 20 117 21 112 22
REMARK SMILES IDX 116 23 113 24 115 25 114 26 6 27 7 28 8 29 5 30 1 31 2 32
REMARK SMILES IDX 3 33 119 34 4 35 118 36 22 37 23 38 24 39 31 40 25 41 26 42
REMARK SMILES IDX 30 43 27 45 29 46 28 47 37 48 38 49 39 50 40 51 41 52 42 53
REMARK SMILES IDX 43 54 44 55 45 56 46 57 47 58 111 59 48 60 110 61 49 62
REMARK SMILES IDX 50 63 51 64 104 65 52 66 109 67 103 68 105 69 53 70 108 71
REMARK SMILES IDX 102 72 101 73 54 75 88 76 67 77 87 78 68 79 71 80 86 81
REMARK SMILES IDX 106 82 69 83 70 84 85 86 107 87 72 88 55 89 56 90 65 91
REMARK SMILES IDX 57 92 58 93 64 94 66 95 59 96 60 97 61 98 62 99 63 100
REMARK SMILES IDX 89 101 90 102 99 103 91 104 92 105 98 106 100 107 93 108
REMARK SMILES IDX 94 109 95 110 96 111 97 112 73 113 74 114 83 115 75 116
REMARK SMILES IDX 76 117 82 118 84 119 77 120 78 121 79 122 80 123 81 124
REMARK H PARENT 20 10 16 15 25 44 105 74 71 85
REMARK Flexibility Score: inf
ROOT
ATOM      1  C   UNL A   1      38.818  33.546  33.016  1.00  0.00     0.202 C 
ENDROOT
BRANCH   1   2
ATOM      2  C   UNL A   1      37.753  32.461  32.950  1.00  0.00     0.261 C 
BRANCH   2   3
ATOM      3  O   UNL A   1      36.992  32.042  31.721  1.00  0.00    -0.462 OA
BRANCH   3   4
ATOM      4  C   UNL A   1      36.146  31.381  30.901  1.00  0.00     0.329 C 
ATOM      5  O   UNL A   1      36.220  30.194  30.687  1.00  0.00    -0.250 OA
BRANCH   4   6
ATOM      6  C   UNL A   1      35.090  32.082  30.014  1.00  0.00     0.196 C 
BRANCH   6   7
ATOM      7  N   UNL A   1      35.101  30.668  28.670  1.00  0.00    -0.341 N 
ATOM      8  C   UNL A   1      35.651  29.869  27.665  1.00  0.00     0.240 C 
ATOM      9  O   UNL A   1      36.833  30.116  27.336  1.00  0.00    -0.273 OA
ATOM     10  H   UNL A   1      34.187  30.310  28.741  1.00  0.00     0.164 HD
BRANCH   8  11
ATOM     11  C   UNL A   1      34.992  28.783  26.847  1.00  0.00     0.216 C 
BRANCH  11  12
ATOM     12  N   UNL A   1      34.035  29.282  25.922  1.00  0.00    -0.340 N 
ATOM     13  C   UNL A   1      32.685  29.017  26.004  1.00  0.00     0.292 C 
ATOM     14  O   UNL A   1      31.829  29.780  25.574  1.00  0.00    -0.265 OA
ATOM     15  H   UNL A   1      34.355  29.848  25.182  1.00  0.00     0.164 HD
BRANCH  13  16
ATOM     16  C   UNL A   1      32.297  27.643  26.551  1.00  0.00     0.252 C 
ATOM     17  O   UNL A   1      31.604  27.641  27.575  1.00  0.00    -0.283 OA
BRANCH  16  18
ATOM     18  C   UNL A   1      32.627  26.332  26.001  1.00  0.00     0.054 A 
ATOM     19  N   UNL A   1      33.508  24.302  25.566  1.00  0.00    -0.240 N 
ATOM     20  C   UNL A   1      33.501  25.667  25.142  1.00  0.00     0.117 A 
ATOM     21  C   UNL A   1      32.427  24.192  26.474  1.00  0.00     0.065 A 
ATOM     22  C   UNL A   1      31.691  25.325  26.212  1.00  0.00     0.012 A 
ATOM     23  C   UNL A   1      31.816  23.084  27.070  1.00  0.00     0.028 A 
ATOM     24  C   UNL A   1      30.299  25.318  26.252  1.00  0.00     0.011 A 
ATOM     25  C   UNL A   1      30.448  22.984  26.790  1.00  0.00     0.002 A 
ATOM     26  C   UNL A   1      29.701  24.079  26.361  1.00  0.00     0.001 A 
BRANCH  19  27
ATOM     27  S   UNL A   1      33.555  22.953  24.486  1.00  0.00     0.268 S 
ATOM     28  O   UNL A   1      34.903  23.080  23.938  1.00  0.00    -0.201 OA
ATOM     29  O   UNL A   1      32.406  23.210  23.618  1.00  0.00    -0.201 OA
BRANCH  27  30
ATOM     30  C   UNL A   1      33.374  21.219  24.670  1.00  0.00     0.088 A 
ATOM     31  C   UNL A   1      34.373  17.042  24.543  1.00  0.00     0.044 C 
ATOM     32  C   UNL A   1      33.963  18.476  24.573  1.00  0.00    -0.051 A 
ATOM     33  C   UNL A   1      34.995  19.384  24.698  1.00  0.00     0.005 A 
ATOM     34  C   UNL A   1      32.631  18.937  24.497  1.00  0.00     0.005 A 
ATOM     35  C   UNL A   1      34.691  20.713  24.785  1.00  0.00     0.022 A 
ATOM     36  C   UNL A   1      32.323  20.319  24.562  1.00  0.00     0.022 A 
ENDBRANCH  27  30
ENDBRANCH  19  27
ENDBRANCH  16  18
ENDBRANCH  13  16
ENDBRANCH  11  12
ENDBRANCH   8  11
ENDBRANCH   6   7
BRANCH   6  37
ATOM     37  C   UNL A   1      34.779  34.183  29.446  1.00  0.00     0.074 C 
BRANCH  37  38
ATOM     38  C   UNL A   1      33.700  35.487  29.936  1.00  0.00    -0.020 A 
ATOM     39  C   UNL A   1      33.152  36.515  29.178  1.00  0.00     0.087 A 
ATOM     40  C   UNL A   1      33.475  35.846  31.305  1.00  0.00     0.003 A 
ATOM     41  N   UNL A   1      33.289  37.626  29.979  1.00  0.00    -0.361 N 
ATOM     42  C   UNL A   1      33.421  37.241  31.289  1.00  0.00     0.046 A 
ATOM     43  C   UNL A   1      33.692  35.177  32.522  1.00  0.00     0.010 A 
ATOM     44  H   UNL A   1      33.293  38.558  29.659  1.00  0.00     0.166 HD
ATOM     45  C   UNL A   1      33.664  38.011  32.424  1.00  0.00     0.026 A 
ATOM     46  C   UNL A   1      33.948  35.935  33.664  1.00  0.00     0.001 A 
ATOM     47  C   UNL A   1      33.948  37.327  33.608  1.00  0.00     0.002 A 
ENDBRANCH  37  38
ENDBRANCH   6  37
ENDBRANCH   4   6
ENDBRANCH   3   4
ENDBRANCH   2   3
ENDBRANCH   1   2
BRANCH   1  48
ATOM     48  O   UNL A   1      40.139  33.352  33.438  1.00  0.00    -0.376 OA
BRANCH  48  49
ATOM     49  C   UNL A   1      41.050  34.390  33.240  1.00  0.00     0.188 C 
BRANCH  49  50
ATOM     50  C   UNL A   1      42.182  34.205  32.284  1.00  0.00     0.188 C 
BRANCH  50  51
ATOM     51  O   UNL A   1      41.694  33.714  31.061  1.00  0.00    -0.376 OA
BRANCH  51  52
ATOM     52  C   UNL A   1      41.129  34.586  30.146  1.00  0.00     0.202 C 
BRANCH  52  53
ATOM     53  C   UNL A   1      42.089  34.761  29.004  1.00  0.00     0.261 C 
BRANCH  53  54
ATOM     54  O   UNL A   1      43.479  35.491  29.292  1.00  0.00    -0.460 OA
BRANCH  54  55
ATOM     55  C   UNL A   1      44.886  35.605  29.360  1.00  0.00     0.338 C 
ATOM     56  O   UNL A   1      45.331  36.667  29.799  1.00  0.00    -0.246 OA
BRANCH  55  57
ATOM     57  C   UNL A   1      45.973  34.480  29.105  1.00  0.00     0.060 A 
ATOM     58  C   UNL A   1      46.803  33.814  27.639  1.00  0.00     0.016 A 
ATOM     59  C   UNL A   1      46.451  33.911  30.594  1.00  0.00     0.016 A 
ATOM     60  C   UNL A   1      48.041  32.462  27.870  1.00  0.00     0.010 A 
ATOM     61  C   UNL A   1      47.573  32.627  30.921  1.00  0.00     0.010 A 
ATOM     62  C   UNL A   1      48.254  31.755  29.637  1.00  0.00    -0.014 A 
BRANCH  62  63
ATOM     63  C   UNL A   1      47.829  30.174  30.517  1.00  0.00     0.031 A 
ATOM     64  C   UNL A   1      48.205  29.458  29.221  1.00  0.00     0.074 A 
ATOM     65  C   UNL A   1      47.458  29.612  31.958  1.00  0.00     0.049 A 
ATOM     66  N   UNL A   1      47.540  28.582  28.540  1.00  0.00    -0.248 NA
ATOM     67  C   UNL A   1      49.264  29.999  28.261  1.00  0.00     0.031 C 
ATOM     68  C   UNL A   1      47.718  28.313  32.804  1.00  0.00     0.029 A 
ATOM     69  N   UNL A   1      46.915  30.192  33.220  1.00  0.00    -0.354 N 
ATOM     70  C   UNL A   1      48.588  27.995  27.845  1.00  0.00     0.074 A 
ATOM     71  C   UNL A   1      49.314  29.086  27.305  1.00  0.00     0.031 C 
ATOM     72  C   UNL A   1      47.048  28.158  33.997  1.00  0.00     0.029 A 
ATOM     73  C   UNL A   1      46.469  29.422  34.333  1.00  0.00     0.049 A 
ATOM     74  H   UNL A   1      46.862  31.173  33.290  1.00  0.00     0.167 HD
ATOM     75  C   UNL A   1      49.214  26.955  28.479  1.00  0.00     0.037 A 
ATOM     76  C   UNL A   1      45.268  29.626  34.971  1.00  0.00     0.037 A 
ATOM     77  C   UNL A   1      48.520  26.553  29.728  1.00  0.00     0.049 A 
ATOM     78  C   UNL A   1      44.400  28.893  33.848  1.00  0.00     0.074 A 
ATOM     79  C   UNL A   1      48.880  26.148  30.990  1.00  0.00     0.029 A 
ATOM     80  N   UNL A   1      47.134  26.742  29.820  1.00  0.00    -0.354 N 
ATOM     81  N   UNL A   1      44.866  28.675  32.619  1.00  0.00    -0.248 NA
ATOM     82  C   UNL A   1      43.273  28.002  34.119  1.00  0.00     0.031 C 
ATOM     83  C   UNL A   1      47.647  25.897  31.720  1.00  0.00     0.029 A 
ATOM     84  C   UNL A   1      46.570  26.487  31.046  1.00  0.00     0.049 A 
ATOM     85  H   UNL A   1      46.596  27.041  29.051  1.00  0.00     0.167 HD
ATOM     86  C   UNL A   1      44.489  27.430  32.185  1.00  0.00     0.074 A 
ATOM     87  C   UNL A   1      43.390  27.120  33.104  1.00  0.00     0.031 C 
ATOM     88  C   UNL A   1      45.095  26.642  31.216  1.00  0.00     0.037 A 
BRANCH  75  89
ATOM     89  C   UNL A   1      50.481  26.339  27.936  1.00  0.00     0.058 A 
ATOM     90  C   UNL A   1      50.318  25.575  26.774  1.00  0.00     0.135 A 
ATOM     91  C   UNL A   1      51.829  26.534  28.348  1.00  0.00     0.135 A 
ATOM     92  F   UNL A   1      49.099  25.268  26.313  1.00  0.00    -0.206 F 
ATOM     93  C   UNL A   1      51.386  25.133  26.013  1.00  0.00     0.059 A 
ATOM     94  C   UNL A   1      52.921  26.137  27.573  1.00  0.00     0.059 A 
ATOM     95  F   UNL A   1      52.166  27.082  29.524  1.00  0.00    -0.206 F 
ATOM     96  C   UNL A   1      52.681  25.450  26.396  1.00  0.00     0.060 A 
BRANCH  96  97
ATOM     97  S   UNL A   1      54.020  24.922  25.324  1.00  0.00     0.124 S 
ATOM     98  O   UNL A   1      53.903  23.469  25.408  1.00  0.00    -0.237 OA
ATOM     99  O   UNL A   1      53.640  25.521  24.050  1.00  0.00    -0.237 OA
ATOM    100  O   UNL A   1      55.208  25.490  25.954  1.00  0.00    -0.744 OA
ENDBRANCH  96  97
ENDBRANCH  75  89
BRANCH  76 101
ATOM    101  C   UNL A   1      45.156  31.082  35.567  1.00  0.00     0.058 A 
ATOM    102  C   UNL A   1      46.081  31.856  36.340  1.00  0.00     0.135 A 
ATOM    103  C   UNL A   1      44.315  31.901  34.880  1.00  0.00     0.135 A 
ATOM    104  F   UNL A   1      46.942  31.237  37.163  1.00  0.00    -0.206 F 
ATOM    105  C   UNL A   1      46.207  33.312  36.272  1.00  0.00     0.059 A 
ATOM    106  C   UNL A   1      44.515  33.287  34.690  1.00  0.00     0.059 A 
ATOM    107  F   UNL A   1      43.453  31.304  34.080  1.00  0.00    -0.206 F 
ATOM    108  C   UNL A   1      45.439  34.028  35.368  1.00  0.00     0.060 A 
BRANCH 108 109
ATOM    109  S   UNL A   1      45.717  35.748  34.752  1.00  0.00     0.124 S 
ATOM    110  O   UNL A   1      46.997  36.058  35.336  1.00  0.00    -0.237 OA
ATOM    111  O   UNL A   1      45.715  35.632  33.302  1.00  0.00    -0.237 OA
ATOM    112  O   UNL A   1      44.606  36.494  35.333  1.00  0.00    -0.744 OA
ENDBRANCH 108 109
ENDBRANCH  76 101
BRANCH  88 113
ATOM    113  C   UNL A   1      44.221  25.828  30.283  1.00  0.00     0.058 A 
ATOM    114  C   UNL A   1      43.640  26.369  29.129  1.00  0.00     0.135 A 
ATOM    115  C   UNL A   1      44.017  24.432  30.451  1.00  0.00     0.135 A 
ATOM    116  F   UNL A   1      43.974  27.574  28.650  1.00  0.00    -0.206 F 
ATOM    117  C   UNL A   1      42.717  25.673  28.374  1.00  0.00     0.059 A 
ATOM    118  C   UNL A   1      43.219  23.677  29.612  1.00  0.00     0.059 A 
ATOM    119  F   UNL A   1      44.593  23.705  31.414  1.00  0.00    -0.206 F 
ATOM    120  C   UNL A   1      42.512  24.327  28.626  1.00  0.00     0.060 A 
BRANCH 120 121
ATOM    121  S   UNL A   1      41.353  23.448  27.597  1.00  0.00     0.124 S 
ATOM    122  O   UNL A   1      41.957  23.617  26.279  1.00  0.00    -0.237 OA
ATOM    123  O   UNL A   1      41.418  22.103  28.158  1.00  0.00    -0.237 OA
ATOM    124  O   UNL A   1      40.096  24.157  27.811  1.00  0.00    -0.744 OA
ENDBRANCH 120 121
ENDBRANCH  88 113
ENDBRANCH  62  63
ENDBRANCH  55  57
ENDBRANCH  54  55
ENDBRANCH  53  54
ENDBRANCH  52  53
ENDBRANCH  51  52
ENDBRANCH  50  51
ENDBRANCH  49  50
ENDBRANCH  48  49
ENDBRANCH   1  48
TORSDOF 29
ENDMDL
MODEL 3
REMARK VINA RESULT:      -9.2      7.509     14.563
REMARK SMILES Cc1ccc(S(=O)(=O)n2cc(C(=O)C(=O)NCC(=O)N[C@H](Cc3c[nH]c4ccccc34)C(=O)OCCOCCOCCOC(=O)c3ccc(-c4c5nc(c(-c6c(F)cc(S(=O)(=O)[O-])cc6F)c6ccc([nH]6)c(-c6c(F)cc(S(=O)(=O)[O-])cc6F)c6nc(c(-c7c(F)cc(S(=O)(=O)[O-])cc7F)c7ccc4[nH]7)C=C6)C=C5)cc3)c3ccccc32)cc1
REMARK SMILES IDX 36 1 35 2 34 3 32 4 33 5 21 6 20 7 18 8 19 9 17 11 16 12
REMARK SMILES IDX 14 13 15 14 12 16 13 17 11 18 9 19 10 20 117 21 112 22
REMARK SMILES IDX 116 23 113 24 115 25 114 26 6 27 7 28 8 29 5 30 1 31 2 32
REMARK SMILES IDX 3 33 119 34 4 35 118 36 22 37 23 38 24 39 31 40 25 41 26 42
REMARK SMILES IDX 30 43 27 45 29 46 28 47 37 48 38 49 39 50 40 51 41 52 42 53
REMARK SMILES IDX 43 54 44 55 45 56 46 57 47 58 111 59 48 60 110 61 49 62
REMARK SMILES IDX 50 63 51 64 104 65 52 66 109 67 103 68 105 69 53 70 108 71
REMARK SMILES IDX 102 72 101 73 54 75 88 76 67 77 87 78 68 79 71 80 86 81
REMARK SMILES IDX 106 82 69 83 70 84 85 86 107 87 72 88 55 89 56 90 65 91
REMARK SMILES IDX 57 92 58 93 64 94 66 95 59 96 60 97 61 98 62 99 63 100
REMARK SMILES IDX 89 101 90 102 99 103 91 104 92 105 98 106 100 107 93 108
REMARK SMILES IDX 94 109 95 110 96 111 97 112 73 113 74 114 83 115 75 116
REMARK SMILES IDX 76 117 82 118 84 119 77 120 78 121 79 122 80 123 81 124
REMARK H PARENT 20 10 16 15 25 44 105 74 71 85
REMARK Flexibility Score: inf
ROOT
ATOM      1  C   UNL A   1      38.677  33.438  33.107  1.00  0.00     0.202 C 
ENDROOT
BRANCH   1   2
ATOM      2  C   UNL A   1      37.615  32.353  33.005  1.00  0.00     0.261 C 
BRANCH   2   3
ATOM      3  O   UNL A   1      36.801  32.025  31.782  1.00  0.00    -0.462 OA
BRANCH   3   4
ATOM      4  C   UNL A   1      36.000  31.369  30.914  1.00  0.00     0.329 C 
ATOM      5  O   UNL A   1      36.100  30.186  30.682  1.00  0.00    -0.250 OA
BRANCH   4   6
ATOM      6  C   UNL A   1      34.975  32.072  29.994  1.00  0.00     0.196 C 
BRANCH   6   7
ATOM      7  N   UNL A   1      35.014  30.652  28.658  1.00  0.00    -0.341 N 
ATOM      8  C   UNL A   1      35.571  29.874  27.640  1.00  0.00     0.240 C 
ATOM      9  O   UNL A   1      36.728  30.176  27.273  1.00  0.00    -0.273 OA
ATOM     10  H   UNL A   1      34.121  30.250  28.759  1.00  0.00     0.164 HD
BRANCH   8  11
ATOM     11  C   UNL A   1      34.941  28.752  26.849  1.00  0.00     0.216 C 
BRANCH  11  12
ATOM     12  N   UNL A   1      34.000  29.205  25.885  1.00  0.00    -0.340 N 
ATOM     13  C   UNL A   1      32.670  28.848  25.891  1.00  0.00     0.292 C 
ATOM     14  O   UNL A   1      31.785  29.561  25.433  1.00  0.00    -0.265 OA
ATOM     15  H   UNL A   1      34.317  29.809  25.174  1.00  0.00     0.164 HD
BRANCH  13  16
ATOM     16  C   UNL A   1      32.350  27.438  26.390  1.00  0.00     0.252 C 
ATOM     17  O   UNL A   1      31.504  27.357  27.287  1.00  0.00    -0.283 OA
BRANCH  16  18
ATOM     18  C   UNL A   1      32.906  26.173  25.921  1.00  0.00     0.054 A 
ATOM     19  N   UNL A   1      34.119  24.295  25.621  1.00  0.00    -0.240 N 
ATOM     20  C   UNL A   1      33.905  25.617  25.122  1.00  0.00     0.117 A 
ATOM     21  C   UNL A   1      33.039  24.055  26.506  1.00  0.00     0.065 A 
ATOM     22  C   UNL A   1      32.139  25.038  26.163  1.00  0.00     0.012 A 
ATOM     23  C   UNL A   1      32.595  22.893  27.146  1.00  0.00     0.028 A 
ATOM     24  C   UNL A   1      30.766  24.806  26.167  1.00  0.00     0.011 A 
ATOM     25  C   UNL A   1      31.271  22.557  26.837  1.00  0.00     0.002 A 
ATOM     26  C   UNL A   1      30.373  23.493  26.329  1.00  0.00     0.001 A 
BRANCH  19  27
ATOM     27  S   UNL A   1      34.420  22.919  24.619  1.00  0.00     0.268 S 
ATOM     28  O   UNL A   1      35.732  22.501  25.104  1.00  0.00    -0.201 OA
ATOM     29  O   UNL A   1      34.305  23.484  23.274  1.00  0.00    -0.201 OA
BRANCH  27  30
ATOM     30  C   UNL A   1      33.605  21.392  24.343  1.00  0.00     0.088 A 
ATOM     31  C   UNL A   1      33.085  17.166  23.766  1.00  0.00     0.044 C 
ATOM     32  C   UNL A   1      33.214  18.643  23.924  1.00  0.00    -0.051 A 
ATOM     33  C   UNL A   1      34.308  19.067  24.652  1.00  0.00     0.005 A 
ATOM     34  C   UNL A   1      32.311  19.594  23.403  1.00  0.00     0.005 A 
ATOM     35  C   UNL A   1      34.463  20.404  24.882  1.00  0.00     0.022 A 
ATOM     36  C   UNL A   1      32.491  20.983  23.624  1.00  0.00     0.022 A 
ENDBRANCH  27  30
ENDBRANCH  19  27
ENDBRANCH  16  18
ENDBRANCH  13  16
ENDBRANCH  11  12
ENDBRANCH   8  11
ENDBRANCH   6   7
BRANCH   6  37
ATOM     37  C   UNL A   1      34.695  34.173  29.407  1.00  0.00     0.074 C 
BRANCH  37  38
ATOM     38  C   UNL A   1      33.666  35.509  29.915  1.00  0.00    -0.020 A 
ATOM     39  C   UNL A   1      33.172  36.577  29.176  1.00  0.00     0.087 A 
ATOM     40  C   UNL A   1      33.438  35.846  31.290  1.00  0.00     0.003 A 
ATOM     41  N   UNL A   1      33.345  37.663  30.004  1.00  0.00    -0.361 N 
ATOM     42  C   UNL A   1      33.443  37.241  31.307  1.00  0.00     0.046 A 
ATOM     43  C   UNL A   1      33.612  35.140  32.493  1.00  0.00     0.010 A 
ATOM     44  H   UNL A   1      33.392  38.600  29.707  1.00  0.00     0.166 HD
ATOM     45  C   UNL A   1      33.704  37.973  32.462  1.00  0.00     0.026 A 
ATOM     46  C   UNL A   1      33.884  35.859  33.655  1.00  0.00     0.001 A 
ATOM     47  C   UNL A   1      33.944  37.251  33.633  1.00  0.00     0.002 A 
ENDBRANCH  37  38
ENDBRANCH   6  37
ENDBRANCH   4   6
ENDBRANCH   3   4
ENDBRANCH   2   3
ENDBRANCH   1   2
BRANCH   1  48
ATOM     48  O   UNL A   1      40.014  33.224  33.463  1.00  0.00    -0.376 OA
BRANCH  48  49
ATOM     49  C   UNL A   1      40.881  34.317  33.452  1.00  0.00     0.188 C 
BRANCH  49  50
ATOM     50  C   UNL A   1      41.569  34.699  32.184  1.00  0.00     0.188 C 
BRANCH  50  51
ATOM     51  O   UNL A   1      40.968  34.037  31.100  1.00  0.00    -0.376 OA
BRANCH  51  52
ATOM     52  C   UNL A   1      40.186  34.749  30.206  1.00  0.00     0.202 C 
BRANCH  52  53
ATOM     53  C   UNL A   1      41.020  35.064  28.996  1.00  0.00     0.261 C 
BRANCH  53  54
ATOM     54  O   UNL A   1      42.585  35.308  29.201  1.00  0.00    -0.460 OA
BRANCH  54  55
ATOM     55  C   UNL A   1      43.962  35.037  29.047  1.00  0.00     0.338 C 
ATOM     56  O   UNL A   1      44.740  35.788  29.639  1.00  0.00    -0.246 OA
BRANCH  55  57
ATOM     57  C   UNL A   1      44.643  33.790  28.346  1.00  0.00     0.060 A 
ATOM     58  C   UNL A   1      44.212  32.713  26.954  1.00  0.00     0.016 A 
ATOM     59  C   UNL A   1      46.119  33.559  29.079  1.00  0.00     0.016 A 
ATOM     60  C   UNL A   1      45.377  31.350  26.506  1.00  0.00     0.010 A 
ATOM     61  C   UNL A   1      47.268  32.295  28.761  1.00  0.00     0.010 A 
ATOM     62  C   UNL A   1      46.894  31.078  27.643  1.00  0.00    -0.014 A 
BRANCH  62  63
ATOM     63  C   UNL A   1      47.439  29.805  28.882  1.00  0.00     0.031 A 
ATOM     64  C   UNL A   1      46.182  29.027  28.501  1.00  0.00     0.074 A 
ATOM     65  C   UNL A   1      48.671  29.421  29.812  1.00  0.00     0.049 A 
ATOM     66  N   UNL A   1      45.259  28.528  29.257  1.00  0.00    -0.248 NA
ATOM     67  C   UNL A   1      45.569  29.090  27.102  1.00  0.00     0.031 C 
ATOM     68  C   UNL A   1      49.378  28.115  30.330  1.00  0.00     0.029 A 
ATOM     69  N   UNL A   1      49.840  30.148  30.387  1.00  0.00    -0.354 N 
ATOM     70  C   UNL A   1      44.752  27.569  28.392  1.00  0.00     0.074 A 
ATOM     71  C   UNL A   1      44.539  28.263  27.175  1.00  0.00     0.031 C 
ATOM     72  C   UNL A   1      50.355  28.232  31.292  1.00  0.00     0.029 A 
ATOM     73  C   UNL A   1      50.712  29.613  31.380  1.00  0.00     0.049 A 
ATOM     74  H   UNL A   1      50.023  31.058  30.057  1.00  0.00     0.167 HD
ATOM     75  C   UNL A   1      45.371  26.349  28.428  1.00  0.00     0.037 A 
ATOM     76  C   UNL A   1      51.078  30.292  32.519  1.00  0.00     0.037 A 
ATOM     77  C   UNL A   1      46.365  26.250  29.526  1.00  0.00     0.049 A 
ATOM     78  C   UNL A   1      49.701  30.019  33.280  1.00  0.00     0.074 A 
ATOM     79  C   UNL A   1      47.612  25.703  29.705  1.00  0.00     0.029 A 
ATOM     80  N   UNL A   1      46.161  27.004  30.690  1.00  0.00    -0.354 N 
ATOM     81  N   UNL A   1      48.593  29.652  32.636  1.00  0.00    -0.248 NA
ATOM     82  C   UNL A   1      49.588  29.681  34.698  1.00  0.00     0.031 C 
ATOM     83  C   UNL A   1      48.001  25.980  31.079  1.00  0.00     0.029 A 
ATOM     84  C   UNL A   1      47.181  26.984  31.609  1.00  0.00     0.049 A 
ATOM     85  H   UNL A   1      45.335  27.519  30.840  1.00  0.00     0.167 HD
ATOM     86  C   UNL A   1      47.927  28.693  33.354  1.00  0.00     0.074 A 
ATOM     87  C   UNL A   1      48.520  28.855  34.684  1.00  0.00     0.031 C 
ATOM     88  C   UNL A   1      47.027  27.744  32.885  1.00  0.00     0.037 A 
BRANCH  75  89
ATOM     89  C   UNL A   1      45.057  25.267  27.422  1.00  0.00     0.058 A 
ATOM     90  C   UNL A   1      46.100  24.956  26.542  1.00  0.00     0.135 A 
ATOM     91  C   UNL A   1      43.913  24.425  27.328  1.00  0.00     0.135 A 
ATOM     92  F   UNL A   1      47.208  25.705  26.488  1.00  0.00    -0.206 F 
ATOM     93  C   UNL A   1      46.075  23.845  25.716  1.00  0.00     0.059 A 
ATOM     94  C   UNL A   1      43.885  23.275  26.537  1.00  0.00     0.059 A 
ATOM     95  F   UNL A   1      42.759  24.681  27.961  1.00  0.00    -0.206 F 
ATOM     96  C   UNL A   1      44.985  22.989  25.747  1.00  0.00     0.060 A 
BRANCH  96  97
ATOM     97  S   UNL A   1      45.048  21.521  24.717  1.00  0.00     0.124 S 
ATOM     98  O   UNL A   1      46.482  21.255  24.680  1.00  0.00    -0.237 OA
ATOM     99  O   UNL A   1      44.242  20.578  25.487  1.00  0.00    -0.237 OA
ATOM    100  O   UNL A   1      44.461  21.961  23.455  1.00  0.00    -0.744 OA
ENDBRANCH  96  97
ENDBRANCH  75  89
BRANCH  76 101
ATOM    101  C   UNL A   1      51.817  31.646  32.188  1.00  0.00     0.058 A 
ATOM    102  C   UNL A   1      52.957  31.918  31.364  1.00  0.00     0.135 A 
ATOM    103  C   UNL A   1      51.025  32.748  32.276  1.00  0.00     0.135 A 
ATOM    104  F   UNL A   1      53.913  30.986  31.220  1.00  0.00    -0.206 F 
ATOM    105  C   UNL A   1      53.155  33.149  30.598  1.00  0.00     0.059 A 
ATOM    106  C   UNL A   1      51.122  33.879  31.436  1.00  0.00     0.059 A 
ATOM    107  F   UNL A   1      49.907  32.602  32.960  1.00  0.00    -0.206 F 
ATOM    108  C   UNL A   1      52.168  34.122  30.593  1.00  0.00     0.060 A 
BRANCH 108 109
ATOM    109  S   UNL A   1      51.943  35.506  29.390  1.00  0.00     0.124 S 
ATOM    110  O   UNL A   1      53.271  35.633  28.846  1.00  0.00    -0.237 OA
ATOM    111  O   UNL A   1      50.938  35.029  28.453  1.00  0.00    -0.237 OA
ATOM    112  O   UNL A   1      51.543  36.624  30.239  1.00  0.00    -0.744 OA
ENDBRANCH 108 109
ENDBRANCH  76 101
BRANCH  88 113
ATOM    113  C   UNL A   1      45.821  27.396  33.735  1.00  0.00     0.058 A 
ATOM    114  C   UNL A   1      45.735  26.207  34.471  1.00  0.00     0.135 A 
ATOM    115  C   UNL A   1      44.741  28.297  33.933  1.00  0.00     0.135 A 
ATOM    116  F   UNL A   1      46.781  25.391  34.649  1.00  0.00    -0.206 F 
ATOM    117  C   UNL A   1      44.574  25.821  35.109  1.00  0.00     0.059 A 
ATOM    118  C   UNL A   1      43.633  27.992  34.700  1.00  0.00     0.059 A 
ATOM    119  F   UNL A   1      44.698  29.533  33.425  1.00  0.00    -0.206 F 
ATOM    120  C   UNL A   1      43.527  26.721  35.216  1.00  0.00     0.060 A 
BRANCH 120 121
ATOM    121  S   UNL A   1      42.063  26.206  36.093  1.00  0.00     0.124 S 
ATOM    122  O   UNL A   1      41.084  27.171  35.604  1.00  0.00    -0.237 OA
ATOM    123  O   UNL A   1      41.898  24.836  35.619  1.00  0.00    -0.237 OA
ATOM    124  O   UNL A   1      42.437  26.344  37.497  1.00  0.00    -0.744 OA
ENDBRANCH 120 121
ENDBRANCH  88 113
ENDBRANCH  62  63
ENDBRANCH  55  57
ENDBRANCH  54  55
ENDBRANCH  53  54
ENDBRANCH  52  53
ENDBRANCH  51  52
ENDBRANCH  50  51
ENDBRANCH  49  50
ENDBRANCH  48  49
ENDBRANCH   1  48
TORSDOF 29
ENDMDL
