MODEL 1
REMARK VINA RESULT:     -10.0      0.000      0.000
REMARK SMILES COc1ccc2c(c1)c(CC(=O)OCCOCCOCCOC(=O)c1ccc(-c3c4nc(c(-c5c(F)cc(S(=O)(=O)[O-])cc5F)c5ccc([nH]5)c(-c5c(F)cc(S(=O)(=O)[O-])cc5F)c5nc(c(-c6c(F)cc(S(=O)(=O)[O-])cc6F)c6ccc3[nH]6)C=C5)C=C4)cc1)c(C)n2Cc1ccn(C(F)F)c(=O)c1
REMARK SMILES IDX 17 1 16 2 15 3 14 4 13 5 11 6 12 7 10 8 9 9 3 10 4 11 8 12
REMARK SMILES IDX 5 13 7 14 6 15 93 16 91 17 92 18 2 19 1 20 94 21 95 22 96 23
REMARK SMILES IDX 104 24 97 25 102 26 98 27 103 28 99 29 100 30 101 31 18 32
REMARK SMILES IDX 19 33 20 34 21 35 22 36 23 37 24 38 25 39 26 40 90 41 27 42
REMARK SMILES IDX 89 43 28 44 29 45 30 46 83 47 31 48 88 49 82 50 84 51 32 52
REMARK SMILES IDX 87 53 81 54 80 55 33 57 67 58 46 59 66 60 47 61 50 62 65 63
REMARK SMILES IDX 85 64 48 65 49 66 64 68 86 69 51 70 34 71 35 72 44 73 36 74
REMARK SMILES IDX 37 75 43 76 45 77 38 78 39 79 40 80 41 81 42 82 68 83 69 84
REMARK SMILES IDX 78 85 70 86 71 87 77 88 79 89 72 90 73 91 74 92 75 93 76 94
REMARK SMILES IDX 52 95 53 96 62 97 54 98 55 99 61 100 63 101 56 102 57 103
REMARK SMILES IDX 58 104 59 105 60 106
REMARK H PARENT 84 56 50 67
REMARK Flexibility Score: inf
ROOT
ATOM      1  C   UNL A   1      40.264  19.713  26.207  1.00  0.00     0.188 C 
ENDROOT
BRANCH   1   2
ATOM      2  O   UNL A   1      39.212  19.753  25.278  1.00  0.00    -0.376 OA
BRANCH   2   3
ATOM      3  C   UNL A   1      38.251  20.777  25.374  1.00  0.00     0.202 C 
BRANCH   3   4
ATOM      4  C   UNL A   1      36.871  20.565  24.730  1.00  0.00     0.261 C 
BRANCH   4   5
ATOM      5  O   UNL A   1      35.826  21.525  25.104  1.00  0.00    -0.463 OA
BRANCH   5   6
ATOM      6  C   UNL A   1      35.516  22.359  24.087  1.00  0.00     0.310 C 
ATOM      7  O   UNL A   1      36.436  22.799  23.400  1.00  0.00    -0.252 OA
BRANCH   6   8
ATOM      8  C   UNL A   1      34.075  22.644  23.657  1.00  0.00     0.160 C 
BRANCH   8   9
ATOM      9  C   UNL A   1      33.162  23.823  23.966  1.00  0.00    -0.008 A 
ATOM     10  C   UNL A   1      30.328  23.673  26.691  1.00  0.00     0.119 A 
ATOM     11  C   UNL A   1      29.731  24.870  26.373  1.00  0.00     0.048 A 
ATOM     12  C   UNL A   1      31.535  23.332  26.061  1.00  0.00     0.057 A 
ATOM     13  C   UNL A   1      30.289  25.668  25.367  1.00  0.00     0.031 A 
ATOM     14  C   UNL A   1      32.071  24.010  24.938  1.00  0.00     0.007 A 
ATOM     15  C   UNL A   1      31.400  25.195  24.622  1.00  0.00     0.049 A 
ATOM     16  N   UNL A   1      32.083  25.740  23.558  1.00  0.00    -0.340 N 
ATOM     17  C   UNL A   1      32.920  24.800  23.003  1.00  0.00     0.020 A 
ATOM     18  C   UNL A   1      33.420  24.844  21.593  1.00  0.00     0.065 C 
BRANCH  10  19
ATOM     19  O   UNL A   1      29.875  22.945  27.760  1.00  0.00    -0.497 OA
ATOM     20  C   UNL A   1      28.619  22.287  27.531  1.00  0.00     0.278 C 
ENDBRANCH  10  19
BRANCH  16  21
ATOM     21  C   UNL A   1      31.965  27.126  23.125  1.00  0.00     0.158 C 
BRANCH  21  22
ATOM     22  C   UNL A   1      32.465  28.050  24.208  1.00  0.00    -0.021 A 
ATOM     23  C   UNL A   1      33.750  27.767  24.811  1.00  0.00     0.024 A 
ATOM     24  C   UNL A   1      31.741  29.086  24.671  1.00  0.00     0.077 A 
ATOM     25  C   UNL A   1      34.170  28.453  25.875  1.00  0.00     0.095 A 
ATOM     26  C   UNL A   1      32.245  29.916  25.799  1.00  0.00     0.255 A 
ATOM     27  N   UNL A   1      33.430  29.506  26.377  1.00  0.00    -0.258 N 
ATOM     28  O   UNL A   1      31.581  30.905  26.142  1.00  0.00    -0.269 OA
BRANCH  27  29
ATOM     29  C   UNL A   1      33.941  30.271  27.480  1.00  0.00     0.451 C 
ATOM     30  F   UNL A   1      34.888  29.569  28.150  1.00  0.00    -0.185 F 
ATOM     31  F   UNL A   1      34.501  31.435  27.067  1.00  0.00    -0.185 F 
ENDBRANCH  27  29
ENDBRANCH  21  22
ENDBRANCH  16  21
ENDBRANCH   8   9
ENDBRANCH   6   8
ENDBRANCH   5   6
ENDBRANCH   4   5
ENDBRANCH   3   4
ENDBRANCH   2   3
ENDBRANCH   1   2
BRANCH   1  32
ATOM     32  C   UNL A   1      41.670  19.259  25.786  1.00  0.00     0.188 C 
BRANCH  32  33
ATOM     33  O   UNL A   1      42.802  19.838  26.376  1.00  0.00    -0.376 OA
BRANCH  33  34
ATOM     34  C   UNL A   1      43.563  20.680  25.533  1.00  0.00     0.202 C 
BRANCH  34  35
ATOM     35  C   UNL A   1      43.058  22.125  25.229  1.00  0.00     0.261 C 
BRANCH  35  36
ATOM     36  O   UNL A   1      42.825  22.967  26.407  1.00  0.00    -0.460 OA
BRANCH  36  37
ATOM     37  C   UNL A   1      41.532  23.178  26.821  1.00  0.00     0.338 C 
ATOM     38  O   UNL A   1      40.779  22.280  27.170  1.00  0.00    -0.246 OA
BRANCH  37  39
ATOM     39  C   UNL A   1      41.274  24.635  27.195  1.00  0.00     0.060 A 
ATOM     40  C   UNL A   1      41.005  25.723  26.362  1.00  0.00     0.016 A 
ATOM     41  C   UNL A   1      41.462  24.934  28.545  1.00  0.00     0.016 A 
ATOM     42  C   UNL A   1      41.121  27.065  26.873  1.00  0.00     0.010 A 
ATOM     43  C   UNL A   1      41.525  26.233  29.057  1.00  0.00     0.010 A 
ATOM     44  C   UNL A   1      41.482  27.338  28.215  1.00  0.00    -0.014 A 
BRANCH  44  45
ATOM     45  C   UNL A   1      41.444  28.673  28.900  1.00  0.00     0.031 A 
ATOM     46  C   UNL A   1      42.635  29.424  28.502  1.00  0.00     0.074 A 
ATOM     47  C   UNL A   1      40.556  29.377  29.660  1.00  0.00     0.049 A 
ATOM     48  N   UNL A   1      43.769  29.270  29.095  1.00  0.00    -0.248 NA
ATOM     49  C   UNL A   1      42.691  30.167  27.242  1.00  0.00     0.031 C 
ATOM     50  C   UNL A   1      39.306  28.955  30.233  1.00  0.00     0.029 A 
ATOM     51  N   UNL A   1      40.594  30.684  30.122  1.00  0.00    -0.354 N 
ATOM     52  C   UNL A   1      44.600  30.168  28.476  1.00  0.00     0.074 A 
ATOM     53  C   UNL A   1      44.006  30.406  27.186  1.00  0.00     0.031 C 
ATOM     54  C   UNL A   1      38.546  29.972  30.690  1.00  0.00     0.029 A 
ATOM     55  C   UNL A   1      39.389  31.152  30.687  1.00  0.00     0.049 A 
ATOM     56  H   UNL A   1      41.403  31.242  30.060  1.00  0.00     0.167 HD
ATOM     57  C   UNL A   1      45.465  30.891  29.235  1.00  0.00     0.037 A 
ATOM     58  C   UNL A   1      39.129  32.174  31.555  1.00  0.00     0.037 A 
ATOM     59  C   UNL A   1      45.546  30.350  30.588  1.00  0.00     0.049 A 
ATOM     60  C   UNL A   1      40.391  32.450  32.272  1.00  0.00     0.074 A 
ATOM     61  C   UNL A   1      45.794  29.096  31.120  1.00  0.00     0.029 A 
ATOM     62  N   UNL A   1      44.942  31.058  31.604  1.00  0.00    -0.354 N 
ATOM     63  N   UNL A   1      40.904  31.641  33.159  1.00  0.00    -0.248 NA
ATOM     64  C   UNL A   1      41.322  33.357  31.627  1.00  0.00     0.031 C 
ATOM     65  C   UNL A   1      44.920  28.974  32.242  1.00  0.00     0.029 A 
ATOM     66  C   UNL A   1      44.242  30.183  32.399  1.00  0.00     0.049 A 
ATOM     67  H   UNL A   1      45.001  32.031  31.738  1.00  0.00     0.167 HD
ATOM     68  C   UNL A   1      42.256  31.607  32.848  1.00  0.00     0.074 A 
ATOM     69  C   UNL A   1      42.460  32.737  31.940  1.00  0.00     0.031 C 
ATOM     70  C   UNL A   1      43.029  30.518  33.126  1.00  0.00     0.037 A 
BRANCH  57  71
ATOM     71  C   UNL A   1      45.904  32.288  28.886  1.00  0.00     0.058 A 
ATOM     72  C   UNL A   1      44.913  33.274  28.730  1.00  0.00     0.135 A 
ATOM     73  C   UNL A   1      47.206  32.663  28.478  1.00  0.00     0.135 A 
ATOM     74  F   UNL A   1      43.641  33.030  29.085  1.00  0.00    -0.206 F 
ATOM     75  C   UNL A   1      45.176  34.506  28.138  1.00  0.00     0.059 A 
ATOM     76  C   UNL A   1      47.501  33.906  27.942  1.00  0.00     0.059 A 
ATOM     77  F   UNL A   1      48.249  31.829  28.481  1.00  0.00    -0.206 F 
ATOM     78  C   UNL A   1      46.474  34.804  27.735  1.00  0.00     0.060 A 
BRANCH  78  79
ATOM     79  S   UNL A   1      46.799  36.351  26.885  1.00  0.00     0.124 S 
ATOM     80  O   UNL A   1      48.190  36.592  27.253  1.00  0.00    -0.237 OA
ATOM     81  O   UNL A   1      46.555  35.983  25.496  1.00  0.00    -0.237 OA
ATOM     82  O   UNL A   1      45.822  37.266  27.469  1.00  0.00    -0.744 OA
ENDBRANCH  78  79
ENDBRANCH  57  71
BRANCH  58  83
ATOM     83  C   UNL A   1      37.966  33.118  31.514  1.00  0.00     0.058 A 
ATOM     84  C   UNL A   1      37.504  33.678  30.303  1.00  0.00     0.135 A 
ATOM     85  C   UNL A   1      37.131  33.317  32.631  1.00  0.00     0.135 A 
ATOM     86  F   UNL A   1      38.245  33.584  29.188  1.00  0.00    -0.206 F 
ATOM     87  C   UNL A   1      36.245  34.287  30.184  1.00  0.00     0.059 A 
ATOM     88  C   UNL A   1      35.875  33.921  32.537  1.00  0.00     0.059 A 
ATOM     89  F   UNL A   1      37.482  32.862  33.843  1.00  0.00    -0.206 F 
ATOM     90  C   UNL A   1      35.419  34.366  31.302  1.00  0.00     0.060 A 
BRANCH  90  91
ATOM     91  S   UNL A   1      33.705  34.925  31.116  1.00  0.00     0.124 S 
ATOM     92  O   UNL A   1      33.868  36.365  30.951  1.00  0.00    -0.237 OA
ATOM     93  O   UNL A   1      33.269  34.193  29.932  1.00  0.00    -0.237 OA
ATOM     94  O   UNL A   1      33.078  34.509  32.368  1.00  0.00    -0.744 OA
ENDBRANCH  90  91
ENDBRANCH  58  83
BRANCH  70  95
ATOM     95  C   UNL A   1      42.516  29.470  34.094  1.00  0.00     0.058 A 
ATOM     96  C   UNL A   1      41.875  28.274  33.724  1.00  0.00     0.135 A 
ATOM     97  C   UNL A   1      42.878  29.596  35.447  1.00  0.00     0.135 A 
ATOM     98  F   UNL A   1      41.541  28.042  32.449  1.00  0.00    -0.206 F 
ATOM     99  C   UNL A   1      41.621  27.251  34.646  1.00  0.00     0.059 A 
ATOM    100  C   UNL A   1      42.654  28.582  36.378  1.00  0.00     0.059 A 
ATOM    101  F   UNL A   1      43.521  30.698  35.868  1.00  0.00    -0.206 F 
ATOM    102  C   UNL A   1      42.029  27.407  35.969  1.00  0.00     0.060 A 
BRANCH 102 103
ATOM    103  S   UNL A   1      41.806  26.042  37.134  1.00  0.00     0.124 S 
ATOM    104  O   UNL A   1      40.423  26.223  37.562  1.00  0.00    -0.237 OA
ATOM    105  O   UNL A   1      42.063  24.870  36.302  1.00  0.00    -0.237 OA
ATOM    106  O   UNL A   1      42.813  26.298  38.160  1.00  0.00    -0.744 OA
ENDBRANCH 102 103
ENDBRANCH  70  95
ENDBRANCH  44  45
ENDBRANCH  37  39
ENDBRANCH  36  37
ENDBRANCH  35  36
ENDBRANCH  34  35
ENDBRANCH  33  34
ENDBRANCH  32  33
ENDBRANCH   1  32
TORSDOF 25
ENDMDL
MODEL 2
REMARK VINA RESULT:      -9.7      1.499      2.068
REMARK SMILES COc1ccc2c(c1)c(CC(=O)OCCOCCOCCOC(=O)c1ccc(-c3c4nc(c(-c5c(F)cc(S(=O)(=O)[O-])cc5F)c5ccc([nH]5)c(-c5c(F)cc(S(=O)(=O)[O-])cc5F)c5nc(c(-c6c(F)cc(S(=O)(=O)[O-])cc6F)c6ccc3[nH]6)C=C5)C=C4)cc1)c(C)n2Cc1ccn(C(F)F)c(=O)c1
REMARK SMILES IDX 17 1 16 2 15 3 14 4 13 5 11 6 12 7 10 8 9 9 3 10 4 11 8 12
REMARK SMILES IDX 5 13 7 14 6 15 93 16 91 17 92 18 2 19 1 20 94 21 95 22 96 23
REMARK SMILES IDX 104 24 97 25 102 26 98 27 103 28 99 29 100 30 101 31 18 32
REMARK SMILES IDX 19 33 20 34 21 35 22 36 23 37 24 38 25 39 26 40 90 41 27 42
REMARK SMILES IDX 89 43 28 44 29 45 30 46 83 47 31 48 88 49 82 50 84 51 32 52
REMARK SMILES IDX 87 53 81 54 80 55 33 57 67 58 46 59 66 60 47 61 50 62 65 63
REMARK SMILES IDX 85 64 48 65 49 66 64 68 86 69 51 70 34 71 35 72 44 73 36 74
REMARK SMILES IDX 37 75 43 76 45 77 38 78 39 79 40 80 41 81 42 82 68 83 69 84
REMARK SMILES IDX 78 85 70 86 71 87 77 88 79 89 72 90 73 91 74 92 75 93 76 94
REMARK SMILES IDX 52 95 53 96 62 97 54 98 55 99 61 100 63 101 56 102 57 103
REMARK SMILES IDX 58 104 59 105 60 106
REMARK H PARENT 84 56 50 67
REMARK Flexibility Score: inf
ROOT
ATOM      1  C   UNL A   1      40.284  20.974  26.508  1.00  0.00     0.188 C 
ENDROOT
BRANCH   1   2
ATOM      2  O   UNL A   1      39.159  20.757  25.696  1.00  0.00    -0.376 OA
BRANCH   2   3
ATOM      3  C   UNL A   1      38.214  21.789  25.542  1.00  0.00     0.202 C 
BRANCH   3   4
ATOM      4  C   UNL A   1      37.008  21.562  24.617  1.00  0.00     0.261 C 
BRANCH   4   5
ATOM      5  O   UNL A   1      36.053  22.672  24.512  1.00  0.00    -0.463 OA
BRANCH   5   6
ATOM      6  C   UNL A   1      35.874  23.066  23.232  1.00  0.00     0.310 C 
ATOM      7  O   UNL A   1      36.820  22.951  22.455  1.00  0.00    -0.252 OA
BRANCH   6   8
ATOM      8  C   UNL A   1      34.513  23.492  22.678  1.00  0.00     0.160 C 
BRANCH   8   9
ATOM      9  C   UNL A   1      33.436  24.390  23.271  1.00  0.00    -0.008 A 
ATOM     10  C   UNL A   1      31.511  23.512  26.588  1.00  0.00     0.119 A 
ATOM     11  C   UNL A   1      30.567  24.508  26.498  1.00  0.00     0.048 A 
ATOM     12  C   UNL A   1      32.567  23.498  25.663  1.00  0.00     0.057 A 
ATOM     13  C   UNL A   1      30.632  25.420  25.437  1.00  0.00     0.031 A 
ATOM     14  C   UNL A   1      32.613  24.288  24.488  1.00  0.00     0.007 A 
ATOM     15  C   UNL A   1      31.603  25.253  24.418  1.00  0.00     0.049 A 
ATOM     16  N   UNL A   1      31.835  25.953  23.255  1.00  0.00    -0.340 N 
ATOM     17  C   UNL A   1      32.718  25.264  22.457  1.00  0.00     0.020 A 
ATOM     18  C   UNL A   1      32.821  25.431  20.973  1.00  0.00     0.065 C 
BRANCH  10  19
ATOM     19  O   UNL A   1      31.542  22.695  27.688  1.00  0.00    -0.497 OA
ATOM     20  C   UNL A   1      32.855  22.227  28.033  1.00  0.00     0.278 C 
ENDBRANCH  10  19
BRANCH  16  21
ATOM     21  C   UNL A   1      31.262  27.257  22.950  1.00  0.00     0.158 C 
BRANCH  21  22
ATOM     22  C   UNL A   1      31.658  28.257  24.008  1.00  0.00    -0.021 A 
ATOM     23  C   UNL A   1      30.698  29.271  24.385  1.00  0.00     0.024 A 
ATOM     24  C   UNL A   1      32.881  28.276  24.569  1.00  0.00     0.077 A 
ATOM     25  C   UNL A   1      31.046  30.272  25.196  1.00  0.00     0.095 A 
ATOM     26  C   UNL A   1      33.249  29.336  25.547  1.00  0.00     0.255 A 
ATOM     27  N   UNL A   1      32.304  30.319  25.765  1.00  0.00    -0.258 N 
ATOM     28  O   UNL A   1      34.358  29.270  26.094  1.00  0.00    -0.269 OA
BRANCH  27  29
ATOM     29  C   UNL A   1      32.628  31.370  26.689  1.00  0.00     0.451 C 
ATOM     30  F   UNL A   1      31.562  32.190  26.871  1.00  0.00    -0.185 F 
ATOM     31  F   UNL A   1      32.986  30.879  27.901  1.00  0.00    -0.185 F 
ENDBRANCH  27  29
ENDBRANCH  21  22
ENDBRANCH  16  21
ENDBRANCH   8   9
ENDBRANCH   6   8
ENDBRANCH   5   6
ENDBRANCH   4   5
ENDBRANCH   3   4
ENDBRANCH   2   3
ENDBRANCH   1   2
BRANCH   1  32
ATOM     32  C   UNL A   1      41.174  19.803  26.951  1.00  0.00     0.188 C 
BRANCH  32  33
ATOM     33  O   UNL A   1      42.567  19.954  26.992  1.00  0.00    -0.376 OA
BRANCH  33  34
ATOM     34  C   UNL A   1      43.246  19.647  25.791  1.00  0.00     0.202 C 
BRANCH  34  35
ATOM     35  C   UNL A   1      44.252  20.679  25.190  1.00  0.00     0.261 C 
BRANCH  35  36
ATOM     36  O   UNL A   1      44.343  21.954  25.908  1.00  0.00    -0.460 OA
BRANCH  36  37
ATOM     37  C   UNL A   1      44.049  23.113  25.232  1.00  0.00     0.338 C 
ATOM     38  O   UNL A   1      43.996  23.190  24.012  1.00  0.00    -0.246 OA
BRANCH  37  39
ATOM     39  C   UNL A   1      43.401  24.162  26.132  1.00  0.00     0.060 A 
ATOM     40  C   UNL A   1      42.049  24.468  26.296  1.00  0.00     0.016 A 
ATOM     41  C   UNL A   1      44.300  25.012  26.777  1.00  0.00     0.016 A 
ATOM     42  C   UNL A   1      41.662  25.700  26.931  1.00  0.00     0.010 A 
ATOM     43  C   UNL A   1      43.927  26.185  27.440  1.00  0.00     0.010 A 
ATOM     44  C   UNL A   1      42.610  26.629  27.428  1.00  0.00    -0.014 A 
BRANCH  44  45
ATOM     45  C   UNL A   1      42.325  27.837  28.271  1.00  0.00     0.031 A 
ATOM     46  C   UNL A   1      43.289  28.879  27.917  1.00  0.00     0.074 A 
ATOM     47  C   UNL A   1      41.358  28.232  29.149  1.00  0.00     0.049 A 
ATOM     48  N   UNL A   1      44.467  28.924  28.437  1.00  0.00    -0.248 NA
ATOM     49  C   UNL A   1      43.091  29.748  26.755  1.00  0.00     0.031 C 
ATOM     50  C   UNL A   1      40.276  27.475  29.721  1.00  0.00     0.029 A 
ATOM     51  N   UNL A   1      41.138  29.454  29.766  1.00  0.00    -0.354 N 
ATOM     52  C   UNL A   1      45.034  30.051  27.896  1.00  0.00     0.074 A 
ATOM     53  C   UNL A   1      44.313  30.286  26.672  1.00  0.00     0.031 C 
ATOM     54  C   UNL A   1      39.344  28.236  30.331  1.00  0.00     0.029 A 
ATOM     55  C   UNL A   1      39.901  29.571  30.435  1.00  0.00     0.049 A 
ATOM     56  H   UNL A   1      41.796  30.186  29.737  1.00  0.00     0.167 HD
ATOM     57  C   UNL A   1      45.767  30.865  28.700  1.00  0.00     0.037 A 
ATOM     58  C   UNL A   1      39.482  30.405  31.432  1.00  0.00     0.037 A 
ATOM     59  C   UNL A   1      46.061  30.213  29.972  1.00  0.00     0.049 A 
ATOM     60  C   UNL A   1      40.699  30.882  32.122  1.00  0.00     0.074 A 
ATOM     61  C   UNL A   1      46.617  28.998  30.335  1.00  0.00     0.029 A 
ATOM     62  N   UNL A   1      45.387  30.649  31.092  1.00  0.00    -0.354 N 
ATOM     63  N   UNL A   1      41.440  30.120  32.880  1.00  0.00    -0.248 NA
ATOM     64  C   UNL A   1      41.358  32.043  31.553  1.00  0.00     0.031 C 
ATOM     65  C   UNL A   1      45.873  28.557  31.471  1.00  0.00     0.029 A 
ATOM     66  C   UNL A   1      44.957  29.555  31.804  1.00  0.00     0.049 A 
ATOM     67  H   UNL A   1      45.238  31.589  31.341  1.00  0.00     0.167 HD
ATOM     68  C   UNL A   1      42.740  30.430  32.509  1.00  0.00     0.074 A 
ATOM     69  C   UNL A   1      42.625  31.669  31.738  1.00  0.00     0.031 C 
ATOM     70  C   UNL A   1      43.753  29.522  32.619  1.00  0.00     0.037 A 
BRANCH  57  71
ATOM     71  C   UNL A   1      45.860  32.355  28.505  1.00  0.00     0.058 A 
ATOM     72  C   UNL A   1      44.676  33.110  28.596  1.00  0.00     0.135 A 
ATOM     73  C   UNL A   1      46.990  33.052  28.017  1.00  0.00     0.135 A 
ATOM     74  F   UNL A   1      43.541  32.552  29.046  1.00  0.00    -0.206 F 
ATOM     75  C   UNL A   1      44.599  34.428  28.157  1.00  0.00     0.059 A 
ATOM     76  C   UNL A   1      46.950  34.382  27.632  1.00  0.00     0.059 A 
ATOM     77  F   UNL A   1      48.173  32.473  27.793  1.00  0.00    -0.206 F 
ATOM     78  C   UNL A   1      45.743  35.049  27.665  1.00  0.00     0.060 A 
BRANCH  78  79
ATOM     79  S   UNL A   1      45.627  36.717  27.010  1.00  0.00     0.124 S 
ATOM     80  O   UNL A   1      44.220  36.779  26.633  1.00  0.00    -0.237 OA
ATOM     81  O   UNL A   1      46.022  37.516  28.164  1.00  0.00    -0.237 OA
ATOM     82  O   UNL A   1      46.579  36.708  25.903  1.00  0.00    -0.744 OA
ENDBRANCH  78  79
ENDBRANCH  57  71
BRANCH  58  83
ATOM     83  C   UNL A   1      38.139  31.057  31.558  1.00  0.00     0.058 A 
ATOM     84  C   UNL A   1      37.375  30.963  32.741  1.00  0.00     0.135 A 
ATOM     85  C   UNL A   1      37.671  31.984  30.607  1.00  0.00     0.135 A 
ATOM     86  F   UNL A   1      37.710  30.078  33.695  1.00  0.00    -0.206 F 
ATOM     87  C   UNL A   1      36.292  31.814  33.011  1.00  0.00     0.059 A 
ATOM     88  C   UNL A   1      36.595  32.841  30.852  1.00  0.00     0.059 A 
ATOM     89  F   UNL A   1      38.294  32.136  29.429  1.00  0.00    -0.206 F 
ATOM     90  C   UNL A   1      35.936  32.780  32.074  1.00  0.00     0.060 A 
BRANCH  90  91
ATOM     91  S   UNL A   1      34.705  34.039  32.504  1.00  0.00     0.124 S 
ATOM     92  O   UNL A   1      35.533  35.224  32.700  1.00  0.00    -0.237 OA
ATOM     93  O   UNL A   1      33.848  34.047  31.325  1.00  0.00    -0.237 OA
ATOM     94  O   UNL A   1      34.088  33.505  33.716  1.00  0.00    -0.744 OA
ENDBRANCH  90  91
ENDBRANCH  58  83
BRANCH  70  95
ATOM     95  C   UNL A   1      43.554  28.286  33.473  1.00  0.00     0.058 A 
ATOM     96  C   UNL A   1      43.314  26.993  32.976  1.00  0.00     0.135 A 
ATOM     97  C   UNL A   1      43.825  28.391  34.848  1.00  0.00     0.135 A 
ATOM     98  F   UNL A   1      43.100  26.788  31.671  1.00  0.00    -0.206 F 
ATOM     99  C   UNL A   1      43.355  25.861  33.800  1.00  0.00     0.059 A 
ATOM    100  C   UNL A   1      43.893  27.276  35.684  1.00  0.00     0.059 A 
ATOM    101  F   UNL A   1      44.094  29.591  35.388  1.00  0.00    -0.206 F 
ATOM    102  C   UNL A   1      43.663  26.011  35.151  1.00  0.00     0.060 A 
BRANCH 102 103
ATOM    103  S   UNL A   1      43.830  24.541  36.191  1.00  0.00     0.124 S 
ATOM    104  O   UNL A   1      44.193  25.114  37.483  1.00  0.00    -0.237 OA
ATOM    105  O   UNL A   1      42.500  23.944  36.114  1.00  0.00    -0.237 OA
ATOM    106  O   UNL A   1      44.885  23.773  35.534  1.00  0.00    -0.744 OA
ENDBRANCH 102 103
ENDBRANCH  70  95
ENDBRANCH  44  45
ENDBRANCH  37  39
ENDBRANCH  36  37
ENDBRANCH  35  36
ENDBRANCH  34  35
ENDBRANCH  33  34
ENDBRANCH  32  33
ENDBRANCH   1  32
TORSDOF 25
ENDMDL
MODEL 3
REMARK VINA RESULT:      -9.2      5.246     11.011
REMARK SMILES COc1ccc2c(c1)c(CC(=O)OCCOCCOCCOC(=O)c1ccc(-c3c4nc(c(-c5c(F)cc(S(=O)(=O)[O-])cc5F)c5ccc([nH]5)c(-c5c(F)cc(S(=O)(=O)[O-])cc5F)c5nc(c(-c6c(F)cc(S(=O)(=O)[O-])cc6F)c6ccc3[nH]6)C=C5)C=C4)cc1)c(C)n2Cc1ccn(C(F)F)c(=O)c1
REMARK SMILES IDX 17 1 16 2 15 3 14 4 13 5 11 6 12 7 10 8 9 9 3 10 4 11 8 12
REMARK SMILES IDX 5 13 7 14 6 15 93 16 91 17 92 18 2 19 1 20 94 21 95 22 96 23
REMARK SMILES IDX 104 24 97 25 102 26 98 27 103 28 99 29 100 30 101 31 18 32
REMARK SMILES IDX 19 33 20 34 21 35 22 36 23 37 24 38 25 39 26 40 90 41 27 42
REMARK SMILES IDX 89 43 28 44 29 45 30 46 83 47 31 48 88 49 82 50 84 51 32 52
REMARK SMILES IDX 87 53 81 54 80 55 33 57 67 58 46 59 66 60 47 61 50 62 65 63
REMARK SMILES IDX 85 64 48 65 49 66 64 68 86 69 51 70 34 71 35 72 44 73 36 74
REMARK SMILES IDX 37 75 43 76 45 77 38 78 39 79 40 80 41 81 42 82 68 83 69 84
REMARK SMILES IDX 78 85 70 86 71 87 77 88 79 89 72 90 73 91 74 92 75 93 76 94
REMARK SMILES IDX 52 95 53 96 62 97 54 98 55 99 61 100 63 101 56 102 57 103
REMARK SMILES IDX 58 104 59 105 60 106
REMARK H PARENT 84 56 50 67
REMARK Flexibility Score: inf
ROOT
ATOM      1  C   UNL A   1      37.048  32.594  31.043  1.00  0.00     0.188 C 
ENDROOT
BRANCH   1   2
ATOM      2  O   UNL A   1      36.857  32.961  29.701  1.00  0.00    -0.376 OA
BRANCH   2   3
ATOM      3  C   UNL A   1      36.716  31.953  28.728  1.00  0.00     0.202 C 
BRANCH   3   4
ATOM      4  C   UNL A   1      35.341  31.293  28.536  1.00  0.00     0.261 C 
BRANCH   4   5
ATOM      5  O   UNL A   1      34.925  31.054  27.149  1.00  0.00    -0.463 OA
BRANCH   5   6
ATOM      6  C   UNL A   1      34.649  29.751  26.920  1.00  0.00     0.310 C 
ATOM      7  O   UNL A   1      35.198  28.912  27.631  1.00  0.00    -0.252 OA
BRANCH   6   8
ATOM      8  C   UNL A   1      33.573  29.291  25.935  1.00  0.00     0.160 C 
BRANCH   8   9
ATOM      9  C   UNL A   1      33.015  27.903  25.650  1.00  0.00    -0.008 A 
ATOM     10  C   UNL A   1      32.842  26.370  22.031  1.00  0.00     0.119 A 
ATOM     11  C   UNL A   1      32.083  25.271  22.355  1.00  0.00     0.048 A 
ATOM     12  C   UNL A   1      33.316  27.192  23.066  1.00  0.00     0.057 A 
ATOM     13  C   UNL A   1      31.725  25.054  23.691  1.00  0.00     0.031 A 
ATOM     14  C   UNL A   1      32.874  27.121  24.410  1.00  0.00     0.007 A 
ATOM     15  C   UNL A   1      32.063  26.014  24.679  1.00  0.00     0.049 A 
ATOM     16  N   UNL A   1      31.779  26.076  26.025  1.00  0.00    -0.340 N 
ATOM     17  C   UNL A   1      32.091  27.322  26.517  1.00  0.00     0.020 A 
ATOM     18  C   UNL A   1      31.485  27.919  27.748  1.00  0.00     0.065 C 
BRANCH  10  19
ATOM     19  O   UNL A   1      33.312  26.526  20.753  1.00  0.00    -0.497 OA
ATOM     20  C   UNL A   1      32.753  25.600  19.807  1.00  0.00     0.278 C 
ENDBRANCH  10  19
BRANCH  16  21
ATOM     21  C   UNL A   1      31.270  24.961  26.812  1.00  0.00     0.158 C 
BRANCH  21  22
ATOM     22  C   UNL A   1      32.064  23.712  26.513  1.00  0.00    -0.021 A 
ATOM     23  C   UNL A   1      33.493  23.739  26.739  1.00  0.00     0.024 A 
ATOM     24  C   UNL A   1      31.506  22.603  25.995  1.00  0.00     0.077 A 
ATOM     25  C   UNL A   1      34.264  22.724  26.347  1.00  0.00     0.095 A 
ATOM     26  C   UNL A   1      32.347  21.428  25.639  1.00  0.00     0.255 A 
ATOM     27  N   UNL A   1      33.710  21.585  25.793  1.00  0.00    -0.258 N 
ATOM     28  O   UNL A   1      31.782  20.402  25.236  1.00  0.00    -0.269 OA
BRANCH  27  29
ATOM     29  C   UNL A   1      34.559  20.480  25.445  1.00  0.00     0.451 C 
ATOM     30  F   UNL A   1      34.435  20.180  24.127  1.00  0.00    -0.185 F 
ATOM     31  F   UNL A   1      35.864  20.752  25.689  1.00  0.00    -0.185 F 
ENDBRANCH  27  29
ENDBRANCH  21  22
ENDBRANCH  16  21
ENDBRANCH   8   9
ENDBRANCH   6   8
ENDBRANCH   5   6
ENDBRANCH   4   5
ENDBRANCH   3   4
ENDBRANCH   2   3
ENDBRANCH   1   2
BRANCH   1  32
ATOM     32  C   UNL A   1      38.280  33.074  31.825  1.00  0.00     0.188 C 
BRANCH  32  33
ATOM     33  O   UNL A   1      38.146  33.516  33.148  1.00  0.00    -0.376 OA
BRANCH  33  34
ATOM     34  C   UNL A   1      38.908  34.657  33.487  1.00  0.00     0.202 C 
BRANCH  34  35
ATOM     35  C   UNL A   1      39.294  34.911  34.978  1.00  0.00     0.261 C 
BRANCH  35  36
ATOM     36  O   UNL A   1      39.900  36.217  35.253  1.00  0.00    -0.460 OA
BRANCH  36  37
ATOM     37  C   UNL A   1      41.138  36.257  35.847  1.00  0.00     0.338 C 
ATOM     38  O   UNL A   1      41.382  35.758  36.936  1.00  0.00    -0.246 OA
BRANCH  37  39
ATOM     39  C   UNL A   1      42.246  36.604  34.855  1.00  0.00     0.060 A 
ATOM     40  C   UNL A   1      43.100  37.708  34.840  1.00  0.00     0.016 A 
ATOM     41  C   UNL A   1      42.320  35.763  33.745  1.00  0.00     0.016 A 
ATOM     42  C   UNL A   1      43.845  38.025  33.650  1.00  0.00     0.010 A 
ATOM     43  C   UNL A   1      43.081  36.038  32.605  1.00  0.00     0.010 A 
ATOM     44  C   UNL A   1      43.766  37.239  32.473  1.00  0.00    -0.014 A 
BRANCH  44  45
ATOM     45  C   UNL A   1      44.634  37.361  31.254  1.00  0.00     0.031 A 
ATOM     46  C   UNL A   1      44.058  38.386  30.384  1.00  0.00     0.074 A 
ATOM     47  C   UNL A   1      45.837  36.871  30.837  1.00  0.00     0.049 A 
ATOM     48  N   UNL A   1      43.109  38.122  29.553  1.00  0.00    -0.248 NA
ATOM     49  C   UNL A   1      44.311  39.811  30.602  1.00  0.00     0.031 C 
ATOM     50  C   UNL A   1      46.667  35.856  31.428  1.00  0.00     0.029 A 
ATOM     51  N   UNL A   1      46.603  37.178  29.723  1.00  0.00    -0.354 N 
ATOM     52  C   UNL A   1      42.887  39.309  28.903  1.00  0.00     0.074 A 
ATOM     53  C   UNL A   1      43.375  40.327  29.798  1.00  0.00     0.031 C 
ATOM     54  C   UNL A   1      47.915  35.809  30.917  1.00  0.00     0.029 A 
ATOM     55  C   UNL A   1      47.909  36.643  29.730  1.00  0.00     0.049 A 
ATOM     56  H   UNL A   1      46.262  37.730  28.982  1.00  0.00     0.167 HD
ATOM     57  C   UNL A   1      42.677  39.291  27.560  1.00  0.00     0.037 A 
ATOM     58  C   UNL A   1      48.796  36.394  28.722  1.00  0.00     0.037 A 
ATOM     59  C   UNL A   1      42.438  37.931  27.090  1.00  0.00     0.049 A 
ATOM     60  C   UNL A   1      48.001  36.285  27.480  1.00  0.00     0.074 A 
ATOM     61  C   UNL A   1      41.570  36.915  27.454  1.00  0.00     0.029 A 
ATOM     62  N   UNL A   1      43.439  37.309  26.376  1.00  0.00    -0.354 N 
ATOM     63  N   UNL A   1      47.210  35.279  27.221  1.00  0.00    -0.248 NA
ATOM     64  C   UNL A   1      47.701  37.524  26.788  1.00  0.00     0.031 C 
ATOM     65  C   UNL A   1      42.323  35.707  27.347  1.00  0.00     0.029 A 
ATOM     66  C   UNL A   1      43.584  36.025  26.842  1.00  0.00     0.049 A 
ATOM     67  H   UNL A   1      43.964  37.718  25.650  1.00  0.00     0.167 HD
ATOM     68  C   UNL A   1      46.062  35.871  26.715  1.00  0.00     0.074 A 
ATOM     69  C   UNL A   1      46.453  37.248  26.410  1.00  0.00     0.031 C 
ATOM     70  C   UNL A   1      44.836  35.285  26.846  1.00  0.00     0.037 A 
BRANCH  57  71
ATOM     71  C   UNL A   1      43.088  40.413  26.644  1.00  0.00     0.058 A 
ATOM     72  C   UNL A   1      42.114  40.962  25.791  1.00  0.00     0.135 A 
ATOM     73  C   UNL A   1      44.419  40.824  26.393  1.00  0.00     0.135 A 
ATOM     74  F   UNL A   1      40.818  40.643  25.937  1.00  0.00    -0.206 F 
ATOM     75  C   UNL A   1      42.443  41.788  24.721  1.00  0.00     0.059 A 
ATOM     76  C   UNL A   1      44.761  41.694  25.371  1.00  0.00     0.059 A 
ATOM     77  F   UNL A   1      45.476  40.343  27.052  1.00  0.00    -0.206 F 
ATOM     78  C   UNL A   1      43.774  42.136  24.514  1.00  0.00     0.060 A 
BRANCH  78  79
ATOM     79  S   UNL A   1      44.214  43.123  23.080  1.00  0.00     0.124 S 
ATOM     80  O   UNL A   1      43.434  44.333  23.316  1.00  0.00    -0.237 OA
ATOM     81  O   UNL A   1      45.658  43.246  23.238  1.00  0.00    -0.237 OA
ATOM     82  O   UNL A   1      43.777  42.297  21.959  1.00  0.00    -0.744 OA
ENDBRANCH  78  79
ENDBRANCH  57  71
BRANCH  58  83
ATOM     83  C   UNL A   1      50.278  36.608  28.751  1.00  0.00     0.058 A 
ATOM     84  C   UNL A   1      50.858  37.702  29.429  1.00  0.00     0.135 A 
ATOM     85  C   UNL A   1      51.180  35.620  28.311  1.00  0.00     0.135 A 
ATOM     86  F   UNL A   1      50.092  38.721  29.851  1.00  0.00    -0.206 F 
ATOM     87  C   UNL A   1      52.223  37.753  29.752  1.00  0.00     0.059 A 
ATOM     88  C   UNL A   1      52.542  35.649  28.620  1.00  0.00     0.059 A 
ATOM     89  F   UNL A   1      50.750  34.551  27.625  1.00  0.00    -0.206 F 
ATOM     90  C   UNL A   1      53.051  36.697  29.378  1.00  0.00     0.060 A 
BRANCH  90  91
ATOM     91  S   UNL A   1      54.754  36.628  29.994  1.00  0.00     0.124 S 
ATOM     92  O   UNL A   1      54.894  35.222  30.355  1.00  0.00    -0.237 OA
ATOM     93  O   UNL A   1      55.519  37.069  28.833  1.00  0.00    -0.237 OA
ATOM     94  O   UNL A   1      54.742  37.561  31.119  1.00  0.00    -0.744 OA
ENDBRANCH  90  91
ENDBRANCH  58  83
BRANCH  70  95
ATOM     95  C   UNL A   1      44.749  33.820  27.227  1.00  0.00     0.058 A 
ATOM     96  C   UNL A   1      44.686  33.332  28.544  1.00  0.00     0.135 A 
ATOM     97  C   UNL A   1      44.512  32.891  26.199  1.00  0.00     0.135 A 
ATOM     98  F   UNL A   1      44.845  34.153  29.588  1.00  0.00    -0.206 F 
ATOM     99  C   UNL A   1      44.389  31.992  28.825  1.00  0.00     0.059 A 
ATOM    100  C   UNL A   1      44.192  31.558  26.456  1.00  0.00     0.059 A 
ATOM    101  F   UNL A   1      44.525  33.293  24.917  1.00  0.00    -0.206 F 
ATOM    102  C   UNL A   1      44.127  31.115  27.774  1.00  0.00     0.060 A 
BRANCH 102 103
ATOM    103  S   UNL A   1      43.630  29.415  28.140  1.00  0.00     0.124 S 
ATOM    104  O   UNL A   1      42.794  29.082  26.991  1.00  0.00    -0.237 OA
ATOM    105  O   UNL A   1      44.911  28.719  28.215  1.00  0.00    -0.237 OA
ATOM    106  O   UNL A   1      42.920  29.531  29.412  1.00  0.00    -0.744 OA
ENDBRANCH 102 103
ENDBRANCH  70  95
ENDBRANCH  44  45
ENDBRANCH  37  39
ENDBRANCH  36  37
ENDBRANCH  35  36
ENDBRANCH  34  35
ENDBRANCH  33  34
ENDBRANCH  32  33
ENDBRANCH   1  32
TORSDOF 25
ENDMDL
