MODEL 1
REMARK VINA RESULT:     -10.5      0.000      0.000
REMARK SMILES O=C(OCCOCCOCCOC(=O)c1ccccc1/C=C1/SC(=S)N(C2CCCCC2)C1=O)c1ccc(-c2c3nc(c(-c4c(F)cc(S(=O)(=O)[O-])cc4F)c4ccc([nH]4)c(-c4c(F)cc(S(=O)(=O)[O-])cc4F)c4nc(c(-c5c(F)cc(S(=O)(=O)[O-])cc5F)c5ccc2[nH]5)C=C4)C=C3)cc1
REMARK SMILES IDX 7 1 6 2 5 3 4 4 3 5 2 6 1 7 35 8 36 9 100 10 37 11 99 12
REMARK SMILES IDX 38 13 39 14 40 15 93 16 41 17 98 18 92 19 94 20 42 21 97 22
REMARK SMILES IDX 91 23 90 24 43 26 77 27 56 28 76 29 57 30 60 31 75 32 95 33
REMARK SMILES IDX 58 34 59 35 74 37 96 38 61 39 44 40 45 41 54 42 46 43 47 44
REMARK SMILES IDX 53 45 55 46 48 47 49 48 50 49 51 50 52 51 78 52 79 53 88 54
REMARK SMILES IDX 80 55 81 56 87 57 89 58 82 59 83 60 84 61 85 62 86 63 62 64
REMARK SMILES IDX 63 65 72 66 64 67 65 68 71 69 73 70 66 71 67 72 68 73 69 74
REMARK SMILES IDX 70 75 8 76 9 77 10 78 11 79 12 80 13 81 14 82 15 83 16 84
REMARK SMILES IDX 20 85 17 86 19 87 18 88 21 89 22 90 23 91 33 92 24 93 26 94
REMARK SMILES IDX 34 95 25 96 27 97 28 98 32 99 29 100 31 101 30 102
REMARK H PARENT 94 25 60 36
REMARK Flexibility Score: inf
ROOT
ATOM      1  C   UNL A   1      34.492  31.260  27.470  1.00  0.00     0.188 C 
ENDROOT
BRANCH   1   2
ATOM      2  O   UNL A   1      33.931  32.101  28.482  1.00  0.00    -0.376 OA
BRANCH   2   3
ATOM      3  C   UNL A   1      34.867  32.998  29.080  1.00  0.00     0.202 C 
BRANCH   3   4
ATOM      4  C   UNL A   1      35.213  32.648  30.530  1.00  0.00     0.261 C 
BRANCH   4   5
ATOM      5  O   UNL A   1      35.558  31.258  30.680  1.00  0.00    -0.460 OA
BRANCH   5   6
ATOM      6  C   UNL A   1      36.577  30.743  31.417  1.00  0.00     0.338 C 
ATOM      7  O   UNL A   1      36.452  30.651  32.636  1.00  0.00    -0.246 OA
BRANCH   6   8
ATOM      8  C   UNL A   1      37.815  30.197  30.790  1.00  0.00     0.060 A 
ATOM      9  C   UNL A   1      38.750  29.418  31.468  1.00  0.00     0.016 A 
ATOM     10  C   UNL A   1      38.019  30.443  29.423  1.00  0.00     0.016 A 
ATOM     11  C   UNL A   1      39.942  29.045  30.861  1.00  0.00     0.010 A 
ATOM     12  C   UNL A   1      39.179  29.989  28.781  1.00  0.00     0.010 A 
ATOM     13  C   UNL A   1      40.173  29.334  29.515  1.00  0.00    -0.014 A 
BRANCH  13  14
ATOM     14  C   UNL A   1      41.507  29.015  28.951  1.00  0.00     0.031 A 
ATOM     15  C   UNL A   1      42.598  30.045  29.024  1.00  0.00     0.074 A 
ATOM     16  C   UNL A   1      41.768  27.763  28.527  1.00  0.00     0.049 A 
ATOM     17  N   UNL A   1      43.837  29.964  28.619  1.00  0.00    -0.248 NA
ATOM     18  C   UNL A   1      42.254  31.336  29.647  1.00  0.00     0.031 C 
ATOM     19  C   UNL A   1      40.795  26.667  28.493  1.00  0.00     0.029 A 
ATOM     20  N   UNL A   1      42.931  27.184  28.092  1.00  0.00    -0.354 N 
ATOM     21  C   UNL A   1      44.414  31.192  28.920  1.00  0.00     0.074 A 
ATOM     22  C   UNL A   1      43.388  32.009  29.526  1.00  0.00     0.031 C 
ATOM     23  C   UNL A   1      41.417  25.541  28.112  1.00  0.00     0.029 A 
ATOM     24  C   UNL A   1      42.808  25.845  27.808  1.00  0.00     0.049 A 
ATOM     25  H   UNL A   1      43.776  27.681  27.992  1.00  0.00     0.167 HD
ATOM     26  C   UNL A   1      45.690  31.595  28.714  1.00  0.00     0.037 A 
ATOM     27  C   UNL A   1      43.710  24.964  27.334  1.00  0.00     0.037 A 
ATOM     28  C   UNL A   1      46.701  30.766  28.118  1.00  0.00     0.049 A 
ATOM     29  C   UNL A   1      45.105  25.452  27.067  1.00  0.00     0.074 A 
ATOM     30  C   UNL A   1      48.001  31.093  27.777  1.00  0.00     0.029 A 
ATOM     31  N   UNL A   1      46.523  29.429  27.786  1.00  0.00    -0.354 N 
ATOM     32  N   UNL A   1      45.611  26.646  27.279  1.00  0.00    -0.248 NA
ATOM     33  C   UNL A   1      46.048  24.490  26.486  1.00  0.00     0.031 C 
ATOM     34  C   UNL A   1      48.603  29.958  27.221  1.00  0.00     0.029 A 
ATOM     35  C   UNL A   1      47.687  28.916  27.246  1.00  0.00     0.049 A 
ATOM     36  H   UNL A   1      45.689  28.921  27.917  1.00  0.00     0.167 HD
ATOM     37  C   UNL A   1      46.930  26.579  26.851  1.00  0.00     0.074 A 
ATOM     38  C   UNL A   1      47.154  25.217  26.404  1.00  0.00     0.031 C 
ATOM     39  C   UNL A   1      47.869  27.556  26.810  1.00  0.00     0.037 A 
BRANCH  26  40
ATOM     40  C   UNL A   1      46.033  33.004  29.103  1.00  0.00     0.058 A 
ATOM     41  C   UNL A   1      46.549  33.315  30.371  1.00  0.00     0.135 A 
ATOM     42  C   UNL A   1      45.826  34.060  28.202  1.00  0.00     0.135 A 
ATOM     43  F   UNL A   1      46.737  32.346  31.280  1.00  0.00    -0.206 F 
ATOM     44  C   UNL A   1      46.825  34.628  30.741  1.00  0.00     0.059 A 
ATOM     45  C   UNL A   1      46.112  35.379  28.543  1.00  0.00     0.059 A 
ATOM     46  F   UNL A   1      45.322  33.818  26.981  1.00  0.00    -0.206 F 
ATOM     47  C   UNL A   1      46.597  35.654  29.821  1.00  0.00     0.060 A 
BRANCH  47  48
ATOM     48  S   UNL A   1      46.940  37.355  30.321  1.00  0.00     0.124 S 
ATOM     49  O   UNL A   1      48.244  37.580  29.705  1.00  0.00    -0.237 OA
ATOM     50  O   UNL A   1      45.826  38.086  29.728  1.00  0.00    -0.237 OA
ATOM     51  O   UNL A   1      46.937  37.288  31.778  1.00  0.00    -0.744 OA
ENDBRANCH  47  48
ENDBRANCH  26  40
BRANCH  27  52
ATOM     52  C   UNL A   1      43.311  23.561  27.034  1.00  0.00     0.058 A 
ATOM     53  C   UNL A   1      43.116  22.618  28.055  1.00  0.00     0.135 A 
ATOM     54  C   UNL A   1      43.127  23.131  25.710  1.00  0.00     0.135 A 
ATOM     55  F   UNL A   1      43.279  22.976  29.337  1.00  0.00    -0.206 F 
ATOM     56  C   UNL A   1      42.778  21.297  27.773  1.00  0.00     0.059 A 
ATOM     57  C   UNL A   1      42.763  21.824  25.404  1.00  0.00     0.059 A 
ATOM     58  F   UNL A   1      43.279  23.995  24.694  1.00  0.00    -0.206 F 
ATOM     59  C   UNL A   1      42.608  20.909  26.444  1.00  0.00     0.060 A 
BRANCH  59  60
ATOM     60  S   UNL A   1      42.146  19.202  26.079  1.00  0.00     0.124 S 
ATOM     61  O   UNL A   1      40.707  19.326  25.881  1.00  0.00    -0.237 OA
ATOM     62  O   UNL A   1      42.935  18.916  24.885  1.00  0.00    -0.237 OA
ATOM     63  O   UNL A   1      42.562  18.484  27.280  1.00  0.00    -0.744 OA
ENDBRANCH  59  60
ENDBRANCH  27  52
BRANCH  39  64
ATOM     64  C   UNL A   1      49.212  27.173  26.265  1.00  0.00     0.058 A 
ATOM     65  C   UNL A   1      49.469  27.200  24.886  1.00  0.00     0.135 A 
ATOM     66  C   UNL A   1      50.254  26.803  27.127  1.00  0.00     0.135 A 
ATOM     67  F   UNL A   1      48.498  27.542  24.023  1.00  0.00    -0.206 F 
ATOM     68  C   UNL A   1      50.712  26.845  24.376  1.00  0.00     0.059 A 
ATOM     69  C   UNL A   1      51.511  26.465  26.641  1.00  0.00     0.059 A 
ATOM     70  F   UNL A   1      50.055  26.773  28.455  1.00  0.00    -0.206 F 
ATOM     71  C   UNL A   1      51.726  26.475  25.262  1.00  0.00     0.060 A 
BRANCH  71  72
ATOM     72  S   UNL A   1      53.343  26.033  24.595  1.00  0.00     0.124 S 
ATOM     73  O   UNL A   1      54.235  26.574  25.614  1.00  0.00    -0.237 OA
ATOM     74  O   UNL A   1      53.268  24.577  24.526  1.00  0.00    -0.237 OA
ATOM     75  O   UNL A   1      53.372  26.714  23.305  1.00  0.00    -0.744 OA
ENDBRANCH  71  72
ENDBRANCH  39  64
ENDBRANCH  13  14
ENDBRANCH   6   8
ENDBRANCH   5   6
ENDBRANCH   4   5
ENDBRANCH   3   4
ENDBRANCH   2   3
ENDBRANCH   1   2
BRANCH   1  76
ATOM     76  C   UNL A   1      33.458  30.221  27.037  1.00  0.00     0.188 C 
BRANCH  76  77
ATOM     77  O   UNL A   1      33.138  30.227  25.643  1.00  0.00    -0.376 OA
BRANCH  77  78
ATOM     78  C   UNL A   1      33.117  28.973  24.971  1.00  0.00     0.202 C 
BRANCH  78  79
ATOM     79  C   UNL A   1      33.121  28.967  23.436  1.00  0.00     0.261 C 
BRANCH  79  80
ATOM     80  O   UNL A   1      31.989  28.416  22.747  1.00  0.00    -0.460 OA
BRANCH  80  81
ATOM     81  C   UNL A   1      32.036  27.067  22.606  1.00  0.00     0.338 C 
ATOM     82  O   UNL A   1      32.521  26.454  21.671  1.00  0.00    -0.246 OA
BRANCH  81  83
ATOM     83  C   UNL A   1      31.345  26.392  23.719  1.00  0.00     0.067 A 
ATOM     84  C   UNL A   1      29.976  26.647  23.873  1.00  0.00     0.016 A 
ATOM     85  C   UNL A   1      32.054  25.633  24.674  1.00  0.00    -0.010 A 
ATOM     86  C   UNL A   1      29.296  26.130  24.974  1.00  0.00     0.001 A 
ATOM     87  C   UNL A   1      31.353  25.139  25.783  1.00  0.00     0.009 A 
ATOM     88  C   UNL A   1      29.984  25.384  25.929  1.00  0.00     0.001 A 
BRANCH  85  89
ATOM     89  C   UNL A   1      33.475  25.265  24.542  1.00  0.00     0.030 C 
ATOM     90  C   UNL A   1      33.954  24.050  24.243  1.00  0.00     0.081 C 
ATOM     91  S   UNL A   1      35.599  23.602  24.455  1.00  0.00    -0.054 SA
ATOM     92  C   UNL A   1      33.168  22.839  23.899  1.00  0.00     0.266 C 
ATOM     93  C   UNL A   1      35.181  21.890  24.617  1.00  0.00     0.148 C 
ATOM     94  N   UNL A   1      33.836  21.708  24.354  1.00  0.00    -0.290 N 
ATOM     95  O   UNL A   1      32.113  22.869  23.284  1.00  0.00    -0.268 OA
ATOM     96  S   UNL A   1      36.343  20.779  25.067  1.00  0.00    -0.052 S 
BRANCH  94  97
ATOM     97  C   UNL A   1      33.052  20.454  24.435  1.00  0.00     0.092 C 
ATOM     98  C   UNL A   1      33.112  19.643  23.136  1.00  0.00     0.025 C 
ATOM     99  C   UNL A   1      33.347  19.600  25.685  1.00  0.00     0.025 C 
ATOM    100  C   UNL A   1      32.256  18.382  23.228  1.00  0.00     0.002 C 
ATOM    101  C   UNL A   1      32.518  18.320  25.728  1.00  0.00     0.002 C 
ATOM    102  C   UNL A   1      32.645  17.530  24.432  1.00  0.00     0.000 C 
ENDBRANCH  94  97
ENDBRANCH  85  89
ENDBRANCH  81  83
ENDBRANCH  80  81
ENDBRANCH  79  80
ENDBRANCH  78  79
ENDBRANCH  77  78
ENDBRANCH  76  77
ENDBRANCH   1  76
TORSDOF 22
ENDMDL
MODEL 2
REMARK VINA RESULT:     -10.3      1.254      8.109
REMARK SMILES O=C(OCCOCCOCCOC(=O)c1ccccc1/C=C1/SC(=S)N(C2CCCCC2)C1=O)c1ccc(-c2c3nc(c(-c4c(F)cc(S(=O)(=O)[O-])cc4F)c4ccc([nH]4)c(-c4c(F)cc(S(=O)(=O)[O-])cc4F)c4nc(c(-c5c(F)cc(S(=O)(=O)[O-])cc5F)c5ccc2[nH]5)C=C4)C=C3)cc1
REMARK SMILES IDX 7 1 6 2 5 3 4 4 3 5 2 6 1 7 35 8 36 9 100 10 37 11 99 12
REMARK SMILES IDX 38 13 39 14 40 15 93 16 41 17 98 18 92 19 94 20 42 21 97 22
REMARK SMILES IDX 91 23 90 24 43 26 77 27 56 28 76 29 57 30 60 31 75 32 95 33
REMARK SMILES IDX 58 34 59 35 74 37 96 38 61 39 44 40 45 41 54 42 46 43 47 44
REMARK SMILES IDX 53 45 55 46 48 47 49 48 50 49 51 50 52 51 78 52 79 53 88 54
REMARK SMILES IDX 80 55 81 56 87 57 89 58 82 59 83 60 84 61 85 62 86 63 62 64
REMARK SMILES IDX 63 65 72 66 64 67 65 68 71 69 73 70 66 71 67 72 68 73 69 74
REMARK SMILES IDX 70 75 8 76 9 77 10 78 11 79 12 80 13 81 14 82 15 83 16 84
REMARK SMILES IDX 20 85 17 86 19 87 18 88 21 89 22 90 23 91 33 92 24 93 26 94
REMARK SMILES IDX 34 95 25 96 27 97 28 98 32 99 29 100 31 101 30 102
REMARK H PARENT 94 25 60 36
REMARK Flexibility Score: inf
ROOT
ATOM      1  C   UNL A   1      31.647  31.162  26.270  1.00  0.00     0.188 C 
ENDROOT
BRANCH   1   2
ATOM      2  O   UNL A   1      32.744  31.231  27.185  1.00  0.00    -0.376 OA
BRANCH   2   3
ATOM      3  C   UNL A   1      33.827  30.357  26.865  1.00  0.00     0.202 C 
BRANCH   3   4
ATOM      4  C   UNL A   1      34.683  29.970  28.075  1.00  0.00     0.261 C 
BRANCH   4   5
ATOM      5  O   UNL A   1      35.700  30.952  28.349  1.00  0.00    -0.460 OA
BRANCH   5   6
ATOM      6  C   UNL A   1      36.605  30.932  29.363  1.00  0.00     0.338 C 
ATOM      7  O   UNL A   1      36.276  31.343  30.473  1.00  0.00    -0.246 OA
BRANCH   6   8
ATOM      8  C   UNL A   1      37.966  30.342  29.203  1.00  0.00     0.060 A 
ATOM      9  C   UNL A   1      38.879  30.203  30.246  1.00  0.00     0.016 A 
ATOM     10  C   UNL A   1      38.322  29.854  27.935  1.00  0.00     0.016 A 
ATOM     11  C   UNL A   1      40.173  29.760  30.006  1.00  0.00     0.010 A 
ATOM     12  C   UNL A   1      39.598  29.321  27.708  1.00  0.00     0.010 A 
ATOM     13  C   UNL A   1      40.549  29.324  28.735  1.00  0.00    -0.014 A 
BRANCH  13  14
ATOM     14  C   UNL A   1      41.971  28.972  28.509  1.00  0.00     0.031 A 
ATOM     15  C   UNL A   1      42.323  27.572  28.094  1.00  0.00     0.074 A 
ATOM     16  C   UNL A   1      42.907  29.942  28.523  1.00  0.00     0.049 A 
ATOM     17  N   UNL A   1      43.493  27.062  27.819  1.00  0.00    -0.248 NA
ATOM     18  C   UNL A   1      41.207  26.618  27.956  1.00  0.00     0.031 C 
ATOM     19  C   UNL A   1      42.652  31.351  28.836  1.00  0.00     0.029 A 
ATOM     20  N   UNL A   1      44.244  29.908  28.224  1.00  0.00    -0.354 N 
ATOM     21  C   UNL A   1      43.260  25.731  27.494  1.00  0.00     0.074 A 
ATOM     22  C   UNL A   1      41.838  25.503  27.623  1.00  0.00     0.031 C 
ATOM     23  C   UNL A   1      43.783  32.051  28.660  1.00  0.00     0.029 A 
ATOM     24  C   UNL A   1      44.855  31.137  28.292  1.00  0.00     0.049 A 
ATOM     25  H   UNL A   1      44.721  29.081  27.983  1.00  0.00     0.167 HD
ATOM     26  C   UNL A   1      44.154  24.787  27.117  1.00  0.00     0.037 A 
ATOM     27  C   UNL A   1      46.142  31.486  28.101  1.00  0.00     0.037 A 
ATOM     28  C   UNL A   1      45.564  25.032  26.986  1.00  0.00     0.049 A 
ATOM     29  C   UNL A   1      47.122  30.409  27.732  1.00  0.00     0.074 A 
ATOM     30  C   UNL A   1      46.576  24.136  26.699  1.00  0.00     0.029 A 
ATOM     31  N   UNL A   1      46.158  26.280  27.122  1.00  0.00    -0.354 N 
ATOM     32  N   UNL A   1      46.895  29.134  27.513  1.00  0.00    -0.248 NA
ATOM     33  C   UNL A   1      48.528  30.804  27.598  1.00  0.00     0.031 C 
ATOM     34  C   UNL A   1      47.787  24.840  26.680  1.00  0.00     0.029 A 
ATOM     35  C   UNL A   1      47.522  26.179  26.924  1.00  0.00     0.049 A 
ATOM     36  H   UNL A   1      45.677  27.115  27.329  1.00  0.00     0.167 HD
ATOM     37  C   UNL A   1      48.131  28.574  27.221  1.00  0.00     0.074 A 
ATOM     38  C   UNL A   1      49.096  29.656  27.254  1.00  0.00     0.031 C 
ATOM     39  C   UNL A   1      48.449  27.281  26.968  1.00  0.00     0.037 A 
BRANCH  26  40
ATOM     40  C   UNL A   1      43.624  23.405  26.864  1.00  0.00     0.058 A 
ATOM     41  C   UNL A   1      43.179  22.582  27.911  1.00  0.00     0.135 A 
ATOM     42  C   UNL A   1      43.579  22.890  25.559  1.00  0.00     0.135 A 
ATOM     43  F   UNL A   1      43.230  23.016  29.180  1.00  0.00    -0.206 F 
ATOM     44  C   UNL A   1      42.730  21.287  27.675  1.00  0.00     0.059 A 
ATOM     45  C   UNL A   1      43.116  21.603  25.297  1.00  0.00     0.059 A 
ATOM     46  F   UNL A   1      44.006  23.631  24.525  1.00  0.00    -0.206 F 
ATOM     47  C   UNL A   1      42.707  20.804  26.365  1.00  0.00     0.060 A 
BRANCH  47  48
ATOM     48  S   UNL A   1      42.141  19.114  26.074  1.00  0.00     0.124 S 
ATOM     49  O   UNL A   1      42.921  18.745  24.897  1.00  0.00    -0.237 OA
ATOM     50  O   UNL A   1      42.511  18.442  27.315  1.00  0.00    -0.237 OA
ATOM     51  O   UNL A   1      40.707  19.270  25.853  1.00  0.00    -0.744 OA
ENDBRANCH  47  48
ENDBRANCH  26  40
BRANCH  27  52
ATOM     52  C   UNL A   1      46.582  32.894  28.306  1.00  0.00     0.058 A 
ATOM     53  C   UNL A   1      46.530  33.839  27.270  1.00  0.00     0.135 A 
ATOM     54  C   UNL A   1      47.076  33.321  29.550  1.00  0.00     0.135 A 
ATOM     55  F   UNL A   1      46.067  33.484  26.062  1.00  0.00    -0.206 F 
ATOM     56  C   UNL A   1      46.974  35.145  27.451  1.00  0.00     0.059 A 
ATOM     57  C   UNL A   1      47.500  34.628  29.763  1.00  0.00     0.059 A 
ATOM     58  F   UNL A   1      47.129  32.466  30.583  1.00  0.00    -0.206 F 
ATOM     59  C   UNL A   1      47.462  35.529  28.701  1.00  0.00     0.060 A 
BRANCH  59  60
ATOM     60  S   UNL A   1      48.017  37.231  28.944  1.00  0.00     0.124 S 
ATOM     61  O   UNL A   1      49.254  37.246  28.174  1.00  0.00    -0.237 OA
ATOM     62  O   UNL A   1      46.907  37.999  28.390  1.00  0.00    -0.237 OA
ATOM     63  O   UNL A   1      48.170  37.323  30.393  1.00  0.00    -0.744 OA
ENDBRANCH  59  60
ENDBRANCH  27  52
BRANCH  39  64
ATOM     64  C   UNL A   1      49.896  26.983  26.710  1.00  0.00     0.058 A 
ATOM     65  C   UNL A   1      50.783  26.729  27.766  1.00  0.00     0.135 A 
ATOM     66  C   UNL A   1      50.390  26.928  25.399  1.00  0.00     0.135 A 
ATOM     67  F   UNL A   1      50.354  26.778  29.038  1.00  0.00    -0.206 F 
ATOM     68  C   UNL A   1      52.125  26.454  27.532  1.00  0.00     0.059 A 
ATOM     69  C   UNL A   1      51.723  26.634  25.140  1.00  0.00     0.059 A 
ATOM     70  F   UNL A   1      49.573  27.156  24.358  1.00  0.00    -0.206 F 
ATOM     71  C   UNL A   1      52.586  26.412  26.215  1.00  0.00     0.060 A 
BRANCH  71  72
ATOM     72  S   UNL A   1      54.325  26.037  25.915  1.00  0.00     0.124 S 
ATOM     73  O   UNL A   1      54.310  25.704  24.495  1.00  0.00    -0.237 OA
ATOM     74  O   UNL A   1      54.984  27.291  26.266  1.00  0.00    -0.237 OA
ATOM     75  O   UNL A   1      54.590  24.924  26.821  1.00  0.00    -0.744 OA
ENDBRANCH  71  72
ENDBRANCH  39  64
ENDBRANCH  13  14
ENDBRANCH   6   8
ENDBRANCH   5   6
ENDBRANCH   4   5
ENDBRANCH   3   4
ENDBRANCH   2   3
ENDBRANCH   1   2
BRANCH   1  76
ATOM     76  C   UNL A   1      31.780  29.909  25.405  1.00  0.00     0.188 C 
BRANCH  76  77
ATOM     77  O   UNL A   1      30.802  29.780  24.369  1.00  0.00    -0.376 OA
BRANCH  77  78
ATOM     78  C   UNL A   1      31.021  28.777  23.384  1.00  0.00     0.202 C 
BRANCH  78  79
ATOM     79  C   UNL A   1      30.694  27.320  23.740  1.00  0.00     0.261 C 
BRANCH  79  80
ATOM     80  O   UNL A   1      31.772  26.380  23.850  1.00  0.00    -0.460 OA
BRANCH  80  81
ATOM     81  C   UNL A   1      32.220  26.205  25.120  1.00  0.00     0.338 C 
ATOM     82  O   UNL A   1      33.048  26.891  25.695  1.00  0.00    -0.246 OA
BRANCH  81  83
ATOM     83  C   UNL A   1      31.624  25.006  25.734  1.00  0.00     0.067 A 
ATOM     84  C   UNL A   1      30.251  25.040  26.007  1.00  0.00     0.016 A 
ATOM     85  C   UNL A   1      32.421  23.922  26.158  1.00  0.00    -0.010 A 
ATOM     86  C   UNL A   1      29.654  23.983  26.692  1.00  0.00     0.001 A 
ATOM     87  C   UNL A   1      31.803  22.878  26.862  1.00  0.00     0.009 A 
ATOM     88  C   UNL A   1      30.430  22.908  27.123  1.00  0.00     0.001 A 
BRANCH  85  89
ATOM     89  C   UNL A   1      33.855  23.783  25.846  1.00  0.00     0.030 C 
ATOM     90  C   UNL A   1      34.432  22.751  25.215  1.00  0.00     0.081 C 
ATOM     91  S   UNL A   1      36.128  22.478  25.200  1.00  0.00    -0.054 SA
ATOM     92  C   UNL A   1      33.751  21.572  24.623  1.00  0.00     0.266 C 
ATOM     93  C   UNL A   1      35.913  20.741  24.943  1.00  0.00     0.148 C 
ATOM     94  N   UNL A   1      34.577  20.458  24.729  1.00  0.00    -0.290 N 
ATOM     95  O   UNL A   1      32.646  21.617  24.105  1.00  0.00    -0.268 OA
ATOM     96  S   UNL A   1      37.226  19.711  25.018  1.00  0.00    -0.052 S 
BRANCH  94  97
ATOM     97  C   UNL A   1      33.943  19.134  24.535  1.00  0.00     0.092 C 
ATOM     98  C   UNL A   1      34.968  18.033  24.245  1.00  0.00     0.025 C 
ATOM     99  C   UNL A   1      32.943  18.741  25.642  1.00  0.00     0.025 C 
ATOM    100  C   UNL A   1      34.286  16.689  24.000  1.00  0.00     0.002 C 
ATOM    101  C   UNL A   1      32.314  17.372  25.403  1.00  0.00     0.002 C 
ATOM    102  C   UNL A   1      33.374  16.306  25.162  1.00  0.00     0.000 C 
ENDBRANCH  94  97
ENDBRANCH  85  89
ENDBRANCH  81  83
ENDBRANCH  80  81
ENDBRANCH  79  80
ENDBRANCH  78  79
ENDBRANCH  77  78
ENDBRANCH  76  77
ENDBRANCH   1  76
TORSDOF 22
ENDMDL
MODEL 3
REMARK VINA RESULT:     -10.1      4.483      8.971
REMARK SMILES O=C(OCCOCCOCCOC(=O)c1ccccc1/C=C1/SC(=S)N(C2CCCCC2)C1=O)c1ccc(-c2c3nc(c(-c4c(F)cc(S(=O)(=O)[O-])cc4F)c4ccc([nH]4)c(-c4c(F)cc(S(=O)(=O)[O-])cc4F)c4nc(c(-c5c(F)cc(S(=O)(=O)[O-])cc5F)c5ccc2[nH]5)C=C4)C=C3)cc1
REMARK SMILES IDX 7 1 6 2 5 3 4 4 3 5 2 6 1 7 35 8 36 9 100 10 37 11 99 12
REMARK SMILES IDX 38 13 39 14 40 15 93 16 41 17 98 18 92 19 94 20 42 21 97 22
REMARK SMILES IDX 91 23 90 24 43 26 77 27 56 28 76 29 57 30 60 31 75 32 95 33
REMARK SMILES IDX 58 34 59 35 74 37 96 38 61 39 44 40 45 41 54 42 46 43 47 44
REMARK SMILES IDX 53 45 55 46 48 47 49 48 50 49 51 50 52 51 78 52 79 53 88 54
REMARK SMILES IDX 80 55 81 56 87 57 89 58 82 59 83 60 84 61 85 62 86 63 62 64
REMARK SMILES IDX 63 65 72 66 64 67 65 68 71 69 73 70 66 71 67 72 68 73 69 74
REMARK SMILES IDX 70 75 8 76 9 77 10 78 11 79 12 80 13 81 14 82 15 83 16 84
REMARK SMILES IDX 20 85 17 86 19 87 18 88 21 89 22 90 23 91 33 92 24 93 26 94
REMARK SMILES IDX 34 95 25 96 27 97 28 98 32 99 29 100 31 101 30 102
REMARK H PARENT 94 25 60 36
REMARK Flexibility Score: inf
ROOT
ATOM      1  C   UNL A   1      30.743  29.718  24.213  1.00  0.00     0.188 C 
ENDROOT
BRANCH   1   2
ATOM      2  O   UNL A   1      31.229  28.688  25.079  1.00  0.00    -0.376 OA
BRANCH   2   3
ATOM      3  C   UNL A   1      31.709  29.163  26.337  1.00  0.00     0.202 C 
BRANCH   3   4
ATOM      4  C   UNL A   1      33.149  28.741  26.644  1.00  0.00     0.261 C 
BRANCH   4   5
ATOM      5  O   UNL A   1      34.075  29.831  26.474  1.00  0.00    -0.460 OA
BRANCH   5   6
ATOM      6  C   UNL A   1      34.703  30.532  27.455  1.00  0.00     0.338 C 
ATOM      7  O   UNL A   1      34.198  31.574  27.867  1.00  0.00    -0.246 OA
BRANCH   6   8
ATOM      8  C   UNL A   1      35.943  30.037  28.118  1.00  0.00     0.060 A 
ATOM      9  C   UNL A   1      35.961  29.411  29.362  1.00  0.00     0.016 A 
ATOM     10  C   UNL A   1      37.154  30.167  27.420  1.00  0.00     0.016 A 
ATOM     11  C   UNL A   1      37.161  29.084  29.979  1.00  0.00     0.010 A 
ATOM     12  C   UNL A   1      38.361  29.754  28.001  1.00  0.00     0.010 A 
ATOM     13  C   UNL A   1      38.373  29.260  29.310  1.00  0.00    -0.014 A 
BRANCH  13  14
ATOM     14  C   UNL A   1      39.628  29.005  30.058  1.00  0.00     0.031 A 
ATOM     15  C   UNL A   1      40.596  27.983  29.535  1.00  0.00     0.074 A 
ATOM     16  C   UNL A   1      39.955  29.796  31.099  1.00  0.00     0.049 A 
ATOM     17  N   UNL A   1      41.758  27.625  30.014  1.00  0.00    -0.248 NA
ATOM     18  C   UNL A   1      40.215  27.275  28.299  1.00  0.00     0.031 C 
ATOM     19  C   UNL A   1      39.116  30.872  31.633  1.00  0.00     0.029 A 
ATOM     20  N   UNL A   1      41.092  29.855  31.862  1.00  0.00    -0.354 N 
ATOM     21  C   UNL A   1      42.236  26.644  29.155  1.00  0.00     0.074 A 
ATOM     22  C   UNL A   1      41.235  26.447  28.132  1.00  0.00     0.031 C 
ATOM     23  C   UNL A   1      39.790  31.515  32.598  1.00  0.00     0.029 A 
ATOM     24  C   UNL A   1      41.074  30.859  32.801  1.00  0.00     0.049 A 
ATOM     25  H   UNL A   1      41.850  29.237  31.748  1.00  0.00     0.167 HD
ATOM     26  C   UNL A   1      43.411  25.974  29.213  1.00  0.00     0.037 A 
ATOM     27  C   UNL A   1      41.981  31.199  33.736  1.00  0.00     0.037 A 
ATOM     28  C   UNL A   1      44.401  26.189  30.233  1.00  0.00     0.049 A 
ATOM     29  C   UNL A   1      43.255  30.406  33.810  1.00  0.00     0.074 A 
ATOM     30  C   UNL A   1      45.587  25.511  30.447  1.00  0.00     0.029 A 
ATOM     31  N   UNL A   1      44.321  27.176  31.207  1.00  0.00    -0.354 N 
ATOM     32  N   UNL A   1      43.653  29.420  33.038  1.00  0.00    -0.248 NA
ATOM     33  C   UNL A   1      44.194  30.752  34.882  1.00  0.00     0.031 C 
ATOM     34  C   UNL A   1      46.215  26.075  31.563  1.00  0.00     0.029 A 
ATOM     35  C   UNL A   1      45.435  27.126  32.024  1.00  0.00     0.049 A 
ATOM     36  H   UNL A   1      43.579  27.817  31.301  1.00  0.00     0.167 HD
ATOM     37  C   UNL A   1      44.888  29.025  33.536  1.00  0.00     0.074 A 
ATOM     38  C   UNL A   1      45.187  29.903  34.651  1.00  0.00     0.031 C 
ATOM     39  C   UNL A   1      45.695  28.016  33.125  1.00  0.00     0.037 A 
BRANCH  26  40
ATOM     40  C   UNL A   1      43.655  24.927  28.165  1.00  0.00     0.058 A 
ATOM     41  C   UNL A   1      43.226  23.601  28.333  1.00  0.00     0.135 A 
ATOM     42  C   UNL A   1      44.343  25.249  26.985  1.00  0.00     0.135 A 
ATOM     43  F   UNL A   1      42.591  23.234  29.457  1.00  0.00    -0.206 F 
ATOM     44  C   UNL A   1      43.492  22.625  27.378  1.00  0.00     0.059 A 
ATOM     45  C   UNL A   1      44.604  24.294  26.007  1.00  0.00     0.059 A 
ATOM     46  F   UNL A   1      44.786  26.500  26.781  1.00  0.00    -0.206 F 
ATOM     47  C   UNL A   1      44.187  22.980  26.220  1.00  0.00     0.060 A 
BRANCH  47  48
ATOM     48  S   UNL A   1      44.544  21.700  24.998  1.00  0.00     0.124 S 
ATOM     49  O   UNL A   1      44.390  22.440  23.750  1.00  0.00    -0.237 OA
ATOM     50  O   UNL A   1      45.908  21.311  25.339  1.00  0.00    -0.237 OA
ATOM     51  O   UNL A   1      43.524  20.689  25.258  1.00  0.00    -0.744 OA
ENDBRANCH  47  48
ENDBRANCH  26  40
BRANCH  27  52
ATOM     52  C   UNL A   1      41.697  32.297  34.701  1.00  0.00     0.058 A 
ATOM     53  C   UNL A   1      41.198  32.036  35.986  1.00  0.00     0.135 A 
ATOM     54  C   UNL A   1      41.909  33.640  34.347  1.00  0.00     0.135 A 
ATOM     55  F   UNL A   1      40.977  30.771  36.374  1.00  0.00    -0.206 F 
ATOM     56  C   UNL A   1      40.898  33.064  36.875  1.00  0.00     0.059 A 
ATOM     57  C   UNL A   1      41.644  34.683  35.228  1.00  0.00     0.059 A 
ATOM     58  F   UNL A   1      42.405  33.948  33.138  1.00  0.00    -0.206 F 
ATOM     59  C   UNL A   1      41.120  34.385  36.484  1.00  0.00     0.060 A 
BRANCH  59  60
ATOM     60  S   UNL A   1      40.754  35.719  37.646  1.00  0.00     0.124 S 
ATOM     61  O   UNL A   1      39.895  35.039  38.608  1.00  0.00    -0.237 OA
ATOM     62  O   UNL A   1      42.083  36.088  38.122  1.00  0.00    -0.237 OA
ATOM     63  O   UNL A   1      40.100  36.717  36.805  1.00  0.00    -0.744 OA
ENDBRANCH  59  60
ENDBRANCH  27  52
BRANCH  39  64
ATOM     64  C   UNL A   1      46.969  27.823  33.891  1.00  0.00     0.058 A 
ATOM     65  C   UNL A   1      48.141  28.504  33.533  1.00  0.00     0.135 A 
ATOM     66  C   UNL A   1      47.009  26.971  35.004  1.00  0.00     0.135 A 
ATOM     67  F   UNL A   1      48.149  29.324  32.469  1.00  0.00    -0.206 F 
ATOM     68  C   UNL A   1      49.325  28.326  34.239  1.00  0.00     0.059 A 
ATOM     69  C   UNL A   1      48.176  26.794  35.738  1.00  0.00     0.059 A 
ATOM     70  F   UNL A   1      45.908  26.306  35.388  1.00  0.00    -0.206 F 
ATOM     71  C   UNL A   1      49.333  27.466  35.339  1.00  0.00     0.060 A 
BRANCH  71  72
ATOM     72  S   UNL A   1      50.867  27.253  36.264  1.00  0.00     0.124 S 
ATOM     73  O   UNL A   1      51.681  26.508  35.310  1.00  0.00    -0.237 OA
ATOM     74  O   UNL A   1      51.281  28.631  36.510  1.00  0.00    -0.237 OA
ATOM     75  O   UNL A   1      50.446  26.512  37.448  1.00  0.00    -0.744 OA
ENDBRANCH  71  72
ENDBRANCH  39  64
ENDBRANCH  13  14
ENDBRANCH   6   8
ENDBRANCH   5   6
ENDBRANCH   4   5
ENDBRANCH   3   4
ENDBRANCH   2   3
ENDBRANCH   1   2
BRANCH   1  76
ATOM     76  C   UNL A   1      30.541  29.151  22.808  1.00  0.00     0.188 C 
BRANCH  76  77
ATOM     77  O   UNL A   1      30.635  27.727  22.708  1.00  0.00    -0.376 OA
BRANCH  77  78
ATOM     78  C   UNL A   1      31.633  27.195  21.845  1.00  0.00     0.202 C 
BRANCH  78  79
ATOM     79  C   UNL A   1      31.919  25.688  21.900  1.00  0.00     0.261 C 
BRANCH  79  80
ATOM     80  O   UNL A   1      33.086  25.234  22.601  1.00  0.00    -0.460 OA
BRANCH  80  81
ATOM     81  C   UNL A   1      33.268  25.830  23.808  1.00  0.00     0.338 C 
ATOM     82  O   UNL A   1      33.899  26.850  24.023  1.00  0.00    -0.246 OA
BRANCH  81  83
ATOM     83  C   UNL A   1      32.651  25.041  24.889  1.00  0.00     0.067 A 
ATOM     84  C   UNL A   1      31.289  25.255  25.142  1.00  0.00     0.016 A 
ATOM     85  C   UNL A   1      33.422  24.208  25.726  1.00  0.00    -0.010 A 
ATOM     86  C   UNL A   1      30.679  24.624  26.225  1.00  0.00     0.001 A 
ATOM     87  C   UNL A   1      32.792  23.599  26.820  1.00  0.00     0.009 A 
ATOM     88  C   UNL A   1      31.431  23.804  27.065  1.00  0.00     0.001 A 
BRANCH  85  89
ATOM     89  C   UNL A   1      34.838  23.881  25.482  1.00  0.00     0.030 C 
ATOM     90  C   UNL A   1      35.309  22.741  24.956  1.00  0.00     0.081 C 
ATOM     91  S   UNL A   1      36.961  22.276  25.028  1.00  0.00    -0.054 SA
ATOM     92  C   UNL A   1      34.513  21.603  24.433  1.00  0.00     0.266 C 
ATOM     93  C   UNL A   1      36.552  20.560  24.900  1.00  0.00     0.148 C 
ATOM     94  N   UNL A   1      35.199  20.415  24.658  1.00  0.00    -0.290 N 
ATOM     95  O   UNL A   1      33.436  21.732  23.871  1.00  0.00    -0.268 OA
ATOM     96  S   UNL A   1      37.732  19.396  25.107  1.00  0.00    -0.052 S 
BRANCH  94  97
ATOM     97  C   UNL A   1      34.420  19.160  24.544  1.00  0.00     0.092 C 
ATOM     98  C   UNL A   1      35.308  17.913  24.615  1.00  0.00     0.025 C 
ATOM     99  C   UNL A   1      33.204  19.080  25.490  1.00  0.00     0.025 C 
ATOM    100  C   UNL A   1      34.488  16.637  24.446  1.00  0.00     0.002 C 
ATOM    101  C   UNL A   1      32.432  17.774  25.340  1.00  0.00     0.002 C 
ATOM    102  C   UNL A   1      33.351  16.566  25.460  1.00  0.00     0.000 C 
ENDBRANCH  94  97
ENDBRANCH  85  89
ENDBRANCH  81  83
ENDBRANCH  80  81
ENDBRANCH  79  80
ENDBRANCH  78  79
ENDBRANCH  77  78
ENDBRANCH  76  77
ENDBRANCH   1  76
TORSDOF 22
ENDMDL
