MODEL 1
REMARK VINA RESULT:     -10.2      0.000      0.000
REMARK SMILES O=C(OCCOCCOCCOC(=O)c1ccccc1Nc1cccc(C(F)(F)F)c1)c1ccc(-c2c3nc(c(-c4c(F)cc(S(=O)(=O)[O-])cc4F)c4ccc([nH]4)c(-c4c(F)cc(S(=O)(=O)[O-])cc4F)c4nc(c(-c5c(F)cc(S(=O)(=O)[O-])cc5F)c5ccc2[nH]5)C=C4)C=C3)cc1
REMARK SMILES IDX 7 1 6 2 5 3 4 4 3 5 2 6 1 7 32 8 33 9 97 10 34 11 96 12
REMARK SMILES IDX 35 13 36 14 37 15 90 16 38 17 95 18 89 19 91 20 39 21 94 22
REMARK SMILES IDX 88 23 87 24 40 26 74 27 53 28 73 29 54 30 57 31 72 32 92 33
REMARK SMILES IDX 55 34 56 35 71 37 93 38 58 39 41 40 42 41 51 42 43 43 44 44
REMARK SMILES IDX 50 45 52 46 45 47 46 48 47 49 48 50 49 51 75 52 76 53 85 54
REMARK SMILES IDX 77 55 78 56 84 57 86 58 79 59 80 60 81 61 82 62 83 63 59 64
REMARK SMILES IDX 60 65 69 66 61 67 62 68 68 69 70 70 63 71 64 72 65 73 66 74
REMARK SMILES IDX 67 75 8 76 9 77 10 78 11 79 12 80 13 81 14 82 15 83 16 84
REMARK SMILES IDX 20 85 17 86 19 87 18 88 21 89 22 91 23 92 31 93 24 94 26 95
REMARK SMILES IDX 25 96 27 97 28 98 29 99 30 100
REMARK H PARENT 91 25 57 36 21 90
REMARK Flexibility Score: inf
ROOT
ATOM      1  C   UNL A   1      36.164  33.790  29.320  1.00  0.00     0.188 C 
ENDROOT
BRANCH   1   2
ATOM      2  O   UNL A   1      36.149  32.861  30.411  1.00  0.00    -0.376 OA
BRANCH   2   3
ATOM      3  C   UNL A   1      36.006  33.476  31.692  1.00  0.00     0.202 C 
BRANCH   3   4
ATOM      4  C   UNL A   1      36.029  32.497  32.871  1.00  0.00     0.261 C 
BRANCH   4   5
ATOM      5  O   UNL A   1      37.167  31.621  32.824  1.00  0.00    -0.460 OA
BRANCH   5   6
ATOM      6  C   UNL A   1      37.312  30.513  32.054  1.00  0.00     0.338 C 
ATOM      7  O   UNL A   1      36.332  29.801  31.846  1.00  0.00    -0.246 OA
BRANCH   6   8
ATOM      8  C   UNL A   1      38.600  30.149  31.391  1.00  0.00     0.060 A 
ATOM      9  C   UNL A   1      39.692  29.572  32.044  1.00  0.00     0.016 A 
ATOM     10  C   UNL A   1      38.677  30.322  30.000  1.00  0.00     0.016 A 
ATOM     11  C   UNL A   1      40.872  29.285  31.361  1.00  0.00     0.010 A 
ATOM     12  C   UNL A   1      39.834  29.971  29.296  1.00  0.00     0.010 A 
ATOM     13  C   UNL A   1      40.952  29.476  29.980  1.00  0.00    -0.014 A 
BRANCH  13  14
ATOM     14  C   UNL A   1      42.216  29.173  29.268  1.00  0.00     0.031 A 
ATOM     15  C   UNL A   1      42.422  27.812  28.681  1.00  0.00     0.074 A 
ATOM     16  C   UNL A   1      43.153  30.129  29.122  1.00  0.00     0.049 A 
ATOM     17  N   UNL A   1      43.472  27.334  28.070  1.00  0.00    -0.248 NA
ATOM     18  C   UNL A   1      41.297  26.868  28.777  1.00  0.00     0.031 C 
ATOM     19  C   UNL A   1      43.009  31.509  29.579  1.00  0.00     0.029 A 
ATOM     20  N   UNL A   1      44.400  30.099  28.546  1.00  0.00    -0.354 N 
ATOM     21  C   UNL A   1      43.150  26.027  27.736  1.00  0.00     0.074 A 
ATOM     22  C   UNL A   1      41.804  25.783  28.208  1.00  0.00     0.031 C 
ATOM     23  C   UNL A   1      44.119  32.187  29.256  1.00  0.00     0.029 A 
ATOM     24  C   UNL A   1      45.082  31.290  28.647  1.00  0.00     0.049 A 
ATOM     25  H   UNL A   1      44.770  29.302  28.104  1.00  0.00     0.167 HD
ATOM     26  C   UNL A   1      43.918  25.118  27.095  1.00  0.00     0.037 A 
ATOM     27  C   UNL A   1      46.346  31.630  28.324  1.00  0.00     0.037 A 
ATOM     28  C   UNL A   1      45.244  25.389  26.609  1.00  0.00     0.049 A 
ATOM     29  C   UNL A   1      47.199  30.574  27.683  1.00  0.00     0.074 A 
ATOM     30  C   UNL A   1      46.095  24.548  25.917  1.00  0.00     0.029 A 
ATOM     31  N   UNL A   1      45.914  26.593  26.775  1.00  0.00    -0.354 N 
ATOM     32  N   UNL A   1      46.861  29.355  27.335  1.00  0.00    -0.248 NA
ATOM     33  C   UNL A   1      48.595  30.921  27.397  1.00  0.00     0.031 C 
ATOM     34  C   UNL A   1      47.300  25.228  25.706  1.00  0.00     0.029 A 
ATOM     35  C   UNL A   1      47.187  26.502  26.240  1.00  0.00     0.049 A 
ATOM     36  H   UNL A   1      45.539  27.394  27.207  1.00  0.00     0.167 HD
ATOM     37  C   UNL A   1      47.997  28.796  26.769  1.00  0.00     0.074 A 
ATOM     38  C   UNL A   1      49.024  29.818  26.799  1.00  0.00     0.031 C 
ATOM     39  C   UNL A   1      48.181  27.546  26.280  1.00  0.00     0.037 A 
BRANCH  26  40
ATOM     40  C   UNL A   1      43.362  23.735  26.935  1.00  0.00     0.058 A 
ATOM     41  C   UNL A   1      42.869  23.267  25.709  1.00  0.00     0.135 A 
ATOM     42  C   UNL A   1      43.344  22.858  28.031  1.00  0.00     0.135 A 
ATOM     43  F   UNL A   1      42.837  24.078  24.638  1.00  0.00    -0.206 F 
ATOM     44  C   UNL A   1      42.370  21.975  25.574  1.00  0.00     0.059 A 
ATOM     45  C   UNL A   1      42.865  21.558  27.916  1.00  0.00     0.059 A 
ATOM     46  F   UNL A   1      43.789  23.266  29.230  1.00  0.00    -0.206 F 
ATOM     47  C   UNL A   1      42.372  21.128  26.685  1.00  0.00     0.060 A 
BRANCH  47  48
ATOM     48  S   UNL A   1      41.736  19.449  26.494  1.00  0.00     0.124 S 
ATOM     49  O   UNL A   1      42.014  18.882  27.810  1.00  0.00    -0.237 OA
ATOM     50  O   UNL A   1      40.327  19.683  26.190  1.00  0.00    -0.237 OA
ATOM     51  O   UNL A   1      42.530  18.907  25.396  1.00  0.00    -0.744 OA
ENDBRANCH  47  48
ENDBRANCH  26  40
BRANCH  27  52
ATOM     52  C   UNL A   1      46.873  33.000  28.616  1.00  0.00     0.058 A 
ATOM     53  C   UNL A   1      46.755  34.043  27.685  1.00  0.00     0.135 A 
ATOM     54  C   UNL A   1      47.497  33.308  29.839  1.00  0.00     0.135 A 
ATOM     55  F   UNL A   1      46.203  33.809  26.486  1.00  0.00    -0.206 F 
ATOM     56  C   UNL A   1      47.220  35.329  27.950  1.00  0.00     0.059 A 
ATOM     57  C   UNL A   1      47.948  34.592  30.139  1.00  0.00     0.059 A 
ATOM     58  F   UNL A   1      47.648  32.359  30.776  1.00  0.00    -0.206 F 
ATOM     59  C   UNL A   1      47.810  35.596  29.183  1.00  0.00     0.060 A 
BRANCH  59  60
ATOM     60  S   UNL A   1      48.380  37.275  29.528  1.00  0.00     0.124 S 
ATOM     61  O   UNL A   1      49.630  37.022  30.233  1.00  0.00    -0.237 OA
ATOM     62  O   UNL A   1      48.508  37.838  28.186  1.00  0.00    -0.237 OA
ATOM     63  O   UNL A   1      47.301  37.836  30.336  1.00  0.00    -0.744 OA
ENDBRANCH  59  60
ENDBRANCH  27  52
BRANCH  39  64
ATOM     64  C   UNL A   1      49.544  27.229  25.745  1.00  0.00     0.058 A 
ATOM     65  C   UNL A   1      50.548  26.726  26.586  1.00  0.00     0.135 A 
ATOM     66  C   UNL A   1      49.836  27.390  24.383  1.00  0.00     0.135 A 
ATOM     67  F   UNL A   1      50.315  26.569  27.899  1.00  0.00    -0.206 F 
ATOM     68  C   UNL A   1      51.808  26.409  26.096  1.00  0.00     0.059 A 
ATOM     69  C   UNL A   1      51.081  27.056  23.867  1.00  0.00     0.059 A 
ATOM     70  F   UNL A   1      48.902  27.861  23.541  1.00  0.00    -0.206 F 
ATOM     71  C   UNL A   1      52.064  26.576  24.734  1.00  0.00     0.060 A 
BRANCH  71  72
ATOM     72  S   UNL A   1      53.689  26.118  24.099  1.00  0.00     0.124 S 
ATOM     73  O   UNL A   1      53.426  26.018  22.667  1.00  0.00    -0.237 OA
ATOM     74  O   UNL A   1      54.520  27.245  24.513  1.00  0.00    -0.237 OA
ATOM     75  O   UNL A   1      53.973  24.856  24.777  1.00  0.00    -0.744 OA
ENDBRANCH  71  72
ENDBRANCH  39  64
ENDBRANCH  13  14
ENDBRANCH   6   8
ENDBRANCH   5   6
ENDBRANCH   4   5
ENDBRANCH   3   4
ENDBRANCH   2   3
ENDBRANCH   1   2
BRANCH   1  76
ATOM     76  C   UNL A   1      35.781  33.082  28.019  1.00  0.00     0.188 C 
BRANCH  76  77
ATOM     77  O   UNL A   1      34.804  32.047  28.163  1.00  0.00    -0.376 OA
BRANCH  77  78
ATOM     78  C   UNL A   1      35.097  30.788  27.565  1.00  0.00     0.202 C 
BRANCH  78  79
ATOM     79  C   UNL A   1      34.025  29.695  27.662  1.00  0.00     0.261 C 
BRANCH  79  80
ATOM     80  O   UNL A   1      34.178  28.577  26.776  1.00  0.00    -0.460 OA
BRANCH  80  81
ATOM     81  C   UNL A   1      33.032  27.887  26.564  1.00  0.00     0.340 C 
ATOM     82  O   UNL A   1      31.958  28.055  27.127  1.00  0.00    -0.246 OA
BRANCH  81  83
ATOM     83  C   UNL A   1      33.235  26.819  25.579  1.00  0.00     0.083 A 
ATOM     84  C   UNL A   1      33.913  25.663  25.992  1.00  0.00     0.018 A 
ATOM     85  C   UNL A   1      32.959  27.077  24.224  1.00  0.00     0.053 A 
ATOM     86  C   UNL A   1      34.383  24.765  25.038  1.00  0.00     0.001 A 
ATOM     87  C   UNL A   1      33.546  26.219  23.289  1.00  0.00     0.027 A 
ATOM     88  C   UNL A   1      34.236  25.066  23.687  1.00  0.00     0.002 A 
BRANCH  85  89
ATOM     89  N   UNL A   1      32.189  28.187  23.828  1.00  0.00    -0.355 N 
ATOM     90  H   UNL A   1      32.699  29.009  23.645  1.00  0.00     0.167 HD
BRANCH  89  91
ATOM     91  C   UNL A   1      30.800  28.291  23.655  1.00  0.00     0.039 A 
ATOM     92  C   UNL A   1      30.004  27.175  23.916  1.00  0.00     0.026 A 
ATOM     93  C   UNL A   1      30.222  29.406  23.034  1.00  0.00     0.039 A 
ATOM     94  C   UNL A   1      28.640  27.189  23.631  1.00  0.00     0.003 A 
ATOM     95  C   UNL A   1      28.849  29.429  22.724  1.00  0.00     0.058 A 
ATOM     96  C   UNL A   1      28.065  28.310  23.035  1.00  0.00     0.013 A 
BRANCH  95  97
ATOM     97  C   UNL A   1      28.238  30.603  21.999  1.00  0.00     0.416 C 
ATOM     98  F   UNL A   1      27.841  30.262  20.738  1.00  0.00    -0.166 F 
ATOM     99  F   UNL A   1      27.123  31.096  22.607  1.00  0.00    -0.166 F 
ATOM    100  F   UNL A   1      29.092  31.648  21.846  1.00  0.00    -0.166 F 
ENDBRANCH  95  97
ENDBRANCH  89  91
ENDBRANCH  85  89
ENDBRANCH  81  83
ENDBRANCH  80  81
ENDBRANCH  79  80
ENDBRANCH  78  79
ENDBRANCH  77  78
ENDBRANCH  76  77
ENDBRANCH   1  76
TORSDOF 23
ENDMDL
MODEL 2
REMARK VINA RESULT:     -10.1      1.534      8.503
REMARK SMILES O=C(OCCOCCOCCOC(=O)c1ccccc1Nc1cccc(C(F)(F)F)c1)c1ccc(-c2c3nc(c(-c4c(F)cc(S(=O)(=O)[O-])cc4F)c4ccc([nH]4)c(-c4c(F)cc(S(=O)(=O)[O-])cc4F)c4nc(c(-c5c(F)cc(S(=O)(=O)[O-])cc5F)c5ccc2[nH]5)C=C4)C=C3)cc1
REMARK SMILES IDX 7 1 6 2 5 3 4 4 3 5 2 6 1 7 32 8 33 9 97 10 34 11 96 12
REMARK SMILES IDX 35 13 36 14 37 15 90 16 38 17 95 18 89 19 91 20 39 21 94 22
REMARK SMILES IDX 88 23 87 24 40 26 74 27 53 28 73 29 54 30 57 31 72 32 92 33
REMARK SMILES IDX 55 34 56 35 71 37 93 38 58 39 41 40 42 41 51 42 43 43 44 44
REMARK SMILES IDX 50 45 52 46 45 47 46 48 47 49 48 50 49 51 75 52 76 53 85 54
REMARK SMILES IDX 77 55 78 56 84 57 86 58 79 59 80 60 81 61 82 62 83 63 59 64
REMARK SMILES IDX 60 65 69 66 61 67 62 68 68 69 70 70 63 71 64 72 65 73 66 74
REMARK SMILES IDX 67 75 8 76 9 77 10 78 11 79 12 80 13 81 14 82 15 83 16 84
REMARK SMILES IDX 20 85 17 86 19 87 18 88 21 89 22 91 23 92 31 93 24 94 26 95
REMARK SMILES IDX 25 96 27 97 28 98 29 99 30 100
REMARK H PARENT 91 25 57 36 21 90
REMARK Flexibility Score: inf
ROOT
ATOM      1  C   UNL A   1      32.117  29.067  27.208  1.00  0.00     0.188 C 
ENDROOT
BRANCH   1   2
ATOM      2  O   UNL A   1      33.513  28.960  27.515  1.00  0.00    -0.376 OA
BRANCH   2   3
ATOM      3  C   UNL A   1      34.297  30.051  27.029  1.00  0.00     0.202 C 
BRANCH   3   4
ATOM      4  C   UNL A   1      34.649  31.100  28.090  1.00  0.00     0.261 C 
BRANCH   4   5
ATOM      5  O   UNL A   1      35.415  30.541  29.169  1.00  0.00    -0.460 OA
BRANCH   5   6
ATOM      6  C   UNL A   1      36.535  31.064  29.732  1.00  0.00     0.338 C 
ATOM      7  O   UNL A   1      36.415  31.927  30.599  1.00  0.00    -0.246 OA
BRANCH   6   8
ATOM      8  C   UNL A   1      37.910  30.595  29.392  1.00  0.00     0.060 A 
ATOM      9  C   UNL A   1      38.267  30.000  28.179  1.00  0.00     0.016 A 
ATOM     10  C   UNL A   1      38.926  30.851  30.327  1.00  0.00     0.016 A 
ATOM     11  C   UNL A   1      39.569  29.562  27.946  1.00  0.00     0.010 A 
ATOM     12  C   UNL A   1      40.249  30.477  30.069  1.00  0.00     0.010 A 
ATOM     13  C   UNL A   1      40.573  29.802  28.886  1.00  0.00    -0.014 A 
BRANCH  13  14
ATOM     14  C   UNL A   1      41.951  29.324  28.627  1.00  0.00     0.031 A 
ATOM     15  C   UNL A   1      43.092  30.292  28.697  1.00  0.00     0.074 A 
ATOM     16  C   UNL A   1      42.177  28.022  28.367  1.00  0.00     0.049 A 
ATOM     17  N   UNL A   1      44.357  30.085  28.453  1.00  0.00    -0.248 NA
ATOM     18  C   UNL A   1      42.772  31.668  29.111  1.00  0.00     0.031 C 
ATOM     19  C   UNL A   1      41.146  26.986  28.365  1.00  0.00     0.029 A 
ATOM     20  N   UNL A   1      43.331  27.341  28.065  1.00  0.00    -0.354 N 
ATOM     21  C   UNL A   1      44.982  31.308  28.652  1.00  0.00     0.074 A 
ATOM     22  C   UNL A   1      43.959  32.254  29.040  1.00  0.00     0.031 C 
ATOM     23  C   UNL A   1      41.721  25.809  28.085  1.00  0.00     0.029 A 
ATOM     24  C   UNL A   1      43.131  26.004  27.810  1.00  0.00     0.049 A 
ATOM     25  H   UNL A   1      44.217  27.770  28.034  1.00  0.00     0.167 HD
ATOM     26  C   UNL A   1      46.294  31.604  28.516  1.00  0.00     0.037 A 
ATOM     27  C   UNL A   1      43.966  25.040  27.374  1.00  0.00     0.037 A 
ATOM     28  C   UNL A   1      47.300  30.641  28.156  1.00  0.00     0.049 A 
ATOM     29  C   UNL A   1      45.402  25.420  27.159  1.00  0.00     0.074 A 
ATOM     30  C   UNL A   1      48.663  30.830  28.024  1.00  0.00     0.029 A 
ATOM     31  N   UNL A   1      47.047  29.309  27.861  1.00  0.00    -0.354 N 
ATOM     32  N   UNL A   1      45.984  26.572  27.396  1.00  0.00    -0.248 NA
ATOM     33  C   UNL A   1      46.295  24.391  26.616  1.00  0.00     0.031 C 
ATOM     34  C   UNL A   1      49.229  29.622  27.601  1.00  0.00     0.029 A 
ATOM     35  C   UNL A   1      48.222  28.674  27.500  1.00  0.00     0.049 A 
ATOM     36  H   UNL A   1      46.163  28.879  27.903  1.00  0.00     0.167 HD
ATOM     37  C   UNL A   1      47.316  26.400  27.050  1.00  0.00     0.074 A 
ATOM     38  C   UNL A   1      47.459  25.026  26.612  1.00  0.00     0.031 C 
ATOM     39  C   UNL A   1      48.329  27.300  27.078  1.00  0.00     0.037 A 
BRANCH  26  40
ATOM     40  C   UNL A   1      46.702  33.034  28.705  1.00  0.00     0.058 A 
ATOM     41  C   UNL A   1      47.362  33.475  29.860  1.00  0.00     0.135 A 
ATOM     42  C   UNL A   1      46.440  33.974  27.695  1.00  0.00     0.135 A 
ATOM     43  F   UNL A   1      47.607  32.621  30.867  1.00  0.00    -0.206 F 
ATOM     44  C   UNL A   1      47.747  34.804  30.012  1.00  0.00     0.059 A 
ATOM     45  C   UNL A   1      46.829  35.303  27.818  1.00  0.00     0.059 A 
ATOM     46  F   UNL A   1      45.795  33.602  26.578  1.00  0.00    -0.206 F 
ATOM     47  C   UNL A   1      47.476  35.710  28.984  1.00  0.00     0.060 A 
BRANCH  47  48
ATOM     48  S   UNL A   1      47.992  37.428  29.186  1.00  0.00     0.124 S 
ATOM     49  O   UNL A   1      49.196  37.468  28.363  1.00  0.00    -0.237 OA
ATOM     50  O   UNL A   1      46.843  38.162  28.664  1.00  0.00    -0.237 OA
ATOM     51  O   UNL A   1      48.210  37.551  30.624  1.00  0.00    -0.744 OA
ENDBRANCH  47  48
ENDBRANCH  26  40
BRANCH  27  52
ATOM     52  C   UNL A   1      43.466  23.656  27.098  1.00  0.00     0.058 A 
ATOM     53  C   UNL A   1      43.100  22.789  28.139  1.00  0.00     0.135 A 
ATOM     54  C   UNL A   1      43.328  23.167  25.786  1.00  0.00     0.135 A 
ATOM     55  F   UNL A   1      43.241  23.179  29.414  1.00  0.00    -0.206 F 
ATOM     56  C   UNL A   1      42.612  21.507  27.899  1.00  0.00     0.059 A 
ATOM     57  C   UNL A   1      42.819  21.898  25.517  1.00  0.00     0.059 A 
ATOM     58  F   UNL A   1      43.663  23.939  24.740  1.00  0.00    -0.206 F 
ATOM     59  C   UNL A   1      42.469  21.071  26.583  1.00  0.00     0.060 A 
BRANCH  59  60
ATOM     60  S   UNL A   1      41.805  19.419  26.283  1.00  0.00     0.124 S 
ATOM     61  O   UNL A   1      42.292  18.691  27.448  1.00  0.00    -0.237 OA
ATOM     62  O   UNL A   1      40.366  19.668  26.243  1.00  0.00    -0.237 OA
ATOM     63  O   UNL A   1      42.405  19.043  25.006  1.00  0.00    -0.744 OA
ENDBRANCH  59  60
ENDBRANCH  27  52
BRANCH  39  64
ATOM     64  C   UNL A   1      49.669  26.815  26.619  1.00  0.00     0.058 A 
ATOM     65  C   UNL A   1      50.517  26.112  27.488  1.00  0.00     0.135 A 
ATOM     66  C   UNL A   1      50.091  27.017  25.298  1.00  0.00     0.135 A 
ATOM     67  F   UNL A   1      50.157  25.907  28.765  1.00  0.00    -0.206 F 
ATOM     68  C   UNL A   1      51.752  25.639  27.065  1.00  0.00     0.059 A 
ATOM     69  C   UNL A   1      51.312  26.532  24.846  1.00  0.00     0.059 A 
ATOM     70  F   UNL A   1      49.309  27.678  24.429  1.00  0.00    -0.206 F 
ATOM     71  C   UNL A   1      52.141  25.853  25.741  1.00  0.00     0.060 A 
BRANCH  71  72
ATOM     72  S   UNL A   1      53.727  25.195  25.190  1.00  0.00     0.124 S 
ATOM     73  O   UNL A   1      53.636  25.387  23.746  1.00  0.00    -0.237 OA
ATOM     74  O   UNL A   1      54.683  26.051  25.885  1.00  0.00    -0.237 OA
ATOM     75  O   UNL A   1      53.693  23.808  25.644  1.00  0.00    -0.744 OA
ENDBRANCH  71  72
ENDBRANCH  39  64
ENDBRANCH  13  14
ENDBRANCH   6   8
ENDBRANCH   5   6
ENDBRANCH   4   5
ENDBRANCH   3   4
ENDBRANCH   2   3
ENDBRANCH   1   2
BRANCH   1  76
ATOM     76  C   UNL A   1      31.403  27.755  27.540  1.00  0.00     0.188 C 
BRANCH  76  77
ATOM     77  O   UNL A   1      30.732  27.139  26.438  1.00  0.00    -0.376 OA
BRANCH  77  78
ATOM     78  C   UNL A   1      31.260  25.905  25.961  1.00  0.00     0.202 C 
BRANCH  78  79
ATOM     79  C   UNL A   1      30.317  24.697  25.935  1.00  0.00     0.261 C 
BRANCH  79  80
ATOM     80  O   UNL A   1      30.863  23.477  25.411  1.00  0.00    -0.460 OA
BRANCH  80  81
ATOM     81  C   UNL A   1      31.140  23.528  24.086  1.00  0.00     0.340 C 
ATOM     82  O   UNL A   1      30.354  23.769  23.179  1.00  0.00    -0.246 OA
BRANCH  81  83
ATOM     83  C   UNL A   1      32.542  23.185  23.828  1.00  0.00     0.083 A 
ATOM     84  C   UNL A   1      33.092  22.096  24.521  1.00  0.00     0.018 A 
ATOM     85  C   UNL A   1      33.341  24.079  23.091  1.00  0.00     0.053 A 
ATOM     86  C   UNL A   1      34.472  21.917  24.535  1.00  0.00     0.001 A 
ATOM     87  C   UNL A   1      34.726  23.940  23.224  1.00  0.00     0.027 A 
ATOM     88  C   UNL A   1      35.290  22.863  23.922  1.00  0.00     0.002 A 
BRANCH  85  89
ATOM     89  N   UNL A   1      32.772  25.107  22.317  1.00  0.00    -0.355 N 
ATOM     90  H   UNL A   1      32.441  24.833  21.431  1.00  0.00     0.167 HD
BRANCH  89  91
ATOM     91  C   UNL A   1      32.606  26.466  22.627  1.00  0.00     0.039 A 
ATOM     92  C   UNL A   1      33.630  27.133  23.300  1.00  0.00     0.026 A 
ATOM     93  C   UNL A   1      31.370  27.107  22.465  1.00  0.00     0.039 A 
ATOM     94  C   UNL A   1      33.456  28.442  23.745  1.00  0.00     0.003 A 
ATOM     95  C   UNL A   1      31.174  28.424  22.924  1.00  0.00     0.058 A 
ATOM     96  C   UNL A   1      32.234  29.084  23.561  1.00  0.00     0.013 A 
BRANCH  95  97
ATOM     97  C   UNL A   1      29.826  29.092  22.809  1.00  0.00     0.416 C 
ATOM     98  F   UNL A   1      29.674  30.080  23.737  1.00  0.00    -0.166 F 
ATOM     99  F   UNL A   1      29.620  29.693  21.604  1.00  0.00    -0.166 F 
ATOM    100  F   UNL A   1      28.783  28.243  23.002  1.00  0.00    -0.166 F 
ENDBRANCH  95  97
ENDBRANCH  89  91
ENDBRANCH  85  89
ENDBRANCH  81  83
ENDBRANCH  80  81
ENDBRANCH  79  80
ENDBRANCH  78  79
ENDBRANCH  77  78
ENDBRANCH  76  77
ENDBRANCH   1  76
TORSDOF 23
ENDMDL
MODEL 3
REMARK VINA RESULT:     -10.0      2.668      9.020
REMARK SMILES O=C(OCCOCCOCCOC(=O)c1ccccc1Nc1cccc(C(F)(F)F)c1)c1ccc(-c2c3nc(c(-c4c(F)cc(S(=O)(=O)[O-])cc4F)c4ccc([nH]4)c(-c4c(F)cc(S(=O)(=O)[O-])cc4F)c4nc(c(-c5c(F)cc(S(=O)(=O)[O-])cc5F)c5ccc2[nH]5)C=C4)C=C3)cc1
REMARK SMILES IDX 7 1 6 2 5 3 4 4 3 5 2 6 1 7 32 8 33 9 97 10 34 11 96 12
REMARK SMILES IDX 35 13 36 14 37 15 90 16 38 17 95 18 89 19 91 20 39 21 94 22
REMARK SMILES IDX 88 23 87 24 40 26 74 27 53 28 73 29 54 30 57 31 72 32 92 33
REMARK SMILES IDX 55 34 56 35 71 37 93 38 58 39 41 40 42 41 51 42 43 43 44 44
REMARK SMILES IDX 50 45 52 46 45 47 46 48 47 49 48 50 49 51 75 52 76 53 85 54
REMARK SMILES IDX 77 55 78 56 84 57 86 58 79 59 80 60 81 61 82 62 83 63 59 64
REMARK SMILES IDX 60 65 69 66 61 67 62 68 68 69 70 70 63 71 64 72 65 73 66 74
REMARK SMILES IDX 67 75 8 76 9 77 10 78 11 79 12 80 13 81 14 82 15 83 16 84
REMARK SMILES IDX 20 85 17 86 19 87 18 88 21 89 22 91 23 92 31 93 24 94 26 95
REMARK SMILES IDX 25 96 27 97 28 98 29 99 30 100
REMARK H PARENT 91 25 57 36 21 90
REMARK Flexibility Score: inf
ROOT
ATOM      1  C   UNL A   1      31.401  30.948  26.208  1.00  0.00     0.188 C 
ENDROOT
BRANCH   1   2
ATOM      2  O   UNL A   1      32.340  30.499  27.194  1.00  0.00    -0.376 OA
BRANCH   2   3
ATOM      3  C   UNL A   1      33.706  30.685  26.819  1.00  0.00     0.202 C 
BRANCH   3   4
ATOM      4  C   UNL A   1      34.601  31.230  27.937  1.00  0.00     0.261 C 
BRANCH   4   5
ATOM      5  O   UNL A   1      35.297  30.182  28.632  1.00  0.00    -0.460 OA
BRANCH   5   6
ATOM      6  C   UNL A   1      36.327  30.325  29.504  1.00  0.00     0.338 C 
ATOM      7  O   UNL A   1      36.094  30.747  30.635  1.00  0.00    -0.246 OA
BRANCH   6   8
ATOM      8  C   UNL A   1      37.730  29.934  29.174  1.00  0.00     0.060 A 
ATOM      9  C   UNL A   1      38.219  29.757  27.878  1.00  0.00     0.016 A 
ATOM     10  C   UNL A   1      38.633  29.822  30.243  1.00  0.00     0.016 A 
ATOM     11  C   UNL A   1      39.537  29.364  27.651  1.00  0.00     0.010 A 
ATOM     12  C   UNL A   1      39.975  29.497  30.017  1.00  0.00     0.010 A 
ATOM     13  C   UNL A   1      40.428  29.236  28.717  1.00  0.00    -0.014 A 
BRANCH  13  14
ATOM     14  C   UNL A   1      41.824  28.810  28.462  1.00  0.00     0.031 A 
ATOM     15  C   UNL A   1      42.927  29.821  28.530  1.00  0.00     0.074 A 
ATOM     16  C   UNL A   1      42.099  27.517  28.206  1.00  0.00     0.049 A 
ATOM     17  N   UNL A   1      44.199  29.661  28.288  1.00  0.00    -0.248 NA
ATOM     18  C   UNL A   1      42.554  31.185  28.939  1.00  0.00     0.031 C 
ATOM     19  C   UNL A   1      41.108  26.443  28.206  1.00  0.00     0.029 A 
ATOM     20  N   UNL A   1      43.279  26.880  27.907  1.00  0.00    -0.354 N 
ATOM     21  C   UNL A   1      44.777  30.908  28.484  1.00  0.00     0.074 A 
ATOM     22  C   UNL A   1      43.718  31.815  28.868  1.00  0.00     0.031 C 
ATOM     23  C   UNL A   1      41.728  25.287  27.930  1.00  0.00     0.029 A 
ATOM     24  C   UNL A   1      43.130  25.535  27.656  1.00  0.00     0.049 A 
ATOM     25  H   UNL A   1      44.147  27.341  27.876  1.00  0.00     0.167 HD
ATOM     26  C   UNL A   1      46.077  31.253  28.349  1.00  0.00     0.037 A 
ATOM     27  C   UNL A   1      44.001  24.602  27.224  1.00  0.00     0.037 A 
ATOM     28  C   UNL A   1      47.119  30.328  27.993  1.00  0.00     0.049 A 
ATOM     29  C   UNL A   1      45.422  25.035  27.009  1.00  0.00     0.074 A 
ATOM     30  C   UNL A   1      48.474  30.568  27.861  1.00  0.00     0.029 A 
ATOM     31  N   UNL A   1      46.917  28.986  27.701  1.00  0.00    -0.354 N 
ATOM     32  N   UNL A   1      45.959  26.210  27.243  1.00  0.00    -0.248 NA
ATOM     33  C   UNL A   1      46.354  24.039  26.470  1.00  0.00     0.031 C 
ATOM     34  C   UNL A   1      49.086  29.381  27.442  1.00  0.00     0.029 A 
ATOM     35  C   UNL A   1      48.116  28.395  27.343  1.00  0.00     0.049 A 
ATOM     36  H   UNL A   1      46.050  28.523  27.744  1.00  0.00     0.167 HD
ATOM     37  C   UNL A   1      47.297  26.088  26.899  1.00  0.00     0.074 A 
ATOM     38  C   UNL A   1      47.493  24.718  26.466  1.00  0.00     0.031 C 
ATOM     39  C   UNL A   1      48.275  27.025  26.926  1.00  0.00     0.037 A 
BRANCH  26  40
ATOM     40  C   UNL A   1      46.430  32.698  28.533  1.00  0.00     0.058 A 
ATOM     41  C   UNL A   1      46.787  33.225  29.783  1.00  0.00     0.135 A 
ATOM     42  C   UNL A   1      46.428  33.564  27.428  1.00  0.00     0.135 A 
ATOM     43  F   UNL A   1      46.774  32.443  30.875  1.00  0.00    -0.206 F 
ATOM     44  C   UNL A   1      47.126  34.566  29.933  1.00  0.00     0.059 A 
ATOM     45  C   UNL A   1      46.778  34.904  27.552  1.00  0.00     0.059 A 
ATOM     46  F   UNL A   1      46.076  33.110  26.215  1.00  0.00    -0.206 F 
ATOM     47  C   UNL A   1      47.119  35.398  28.811  1.00  0.00     0.060 A 
BRANCH  47  48
ATOM     48  S   UNL A   1      47.574  37.132  29.015  1.00  0.00     0.124 S 
ATOM     49  O   UNL A   1      49.009  37.029  29.260  1.00  0.00    -0.237 OA
ATOM     50  O   UNL A   1      47.191  37.709  27.730  1.00  0.00    -0.237 OA
ATOM     51  O   UNL A   1      46.771  37.562  30.156  1.00  0.00    -0.744 OA
ENDBRANCH  47  48
ENDBRANCH  26  40
BRANCH  27  52
ATOM     52  C   UNL A   1      43.554  23.200  26.951  1.00  0.00     0.058 A 
ATOM     53  C   UNL A   1      43.456  22.704  25.642  1.00  0.00     0.135 A 
ATOM     54  C   UNL A   1      43.226  22.312  27.992  1.00  0.00     0.135 A 
ATOM     55  F   UNL A   1      43.720  23.509  24.602  1.00  0.00    -0.206 F 
ATOM     56  C   UNL A   1      43.064  21.395  25.371  1.00  0.00     0.059 A 
ATOM     57  C   UNL A   1      42.855  20.990  27.750  1.00  0.00     0.059 A 
ATOM     58  F   UNL A   1      43.292  22.717  29.270  1.00  0.00    -0.206 F 
ATOM     59  C   UNL A   1      42.770  20.543  26.434  1.00  0.00     0.060 A 
BRANCH  59  60
ATOM     60  S   UNL A   1      42.294  18.839  26.072  1.00  0.00     0.124 S 
ATOM     61  O   UNL A   1      43.194  18.509  24.974  1.00  0.00    -0.237 OA
ATOM     62  O   UNL A   1      42.564  18.167  27.341  1.00  0.00    -0.237 OA
ATOM     63  O   UNL A   1      40.882  18.953  25.719  1.00  0.00    -0.744 OA
ENDBRANCH  59  60
ENDBRANCH  27  52
BRANCH  39  64
ATOM     64  C   UNL A   1      49.634  26.590  26.470  1.00  0.00     0.058 A 
ATOM     65  C   UNL A   1      50.082  26.870  25.171  1.00  0.00     0.135 A 
ATOM     66  C   UNL A   1      50.505  25.926  27.345  1.00  0.00     0.135 A 
ATOM     67  F   UNL A   1      49.274  27.493  24.297  1.00  0.00    -0.206 F 
ATOM     68  C   UNL A   1      51.347  26.490  24.746  1.00  0.00     0.059 A 
ATOM     69  C   UNL A   1      51.785  25.557  26.949  1.00  0.00     0.059 A 
ATOM     70  F   UNL A   1      50.121  25.643  28.600  1.00  0.00    -0.206 F 
ATOM     71  C   UNL A   1      52.193  25.835  25.643  1.00  0.00     0.060 A 
BRANCH  71  72
ATOM     72  S   UNL A   1      53.852  25.385  25.096  1.00  0.00     0.124 S 
ATOM     73  O   UNL A   1      53.882  23.958  25.398  1.00  0.00    -0.237 OA
ATOM     74  O   UNL A   1      53.822  25.734  23.679  1.00  0.00    -0.237 OA
ATOM     75  O   UNL A   1      54.718  26.222  25.922  1.00  0.00    -0.744 OA
ENDBRANCH  71  72
ENDBRANCH  39  64
ENDBRANCH  13  14
ENDBRANCH   6   8
ENDBRANCH   5   6
ENDBRANCH   4   5
ENDBRANCH   3   4
ENDBRANCH   2   3
ENDBRANCH   1   2
BRANCH   1  76
ATOM     76  C   UNL A   1      31.406  30.001  25.008  1.00  0.00     0.188 C 
BRANCH  76  77
ATOM     77  O   UNL A   1      30.252  30.088  24.167  1.00  0.00    -0.376 OA
BRANCH  77  78
ATOM     78  C   UNL A   1      29.902  28.929  23.416  1.00  0.00     0.202 C 
BRANCH  78  79
ATOM     79  C   UNL A   1      31.049  28.074  22.865  1.00  0.00     0.261 C 
BRANCH  79  80
ATOM     80  O   UNL A   1      30.803  26.662  22.784  1.00  0.00    -0.460 OA
BRANCH  80  81
ATOM     81  C   UNL A   1      30.504  26.090  23.975  1.00  0.00     0.340 C 
ATOM     82  O   UNL A   1      29.402  25.719  24.356  1.00  0.00    -0.246 OA
BRANCH  81  83
ATOM     83  C   UNL A   1      31.690  26.013  24.833  1.00  0.00     0.083 A 
ATOM     84  C   UNL A   1      31.706  26.781  26.007  1.00  0.00     0.018 A 
ATOM     85  C   UNL A   1      32.845  25.370  24.349  1.00  0.00     0.053 A 
ATOM     86  C   UNL A   1      32.903  26.968  26.690  1.00  0.00     0.001 A 
ATOM     87  C   UNL A   1      34.050  25.675  24.990  1.00  0.00     0.027 A 
ATOM     88  C   UNL A   1      34.081  26.450  26.157  1.00  0.00     0.002 A 
BRANCH  85  89
ATOM     89  N   UNL A   1      32.798  24.519  23.229  1.00  0.00    -0.355 N 
ATOM     90  H   UNL A   1      32.753  24.974  22.356  1.00  0.00     0.167 HD
BRANCH  89  91
ATOM     91  C   UNL A   1      32.806  23.117  23.176  1.00  0.00     0.039 A 
ATOM     92  C   UNL A   1      31.979  22.473  22.255  1.00  0.00     0.026 A 
ATOM     93  C   UNL A   1      33.459  22.352  24.153  1.00  0.00     0.039 A 
ATOM     94  C   UNL A   1      31.853  21.085  22.257  1.00  0.00     0.003 A 
ATOM     95  C   UNL A   1      33.329  20.950  24.178  1.00  0.00     0.058 A 
ATOM     96  C   UNL A   1      32.523  20.327  23.215  1.00  0.00     0.013 A 
BRANCH  95  97
ATOM     97  C   UNL A   1      33.978  20.132  25.267  1.00  0.00     0.416 C 
ATOM     98  F   UNL A   1      34.818  19.188  24.752  1.00  0.00    -0.166 F 
ATOM     99  F   UNL A   1      34.743  20.871  26.118  1.00  0.00    -0.166 F 
ATOM    100  F   UNL A   1      33.088  19.452  26.036  1.00  0.00    -0.166 F 
ENDBRANCH  95  97
ENDBRANCH  89  91
ENDBRANCH  85  89
ENDBRANCH  81  83
ENDBRANCH  80  81
ENDBRANCH  79  80
ENDBRANCH  78  79
ENDBRANCH  77  78
ENDBRANCH  76  77
ENDBRANCH   1  76
TORSDOF 23
ENDMDL
