MODEL 1
REMARK VINA RESULT:      -9.1      0.000      0.000
REMARK SMILES O=C(CSc1ccc(Br)cn1)OCCOCCOCCOC(=O)c1ccc(-c2c3nc(c(-c4c(F)cc(S(=O)(=O)[O-])cc4F)c4ccc([nH]4)c(-c4c(F)cc(S(=O)(=O)[O-])cc4F)c4nc(c(-c5c(F)cc(S(=O)(=O)[O-])cc5F)c5ccc2[nH]5)C=C4)C=C3)cc1
REMARK SMILES IDX 17 1 16 2 15 3 14 4 13 5 12 6 2 7 1 8 3 9 4 10 5 11 6 12
REMARK SMILES IDX 11 13 7 14 10 15 8 16 9 17 18 18 19 19 20 20 21 21 22 22
REMARK SMILES IDX 23 23 24 24 25 25 89 26 26 27 88 28 27 29 28 30 29 31 82 32
REMARK SMILES IDX 30 33 87 34 81 35 83 36 31 37 86 38 80 39 79 40 32 42 66 43
REMARK SMILES IDX 45 44 65 45 46 46 49 47 64 48 84 49 47 50 48 51 63 53 85 54
REMARK SMILES IDX 50 55 33 56 34 57 43 58 35 59 36 60 42 61 44 62 37 63 38 64
REMARK SMILES IDX 39 65 40 66 41 67 67 68 68 69 77 70 69 71 70 72 76 73 78 74
REMARK SMILES IDX 71 75 72 76 73 77 74 78 75 79 51 80 52 81 61 82 53 83 54 84
REMARK SMILES IDX 60 85 62 86 55 87 56 88 57 89 58 90 59 91
REMARK H PARENT 83 41 49 52
REMARK Flexibility Score: inf
ROOT
ATOM      1  C   UNL A   1      31.685  30.473  25.750  1.00  0.00     0.188 C 
ENDROOT
BRANCH   1   2
ATOM      2  C   UNL A   1      31.750  28.936  25.778  1.00  0.00     0.188 C 
BRANCH   2   3
ATOM      3  O   UNL A   1      33.042  28.457  26.107  1.00  0.00    -0.376 OA
BRANCH   3   4
ATOM      4  C   UNL A   1      33.259  27.059  26.060  1.00  0.00     0.202 C 
BRANCH   4   5
ATOM      5  C   UNL A   1      33.854  26.620  24.724  1.00  0.00     0.261 C 
BRANCH   5   6
ATOM      6  O   UNL A   1      33.199  27.104  23.528  1.00  0.00    -0.463 OA
BRANCH   6   7
ATOM      7  C   UNL A   1      32.804  26.416  22.435  1.00  0.00     0.316 C 
ATOM      8  O   UNL A   1      33.658  25.998  21.650  1.00  0.00    -0.251 OA
BRANCH   7   9
ATOM      9  C   UNL A   1      31.337  26.272  22.110  1.00  0.00     0.199 C 
BRANCH   9  10
ATOM     10  S   UNL A   1      30.248  26.635  23.509  1.00  0.00    -0.095 SA
BRANCH  10  11
ATOM     11  C   UNL A   1      29.503  28.066  22.770  1.00  0.00     0.097 A 
ATOM     12  C   UNL A   1      28.195  28.406  23.093  1.00  0.00     0.037 A 
ATOM     13  N   UNL A   1      30.342  28.878  22.091  1.00  0.00    -0.249 NA
ATOM     14  C   UNL A   1      27.731  29.669  22.739  1.00  0.00     0.020 A 
ATOM     15  C   UNL A   1      29.866  30.103  21.766  1.00  0.00     0.128 A 
ATOM     16  C   UNL A   1      28.587  30.540  22.076  1.00  0.00     0.036 A 
ATOM     17  Br  UNL A   1      28.030  32.283  21.633  1.00  0.00    -0.049 Br
ENDBRANCH  10  11
ENDBRANCH   9  10
ENDBRANCH   7   9
ENDBRANCH   6   7
ENDBRANCH   5   6
ENDBRANCH   4   5
ENDBRANCH   3   4
ENDBRANCH   2   3
ENDBRANCH   1   2
BRANCH   1  18
ATOM     18  O   UNL A   1      31.544  31.176  26.978  1.00  0.00    -0.376 OA
BRANCH  18  19
ATOM     19  C   UNL A   1      32.161  32.453  27.109  1.00  0.00     0.202 C 
BRANCH  19  20
ATOM     20  C   UNL A   1      33.587  32.508  27.667  1.00  0.00     0.261 C 
BRANCH  20  21
ATOM     21  O   UNL A   1      34.073  31.259  28.200  1.00  0.00    -0.460 OA
BRANCH  21  22
ATOM     22  C   UNL A   1      34.852  31.381  29.305  1.00  0.00     0.338 C 
ATOM     23  O   UNL A   1      34.583  31.978  30.333  1.00  0.00    -0.246 OA
BRANCH  22  24
ATOM     24  C   UNL A   1      36.086  30.585  29.175  1.00  0.00     0.060 A 
ATOM     25  C   UNL A   1      36.635  30.012  30.330  1.00  0.00     0.016 A 
ATOM     26  C   UNL A   1      36.793  30.564  27.972  1.00  0.00     0.016 A 
ATOM     27  C   UNL A   1      37.916  29.456  30.295  1.00  0.00     0.010 A 
ATOM     28  C   UNL A   1      38.082  30.017  27.942  1.00  0.00     0.010 A 
ATOM     29  C   UNL A   1      38.666  29.496  29.111  1.00  0.00    -0.014 A 
BRANCH  29  30
ATOM     30  C   UNL A   1      40.111  29.151  29.132  1.00  0.00     0.031 A 
ATOM     31  C   UNL A   1      41.114  30.217  29.488  1.00  0.00     0.074 A 
ATOM     32  C   UNL A   1      40.534  27.907  28.840  1.00  0.00     0.049 A 
ATOM     33  N   UNL A   1      42.421  30.155  29.504  1.00  0.00    -0.248 NA
ATOM     34  C   UNL A   1      40.569  31.527  29.880  1.00  0.00     0.031 C 
ATOM     35  C   UNL A   1      39.668  26.775  28.516  1.00  0.00     0.029 A 
ATOM     36  N   UNL A   1      41.805  27.395  28.755  1.00  0.00    -0.354 N 
ATOM     37  C   UNL A   1      42.856  31.415  29.899  1.00  0.00     0.074 A 
ATOM     38  C   UNL A   1      41.674  32.227  30.092  1.00  0.00     0.031 C 
ATOM     39  C   UNL A   1      40.436  25.704  28.248  1.00  0.00     0.029 A 
ATOM     40  C   UNL A   1      41.845  26.082  28.352  1.00  0.00     0.049 A 
ATOM     41  H   UNL A   1      42.612  27.919  28.964  1.00  0.00     0.167 HD
ATOM     42  C   UNL A   1      44.123  31.855  30.089  1.00  0.00     0.037 A 
ATOM     43  C   UNL A   1      42.897  25.284  28.076  1.00  0.00     0.037 A 
ATOM     44  C   UNL A   1      45.302  31.052  29.895  1.00  0.00     0.049 A 
ATOM     45  C   UNL A   1      44.300  25.814  28.230  1.00  0.00     0.074 A 
ATOM     46  C   UNL A   1      46.627  31.410  30.077  1.00  0.00     0.029 A 
ATOM     47  N   UNL A   1      45.300  29.733  29.469  1.00  0.00    -0.354 N 
ATOM     48  N   UNL A   1      44.694  27.002  28.622  1.00  0.00    -0.248 NA
ATOM     49  C   UNL A   1      45.400  24.893  27.905  1.00  0.00     0.031 C 
ATOM     50  C   UNL A   1      47.429  30.318  29.721  1.00  0.00     0.029 A 
ATOM     51  C   UNL A   1      46.601  29.268  29.362  1.00  0.00     0.049 A 
ATOM     52  H   UNL A   1      44.493  29.203  29.273  1.00  0.00     0.167 HD
ATOM     53  C   UNL A   1      46.086  26.962  28.617  1.00  0.00     0.074 A 
ATOM     54  C   UNL A   1      46.465  25.632  28.188  1.00  0.00     0.031 C 
ATOM     55  C   UNL A   1      46.968  27.938  28.945  1.00  0.00     0.037 A 
BRANCH  42  56
ATOM     56  C   UNL A   1      44.303  33.287  30.508  1.00  0.00     0.058 A 
ATOM     57  C   UNL A   1      44.404  34.324  29.567  1.00  0.00     0.135 A 
ATOM     58  C   UNL A   1      44.345  33.630  31.869  1.00  0.00     0.135 A 
ATOM     59  F   UNL A   1      44.386  34.048  28.253  1.00  0.00    -0.206 F 
ATOM     60  C   UNL A   1      44.566  35.648  29.960  1.00  0.00     0.059 A 
ATOM     61  C   UNL A   1      44.483  34.951  32.285  1.00  0.00     0.059 A 
ATOM     62  F   UNL A   1      44.254  32.676  32.809  1.00  0.00    -0.206 F 
ATOM     63  C   UNL A   1      44.607  35.951  31.323  1.00  0.00     0.060 A 
BRANCH  63  64
ATOM     64  S   UNL A   1      44.819  37.674  31.819  1.00  0.00     0.124 S 
ATOM     65  O   UNL A   1      43.717  37.841  32.761  1.00  0.00    -0.237 OA
ATOM     66  O   UNL A   1      46.156  37.671  32.403  1.00  0.00    -0.237 OA
ATOM     67  O   UNL A   1      44.688  38.407  30.563  1.00  0.00    -0.744 OA
ENDBRANCH  63  64
ENDBRANCH  42  56
BRANCH  43  68
ATOM     68  C   UNL A   1      42.665  23.892  27.607  1.00  0.00     0.058 A 
ATOM     69  C   UNL A   1      42.626  22.821  28.511  1.00  0.00     0.135 A 
ATOM     70  C   UNL A   1      42.481  23.609  26.245  1.00  0.00     0.135 A 
ATOM     71  F   UNL A   1      42.811  23.042  29.822  1.00  0.00    -0.206 F 
ATOM     72  C   UNL A   1      42.418  21.514  28.081  1.00  0.00     0.059 A 
ATOM     73  C   UNL A   1      42.249  22.314  25.794  1.00  0.00     0.059 A 
ATOM     74  F   UNL A   1      42.501  24.601  25.342  1.00  0.00    -0.206 F 
ATOM     75  C   UNL A   1      42.225  21.272  26.720  1.00  0.00     0.060 A 
BRANCH  75  76
ATOM     76  S   UNL A   1      41.883  19.583  26.180  1.00  0.00     0.124 S 
ATOM     77  O   UNL A   1      40.447  19.637  25.936  1.00  0.00    -0.237 OA
ATOM     78  O   UNL A   1      42.729  19.464  24.996  1.00  0.00    -0.237 OA
ATOM     79  O   UNL A   1      42.304  18.777  27.322  1.00  0.00    -0.744 OA
ENDBRANCH  75  76
ENDBRANCH  43  68
BRANCH  55  80
ATOM     80  C   UNL A   1      48.434  27.602  28.891  1.00  0.00     0.058 A 
ATOM     81  C   UNL A   1      49.175  27.714  27.706  1.00  0.00     0.135 A 
ATOM     82  C   UNL A   1      49.117  27.223  30.059  1.00  0.00     0.135 A 
ATOM     83  F   UNL A   1      48.570  28.068  26.561  1.00  0.00    -0.206 F 
ATOM     84  C   UNL A   1      50.541  27.446  27.675  1.00  0.00     0.059 A 
ATOM     85  C   UNL A   1      50.486  26.971  30.056  1.00  0.00     0.059 A 
ATOM     86  F   UNL A   1      48.456  27.110  31.222  1.00  0.00    -0.206 F 
ATOM     87  C   UNL A   1      51.188  27.077  28.855  1.00  0.00     0.060 A 
BRANCH  87  88
ATOM     88  S   UNL A   1      52.967  26.768  28.812  1.00  0.00     0.124 S 
ATOM     89  O   UNL A   1      53.119  26.100  27.525  1.00  0.00    -0.237 OA
ATOM     90  O   UNL A   1      53.522  28.116  28.897  1.00  0.00    -0.237 OA
ATOM     91  O   UNL A   1      53.195  25.930  29.985  1.00  0.00    -0.744 OA
ENDBRANCH  87  88
ENDBRANCH  55  80
ENDBRANCH  29  30
ENDBRANCH  22  24
ENDBRANCH  21  22
ENDBRANCH  20  21
ENDBRANCH  19  20
ENDBRANCH  18  19
ENDBRANCH   1  18
TORSDOF 22
ENDMDL
MODEL 2
REMARK VINA RESULT:      -9.0      3.117      9.381
REMARK SMILES O=C(CSc1ccc(Br)cn1)OCCOCCOCCOC(=O)c1ccc(-c2c3nc(c(-c4c(F)cc(S(=O)(=O)[O-])cc4F)c4ccc([nH]4)c(-c4c(F)cc(S(=O)(=O)[O-])cc4F)c4nc(c(-c5c(F)cc(S(=O)(=O)[O-])cc5F)c5ccc2[nH]5)C=C4)C=C3)cc1
REMARK SMILES IDX 17 1 16 2 15 3 14 4 13 5 12 6 2 7 1 8 3 9 4 10 5 11 6 12
REMARK SMILES IDX 11 13 7 14 10 15 8 16 9 17 18 18 19 19 20 20 21 21 22 22
REMARK SMILES IDX 23 23 24 24 25 25 89 26 26 27 88 28 27 29 28 30 29 31 82 32
REMARK SMILES IDX 30 33 87 34 81 35 83 36 31 37 86 38 80 39 79 40 32 42 66 43
REMARK SMILES IDX 45 44 65 45 46 46 49 47 64 48 84 49 47 50 48 51 63 53 85 54
REMARK SMILES IDX 50 55 33 56 34 57 43 58 35 59 36 60 42 61 44 62 37 63 38 64
REMARK SMILES IDX 39 65 40 66 41 67 67 68 68 69 77 70 69 71 70 72 76 73 78 74
REMARK SMILES IDX 71 75 72 76 73 77 74 78 75 79 51 80 52 81 61 82 53 83 54 84
REMARK SMILES IDX 60 85 62 86 55 87 56 88 57 89 58 90 59 91
REMARK H PARENT 83 41 49 52
REMARK Flexibility Score: inf
ROOT
ATOM      1  C   UNL A   1      35.119  20.599  24.984  1.00  0.00     0.188 C 
ENDROOT
BRANCH   1   2
ATOM      2  C   UNL A   1      33.639  20.218  24.802  1.00  0.00     0.188 C 
BRANCH   2   3
ATOM      3  O   UNL A   1      33.068  20.809  23.648  1.00  0.00    -0.376 OA
BRANCH   3   4
ATOM      4  C   UNL A   1      32.135  21.857  23.836  1.00  0.00     0.202 C 
BRANCH   4   5
ATOM      5  C   UNL A   1      31.747  22.017  25.305  1.00  0.00     0.261 C 
BRANCH   5   6
ATOM      6  O   UNL A   1      32.252  23.188  25.989  1.00  0.00    -0.463 OA
BRANCH   6   7
ATOM      7  C   UNL A   1      31.570  24.152  26.644  1.00  0.00     0.316 C 
ATOM      8  O   UNL A   1      30.483  23.875  27.154  1.00  0.00    -0.251 OA
BRANCH   7   9
ATOM      9  C   UNL A   1      32.068  25.577  26.641  1.00  0.00     0.199 C 
BRANCH   9  10
ATOM     10  S   UNL A   1      31.754  26.449  25.088  1.00  0.00    -0.095 SA
BRANCH  10  11
ATOM     11  C   UNL A   1      32.491  27.979  25.606  1.00  0.00     0.097 A 
ATOM     12  C   UNL A   1      31.707  29.122  25.703  1.00  0.00     0.037 A 
ATOM     13  N   UNL A   1      33.748  27.887  26.092  1.00  0.00    -0.249 NA
ATOM     14  C   UNL A   1      32.224  30.224  26.377  1.00  0.00     0.020 A 
ATOM     15  C   UNL A   1      34.221  28.972  26.749  1.00  0.00     0.128 A 
ATOM     16  C   UNL A   1      33.500  30.143  26.923  1.00  0.00     0.036 A 
ATOM     17  Br  UNL A   1      34.219  31.583  27.901  1.00  0.00    -0.049 Br
ENDBRANCH  10  11
ENDBRANCH   9  10
ENDBRANCH   7   9
ENDBRANCH   6   7
ENDBRANCH   5   6
ENDBRANCH   4   5
ENDBRANCH   3   4
ENDBRANCH   2   3
ENDBRANCH   1   2
BRANCH   1  18
ATOM     18  O   UNL A   1      36.105  19.576  24.909  1.00  0.00    -0.376 OA
BRANCH  18  19
ATOM     19  C   UNL A   1      37.474  19.955  24.807  1.00  0.00     0.202 C 
BRANCH  19  20
ATOM     20  C   UNL A   1      37.814  21.447  24.873  1.00  0.00     0.261 C 
BRANCH  20  21
ATOM     21  O   UNL A   1      38.158  21.928  26.189  1.00  0.00    -0.460 OA
BRANCH  21  22
ATOM     22  C   UNL A   1      39.484  22.142  26.384  1.00  0.00     0.338 C 
ATOM     23  O   UNL A   1      40.407  21.448  25.994  1.00  0.00    -0.246 OA
BRANCH  22  24
ATOM     24  C   UNL A   1      39.720  23.428  27.065  1.00  0.00     0.060 A 
ATOM     25  C   UNL A   1      39.156  24.587  26.515  1.00  0.00     0.016 A 
ATOM     26  C   UNL A   1      40.637  23.518  28.113  1.00  0.00     0.016 A 
ATOM     27  C   UNL A   1      39.543  25.845  26.984  1.00  0.00     0.010 A 
ATOM     28  C   UNL A   1      41.033  24.780  28.572  1.00  0.00     0.010 A 
ATOM     29  C   UNL A   1      40.519  25.950  27.984  1.00  0.00    -0.014 A 
BRANCH  29  30
ATOM     30  C   UNL A   1      41.123  27.270  28.300  1.00  0.00     0.031 A 
ATOM     31  C   UNL A   1      42.609  27.455  28.132  1.00  0.00     0.074 A 
ATOM     32  C   UNL A   1      40.368  28.297  28.730  1.00  0.00     0.049 A 
ATOM     33  N   UNL A   1      43.353  28.494  28.410  1.00  0.00    -0.248 NA
ATOM     34  C   UNL A   1      43.354  26.314  27.575  1.00  0.00     0.031 C 
ATOM     35  C   UNL A   1      38.917  28.265  28.900  1.00  0.00     0.029 A 
ATOM     36  N   UNL A   1      40.725  29.566  29.117  1.00  0.00    -0.354 N 
ATOM     37  C   UNL A   1      44.652  28.133  28.070  1.00  0.00     0.074 A 
ATOM     38  C   UNL A   1      44.597  26.771  27.586  1.00  0.00     0.031 C 
ATOM     39  C   UNL A   1      38.509  29.455  29.377  1.00  0.00     0.029 A 
ATOM     40  C   UNL A   1      39.671  30.320  29.573  1.00  0.00     0.049 A 
ATOM     41  H   UNL A   1      41.649  29.902  29.071  1.00  0.00     0.167 HD
ATOM     42  C   UNL A   1      45.787  28.870  28.149  1.00  0.00     0.037 A 
ATOM     43  C   UNL A   1      39.649  31.558  30.110  1.00  0.00     0.037 A 
ATOM     44  C   UNL A   1      45.846  30.225  28.634  1.00  0.00     0.049 A 
ATOM     45  C   UNL A   1      40.933  32.336  30.250  1.00  0.00     0.074 A 
ATOM     46  C   UNL A   1      46.950  31.054  28.736  1.00  0.00     0.029 A 
ATOM     47  N   UNL A   1      44.760  30.947  29.102  1.00  0.00    -0.354 N 
ATOM     48  N   UNL A   1      42.150  31.987  29.906  1.00  0.00    -0.248 NA
ATOM     49  C   UNL A   1      40.838  33.676  30.849  1.00  0.00     0.031 C 
ATOM     50  C   UNL A   1      46.537  32.264  29.307  1.00  0.00     0.029 A 
ATOM     51  C   UNL A   1      45.170  32.204  29.516  1.00  0.00     0.049 A 
ATOM     52  H   UNL A   1      43.833  30.615  29.136  1.00  0.00     0.167 HD
ATOM     53  C   UNL A   1      42.961  33.075  30.222  1.00  0.00     0.074 A 
ATOM     54  C   UNL A   1      42.095  34.093  30.780  1.00  0.00     0.031 C 
ATOM     55  C   UNL A   1      44.299  33.216  30.059  1.00  0.00     0.037 A 
BRANCH  42  56
ATOM     56  C   UNL A   1      47.069  28.214  27.721  1.00  0.00     0.058 A 
ATOM     57  C   UNL A   1      47.802  27.391  28.591  1.00  0.00     0.135 A 
ATOM     58  C   UNL A   1      47.555  28.386  26.415  1.00  0.00     0.135 A 
ATOM     59  F   UNL A   1      47.390  27.207  29.855  1.00  0.00    -0.206 F 
ATOM     60  C   UNL A   1      48.986  26.782  28.189  1.00  0.00     0.059 A 
ATOM     61  C   UNL A   1      48.725  27.768  25.984  1.00  0.00     0.059 A 
ATOM     62  F   UNL A   1      46.893  29.164  25.545  1.00  0.00    -0.206 F 
ATOM     63  C   UNL A   1      49.442  26.980  26.883  1.00  0.00     0.060 A 
BRANCH  63  64
ATOM     64  S   UNL A   1      50.981  26.185  26.375  1.00  0.00     0.124 S 
ATOM     65  O   UNL A   1      50.908  24.922  27.103  1.00  0.00    -0.237 OA
ATOM     66  O   UNL A   1      50.823  26.091  24.927  1.00  0.00    -0.237 OA
ATOM     67  O   UNL A   1      52.010  27.115  26.832  1.00  0.00    -0.744 OA
ENDBRANCH  63  64
ENDBRANCH  42  56
BRANCH  43  68
ATOM     68  C   UNL A   1      38.362  32.140  30.573  1.00  0.00     0.058 A 
ATOM     69  C   UNL A   1      37.834  31.820  31.832  1.00  0.00     0.135 A 
ATOM     70  C   UNL A   1      37.635  33.025  29.762  1.00  0.00     0.135 A 
ATOM     71  F   UNL A   1      38.487  30.966  32.635  1.00  0.00    -0.206 F 
ATOM     72  C   UNL A   1      36.626  32.352  32.270  1.00  0.00     0.059 A 
ATOM     73  C   UNL A   1      36.437  33.588  30.188  1.00  0.00     0.059 A 
ATOM     74  F   UNL A   1      38.103  33.369  28.553  1.00  0.00    -0.206 F 
ATOM     75  C   UNL A   1      35.937  33.241  31.442  1.00  0.00     0.060 A 
BRANCH  75  76
ATOM     76  S   UNL A   1      34.407  33.984  32.049  1.00  0.00     0.124 S 
ATOM     77  O   UNL A   1      34.916  35.079  32.866  1.00  0.00    -0.237 OA
ATOM     78  O   UNL A   1      33.740  34.366  30.808  1.00  0.00    -0.237 OA
ATOM     79  O   UNL A   1      33.773  32.889  32.779  1.00  0.00    -0.744 OA
ENDBRANCH  75  76
ENDBRANCH  43  68
BRANCH  55  80
ATOM     80  C   UNL A   1      44.916  34.531  30.452  1.00  0.00     0.058 A 
ATOM     81  C   UNL A   1      45.000  35.605  29.553  1.00  0.00     0.135 A 
ATOM     82  C   UNL A   1      45.372  34.737  31.764  1.00  0.00     0.135 A 
ATOM     83  F   UNL A   1      44.584  35.460  28.285  1.00  0.00    -0.206 F 
ATOM     84  C   UNL A   1      45.531  36.834  29.937  1.00  0.00     0.059 A 
ATOM     85  C   UNL A   1      45.886  35.963  32.176  1.00  0.00     0.059 A 
ATOM     86  F   UNL A   1      45.305  33.744  32.666  1.00  0.00    -0.206 F 
ATOM     87  C   UNL A   1      45.969  37.003  31.251  1.00  0.00     0.060 A 
BRANCH  87  88
ATOM     88  S   UNL A   1      46.620  38.612  31.750  1.00  0.00     0.124 S 
ATOM     89  O   UNL A   1      46.173  39.463  30.653  1.00  0.00    -0.237 OA
ATOM     90  O   UNL A   1      45.961  38.834  33.034  1.00  0.00    -0.237 OA
ATOM     91  O   UNL A   1      48.061  38.388  31.824  1.00  0.00    -0.744 OA
ENDBRANCH  87  88
ENDBRANCH  55  80
ENDBRANCH  29  30
ENDBRANCH  22  24
ENDBRANCH  21  22
ENDBRANCH  20  21
ENDBRANCH  19  20
ENDBRANCH  18  19
ENDBRANCH   1  18
TORSDOF 22
ENDMDL
MODEL 3
REMARK VINA RESULT:      -8.9      2.139      8.618
REMARK SMILES O=C(CSc1ccc(Br)cn1)OCCOCCOCCOC(=O)c1ccc(-c2c3nc(c(-c4c(F)cc(S(=O)(=O)[O-])cc4F)c4ccc([nH]4)c(-c4c(F)cc(S(=O)(=O)[O-])cc4F)c4nc(c(-c5c(F)cc(S(=O)(=O)[O-])cc5F)c5ccc2[nH]5)C=C4)C=C3)cc1
REMARK SMILES IDX 17 1 16 2 15 3 14 4 13 5 12 6 2 7 1 8 3 9 4 10 5 11 6 12
REMARK SMILES IDX 11 13 7 14 10 15 8 16 9 17 18 18 19 19 20 20 21 21 22 22
REMARK SMILES IDX 23 23 24 24 25 25 89 26 26 27 88 28 27 29 28 30 29 31 82 32
REMARK SMILES IDX 30 33 87 34 81 35 83 36 31 37 86 38 80 39 79 40 32 42 66 43
REMARK SMILES IDX 45 44 65 45 46 46 49 47 64 48 84 49 47 50 48 51 63 53 85 54
REMARK SMILES IDX 50 55 33 56 34 57 43 58 35 59 36 60 42 61 44 62 37 63 38 64
REMARK SMILES IDX 39 65 40 66 41 67 67 68 68 69 77 70 69 71 70 72 76 73 78 74
REMARK SMILES IDX 71 75 72 76 73 77 74 78 75 79 51 80 52 81 61 82 53 83 54 84
REMARK SMILES IDX 60 85 62 86 55 87 56 88 57 89 58 90 59 91
REMARK H PARENT 83 41 49 52
REMARK Flexibility Score: inf
ROOT
ATOM      1  C   UNL A   1      32.594  30.601  26.817  1.00  0.00     0.188 C 
ENDROOT
BRANCH   1   2
ATOM      2  C   UNL A   1      33.133  29.631  25.750  1.00  0.00     0.188 C 
BRANCH   2   3
ATOM      3  O   UNL A   1      32.559  28.341  25.855  1.00  0.00    -0.376 OA
BRANCH   3   4
ATOM      4  C   UNL A   1      33.435  27.237  25.985  1.00  0.00     0.202 C 
BRANCH   4   5
ATOM      5  C   UNL A   1      33.733  26.585  24.635  1.00  0.00     0.261 C 
BRANCH   5   6
ATOM      6  O   UNL A   1      32.838  25.531  24.209  1.00  0.00    -0.463 OA
BRANCH   6   7
ATOM      7  C   UNL A   1      32.234  25.359  23.013  1.00  0.00     0.316 C 
ATOM      8  O   UNL A   1      32.598  24.432  22.287  1.00  0.00    -0.251 OA
BRANCH   7   9
ATOM      9  C   UNL A   1      31.219  26.360  22.517  1.00  0.00     0.199 C 
BRANCH   9  10
ATOM     10  S   UNL A   1      29.993  26.825  23.763  1.00  0.00    -0.095 SA
BRANCH  10  11
ATOM     11  C   UNL A   1      29.322  28.182  22.837  1.00  0.00     0.097 A 
ATOM     12  C   UNL A   1      28.013  28.590  23.064  1.00  0.00     0.037 A 
ATOM     13  N   UNL A   1      30.212  28.888  22.107  1.00  0.00    -0.249 NA
ATOM     14  C   UNL A   1      27.604  29.817  22.550  1.00  0.00     0.020 A 
ATOM     15  C   UNL A   1      29.787  30.080  21.626  1.00  0.00     0.128 A 
ATOM     16  C   UNL A   1      28.511  30.583  21.829  1.00  0.00     0.036 A 
ATOM     17  Br  UNL A   1      28.027  32.279  21.169  1.00  0.00    -0.049 Br
ENDBRANCH  10  11
ENDBRANCH   9  10
ENDBRANCH   7   9
ENDBRANCH   6   7
ENDBRANCH   5   6
ENDBRANCH   4   5
ENDBRANCH   3   4
ENDBRANCH   2   3
ENDBRANCH   1   2
BRANCH   1  18
ATOM     18  O   UNL A   1      33.519  31.300  27.640  1.00  0.00    -0.376 OA
BRANCH  18  19
ATOM     19  C   UNL A   1      34.895  30.936  27.583  1.00  0.00     0.202 C 
BRANCH  19  20
ATOM     20  C   UNL A   1      35.447  30.038  28.696  1.00  0.00     0.261 C 
BRANCH  20  21
ATOM     21  O   UNL A   1      36.049  30.748  29.797  1.00  0.00    -0.460 OA
BRANCH  21  22
ATOM     22  C   UNL A   1      36.872  29.996  30.572  1.00  0.00     0.338 C 
ATOM     23  O   UNL A   1      36.547  29.231  31.464  1.00  0.00    -0.246 OA
BRANCH  22  24
ATOM     24  C   UNL A   1      38.274  30.119  30.133  1.00  0.00     0.060 A 
ATOM     25  C   UNL A   1      38.544  30.140  28.758  1.00  0.00     0.016 A 
ATOM     26  C   UNL A   1      39.317  30.021  31.056  1.00  0.00     0.016 A 
ATOM     27  C   UNL A   1      39.858  30.018  28.301  1.00  0.00     0.010 A 
ATOM     28  C   UNL A   1      40.632  29.886  30.594  1.00  0.00     0.010 A 
ATOM     29  C   UNL A   1      40.906  29.844  29.215  1.00  0.00    -0.014 A 
BRANCH  29  30
ATOM     30  C   UNL A   1      42.257  29.452  28.735  1.00  0.00     0.031 A 
ATOM     31  C   UNL A   1      42.505  28.021  28.336  1.00  0.00     0.074 A 
ATOM     32  C   UNL A   1      43.254  30.351  28.651  1.00  0.00     0.049 A 
ATOM     33  N   UNL A   1      43.617  27.447  27.955  1.00  0.00    -0.248 NA
ATOM     34  C   UNL A   1      41.343  27.117  28.373  1.00  0.00     0.031 C 
ATOM     35  C   UNL A   1      43.138  31.773  28.969  1.00  0.00     0.029 A 
ATOM     36  N   UNL A   1      44.568  30.193  28.285  1.00  0.00    -0.354 N 
ATOM     37  C   UNL A   1      43.294  26.116  27.712  1.00  0.00     0.074 A 
ATOM     38  C   UNL A   1      41.886  25.964  28.011  1.00  0.00     0.031 C 
ATOM     39  C   UNL A   1      44.340  32.354  28.803  1.00  0.00     0.029 A 
ATOM     40  C   UNL A   1      45.314  31.342  28.396  1.00  0.00     0.049 A 
ATOM     41  H   UNL A   1      44.940  29.337  27.972  1.00  0.00     0.167 HD
ATOM     42  C   UNL A   1      44.094  25.113  27.275  1.00  0.00     0.037 A 
ATOM     43  C   UNL A   1      46.634  31.548  28.215  1.00  0.00     0.037 A 
ATOM     44  C   UNL A   1      45.496  25.260  26.980  1.00  0.00     0.049 A 
ATOM     45  C   UNL A   1      47.520  30.403  27.792  1.00  0.00     0.074 A 
ATOM     46  C   UNL A   1      46.383  24.302  26.519  1.00  0.00     0.029 A 
ATOM     47  N   UNL A   1      46.217  26.435  27.122  1.00  0.00    -0.354 N 
ATOM     48  N   UNL A   1      47.195  29.156  27.549  1.00  0.00    -0.248 NA
ATOM     49  C   UNL A   1      48.951  30.696  27.619  1.00  0.00     0.031 C 
ATOM     50  C   UNL A   1      47.650  24.889  26.422  1.00  0.00     0.029 A 
ATOM     51  C   UNL A   1      47.542  26.222  26.779  1.00  0.00     0.049 A 
ATOM     52  H   UNL A   1      45.842  27.295  27.423  1.00  0.00     0.167 HD
ATOM     53  C   UNL A   1      48.375  28.523  27.168  1.00  0.00     0.074 A 
ATOM     54  C   UNL A   1      49.420  29.525  27.208  1.00  0.00     0.031 C 
ATOM     55  C   UNL A   1      48.572  27.230  26.812  1.00  0.00     0.037 A 
BRANCH  42  56
ATOM     56  C   UNL A   1      43.474  23.754  27.113  1.00  0.00     0.058 A 
ATOM     57  C   UNL A   1      43.133  23.246  25.849  1.00  0.00     0.135 A 
ATOM     58  C   UNL A   1      43.247  22.937  28.232  1.00  0.00     0.135 A 
ATOM     59  F   UNL A   1      43.315  23.994  24.748  1.00  0.00    -0.206 F 
ATOM     60  C   UNL A   1      42.563  21.986  25.703  1.00  0.00     0.059 A 
ATOM     61  C   UNL A   1      42.699  21.664  28.107  1.00  0.00     0.059 A 
ATOM     62  F   UNL A   1      43.555  23.376  29.462  1.00  0.00    -0.206 F 
ATOM     63  C   UNL A   1      42.348  21.203  26.839  1.00  0.00     0.060 A 
BRANCH  63  64
ATOM     64  S   UNL A   1      41.607  19.569  26.636  1.00  0.00     0.124 S 
ATOM     65  O   UNL A   1      42.059  19.211  25.295  1.00  0.00    -0.237 OA
ATOM     66  O   UNL A   1      42.207  18.813  27.729  1.00  0.00    -0.237 OA
ATOM     67  O   UNL A   1      40.176  19.827  26.768  1.00  0.00    -0.744 OA
ENDBRANCH  63  64
ENDBRANCH  42  56
BRANCH  43  68
ATOM     68  C   UNL A   1      47.210  32.899  28.446  1.00  0.00     0.058 A 
ATOM     69  C   UNL A   1      47.736  33.257  29.696  1.00  0.00     0.135 A 
ATOM     70  C   UNL A   1      47.241  33.857  27.421  1.00  0.00     0.135 A 
ATOM     71  F   UNL A   1      47.714  32.379  30.710  1.00  0.00    -0.206 F 
ATOM     72  C   UNL A   1      48.268  34.522  29.924  1.00  0.00     0.059 A 
ATOM     73  C   UNL A   1      47.789  35.120  27.619  1.00  0.00     0.059 A 
ATOM     74  F   UNL A   1      46.758  33.559  26.206  1.00  0.00    -0.206 F 
ATOM     75  C   UNL A   1      48.296  35.445  28.877  1.00  0.00     0.060 A 
BRANCH  75  76
ATOM     76  S   UNL A   1      49.055  37.059  29.162  1.00  0.00     0.124 S 
ATOM     77  O   UNL A   1      47.910  37.951  29.024  1.00  0.00    -0.237 OA
ATOM     78  O   UNL A   1      49.591  36.910  30.512  1.00  0.00    -0.237 OA
ATOM     79  O   UNL A   1      50.059  37.145  28.106  1.00  0.00    -0.744 OA
ENDBRANCH  75  76
ENDBRANCH  43  68
BRANCH  55  80
ATOM     80  C   UNL A   1      49.961  26.822  26.398  1.00  0.00     0.058 A 
ATOM     81  C   UNL A   1      50.867  26.258  27.308  1.00  0.00     0.135 A 
ATOM     82  C   UNL A   1      50.365  26.943  25.058  1.00  0.00     0.135 A 
ATOM     83  F   UNL A   1      50.533  26.126  28.601  1.00  0.00    -0.206 F 
ATOM     84  C   UNL A   1      52.134  25.841  26.907  1.00  0.00     0.059 A 
ATOM     85  C   UNL A   1      51.618  26.513  24.631  1.00  0.00     0.059 A 
ATOM     86  F   UNL A   1      49.532  27.467  24.145  1.00  0.00    -0.206 F 
ATOM     87  C   UNL A   1      52.499  25.971  25.566  1.00  0.00     0.060 A 
BRANCH  87  88
ATOM     88  S   UNL A   1      54.130  25.392  25.049  1.00  0.00     0.124 S 
ATOM     89  O   UNL A   1      54.353  26.181  23.842  1.00  0.00    -0.237 OA
ATOM     90  O   UNL A   1      54.965  25.738  26.196  1.00  0.00    -0.237 OA
ATOM     91  O   UNL A   1      53.931  23.962  24.836  1.00  0.00    -0.744 OA
ENDBRANCH  87  88
ENDBRANCH  55  80
ENDBRANCH  29  30
ENDBRANCH  22  24
ENDBRANCH  21  22
ENDBRANCH  20  21
ENDBRANCH  19  20
ENDBRANCH  18  19
ENDBRANCH   1  18
TORSDOF 22
ENDMDL
