MODEL 1
REMARK VINA RESULT:      -8.9      0.000      0.000
REMARK SMILES COc1ccc(OCCNc2c(Cl)cccc2C(=O)OCCOCCOCCOC(=O)c2ccc(-c3c4nc(c(-c5c(F)cc(S(=O)(=O)[O-])cc5F)c5ccc([nH]5)c(-c5c(F)cc(S(=O)(=O)[O-])cc5F)c5nc(c(-c6c(F)cc(S(=O)(=O)[O-])cc6F)c6ccc3[nH]6)C=C5)C=C4)cc2)cc1
REMARK SMILES IDX 23 1 22 2 21 3 20 4 18 5 19 6 17 7 11 8 12 9 13 10 14 11
REMARK SMILES IDX 16 12 15 13 10 14 9 16 8 17 7 18 6 19 3 20 4 21 99 22 5 23
REMARK SMILES IDX 98 24 2 25 1 26 24 27 25 28 26 29 27 30 28 31 29 32 30 33
REMARK SMILES IDX 31 34 32 35 33 36 97 37 34 38 96 39 35 40 36 41 37 42 90 43
REMARK SMILES IDX 38 44 95 45 89 46 91 47 39 48 94 49 88 50 87 51 40 53 74 54
REMARK SMILES IDX 53 55 73 56 54 57 57 58 72 59 92 60 55 61 56 62 71 64 93 65
REMARK SMILES IDX 58 66 41 67 42 68 51 69 43 70 44 71 50 72 52 73 45 74 46 75
REMARK SMILES IDX 47 76 48 77 49 78 75 79 76 80 85 81 77 82 78 83 84 84 86 85
REMARK SMILES IDX 79 86 80 87 81 88 82 89 83 90 59 91 60 92 69 93 61 94 62 95
REMARK SMILES IDX 68 96 70 97 63 98 64 99 65 100 66 101 67 102
REMARK H PARENT 10 15 91 52 57 63
REMARK Flexibility Score: inf
ROOT
ATOM      1  O   UNL A   1      34.998  29.953  27.461  1.00  0.00    -0.376 OA
ENDROOT
BRANCH   1   2
ATOM      2  C   UNL A   1      33.700  29.414  27.219  1.00  0.00     0.202 C 
BRANCH   2   3
ATOM      3  C   UNL A   1      33.479  28.677  25.896  1.00  0.00     0.261 C 
BRANCH   3   4
ATOM      4  O   UNL A   1      33.265  29.589  24.806  1.00  0.00    -0.460 OA
BRANCH   4   5
ATOM      5  C   UNL A   1      33.148  29.020  23.585  1.00  0.00     0.340 C 
ATOM      6  O   UNL A   1      34.024  28.941  22.737  1.00  0.00    -0.246 OA
BRANCH   5   7
ATOM      7  C   UNL A   1      31.860  28.307  23.466  1.00  0.00     0.084 A 
ATOM      8  C   UNL A   1      31.705  26.931  23.228  1.00  0.00     0.068 A 
ATOM      9  C   UNL A   1      30.364  26.449  23.320  1.00  0.00     0.065 A 
ATOM     10  Cl  UNL A   1      30.015  24.749  23.272  1.00  0.00    -0.082 Cl
ATOM     11  C   UNL A   1      29.254  27.284  23.490  1.00  0.00     0.023 A 
ATOM     12  C   UNL A   1      30.733  29.153  23.622  1.00  0.00     0.018 A 
ATOM     13  C   UNL A   1      29.437  28.649  23.604  1.00  0.00     0.003 A 
BRANCH   8  14
ATOM     14  N   UNL A   1      32.699  25.992  22.990  1.00  0.00    -0.380 N 
ATOM     15  H   UNL A   1      33.104  25.612  23.802  1.00  0.00     0.160 HD
BRANCH  14  16
ATOM     16  C   UNL A   1      33.246  25.472  21.744  1.00  0.00     0.154 C 
BRANCH  16  17
ATOM     17  C   UNL A   1      33.321  23.925  21.764  1.00  0.00     0.250 C 
BRANCH  17  18
ATOM     18  O   UNL A   1      34.557  23.395  22.267  1.00  0.00    -0.492 OA
BRANCH  18  19
ATOM     19  C   UNL A   1      34.691  23.131  23.599  1.00  0.00     0.119 A 
ATOM     20  C   UNL A   1      34.572  22.792  26.374  1.00  0.00     0.119 A 
ATOM     21  C   UNL A   1      33.537  22.315  25.578  1.00  0.00     0.050 A 
ATOM     22  C   UNL A   1      35.720  23.305  25.782  1.00  0.00     0.050 A 
ATOM     23  C   UNL A   1      33.593  22.498  24.192  1.00  0.00     0.050 A 
ATOM     24  C   UNL A   1      35.789  23.447  24.392  1.00  0.00     0.050 A 
BRANCH  20  25
ATOM     25  O   UNL A   1      34.445  22.692  27.731  1.00  0.00    -0.497 OA
ATOM     26  C   UNL A   1      33.111  22.323  28.097  1.00  0.00     0.278 C 
ENDBRANCH  20  25
ENDBRANCH  18  19
ENDBRANCH  17  18
ENDBRANCH  16  17
ENDBRANCH  14  16
ENDBRANCH   8  14
ENDBRANCH   5   7
ENDBRANCH   4   5
ENDBRANCH   3   4
ENDBRANCH   2   3
ENDBRANCH   1   2
BRANCH   1  27
ATOM     27  C   UNL A   1      35.134  31.366  27.623  1.00  0.00     0.188 C 
BRANCH  27  28
ATOM     28  C   UNL A   1      34.063  32.119  28.445  1.00  0.00     0.188 C 
BRANCH  28  29
ATOM     29  O   UNL A   1      33.675  33.345  27.862  1.00  0.00    -0.376 OA
BRANCH  29  30
ATOM     30  C   UNL A   1      34.003  34.552  28.523  1.00  0.00     0.202 C 
BRANCH  30  31
ATOM     31  C   UNL A   1      32.976  35.338  29.361  1.00  0.00     0.261 C 
BRANCH  31  32
ATOM     32  O   UNL A   1      33.434  35.962  30.565  1.00  0.00    -0.460 OA
BRANCH  32  33
ATOM     33  C   UNL A   1      33.036  35.422  31.739  1.00  0.00     0.338 C 
ATOM     34  O   UNL A   1      31.896  35.337  32.156  1.00  0.00    -0.246 OA
BRANCH  33  35
ATOM     35  C   UNL A   1      34.216  34.770  32.352  1.00  0.00     0.060 A 
ATOM     36  C   UNL A   1      35.487  35.306  32.106  1.00  0.00     0.016 A 
ATOM     37  C   UNL A   1      34.069  33.656  33.184  1.00  0.00     0.016 A 
ATOM     38  C   UNL A   1      36.617  34.708  32.669  1.00  0.00     0.010 A 
ATOM     39  C   UNL A   1      35.204  33.049  33.732  1.00  0.00     0.010 A 
ATOM     40  C   UNL A   1      36.485  33.555  33.455  1.00  0.00    -0.014 A 
BRANCH  40  41
ATOM     41  C   UNL A   1      37.688  32.772  33.834  1.00  0.00     0.031 A 
ATOM     42  C   UNL A   1      38.399  33.133  35.110  1.00  0.00     0.074 A 
ATOM     43  C   UNL A   1      38.144  31.764  33.068  1.00  0.00     0.049 A 
ATOM     44  N   UNL A   1      39.490  32.626  35.625  1.00  0.00    -0.248 NA
ATOM     45  C   UNL A   1      37.798  34.211  35.913  1.00  0.00     0.031 C 
ATOM     46  C   UNL A   1      37.532  31.303  31.824  1.00  0.00     0.029 A 
ATOM     47  N   UNL A   1      39.242  30.954  33.224  1.00  0.00    -0.354 N 
ATOM     48  C   UNL A   1      39.707  33.325  36.808  1.00  0.00     0.074 A 
ATOM     49  C   UNL A   1      38.651  34.307  36.921  1.00  0.00     0.031 C 
ATOM     50  C   UNL A   1      38.275  30.302  31.318  1.00  0.00     0.029 A 
ATOM     51  C   UNL A   1      39.428  30.069  32.189  1.00  0.00     0.049 A 
ATOM     52  H   UNL A   1      39.841  31.004  34.005  1.00  0.00     0.167 HD
ATOM     53  C   UNL A   1      40.694  33.159  37.719  1.00  0.00     0.037 A 
ATOM     54  C   UNL A   1      40.427  29.192  31.960  1.00  0.00     0.037 A 
ATOM     55  C   UNL A   1      41.750  32.190  37.602  1.00  0.00     0.049 A 
ATOM     56  C   UNL A   1      41.551  29.068  32.959  1.00  0.00     0.074 A 
ATOM     57  C   UNL A   1      42.786  31.936  38.483  1.00  0.00     0.029 A 
ATOM     58  N   UNL A   1      41.913  31.324  36.532  1.00  0.00    -0.354 N 
ATOM     59  N   UNL A   1      41.726  29.711  34.090  1.00  0.00    -0.248 NA
ATOM     60  C   UNL A   1      42.613  28.098  32.652  1.00  0.00     0.031 C 
ATOM     61  C   UNL A   1      43.601  30.945  37.924  1.00  0.00     0.029 A 
ATOM     62  C   UNL A   1      43.045  30.549  36.718  1.00  0.00     0.049 A 
ATOM     63  H   UNL A   1      41.312  31.269  35.753  1.00  0.00     0.167 HD
ATOM     64  C   UNL A   1      42.900  29.204  34.640  1.00  0.00     0.074 A 
ATOM     65  C   UNL A   1      43.390  28.197  33.723  1.00  0.00     0.031 C 
ATOM     66  C   UNL A   1      43.516  29.542  35.801  1.00  0.00     0.037 A 
BRANCH  53  67
ATOM     67  C   UNL A   1      40.688  34.070  38.914  1.00  0.00     0.058 A 
ATOM     68  C   UNL A   1      41.371  35.297  38.910  1.00  0.00     0.135 A 
ATOM     69  C   UNL A   1      39.973  33.721  40.070  1.00  0.00     0.135 A 
ATOM     70  F   UNL A   1      42.087  35.667  37.836  1.00  0.00    -0.206 F 
ATOM     71  C   UNL A   1      41.367  36.134  40.019  1.00  0.00     0.059 A 
ATOM     72  C   UNL A   1      39.934  34.555  41.184  1.00  0.00     0.059 A 
ATOM     73  F   UNL A   1      39.308  32.557  40.128  1.00  0.00    -0.206 F 
ATOM     74  C   UNL A   1      40.647  35.753  41.153  1.00  0.00     0.060 A 
BRANCH  74  75
ATOM     75  S   UNL A   1      40.649  36.850  42.586  1.00  0.00     0.124 S 
ATOM     76  O   UNL A   1      39.778  37.928  42.128  1.00  0.00    -0.237 OA
ATOM     77  O   UNL A   1      40.101  35.997  43.635  1.00  0.00    -0.237 OA
ATOM     78  O   UNL A   1      42.057  37.204  42.741  1.00  0.00    -0.744 OA
ENDBRANCH  74  75
ENDBRANCH  53  67
BRANCH  54  79
ATOM     79  C   UNL A   1      40.422  28.363  30.725  1.00  0.00     0.058 A 
ATOM     80  C   UNL A   1      39.531  27.290  30.575  1.00  0.00     0.135 A 
ATOM     81  C   UNL A   1      41.318  28.620  29.675  1.00  0.00     0.135 A 
ATOM     82  F   UNL A   1      38.665  26.996  31.556  1.00  0.00    -0.206 F 
ATOM     83  C   UNL A   1      39.534  26.494  29.434  1.00  0.00     0.059 A 
ATOM     84  C   UNL A   1      41.325  27.853  28.515  1.00  0.00     0.059 A 
ATOM     85  F   UNL A   1      42.187  29.638  29.768  1.00  0.00    -0.206 F 
ATOM     86  C   UNL A   1      40.435  26.784  28.407  1.00  0.00     0.060 A 
BRANCH  86  87
ATOM     87  S   UNL A   1      40.400  25.775  26.911  1.00  0.00     0.124 S 
ATOM     88  O   UNL A   1      39.002  25.364  26.866  1.00  0.00    -0.237 OA
ATOM     89  O   UNL A   1      40.819  26.729  25.888  1.00  0.00    -0.237 OA
ATOM     90  O   UNL A   1      41.361  24.715  27.200  1.00  0.00    -0.744 OA
ENDBRANCH  86  87
ENDBRANCH  54  79
BRANCH  66  91
ATOM     91  C   UNL A   1      44.766  28.792  36.172  1.00  0.00     0.058 A 
ATOM     92  C   UNL A   1      44.721  27.585  36.884  1.00  0.00     0.135 A 
ATOM     93  C   UNL A   1      46.023  29.258  35.751  1.00  0.00     0.135 A 
ATOM     94  F   UNL A   1      43.546  27.097  37.314  1.00  0.00    -0.206 F 
ATOM     95  C   UNL A   1      45.879  26.873  37.184  1.00  0.00     0.059 A 
ATOM     96  C   UNL A   1      47.191  28.550  36.016  1.00  0.00     0.059 A 
ATOM     97  F   UNL A   1      46.122  30.402  35.055  1.00  0.00    -0.206 F 
ATOM     98  C   UNL A   1      47.111  27.364  36.744  1.00  0.00     0.060 A 
BRANCH  98  99
ATOM     99  S   UNL A   1      48.604  26.413  37.104  1.00  0.00     0.124 S 
ATOM    100  O   UNL A   1      49.244  27.246  38.116  1.00  0.00    -0.237 OA
ATOM    101  O   UNL A   1      48.060  25.144  37.577  1.00  0.00    -0.237 OA
ATOM    102  O   UNL A   1      49.287  26.354  35.815  1.00  0.00    -0.744 OA
ENDBRANCH  98  99
ENDBRANCH  66  91
ENDBRANCH  40  41
ENDBRANCH  33  35
ENDBRANCH  32  33
ENDBRANCH  31  32
ENDBRANCH  30  31
ENDBRANCH  29  30
ENDBRANCH  28  29
ENDBRANCH  27  28
ENDBRANCH   1  27
TORSDOF 26
ENDMDL
MODEL 2
REMARK VINA RESULT:      -8.5      1.437      2.031
REMARK SMILES COc1ccc(OCCNc2c(Cl)cccc2C(=O)OCCOCCOCCOC(=O)c2ccc(-c3c4nc(c(-c5c(F)cc(S(=O)(=O)[O-])cc5F)c5ccc([nH]5)c(-c5c(F)cc(S(=O)(=O)[O-])cc5F)c5nc(c(-c6c(F)cc(S(=O)(=O)[O-])cc6F)c6ccc3[nH]6)C=C5)C=C4)cc2)cc1
REMARK SMILES IDX 23 1 22 2 21 3 20 4 18 5 19 6 17 7 11 8 12 9 13 10 14 11
REMARK SMILES IDX 16 12 15 13 10 14 9 16 8 17 7 18 6 19 3 20 4 21 99 22 5 23
REMARK SMILES IDX 98 24 2 25 1 26 24 27 25 28 26 29 27 30 28 31 29 32 30 33
REMARK SMILES IDX 31 34 32 35 33 36 97 37 34 38 96 39 35 40 36 41 37 42 90 43
REMARK SMILES IDX 38 44 95 45 89 46 91 47 39 48 94 49 88 50 87 51 40 53 74 54
REMARK SMILES IDX 53 55 73 56 54 57 57 58 72 59 92 60 55 61 56 62 71 64 93 65
REMARK SMILES IDX 58 66 41 67 42 68 51 69 43 70 44 71 50 72 52 73 45 74 46 75
REMARK SMILES IDX 47 76 48 77 49 78 75 79 76 80 85 81 77 82 78 83 84 84 86 85
REMARK SMILES IDX 79 86 80 87 81 88 82 89 83 90 59 91 60 92 69 93 61 94 62 95
REMARK SMILES IDX 68 96 70 97 63 98 64 99 65 100 66 101 67 102
REMARK H PARENT 10 15 91 52 57 63
REMARK Flexibility Score: inf
ROOT
ATOM      1  O   UNL A   1      35.111  29.966  27.073  1.00  0.00    -0.376 OA
ENDROOT
BRANCH   1   2
ATOM      2  C   UNL A   1      33.717  29.787  26.830  1.00  0.00     0.202 C 
BRANCH   2   3
ATOM      3  C   UNL A   1      33.316  28.813  25.719  1.00  0.00     0.261 C 
BRANCH   3   4
ATOM      4  O   UNL A   1      33.283  29.453  24.434  1.00  0.00    -0.460 OA
BRANCH   4   5
ATOM      5  C   UNL A   1      32.973  28.650  23.391  1.00  0.00     0.340 C 
ATOM      6  O   UNL A   1      33.760  28.001  22.718  1.00  0.00    -0.246 OA
BRANCH   5   7
ATOM      7  C   UNL A   1      31.510  28.485  23.280  1.00  0.00     0.084 A 
ATOM      8  C   UNL A   1      30.812  27.270  23.394  1.00  0.00     0.068 A 
ATOM      9  C   UNL A   1      29.389  27.391  23.416  1.00  0.00     0.065 A 
ATOM     10  Cl  UNL A   1      28.378  26.024  23.769  1.00  0.00    -0.082 Cl
ATOM     11  C   UNL A   1      28.713  28.596  23.197  1.00  0.00     0.023 A 
ATOM     12  C   UNL A   1      30.823  29.701  23.042  1.00  0.00     0.018 A 
ATOM     13  C   UNL A   1      29.435  29.752  22.971  1.00  0.00     0.003 A 
BRANCH   8  14
ATOM     14  N   UNL A   1      31.341  25.998  23.559  1.00  0.00    -0.380 N 
ATOM     15  H   UNL A   1      31.206  25.398  22.790  1.00  0.00     0.160 HD
BRANCH  14  16
ATOM     16  C   UNL A   1      32.062  25.396  24.673  1.00  0.00     0.154 C 
BRANCH  16  17
ATOM     17  C   UNL A   1      33.140  24.402  24.175  1.00  0.00     0.250 C 
BRANCH  17  18
ATOM     18  O   UNL A   1      33.580  23.458  25.162  1.00  0.00    -0.492 OA
BRANCH  18  19
ATOM     19  C   UNL A   1      33.367  22.124  24.968  1.00  0.00     0.119 A 
ATOM     20  C   UNL A   1      32.517  19.507  24.459  1.00  0.00     0.119 A 
ATOM     21  C   UNL A   1      32.388  20.476  23.472  1.00  0.00     0.050 A 
ATOM     22  C   UNL A   1      33.193  19.804  25.637  1.00  0.00     0.050 A 
ATOM     23  C   UNL A   1      32.802  21.786  23.734  1.00  0.00     0.050 A 
ATOM     24  C   UNL A   1      33.642  21.108  25.877  1.00  0.00     0.050 A 
BRANCH  20  25
ATOM     25  O   UNL A   1      32.012  18.260  24.215  1.00  0.00    -0.497 OA
ATOM     26  C   UNL A   1      33.010  17.405  23.647  1.00  0.00     0.278 C 
ENDBRANCH  20  25
ENDBRANCH  18  19
ENDBRANCH  17  18
ENDBRANCH  16  17
ENDBRANCH  14  16
ENDBRANCH   8  14
ENDBRANCH   5   7
ENDBRANCH   4   5
ENDBRANCH   3   4
ENDBRANCH   2   3
ENDBRANCH   1   2
BRANCH   1  27
ATOM     27  C   UNL A   1      35.550  31.180  27.684  1.00  0.00     0.188 C 
BRANCH  27  28
ATOM     28  C   UNL A   1      34.616  31.871  28.704  1.00  0.00     0.188 C 
BRANCH  28  29
ATOM     29  O   UNL A   1      34.017  33.046  28.201  1.00  0.00    -0.376 OA
BRANCH  29  30
ATOM     30  C   UNL A   1      34.269  34.277  28.853  1.00  0.00     0.202 C 
BRANCH  30  31
ATOM     31  C   UNL A   1      33.148  35.111  29.501  1.00  0.00     0.261 C 
BRANCH  31  32
ATOM     32  O   UNL A   1      33.456  35.823  30.704  1.00  0.00    -0.460 OA
BRANCH  32  33
ATOM     33  C   UNL A   1      33.118  35.242  31.877  1.00  0.00     0.338 C 
ATOM     34  O   UNL A   1      31.995  35.084  32.320  1.00  0.00    -0.246 OA
BRANCH  33  35
ATOM     35  C   UNL A   1      34.348  34.649  32.451  1.00  0.00     0.060 A 
ATOM     36  C   UNL A   1      35.538  35.388  32.404  1.00  0.00     0.016 A 
ATOM     37  C   UNL A   1      34.324  33.388  33.055  1.00  0.00     0.016 A 
ATOM     38  C   UNL A   1      36.713  34.851  32.935  1.00  0.00     0.010 A 
ATOM     39  C   UNL A   1      35.506  32.846  33.570  1.00  0.00     0.010 A 
ATOM     40  C   UNL A   1      36.712  33.563  33.487  1.00  0.00    -0.014 A 
BRANCH  40  41
ATOM     41  C   UNL A   1      37.995  32.891  33.810  1.00  0.00     0.031 A 
ATOM     42  C   UNL A   1      38.587  33.104  35.178  1.00  0.00     0.074 A 
ATOM     43  C   UNL A   1      38.627  32.109  32.915  1.00  0.00     0.049 A 
ATOM     44  N   UNL A   1      39.713  32.661  35.674  1.00  0.00    -0.248 NA
ATOM     45  C   UNL A   1      37.800  33.928  36.110  1.00  0.00     0.031 C 
ATOM     46  C   UNL A   1      38.147  31.806  31.569  1.00  0.00     0.029 A 
ATOM     47  N   UNL A   1      39.822  31.438  33.007  1.00  0.00    -0.354 N 
ATOM     48  C   UNL A   1      39.773  33.155  36.972  1.00  0.00     0.074 A 
ATOM     49  C   UNL A   1      38.582  33.951  37.178  1.00  0.00     0.031 C 
ATOM     50  C   UNL A   1      39.049  31.021  30.952  1.00  0.00     0.029 A 
ATOM     51  C   UNL A   1      40.181  30.789  31.850  1.00  0.00     0.049 A 
ATOM     52  H   UNL A   1      40.369  31.423  33.825  1.00  0.00     0.167 HD
ATOM     53  C   UNL A   1      40.729  32.959  37.910  1.00  0.00     0.037 A 
ATOM     54  C   UNL A   1      41.305  30.108  31.544  1.00  0.00     0.037 A 
ATOM     55  C   UNL A   1      41.917  32.176  37.702  1.00  0.00     0.049 A 
ATOM     56  C   UNL A   1      42.387  29.954  32.584  1.00  0.00     0.074 A 
ATOM     57  C   UNL A   1      42.937  31.906  38.598  1.00  0.00     0.029 A 
ATOM     58  N   UNL A   1      42.253  31.549  36.512  1.00  0.00    -0.354 N 
ATOM     59  N   UNL A   1      42.414  30.399  33.819  1.00  0.00    -0.248 NA
ATOM     60  C   UNL A   1      43.590  29.206  32.191  1.00  0.00     0.031 C 
ATOM     61  C   UNL A   1      43.911  31.150  37.935  1.00  0.00     0.029 A 
ATOM     62  C   UNL A   1      43.475  30.911  36.642  1.00  0.00     0.049 A 
ATOM     63  H   UNL A   1      41.704  31.557  35.694  1.00  0.00     0.167 HD
ATOM     64  C   UNL A   1      43.622  29.960  34.356  1.00  0.00     0.074 A 
ATOM     65  C   UNL A   1      44.294  29.211  33.315  1.00  0.00     0.031 C 
ATOM     66  C   UNL A   1      44.127  30.159  35.599  1.00  0.00     0.037 A 
BRANCH  53  67
ATOM     67  C   UNL A   1      40.536  33.627  39.241  1.00  0.00     0.058 A 
ATOM     68  C   UNL A   1      39.740  33.052  40.246  1.00  0.00     0.135 A 
ATOM     69  C   UNL A   1      41.170  34.846  39.525  1.00  0.00     0.135 A 
ATOM     70  F   UNL A   1      39.094  31.897  40.017  1.00  0.00    -0.206 F 
ATOM     71  C   UNL A   1      39.560  33.675  41.475  1.00  0.00     0.059 A 
ATOM     72  C   UNL A   1      41.025  35.475  40.757  1.00  0.00     0.059 A 
ATOM     73  F   UNL A   1      41.938  35.440  38.597  1.00  0.00    -0.206 F 
ATOM     74  C   UNL A   1      40.205  34.889  41.721  1.00  0.00     0.060 A 
BRANCH  74  75
ATOM     75  S   UNL A   1      39.962  35.687  43.321  1.00  0.00     0.124 S 
ATOM     76  O   UNL A   1      41.077  36.629  43.347  1.00  0.00    -0.237 OA
ATOM     77  O   UNL A   1      38.637  36.278  43.178  1.00  0.00    -0.237 OA
ATOM     78  O   UNL A   1      40.054  34.581  44.270  1.00  0.00    -0.744 OA
ENDBRANCH  74  75
ENDBRANCH  53  67
BRANCH  54  79
ATOM     79  C   UNL A   1      41.477  29.525  30.187  1.00  0.00     0.058 A 
ATOM     80  C   UNL A   1      40.965  28.258  29.871  1.00  0.00     0.135 A 
ATOM     81  C   UNL A   1      42.168  30.220  29.181  1.00  0.00     0.135 A 
ATOM     82  F   UNL A   1      40.309  27.549  30.802  1.00  0.00    -0.206 F 
ATOM     83  C   UNL A   1      41.142  27.693  28.611  1.00  0.00     0.059 A 
ATOM     84  C   UNL A   1      42.337  29.687  27.908  1.00  0.00     0.059 A 
ATOM     85  F   UNL A   1      42.672  31.438  29.431  1.00  0.00    -0.206 F 
ATOM     86  C   UNL A   1      41.828  28.417  27.635  1.00  0.00     0.060 A 
BRANCH  86  87
ATOM     87  S   UNL A   1      42.011  27.696  25.989  1.00  0.00     0.124 S 
ATOM     88  O   UNL A   1      40.847  26.822  25.921  1.00  0.00    -0.237 OA
ATOM     89  O   UNL A   1      41.975  28.877  25.132  1.00  0.00    -0.237 OA
ATOM     90  O   UNL A   1      43.304  27.023  26.061  1.00  0.00    -0.744 OA
ENDBRANCH  86  87
ENDBRANCH  54  79
BRANCH  66  91
ATOM     91  C   UNL A   1      45.453  29.527  35.923  1.00  0.00     0.058 A 
ATOM     92  C   UNL A   1      45.548  28.219  36.422  1.00  0.00     0.135 A 
ATOM     93  C   UNL A   1      46.649  30.219  35.669  1.00  0.00     0.135 A 
ATOM     94  F   UNL A   1      44.436  27.515  36.686  1.00  0.00    -0.206 F 
ATOM     95  C   UNL A   1      46.781  27.625  36.675  1.00  0.00     0.059 A 
ATOM     96  C   UNL A   1      47.893  29.636  35.891  1.00  0.00     0.059 A 
ATOM     97  F   UNL A   1      46.617  31.470  35.181  1.00  0.00    -0.206 F 
ATOM     98  C   UNL A   1      47.949  28.341  36.405  1.00  0.00     0.060 A 
BRANCH  98  99
ATOM     99  S   UNL A   1      49.544  27.547  36.701  1.00  0.00     0.124 S 
ATOM    100  O   UNL A   1      49.208  26.139  36.518  1.00  0.00    -0.237 OA
ATOM    101  O   UNL A   1      50.385  28.138  35.665  1.00  0.00    -0.237 OA
ATOM    102  O   UNL A   1      49.871  27.943  38.067  1.00  0.00    -0.744 OA
ENDBRANCH  98  99
ENDBRANCH  66  91
ENDBRANCH  40  41
ENDBRANCH  33  35
ENDBRANCH  32  33
ENDBRANCH  31  32
ENDBRANCH  30  31
ENDBRANCH  29  30
ENDBRANCH  28  29
ENDBRANCH  27  28
ENDBRANCH   1  27
TORSDOF 26
ENDMDL
MODEL 3
REMARK VINA RESULT:      -8.5      5.016     11.784
REMARK SMILES COc1ccc(OCCNc2c(Cl)cccc2C(=O)OCCOCCOCCOC(=O)c2ccc(-c3c4nc(c(-c5c(F)cc(S(=O)(=O)[O-])cc5F)c5ccc([nH]5)c(-c5c(F)cc(S(=O)(=O)[O-])cc5F)c5nc(c(-c6c(F)cc(S(=O)(=O)[O-])cc6F)c6ccc3[nH]6)C=C5)C=C4)cc2)cc1
REMARK SMILES IDX 23 1 22 2 21 3 20 4 18 5 19 6 17 7 11 8 12 9 13 10 14 11
REMARK SMILES IDX 16 12 15 13 10 14 9 16 8 17 7 18 6 19 3 20 4 21 99 22 5 23
REMARK SMILES IDX 98 24 2 25 1 26 24 27 25 28 26 29 27 30 28 31 29 32 30 33
REMARK SMILES IDX 31 34 32 35 33 36 97 37 34 38 96 39 35 40 36 41 37 42 90 43
REMARK SMILES IDX 38 44 95 45 89 46 91 47 39 48 94 49 88 50 87 51 40 53 74 54
REMARK SMILES IDX 53 55 73 56 54 57 57 58 72 59 92 60 55 61 56 62 71 64 93 65
REMARK SMILES IDX 58 66 41 67 42 68 51 69 43 70 44 71 50 72 52 73 45 74 46 75
REMARK SMILES IDX 47 76 48 77 49 78 75 79 76 80 85 81 77 82 78 83 84 84 86 85
REMARK SMILES IDX 79 86 80 87 81 88 82 89 83 90 59 91 60 92 69 93 61 94 62 95
REMARK SMILES IDX 68 96 70 97 63 98 64 99 65 100 66 101 67 102
REMARK H PARENT 10 15 91 52 57 63
REMARK Flexibility Score: inf
ROOT
ATOM      1  O   UNL A   1      46.183  21.950  25.177  1.00  0.00    -0.376 OA
ENDROOT
BRANCH   1   2
ATOM      2  C   UNL A   1      46.029  23.279  24.683  1.00  0.00     0.202 C 
BRANCH   2   3
ATOM      3  C   UNL A   1      47.241  24.209  24.776  1.00  0.00     0.261 C 
BRANCH   3   4
ATOM      4  O   UNL A   1      46.938  25.409  25.505  1.00  0.00    -0.460 OA
BRANCH   4   5
ATOM      5  C   UNL A   1      47.133  25.343  26.842  1.00  0.00     0.340 C 
ATOM      6  O   UNL A   1      46.483  24.678  27.635  1.00  0.00    -0.246 OA
BRANCH   5   7
ATOM      7  C   UNL A   1      48.383  26.031  27.219  1.00  0.00     0.084 A 
ATOM      8  C   UNL A   1      48.588  27.422  27.206  1.00  0.00     0.068 A 
ATOM      9  C   UNL A   1      49.825  27.855  27.772  1.00  0.00     0.065 A 
ATOM     10  Cl  UNL A   1      50.150  29.540  28.036  1.00  0.00    -0.082 Cl
ATOM     11  C   UNL A   1      50.836  26.979  28.182  1.00  0.00     0.023 A 
ATOM     12  C   UNL A   1      49.414  25.146  27.621  1.00  0.00     0.018 A 
ATOM     13  C   UNL A   1      50.643  25.615  28.072  1.00  0.00     0.003 A 
BRANCH   8  14
ATOM     14  N   UNL A   1      47.708  28.407  26.779  1.00  0.00    -0.380 N 
ATOM     15  H   UNL A   1      48.000  28.894  25.975  1.00  0.00     0.160 HD
BRANCH  14  16
ATOM     16  C   UNL A   1      46.426  28.844  27.316  1.00  0.00     0.154 C 
BRANCH  16  17
ATOM     17  C   UNL A   1      46.431  28.834  28.864  1.00  0.00     0.250 C 
BRANCH  17  18
ATOM     18  O   UNL A   1      46.472  30.135  29.468  1.00  0.00    -0.492 OA
BRANCH  18  19
ATOM     19  C   UNL A   1      45.345  30.657  30.034  1.00  0.00     0.119 A 
ATOM     20  C   UNL A   1      43.055  32.031  30.870  1.00  0.00     0.119 A 
ATOM     21  C   UNL A   1      43.132  31.551  29.568  1.00  0.00     0.050 A 
ATOM     22  C   UNL A   1      44.047  31.706  31.787  1.00  0.00     0.050 A 
ATOM     23  C   UNL A   1      44.284  30.876  29.149  1.00  0.00     0.050 A 
ATOM     24  C   UNL A   1      45.179  30.994  31.373  1.00  0.00     0.050 A 
BRANCH  20  25
ATOM     25  O   UNL A   1      41.964  32.775  31.223  1.00  0.00    -0.497 OA
ATOM     26  C   UNL A   1      41.951  34.029  30.532  1.00  0.00     0.278 C 
ENDBRANCH  20  25
ENDBRANCH  18  19
ENDBRANCH  17  18
ENDBRANCH  16  17
ENDBRANCH  14  16
ENDBRANCH   8  14
ENDBRANCH   5   7
ENDBRANCH   4   5
ENDBRANCH   3   4
ENDBRANCH   2   3
ENDBRANCH   1   2
BRANCH   1  27
ATOM     27  C   UNL A   1      45.367  20.915  24.626  1.00  0.00     0.188 C 
BRANCH  27  28
ATOM     28  C   UNL A   1      44.028  20.581  25.322  1.00  0.00     0.188 C 
BRANCH  28  29
ATOM     29  O   UNL A   1      43.049  21.585  25.153  1.00  0.00    -0.376 OA
BRANCH  29  30
ATOM     30  C   UNL A   1      42.029  21.718  26.125  1.00  0.00     0.202 C 
BRANCH  30  31
ATOM     31  C   UNL A   1      41.471  23.088  26.552  1.00  0.00     0.261 C 
BRANCH  31  32
ATOM     32  O   UNL A   1      42.336  24.224  26.446  1.00  0.00    -0.460 OA
BRANCH  32  33
ATOM     33  C   UNL A   1      41.775  25.407  26.106  1.00  0.00     0.338 C 
ATOM     34  O   UNL A   1      41.300  25.707  25.026  1.00  0.00    -0.246 OA
BRANCH  33  35
ATOM     35  C   UNL A   1      41.661  26.217  27.340  1.00  0.00     0.060 A 
ATOM     36  C   UNL A   1      40.517  26.076  28.136  1.00  0.00     0.016 A 
ATOM     37  C   UNL A   1      42.684  27.089  27.724  1.00  0.00     0.016 A 
ATOM     38  C   UNL A   1      40.382  26.831  29.304  1.00  0.00     0.010 A 
ATOM     39  C   UNL A   1      42.538  27.857  28.884  1.00  0.00     0.010 A 
ATOM     40  C   UNL A   1      41.374  27.752  29.664  1.00  0.00    -0.014 A 
BRANCH  40  41
ATOM     41  C   UNL A   1      41.119  28.735  30.747  1.00  0.00     0.031 A 
ATOM     42  C   UNL A   1      41.955  28.652  31.996  1.00  0.00     0.074 A 
ATOM     43  C   UNL A   1      40.170  29.681  30.632  1.00  0.00     0.049 A 
ATOM     44  N   UNL A   1      41.889  29.367  33.089  1.00  0.00    -0.248 NA
ATOM     45  C   UNL A   1      43.008  27.622  32.012  1.00  0.00     0.031 C 
ATOM     46  C   UNL A   1      39.311  29.881  29.467  1.00  0.00     0.029 A 
ATOM     47  N   UNL A   1      39.761  30.645  31.521  1.00  0.00    -0.354 N 
ATOM     48  C   UNL A   1      42.886  28.871  33.923  1.00  0.00     0.074 A 
ATOM     49  C   UNL A   1      43.525  27.781  33.221  1.00  0.00     0.031 C 
ATOM     50  C   UNL A   1      38.463  30.895  29.719  1.00  0.00     0.029 A 
ATOM     51  C   UNL A   1      38.702  31.397  31.073  1.00  0.00     0.049 A 
ATOM     52  H   UNL A   1      40.188  30.784  32.398  1.00  0.00     0.167 HD
ATOM     53  C   UNL A   1      43.240  29.292  35.160  1.00  0.00     0.037 A 
ATOM     54  C   UNL A   1      37.993  32.362  31.694  1.00  0.00     0.037 A 
ATOM     55  C   UNL A   1      42.598  30.370  35.864  1.00  0.00     0.049 A 
ATOM     56  C   UNL A   1      38.365  32.772  33.097  1.00  0.00     0.074 A 
ATOM     57  C   UNL A   1      42.898  30.879  37.115  1.00  0.00     0.029 A 
ATOM     58  N   UNL A   1      41.519  31.095  35.383  1.00  0.00    -0.354 N 
ATOM     59  N   UNL A   1      39.332  32.319  33.861  1.00  0.00    -0.248 NA
ATOM     60  C   UNL A   1      37.552  33.825  33.723  1.00  0.00     0.031 C 
ATOM     61  C   UNL A   1      41.971  31.885  37.410  1.00  0.00     0.029 A 
ATOM     62  C   UNL A   1      41.125  32.034  36.322  1.00  0.00     0.049 A 
ATOM     63  H   UNL A   1      41.095  30.962  34.505  1.00  0.00     0.167 HD
ATOM     64  C   UNL A   1      39.258  33.050  35.044  1.00  0.00     0.074 A 
ATOM     65  C   UNL A   1      38.159  33.979  34.893  1.00  0.00     0.031 C 
ATOM     66  C   UNL A   1      40.034  32.961  36.154  1.00  0.00     0.037 A 
BRANCH  53  67
ATOM     67  C   UNL A   1      44.363  28.561  35.841  1.00  0.00     0.058 A 
ATOM     68  C   UNL A   1      44.130  27.417  36.621  1.00  0.00     0.135 A 
ATOM     69  C   UNL A   1      45.688  28.998  35.694  1.00  0.00     0.135 A 
ATOM     70  F   UNL A   1      42.878  26.971  36.810  1.00  0.00    -0.206 F 
ATOM     71  C   UNL A   1      45.171  26.746  37.254  1.00  0.00     0.059 A 
ATOM     72  C   UNL A   1      46.748  28.328  36.297  1.00  0.00     0.059 A 
ATOM     73  F   UNL A   1      45.963  30.089  34.963  1.00  0.00    -0.206 F 
ATOM     74  C   UNL A   1      46.477  27.211  37.087  1.00  0.00     0.060 A 
BRANCH  74  75
ATOM     75  S   UNL A   1      47.819  26.330  37.913  1.00  0.00     0.124 S 
ATOM     76  O   UNL A   1      48.016  27.153  39.103  1.00  0.00    -0.237 OA
ATOM     77  O   UNL A   1      47.233  25.014  38.144  1.00  0.00    -0.237 OA
ATOM     78  O   UNL A   1      48.903  26.368  36.937  1.00  0.00    -0.744 OA
ENDBRANCH  74  75
ENDBRANCH  53  67
BRANCH  54  79
ATOM     79  C   UNL A   1      36.845  33.006  31.001  1.00  0.00     0.058 A 
ATOM     80  C   UNL A   1      35.521  32.683  31.335  1.00  0.00     0.135 A 
ATOM     81  C   UNL A   1      37.050  33.948  29.980  1.00  0.00     0.135 A 
ATOM     82  F   UNL A   1      35.274  31.779  32.294  1.00  0.00    -0.206 F 
ATOM     83  C   UNL A   1      34.441  33.263  30.677  1.00  0.00     0.059 A 
ATOM     84  C   UNL A   1      35.986  34.558  29.324  1.00  0.00     0.059 A 
ATOM     85  F   UNL A   1      38.297  34.295  29.626  1.00  0.00    -0.206 F 
ATOM     86  C   UNL A   1      34.684  34.201  29.672  1.00  0.00     0.060 A 
BRANCH  86  87
ATOM     87  S   UNL A   1      33.275  34.982  28.855  1.00  0.00     0.124 S 
ATOM     88  O   UNL A   1      33.901  36.147  28.242  1.00  0.00    -0.237 OA
ATOM     89  O   UNL A   1      32.834  33.936  27.939  1.00  0.00    -0.237 OA
ATOM     90  O   UNL A   1      32.362  35.263  29.960  1.00  0.00    -0.744 OA
ENDBRANCH  86  87
ENDBRANCH  54  79
BRANCH  66  91
ATOM     91  C   UNL A   1      39.752  33.916  37.281  1.00  0.00     0.058 A 
ATOM     92  C   UNL A   1      38.953  33.553  38.375  1.00  0.00     0.135 A 
ATOM     93  C   UNL A   1      40.344  35.190  37.296  1.00  0.00     0.135 A 
ATOM     94  F   UNL A   1      38.360  32.349  38.410  1.00  0.00    -0.206 F 
ATOM     95  C   UNL A   1      38.735  34.426  39.438  1.00  0.00     0.059 A 
ATOM     96  C   UNL A   1      40.161  36.069  38.359  1.00  0.00     0.059 A 
ATOM     97  F   UNL A   1      41.128  35.583  36.279  1.00  0.00    -0.206 F 
ATOM     98  C   UNL A   1      39.345  35.682  39.421  1.00  0.00     0.060 A 
BRANCH  98  99
ATOM     99  S   UNL A   1      39.086  36.792  40.822  1.00  0.00     0.124 S 
ATOM    100  O   UNL A   1      38.330  35.941  41.734  1.00  0.00    -0.237 OA
ATOM    101  O   UNL A   1      40.452  37.104  41.231  1.00  0.00    -0.237 OA
ATOM    102  O   UNL A   1      38.343  37.906  40.240  1.00  0.00    -0.744 OA
ENDBRANCH  98  99
ENDBRANCH  66  91
ENDBRANCH  40  41
ENDBRANCH  33  35
ENDBRANCH  32  33
ENDBRANCH  31  32
ENDBRANCH  30  31
ENDBRANCH  29  30
ENDBRANCH  28  29
ENDBRANCH  27  28
ENDBRANCH   1  27
TORSDOF 26
ENDMDL
