MODEL 1
REMARK VINA RESULT:      -9.3      0.000      0.000
REMARK SMILES O=C(Cc1ccc(S(=O)(=O)C[C@H]2CCCO2)cc1)OCCOCCOCCOC(=O)c1ccc(-c2c3nc(c(-c4c(F)cc(S(=O)(=O)[O-])cc4F)c4ccc([nH]4)c(-c4c(F)cc(S(=O)(=O)[O-])cc4F)c4nc(c(-c5c(F)cc(S(=O)(=O)[O-])cc5F)c5ccc2[nH]5)C=C4)C=C3)cc1
REMARK SMILES IDX 23 1 22 2 21 3 20 4 19 5 2 6 1 7 3 8 4 9 5 10 18 11 6 12
REMARK SMILES IDX 17 13 7 14 8 15 9 16 10 17 11 18 12 19 13 20 16 21 14 22
REMARK SMILES IDX 15 23 24 24 25 25 26 26 27 27 28 28 29 29 30 30 31 31 32 32
REMARK SMILES IDX 96 33 33 34 95 35 34 36 35 37 36 38 89 39 37 40 94 41 88 42
REMARK SMILES IDX 90 43 38 44 93 45 87 46 86 47 39 49 73 50 52 51 72 52 53 53
REMARK SMILES IDX 56 54 71 55 91 56 54 57 55 58 70 60 92 61 57 62 40 63 41 64
REMARK SMILES IDX 50 65 42 66 43 67 49 68 51 69 44 70 45 71 46 72 47 73 48 74
REMARK SMILES IDX 74 75 75 76 84 77 76 78 77 79 83 80 85 81 78 82 79 83 80 84
REMARK SMILES IDX 81 85 82 86 58 87 59 88 68 89 60 90 61 91 67 92 69 93 62 94
REMARK SMILES IDX 63 95 64 96 65 97 66 98
REMARK H PARENT 90 48 56 59
REMARK Flexibility Score: inf
ROOT
ATOM      1  C   UNL A   1      35.671  31.810  29.396  1.00  0.00     0.188 C 
ENDROOT
BRANCH   1   2
ATOM      2  O   UNL A   1      35.696  31.748  27.981  1.00  0.00    -0.376 OA
BRANCH   2   3
ATOM      3  C   UNL A   1      36.051  30.498  27.423  1.00  0.00     0.202 C 
BRANCH   3   4
ATOM      4  C   UNL A   1      34.825  29.610  27.249  1.00  0.00     0.261 C 
BRANCH   4   5
ATOM      5  O   UNL A   1      33.560  30.300  27.126  1.00  0.00    -0.463 OA
BRANCH   5   6
ATOM      6  C   UNL A   1      32.326  29.797  26.913  1.00  0.00     0.310 C 
ATOM      7  O   UNL A   1      31.506  30.478  26.298  1.00  0.00    -0.252 OA
BRANCH   6   8
ATOM      8  C   UNL A   1      31.909  28.486  27.529  1.00  0.00     0.158 C 
BRANCH   8   9
ATOM      9  C   UNL A   1      31.876  27.271  26.642  1.00  0.00    -0.037 A 
ATOM     10  C   UNL A   1      33.051  26.694  26.148  1.00  0.00     0.005 A 
ATOM     11  C   UNL A   1      30.635  26.757  26.239  1.00  0.00     0.005 A 
ATOM     12  C   UNL A   1      32.985  25.584  25.308  1.00  0.00     0.020 A 
ATOM     13  C   UNL A   1      30.564  25.660  25.383  1.00  0.00     0.020 A 
ATOM     14  C   UNL A   1      31.741  25.071  24.925  1.00  0.00     0.067 A 
BRANCH  14  15
ATOM     15  S   UNL A   1      31.740  23.687  23.811  1.00  0.00     0.180 S 
ATOM     16  O   UNL A   1      32.105  22.539  24.624  1.00  0.00    -0.224 OA
ATOM     17  O   UNL A   1      30.460  23.692  23.127  1.00  0.00    -0.224 OA
BRANCH  15  18
ATOM     18  C   UNL A   1      33.033  23.898  22.625  1.00  0.00     0.174 C 
BRANCH  18  19
ATOM     19  C   UNL A   1      32.900  25.039  21.623  1.00  0.00     0.133 C 
ATOM     20  C   UNL A   1      31.617  25.852  21.722  1.00  0.00     0.035 C 
ATOM     21  O   UNL A   1      33.988  25.965  21.667  1.00  0.00    -0.377 OA
ATOM     22  C   UNL A   1      32.039  27.126  22.402  1.00  0.00     0.031 C 
ATOM     23  C   UNL A   1      33.485  27.274  21.983  1.00  0.00     0.160 C 
ENDBRANCH  18  19
ENDBRANCH  15  18
ENDBRANCH  14  15
ENDBRANCH   8   9
ENDBRANCH   6   8
ENDBRANCH   5   6
ENDBRANCH   4   5
ENDBRANCH   3   4
ENDBRANCH   2   3
ENDBRANCH   1   2
BRANCH   1  24
ATOM     24  C   UNL A   1      35.451  33.233  29.932  1.00  0.00     0.188 C 
BRANCH  24  25
ATOM     25  O   UNL A   1      35.020  33.446  31.271  1.00  0.00    -0.376 OA
BRANCH  25  26
ATOM     26  C   UNL A   1      35.196  32.430  32.246  1.00  0.00     0.202 C 
BRANCH  26  27
ATOM     27  C   UNL A   1      36.628  32.120  32.695  1.00  0.00     0.261 C 
BRANCH  27  28
ATOM     28  O   UNL A   1      36.885  30.733  32.986  1.00  0.00    -0.460 OA
BRANCH  28  29
ATOM     29  C   UNL A   1      37.106  29.948  31.900  1.00  0.00     0.338 C 
ATOM     30  O   UNL A   1      36.278  29.291  31.294  1.00  0.00    -0.246 OA
BRANCH  29  31
ATOM     31  C   UNL A   1      38.501  30.083  31.419  1.00  0.00     0.060 A 
ATOM     32  C   UNL A   1      38.699  30.241  30.041  1.00  0.00     0.016 A 
ATOM     33  C   UNL A   1      39.599  29.934  32.270  1.00  0.00     0.016 A 
ATOM     34  C   UNL A   1      39.985  30.185  29.502  1.00  0.00     0.010 A 
ATOM     35  C   UNL A   1      40.892  29.864  31.724  1.00  0.00     0.010 A 
ATOM     36  C   UNL A   1      41.089  29.944  30.333  1.00  0.00    -0.014 A 
BRANCH  36  37
ATOM     37  C   UNL A   1      42.395  29.591  29.709  1.00  0.00     0.031 A 
ATOM     38  C   UNL A   1      42.580  28.211  29.126  1.00  0.00     0.074 A 
ATOM     39  C   UNL A   1      43.382  30.500  29.586  1.00  0.00     0.049 A 
ATOM     40  N   UNL A   1      43.609  27.707  28.494  1.00  0.00    -0.248 NA
ATOM     41  C   UNL A   1      41.451  27.279  29.275  1.00  0.00     0.031 C 
ATOM     42  C   UNL A   1      43.331  31.875  30.079  1.00  0.00     0.029 A 
ATOM     43  N   UNL A   1      44.622  30.397  29.003  1.00  0.00    -0.354 N 
ATOM     44  C   UNL A   1      43.248  26.407  28.155  1.00  0.00     0.074 A 
ATOM     45  C   UNL A   1      41.924  26.185  28.695  1.00  0.00     0.031 C 
ATOM     46  C   UNL A   1      44.494  32.485  29.787  1.00  0.00     0.029 A 
ATOM     47  C   UNL A   1      45.377  31.541  29.100  1.00  0.00     0.049 A 
ATOM     48  H   UNL A   1      44.940  29.579  28.558  1.00  0.00     0.167 HD
ATOM     49  C   UNL A   1      43.943  25.486  27.443  1.00  0.00     0.037 A 
ATOM     50  C   UNL A   1      46.636  31.798  28.692  1.00  0.00     0.037 A 
ATOM     51  C   UNL A   1      45.266  25.694  26.911  1.00  0.00     0.049 A 
ATOM     52  C   UNL A   1      47.413  30.741  27.948  1.00  0.00     0.074 A 
ATOM     53  C   UNL A   1      46.049  24.815  26.182  1.00  0.00     0.029 A 
ATOM     54  N   UNL A   1      46.003  26.859  27.051  1.00  0.00    -0.354 N 
ATOM     55  N   UNL A   1      47.047  29.524  27.619  1.00  0.00    -0.248 NA
ATOM     56  C   UNL A   1      48.769  31.098  27.505  1.00  0.00     0.031 C 
ATOM     57  C   UNL A   1      47.275  25.434  25.917  1.00  0.00     0.029 A 
ATOM     58  C   UNL A   1      47.238  26.717  26.436  1.00  0.00     0.049 A 
ATOM     59  H   UNL A   1      45.696  27.669  27.518  1.00  0.00     0.167 HD
ATOM     60  C   UNL A   1      48.119  28.980  26.915  1.00  0.00     0.074 A 
ATOM     61  C   UNL A   1      49.137  30.007  26.846  1.00  0.00     0.031 C 
ATOM     62  C   UNL A   1      48.249  27.742  26.376  1.00  0.00     0.037 A 
BRANCH  49  63
ATOM     63  C   UNL A   1      43.282  24.156  27.201  1.00  0.00     0.058 A 
ATOM     64  C   UNL A   1      43.250  23.162  28.192  1.00  0.00     0.135 A 
ATOM     65  C   UNL A   1      42.641  23.887  25.981  1.00  0.00     0.135 A 
ATOM     66  F   UNL A   1      43.861  23.360  29.369  1.00  0.00    -0.206 F 
ATOM     67  C   UNL A   1      42.624  21.938  27.974  1.00  0.00     0.059 A 
ATOM     68  C   UNL A   1      41.987  22.680  25.751  1.00  0.00     0.059 A 
ATOM     69  F   UNL A   1      42.644  24.801  24.999  1.00  0.00    -0.206 F 
ATOM     70  C   UNL A   1      41.995  21.706  26.750  1.00  0.00     0.060 A 
BRANCH  70  71
ATOM     71  S   UNL A   1      41.177  20.118  26.486  1.00  0.00     0.124 S 
ATOM     72  O   UNL A   1      41.349  19.484  27.790  1.00  0.00    -0.237 OA
ATOM     73  O   UNL A   1      39.815  20.520  26.151  1.00  0.00    -0.237 OA
ATOM     74  O   UNL A   1      41.939  19.521  25.394  1.00  0.00    -0.744 OA
ENDBRANCH  70  71
ENDBRANCH  49  63
BRANCH  50  75
ATOM     75  C   UNL A   1      47.260  33.116  28.992  1.00  0.00     0.058 A 
ATOM     76  C   UNL A   1      47.181  34.188  28.091  1.00  0.00     0.135 A 
ATOM     77  C   UNL A   1      47.973  33.316  30.185  1.00  0.00     0.135 A 
ATOM     78  F   UNL A   1      46.525  34.041  26.930  1.00  0.00    -0.206 F 
ATOM     79  C   UNL A   1      47.802  35.406  28.352  1.00  0.00     0.059 A 
ATOM     80  C   UNL A   1      48.579  34.532  30.480  1.00  0.00     0.059 A 
ATOM     81  F   UNL A   1      48.070  32.326  31.086  1.00  0.00    -0.206 F 
ATOM     82  C   UNL A   1      48.499  35.568  29.550  1.00  0.00     0.060 A 
BRANCH  82  83
ATOM     83  S   UNL A   1      49.265  37.165  29.906  1.00  0.00     0.124 S 
ATOM     84  O   UNL A   1      50.409  36.767  30.718  1.00  0.00    -0.237 OA
ATOM     85  O   UNL A   1      49.572  37.662  28.568  1.00  0.00    -0.237 OA
ATOM     86  O   UNL A   1      48.211  37.890  30.609  1.00  0.00    -0.744 OA
ENDBRANCH  82  83
ENDBRANCH  50  75
BRANCH  62  87
ATOM     87  C   UNL A   1      49.529  27.437  25.642  1.00  0.00     0.058 A 
ATOM     88  C   UNL A   1      49.596  27.436  24.240  1.00  0.00     0.135 A 
ATOM     89  C   UNL A   1      50.709  27.158  26.351  1.00  0.00     0.135 A 
ATOM     90  F   UNL A   1      48.498  27.697  23.511  1.00  0.00    -0.206 F 
ATOM     91  C   UNL A   1      50.773  27.125  23.567  1.00  0.00     0.059 A 
ATOM     92  C   UNL A   1      51.906  26.872  25.699  1.00  0.00     0.059 A 
ATOM     93  F   UNL A   1      50.708  27.161  27.693  1.00  0.00    -0.206 F 
ATOM     94  C   UNL A   1      51.922  26.838  24.306  1.00  0.00     0.060 A 
BRANCH  94  95
ATOM     95  S   UNL A   1      53.442  26.428  23.422  1.00  0.00     0.124 S 
ATOM     96  O   UNL A   1      54.427  27.226  24.144  1.00  0.00    -0.237 OA
ATOM     97  O   UNL A   1      53.537  24.983  23.611  1.00  0.00    -0.237 OA
ATOM     98  O   UNL A   1      53.167  26.856  22.054  1.00  0.00    -0.744 OA
ENDBRANCH  94  95
ENDBRANCH  62  87
ENDBRANCH  36  37
ENDBRANCH  29  31
ENDBRANCH  28  29
ENDBRANCH  27  28
ENDBRANCH  26  27
ENDBRANCH  25  26
ENDBRANCH  24  25
ENDBRANCH   1  24
TORSDOF 24
ENDMDL
MODEL 2
REMARK VINA RESULT:      -8.6      7.263     11.776
REMARK SMILES O=C(Cc1ccc(S(=O)(=O)C[C@H]2CCCO2)cc1)OCCOCCOCCOC(=O)c1ccc(-c2c3nc(c(-c4c(F)cc(S(=O)(=O)[O-])cc4F)c4ccc([nH]4)c(-c4c(F)cc(S(=O)(=O)[O-])cc4F)c4nc(c(-c5c(F)cc(S(=O)(=O)[O-])cc5F)c5ccc2[nH]5)C=C4)C=C3)cc1
REMARK SMILES IDX 23 1 22 2 21 3 20 4 19 5 2 6 1 7 3 8 4 9 5 10 18 11 6 12
REMARK SMILES IDX 17 13 7 14 8 15 9 16 10 17 11 18 12 19 13 20 16 21 14 22
REMARK SMILES IDX 15 23 24 24 25 25 26 26 27 27 28 28 29 29 30 30 31 31 32 32
REMARK SMILES IDX 96 33 33 34 95 35 34 36 35 37 36 38 89 39 37 40 94 41 88 42
REMARK SMILES IDX 90 43 38 44 93 45 87 46 86 47 39 49 73 50 52 51 72 52 53 53
REMARK SMILES IDX 56 54 71 55 91 56 54 57 55 58 70 60 92 61 57 62 40 63 41 64
REMARK SMILES IDX 50 65 42 66 43 67 49 68 51 69 44 70 45 71 46 72 47 73 48 74
REMARK SMILES IDX 74 75 75 76 84 77 76 78 77 79 83 80 85 81 78 82 79 83 80 84
REMARK SMILES IDX 81 85 82 86 58 87 59 88 68 89 60 90 61 91 67 92 69 93 62 94
REMARK SMILES IDX 63 95 64 96 65 97 66 98
REMARK H PARENT 90 48 56 59
REMARK Flexibility Score: inf
ROOT
ATOM      1  C   UNL A   1      45.545  42.098  28.710  1.00  0.00     0.188 C 
ENDROOT
BRANCH   1   2
ATOM      2  O   UNL A   1      46.097  41.127  27.838  1.00  0.00    -0.376 OA
BRANCH   2   3
ATOM      3  C   UNL A   1      46.416  41.577  26.535  1.00  0.00     0.202 C 
BRANCH   3   4
ATOM      4  C   UNL A   1      45.695  40.748  25.480  1.00  0.00     0.261 C 
BRANCH   4   5
ATOM      5  O   UNL A   1      44.585  41.397  24.817  1.00  0.00    -0.463 OA
BRANCH   5   6
ATOM      6  C   UNL A   1      44.535  42.598  24.205  1.00  0.00     0.310 C 
ATOM      7  O   UNL A   1      43.826  43.481  24.689  1.00  0.00    -0.252 OA
BRANCH   6   8
ATOM      8  C   UNL A   1      45.224  42.821  22.883  1.00  0.00     0.158 C 
BRANCH   8   9
ATOM      9  C   UNL A   1      44.378  43.239  21.711  1.00  0.00    -0.037 A 
ATOM     10  C   UNL A   1      43.205  42.555  21.373  1.00  0.00     0.005 A 
ATOM     11  C   UNL A   1      44.820  44.291  20.895  1.00  0.00     0.005 A 
ATOM     12  C   UNL A   1      42.458  42.952  20.266  1.00  0.00     0.020 A 
ATOM     13  C   UNL A   1      44.087  44.678  19.775  1.00  0.00     0.020 A 
ATOM     14  C   UNL A   1      42.902  44.012  19.468  1.00  0.00     0.067 A 
BRANCH  14  15
ATOM     15  S   UNL A   1      41.920  44.426  18.046  1.00  0.00     0.180 S 
ATOM     16  O   UNL A   1      42.652  43.897  16.908  1.00  0.00    -0.224 OA
ATOM     17  O   UNL A   1      40.573  43.951  18.305  1.00  0.00    -0.224 OA
BRANCH  15  18
ATOM     18  C   UNL A   1      41.891  46.183  17.855  1.00  0.00     0.174 C 
BRANCH  18  19
ATOM     19  C   UNL A   1      42.624  46.780  16.660  1.00  0.00     0.133 C 
ATOM     20  C   UNL A   1      42.225  48.200  16.287  1.00  0.00     0.035 C 
ATOM     21  O   UNL A   1      44.047  46.767  16.800  1.00  0.00    -0.377 OA
ATOM     22  C   UNL A   1      43.355  49.048  16.804  1.00  0.00     0.031 C 
ATOM     23  C   UNL A   1      44.543  48.114  16.736  1.00  0.00     0.160 C 
ENDBRANCH  18  19
ENDBRANCH  15  18
ENDBRANCH  14  15
ENDBRANCH   8   9
ENDBRANCH   6   8
ENDBRANCH   5   6
ENDBRANCH   4   5
ENDBRANCH   3   4
ENDBRANCH   2   3
ENDBRANCH   1   2
BRANCH   1  24
ATOM     24  C   UNL A   1      44.081  41.810  29.079  1.00  0.00     0.188 C 
BRANCH  24  25
ATOM     25  O   UNL A   1      43.679  40.512  29.499  1.00  0.00    -0.376 OA
BRANCH  25  26
ATOM     26  C   UNL A   1      42.860  39.714  28.659  1.00  0.00     0.202 C 
BRANCH  26  27
ATOM     27  C   UNL A   1      43.058  38.195  28.710  1.00  0.00     0.261 C 
BRANCH  27  28
ATOM     28  O   UNL A   1      42.637  37.488  27.529  1.00  0.00    -0.460 OA
BRANCH  28  29
ATOM     29  C   UNL A   1      42.097  36.263  27.752  1.00  0.00     0.338 C 
ATOM     30  O   UNL A   1      40.944  36.019  28.064  1.00  0.00    -0.246 OA
BRANCH  29  31
ATOM     31  C   UNL A   1      43.063  35.187  27.430  1.00  0.00     0.060 A 
ATOM     32  C   UNL A   1      43.747  34.588  28.497  1.00  0.00     0.016 A 
ATOM     33  C   UNL A   1      43.392  34.853  26.114  1.00  0.00     0.016 A 
ATOM     34  C   UNL A   1      44.801  33.705  28.252  1.00  0.00     0.010 A 
ATOM     35  C   UNL A   1      44.462  33.975  25.870  1.00  0.00     0.010 A 
ATOM     36  C   UNL A   1      45.202  33.432  26.937  1.00  0.00    -0.014 A 
BRANCH  36  37
ATOM     37  C   UNL A   1      46.501  32.738  26.711  1.00  0.00     0.031 A 
ATOM     38  C   UNL A   1      46.524  31.231  26.645  1.00  0.00     0.074 A 
ATOM     39  C   UNL A   1      47.636  33.428  26.486  1.00  0.00     0.049 A 
ATOM     40  N   UNL A   1      47.528  30.424  26.409  1.00  0.00    -0.248 NA
ATOM     41  C   UNL A   1      45.243  30.543  26.875  1.00  0.00     0.031 C 
ATOM     42  C   UNL A   1      47.755  34.885  26.494  1.00  0.00     0.029 A 
ATOM     43  N   UNL A   1      48.907  32.988  26.206  1.00  0.00    -0.354 N 
ATOM     44  C   UNL A   1      46.999  29.138  26.444  1.00  0.00     0.074 A 
ATOM     45  C   UNL A   1      45.596  29.270  26.773  1.00  0.00     0.031 C 
ATOM     46  C   UNL A   1      49.034  35.218  26.242  1.00  0.00     0.029 A 
ATOM     47  C   UNL A   1      49.826  34.001  26.068  1.00  0.00     0.049 A 
ATOM     48  H   UNL A   1      49.138  32.036  26.113  1.00  0.00     0.167 HD
ATOM     49  C   UNL A   1      47.616  27.954  26.206  1.00  0.00     0.037 A 
ATOM     50  C   UNL A   1      51.154  33.954  25.837  1.00  0.00     0.037 A 
ATOM     51  C   UNL A   1      49.014  27.812  25.888  1.00  0.00     0.049 A 
ATOM     52  C   UNL A   1      51.832  32.623  25.628  1.00  0.00     0.074 A 
ATOM     53  C   UNL A   1      49.727  26.651  25.637  1.00  0.00     0.029 A 
ATOM     54  N   UNL A   1      49.914  28.861  25.780  1.00  0.00    -0.354 N 
ATOM     55  N   UNL A   1      51.311  31.418  25.646  1.00  0.00    -0.248 NA
ATOM     56  C   UNL A   1      53.276  32.647  25.352  1.00  0.00     0.031 C 
ATOM     57  C   UNL A   1      51.064  26.995  25.417  1.00  0.00     0.029 A 
ATOM     58  C   UNL A   1      51.177  28.373  25.482  1.00  0.00     0.049 A 
ATOM     59  H   UNL A   1      49.689  29.812  25.898  1.00  0.00     0.167 HD
ATOM     60  C   UNL A   1      52.359  30.546  25.363  1.00  0.00     0.074 A 
ATOM     61  C   UNL A   1      53.537  31.361  25.157  1.00  0.00     0.031 C 
ATOM     62  C   UNL A   1      52.347  29.192  25.282  1.00  0.00     0.037 A 
BRANCH  49  63
ATOM     63  C   UNL A   1      46.776  26.708  26.285  1.00  0.00     0.058 A 
ATOM     64  C   UNL A   1      45.911  26.339  25.242  1.00  0.00     0.135 A 
ATOM     65  C   UNL A   1      46.866  25.853  27.396  1.00  0.00     0.135 A 
ATOM     66  F   UNL A   1      45.774  27.129  24.166  1.00  0.00    -0.206 F 
ATOM     67  C   UNL A   1      45.147  25.178  25.307  1.00  0.00     0.059 A 
ATOM     68  C   UNL A   1      46.131  24.674  27.471  1.00  0.00     0.059 A 
ATOM     69  F   UNL A   1      47.676  26.159  28.421  1.00  0.00    -0.206 F 
ATOM     70  C   UNL A   1      45.264  24.351  26.426  1.00  0.00     0.060 A 
BRANCH  70  71
ATOM     71  S   UNL A   1      44.275  22.842  26.491  1.00  0.00     0.124 S 
ATOM     72  O   UNL A   1      43.192  23.165  25.567  1.00  0.00    -0.237 OA
ATOM     73  O   UNL A   1      45.219  21.829  26.032  1.00  0.00    -0.237 OA
ATOM     74  O   UNL A   1      43.891  22.747  27.896  1.00  0.00    -0.744 OA
ENDBRANCH  70  71
ENDBRANCH  49  63
BRANCH  50  75
ATOM     75  C   UNL A   1      51.948  35.214  25.809  1.00  0.00     0.058 A 
ATOM     76  C   UNL A   1      52.506  35.756  26.976  1.00  0.00     0.135 A 
ATOM     77  C   UNL A   1      52.141  35.912  24.606  1.00  0.00     0.135 A 
ATOM     78  F   UNL A   1      52.336  35.135  28.152  1.00  0.00    -0.206 F 
ATOM     79  C   UNL A   1      53.210  36.957  26.956  1.00  0.00     0.059 A 
ATOM     80  C   UNL A   1      52.863  37.098  24.557  1.00  0.00     0.059 A 
ATOM     81  F   UNL A   1      51.637  35.430  23.460  1.00  0.00    -0.206 F 
ATOM     82  C   UNL A   1      53.384  37.620  25.740  1.00  0.00     0.060 A 
BRANCH  82  83
ATOM     83  S   UNL A   1      54.337  39.154  25.711  1.00  0.00     0.124 S 
ATOM     84  O   UNL A   1      53.844  39.830  26.905  1.00  0.00    -0.237 OA
ATOM     85  O   UNL A   1      55.711  38.663  25.776  1.00  0.00    -0.237 OA
ATOM     86  O   UNL A   1      53.955  39.758  24.439  1.00  0.00    -0.744 OA
ENDBRANCH  82  83
ENDBRANCH  50  75
BRANCH  62  87
ATOM     87  C   UNL A   1      53.644  28.507  24.934  1.00  0.00     0.058 A 
ATOM     88  C   UNL A   1      54.533  28.060  25.924  1.00  0.00     0.135 A 
ATOM     89  C   UNL A   1      53.994  28.282  23.593  1.00  0.00     0.135 A 
ATOM     90  F   UNL A   1      54.249  28.248  27.223  1.00  0.00    -0.206 F 
ATOM     91  C   UNL A   1      55.743  27.455  25.597  1.00  0.00     0.059 A 
ATOM     92  C   UNL A   1      55.186  27.653  23.242  1.00  0.00     0.059 A 
ATOM     93  F   UNL A   1      53.174  28.674  22.605  1.00  0.00    -0.206 F 
ATOM     94  C   UNL A   1      56.063  27.261  24.252  1.00  0.00     0.060 A 
BRANCH  94  95
ATOM     95  S   UNL A   1      57.639  26.483  23.839  1.00  0.00     0.124 S 
ATOM     96  O   UNL A   1      57.494  25.175  24.468  1.00  0.00    -0.237 OA
ATOM     97  O   UNL A   1      57.621  26.489  22.379  1.00  0.00    -0.237 OA
ATOM     98  O   UNL A   1      58.626  27.368  24.450  1.00  0.00    -0.744 OA
ENDBRANCH  94  95
ENDBRANCH  62  87
ENDBRANCH  36  37
ENDBRANCH  29  31
ENDBRANCH  28  29
ENDBRANCH  27  28
ENDBRANCH  26  27
ENDBRANCH  25  26
ENDBRANCH  24  25
ENDBRANCH   1  24
TORSDOF 24
ENDMDL
MODEL 3
REMARK VINA RESULT:      -8.5      6.180     13.792
REMARK SMILES O=C(Cc1ccc(S(=O)(=O)C[C@H]2CCCO2)cc1)OCCOCCOCCOC(=O)c1ccc(-c2c3nc(c(-c4c(F)cc(S(=O)(=O)[O-])cc4F)c4ccc([nH]4)c(-c4c(F)cc(S(=O)(=O)[O-])cc4F)c4nc(c(-c5c(F)cc(S(=O)(=O)[O-])cc5F)c5ccc2[nH]5)C=C4)C=C3)cc1
REMARK SMILES IDX 23 1 22 2 21 3 20 4 19 5 2 6 1 7 3 8 4 9 5 10 18 11 6 12
REMARK SMILES IDX 17 13 7 14 8 15 9 16 10 17 11 18 12 19 13 20 16 21 14 22
REMARK SMILES IDX 15 23 24 24 25 25 26 26 27 27 28 28 29 29 30 30 31 31 32 32
REMARK SMILES IDX 96 33 33 34 95 35 34 36 35 37 36 38 89 39 37 40 94 41 88 42
REMARK SMILES IDX 90 43 38 44 93 45 87 46 86 47 39 49 73 50 52 51 72 52 53 53
REMARK SMILES IDX 56 54 71 55 91 56 54 57 55 58 70 60 92 61 57 62 40 63 41 64
REMARK SMILES IDX 50 65 42 66 43 67 49 68 51 69 44 70 45 71 46 72 47 73 48 74
REMARK SMILES IDX 74 75 75 76 84 77 76 78 77 79 83 80 85 81 78 82 79 83 80 84
REMARK SMILES IDX 81 85 82 86 58 87 59 88 68 89 60 90 61 91 67 92 69 93 62 94
REMARK SMILES IDX 63 95 64 96 65 97 66 98
REMARK H PARENT 90 48 56 59
REMARK Flexibility Score: inf
ROOT
ATOM      1  C   UNL A   1      48.865  26.898  27.488  1.00  0.00     0.188 C 
ENDROOT
BRANCH   1   2
ATOM      2  O   UNL A   1      49.426  28.162  27.801  1.00  0.00    -0.376 OA
BRANCH   2   3
ATOM      3  C   UNL A   1      48.501  29.189  28.103  1.00  0.00     0.202 C 
BRANCH   3   4
ATOM      4  C   UNL A   1      48.841  30.467  27.346  1.00  0.00     0.261 C 
BRANCH   4   5
ATOM      5  O   UNL A   1      47.754  31.068  26.603  1.00  0.00    -0.463 OA
BRANCH   5   6
ATOM      6  C   UNL A   1      46.534  30.569  26.312  1.00  0.00     0.310 C 
ATOM      7  O   UNL A   1      46.332  30.116  25.186  1.00  0.00    -0.252 OA
BRANCH   6   8
ATOM      8  C   UNL A   1      45.398  30.682  27.297  1.00  0.00     0.158 C 
BRANCH   8   9
ATOM      9  C   UNL A   1      44.761  32.031  27.483  1.00  0.00    -0.037 A 
ATOM     10  C   UNL A   1      44.282  32.450  28.730  1.00  0.00     0.005 A 
ATOM     11  C   UNL A   1      44.573  32.854  26.363  1.00  0.00     0.005 A 
ATOM     12  C   UNL A   1      43.674  33.696  28.863  1.00  0.00     0.020 A 
ATOM     13  C   UNL A   1      43.946  34.092  26.488  1.00  0.00     0.020 A 
ATOM     14  C   UNL A   1      43.505  34.514  27.740  1.00  0.00     0.067 A 
BRANCH  14  15
ATOM     15  S   UNL A   1      42.675  36.066  27.982  1.00  0.00     0.180 S 
ATOM     16  O   UNL A   1      41.379  35.912  27.343  1.00  0.00    -0.224 OA
ATOM     17  O   UNL A   1      42.734  36.364  29.402  1.00  0.00    -0.224 OA
BRANCH  15  18
ATOM     18  C   UNL A   1      43.533  37.326  27.088  1.00  0.00     0.174 C 
BRANCH  18  19
ATOM     19  C   UNL A   1      43.385  38.765  27.570  1.00  0.00     0.133 C 
ATOM     20  C   UNL A   1      43.837  39.836  26.588  1.00  0.00     0.035 C 
ATOM     21  O   UNL A   1      42.053  39.097  27.970  1.00  0.00    -0.377 OA
ATOM     22  C   UNL A   1      42.554  40.390  26.030  1.00  0.00     0.031 C 
ATOM     23  C   UNL A   1      41.572  40.184  27.161  1.00  0.00     0.160 C 
ENDBRANCH  18  19
ENDBRANCH  15  18
ENDBRANCH  14  15
ENDBRANCH   8   9
ENDBRANCH   6   8
ENDBRANCH   5   6
ENDBRANCH   4   5
ENDBRANCH   3   4
ENDBRANCH   2   3
ENDBRANCH   1   2
BRANCH   1  24
ATOM     24  C   UNL A   1      48.146  26.879  26.130  1.00  0.00     0.188 C 
BRANCH  24  25
ATOM     25  O   UNL A   1      47.946  25.656  25.432  1.00  0.00    -0.376 OA
BRANCH  25  26
ATOM     26  C   UNL A   1      46.717  25.410  24.766  1.00  0.00     0.202 C 
BRANCH  26  27
ATOM     27  C   UNL A   1      45.596  24.745  25.572  1.00  0.00     0.261 C 
BRANCH  27  28
ATOM     28  O   UNL A   1      44.852  25.634  26.426  1.00  0.00    -0.460 OA
BRANCH  28  29
ATOM     29  C   UNL A   1      43.601  25.216  26.745  1.00  0.00     0.338 C 
ATOM     30  O   UNL A   1      43.091  24.150  26.448  1.00  0.00    -0.246 OA
BRANCH  29  31
ATOM     31  C   UNL A   1      42.931  26.176  27.652  1.00  0.00     0.060 A 
ATOM     32  C   UNL A   1      43.416  27.491  27.677  1.00  0.00     0.016 A 
ATOM     33  C   UNL A   1      41.937  25.781  28.550  1.00  0.00     0.016 A 
ATOM     34  C   UNL A   1      42.958  28.393  28.639  1.00  0.00     0.010 A 
ATOM     35  C   UNL A   1      41.487  26.686  29.527  1.00  0.00     0.010 A 
ATOM     36  C   UNL A   1      42.028  27.983  29.605  1.00  0.00    -0.014 A 
BRANCH  36  37
ATOM     37  C   UNL A   1      41.786  28.857  30.787  1.00  0.00     0.031 A 
ATOM     38  C   UNL A   1      40.627  29.823  30.758  1.00  0.00     0.074 A 
ATOM     39  C   UNL A   1      42.530  28.748  31.905  1.00  0.00     0.049 A 
ATOM     40  N   UNL A   1      40.202  30.639  31.689  1.00  0.00    -0.248 NA
ATOM     41  C   UNL A   1      39.843  29.871  29.514  1.00  0.00     0.031 C 
ATOM     42  C   UNL A   1      43.662  27.841  32.082  1.00  0.00     0.029 A 
ATOM     43  N   UNL A   1      42.437  29.410  33.107  1.00  0.00    -0.354 N 
ATOM     44  C   UNL A   1      39.093  31.285  31.151  1.00  0.00     0.074 A 
ATOM     45  C   UNL A   1      38.941  30.801  29.796  1.00  0.00     0.031 C 
ATOM     46  C   UNL A   1      44.167  28.012  33.317  1.00  0.00     0.029 A 
ATOM     47  C   UNL A   1      43.404  29.048  34.013  1.00  0.00     0.049 A 
ATOM     48  H   UNL A   1      41.743  30.080  33.298  1.00  0.00     0.167 HD
ATOM     49  C   UNL A   1      38.262  32.184  31.735  1.00  0.00     0.037 A 
ATOM     50  C   UNL A   1      43.653  29.505  35.258  1.00  0.00     0.037 A 
ATOM     51  C   UNL A   1      38.411  32.680  33.080  1.00  0.00     0.049 A 
ATOM     52  C   UNL A   1      42.749  30.545  35.869  1.00  0.00     0.074 A 
ATOM     53  C   UNL A   1      37.620  33.596  33.753  1.00  0.00     0.029 A 
ATOM     54  N   UNL A   1      39.417  32.305  33.957  1.00  0.00    -0.354 N 
ATOM     55  N   UNL A   1      41.693  31.130  35.353  1.00  0.00    -0.248 NA
ATOM     56  C   UNL A   1      43.060  30.976  37.241  1.00  0.00     0.031 C 
ATOM     57  C   UNL A   1      38.171  33.805  35.021  1.00  0.00     0.029 A 
ATOM     58  C   UNL A   1      39.276  32.983  35.158  1.00  0.00     0.049 A 
ATOM     59  H   UNL A   1      40.126  31.653  33.757  1.00  0.00     0.167 HD
ATOM     60  C   UNL A   1      41.205  31.979  36.342  1.00  0.00     0.074 A 
ATOM     61  C   UNL A   1      42.067  31.817  37.494  1.00  0.00     0.031 C 
ATOM     62  C   UNL A   1      40.141  32.820  36.300  1.00  0.00     0.037 A 
BRANCH  49  63
ATOM     63  C   UNL A   1      37.111  32.698  30.913  1.00  0.00     0.058 A 
ATOM     64  C   UNL A   1      37.277  33.748  29.996  1.00  0.00     0.135 A 
ATOM     65  C   UNL A   1      35.840  32.110  31.014  1.00  0.00     0.135 A 
ATOM     66  F   UNL A   1      38.466  34.357  29.872  1.00  0.00    -0.206 F 
ATOM     67  C   UNL A   1      36.217  34.212  29.223  1.00  0.00     0.059 A 
ATOM     68  C   UNL A   1      34.772  32.541  30.233  1.00  0.00     0.059 A 
ATOM     69  F   UNL A   1      35.627  31.104  31.877  1.00  0.00    -0.206 F 
ATOM     70  C   UNL A   1      34.967  33.602  29.349  1.00  0.00     0.060 A 
BRANCH  70  71
ATOM     71  S   UNL A   1      33.604  34.208  28.332  1.00  0.00     0.124 S 
ATOM     72  O   UNL A   1      33.214  32.996  27.617  1.00  0.00    -0.237 OA
ATOM     73  O   UNL A   1      32.656  34.686  29.333  1.00  0.00    -0.237 OA
ATOM     74  O   UNL A   1      34.225  35.245  27.514  1.00  0.00    -0.744 OA
ENDBRANCH  70  71
ENDBRANCH  49  63
BRANCH  50  75
ATOM     75  C   UNL A   1      44.830  28.994  36.015  1.00  0.00     0.058 A 
ATOM     76  C   UNL A   1      46.099  29.576  35.880  1.00  0.00     0.135 A 
ATOM     77  C   UNL A   1      44.705  27.890  36.873  1.00  0.00     0.135 A 
ATOM     78  F   UNL A   1      46.272  30.623  35.059  1.00  0.00    -0.206 F 
ATOM     79  C   UNL A   1      47.207  29.071  36.553  1.00  0.00     0.059 A 
ATOM     80  C   UNL A   1      45.792  27.385  37.578  1.00  0.00     0.059 A 
ATOM     81  F   UNL A   1      43.511  27.304  37.047  1.00  0.00    -0.206 F 
ATOM     82  C   UNL A   1      47.043  27.975  37.401  1.00  0.00     0.060 A 
BRANCH  82  83
ATOM     83  S   UNL A   1      48.474  27.350  38.309  1.00  0.00     0.124 S 
ATOM     84  O   UNL A   1      47.857  26.878  39.542  1.00  0.00    -0.237 OA
ATOM     85  O   UNL A   1      48.980  26.317  37.410  1.00  0.00    -0.237 OA
ATOM     86  O   UNL A   1      49.326  28.529  38.438  1.00  0.00    -0.744 OA
ENDBRANCH  82  83
ENDBRANCH  50  75
BRANCH  62  87
ATOM     87  C   UNL A   1      39.834  33.611  37.545  1.00  0.00     0.058 A 
ATOM     88  C   UNL A   1      38.881  33.178  38.480  1.00  0.00     0.135 A 
ATOM     89  C   UNL A   1      40.513  34.811  37.813  1.00  0.00     0.135 A 
ATOM     90  F   UNL A   1      38.202  32.038  38.275  1.00  0.00    -0.206 F 
ATOM     91  C   UNL A   1      38.580  33.927  39.614  1.00  0.00     0.059 A 
ATOM     92  C   UNL A   1      40.248  35.563  38.955  1.00  0.00     0.059 A 
ATOM     93  F   UNL A   1      41.445  35.265  36.962  1.00  0.00    -0.206 F 
ATOM     94  C   UNL A   1      39.264  35.123  39.839  1.00  0.00     0.060 A 
BRANCH  94  95
ATOM     95  S   UNL A   1      38.860  36.091  41.308  1.00  0.00     0.124 S 
ATOM     96  O   UNL A   1      38.700  37.427  40.745  1.00  0.00    -0.237 OA
ATOM     97  O   UNL A   1      37.634  35.452  41.780  1.00  0.00    -0.237 OA
ATOM     98  O   UNL A   1      40.024  35.907  42.169  1.00  0.00    -0.744 OA
ENDBRANCH  94  95
ENDBRANCH  62  87
ENDBRANCH  36  37
ENDBRANCH  29  31
ENDBRANCH  28  29
ENDBRANCH  27  28
ENDBRANCH  26  27
ENDBRANCH  25  26
ENDBRANCH  24  25
ENDBRANCH   1  24
TORSDOF 24
ENDMDL
