MODEL 1
REMARK VINA RESULT:      -9.2      0.000      0.000
REMARK SMILES CCCCCCNC(=O)Oc1cccc(-c2ccc([C@@H](C)C(=O)OCCOCCOCCOC(=O)c3ccc(-c4c5nc(c(-c6c(F)cc(S(=O)(=O)[O-])cc6F)c6ccc([nH]6)c(-c6c(F)cc(S(=O)(=O)[O-])cc6F)c6nc(c(-c7c(F)cc(S(=O)(=O)[O-])cc7F)c7ccc4[nH]7)C=C6)C=C5)cc3)cc2C)c1
REMARK SMILES IDX 25 1 24 2 22 3 23 4 20 5 21 6 19 7 16 8 17 9 103 10 18 11
REMARK SMILES IDX 102 12 104 13 15 14 11 15 12 16 105 17 13 18 14 19 10 20
REMARK SMILES IDX 8 21 7 22 9 24 6 25 5 26 4 27 3 28 2 29 1 30 26 31 27 32
REMARK SMILES IDX 28 33 29 34 30 35 31 36 32 37 33 38 34 39 35 40 36 41 37 42
REMARK SMILES IDX 101 43 38 44 100 45 39 46 40 47 41 48 94 49 42 50 99 51
REMARK SMILES IDX 93 52 95 53 43 54 98 55 92 56 91 57 44 59 78 60 57 61 77 62
REMARK SMILES IDX 58 63 61 64 76 65 96 66 59 67 60 68 75 70 97 71 62 72 45 73
REMARK SMILES IDX 46 74 55 75 47 76 48 77 54 78 56 79 49 80 50 81 51 82 52 83
REMARK SMILES IDX 53 84 79 85 80 86 89 87 81 88 82 89 88 90 90 91 83 92 84 93
REMARK SMILES IDX 85 94 86 95 87 96 63 97 64 98 73 99 65 100 66 101 72 102
REMARK SMILES IDX 74 103 67 104 68 105 69 106 70 107 71 108
REMARK H PARENT 7 23 95 58 61 69
REMARK Flexibility Score: inf
ROOT
ATOM      1  C   UNL A   1      37.558  22.300  25.905  1.00  0.00     0.261 C 
ENDROOT
BRANCH   1   2
ATOM      2  O   UNL A   1      36.710  21.142  26.070  1.00  0.00    -0.463 OA
BRANCH   2   3
ATOM      3  C   UNL A   1      35.510  21.181  25.438  1.00  0.00     0.313 C 
ATOM      4  O   UNL A   1      35.370  20.899  24.248  1.00  0.00    -0.252 OA
BRANCH   3   5
ATOM      5  C   UNL A   1      34.305  21.598  26.285  1.00  0.00     0.126 C 
ATOM      6  C   UNL A   1      33.173  20.604  26.029  1.00  0.00     0.025 C 
BRANCH   5   7
ATOM      7  C   UNL A   1      33.765  23.028  26.264  1.00  0.00    -0.034 A 
ATOM      8  C   UNL A   1      32.877  25.761  26.166  1.00  0.00    -0.015 A 
ATOM      9  C   UNL A   1      32.293  24.811  27.031  1.00  0.00     0.009 A 
ATOM     10  C   UNL A   1      33.946  25.327  25.353  1.00  0.00    -0.043 A 
ATOM     11  C   UNL A   1      32.735  23.477  27.096  1.00  0.00     0.005 A 
ATOM     12  C   UNL A   1      34.359  23.975  25.404  1.00  0.00     0.008 A 
ATOM     13  C   UNL A   1      34.677  26.245  24.403  1.00  0.00     0.045 C 
BRANCH   8  14
ATOM     14  C   UNL A   1      32.408  27.168  26.197  1.00  0.00    -0.014 A 
ATOM     15  C   UNL A   1      31.151  29.036  25.275  1.00  0.00     0.133 A 
ATOM     16  C   UNL A   1      31.712  29.912  26.201  1.00  0.00     0.047 A 
ATOM     17  C   UNL A   1      31.475  27.674  25.271  1.00  0.00     0.056 A 
ATOM     18  C   UNL A   1      32.605  29.421  27.147  1.00  0.00     0.004 A 
ATOM     19  C   UNL A   1      32.954  28.066  27.138  1.00  0.00     0.009 A 
BRANCH  15  20
ATOM     20  O   UNL A   1      30.396  29.627  24.241  1.00  0.00    -0.410 OA
BRANCH  20  21
ATOM     21  C   UNL A   1      30.551  29.188  22.938  1.00  0.00     0.412 C 
ATOM     22  N   UNL A   1      29.456  28.531  22.451  1.00  0.00    -0.321 N 
ATOM     23  H   UNL A   1      29.491  28.260  21.506  1.00  0.00     0.167 HD
ATOM     24  O   UNL A   1      31.569  29.323  22.253  1.00  0.00    -0.224 OA
BRANCH  22  25
ATOM     25  C   UNL A   1      28.244  28.189  23.179  1.00  0.00     0.119 C 
BRANCH  25  26
ATOM     26  C   UNL A   1      28.355  26.864  23.933  1.00  0.00     0.021 C 
BRANCH  26  27
ATOM     27  C   UNL A   1      29.046  25.730  23.166  1.00  0.00     0.002 C 
BRANCH  27  28
ATOM     28  C   UNL A   1      30.221  25.057  23.885  1.00  0.00    -0.000 C 
BRANCH  28  29
ATOM     29  C   UNL A   1      31.342  24.536  22.981  1.00  0.00    -0.003 C 
ATOM     30  C   UNL A   1      31.939  25.607  22.080  1.00  0.00     0.004 C 
ENDBRANCH  28  29
ENDBRANCH  27  28
ENDBRANCH  26  27
ENDBRANCH  25  26
ENDBRANCH  22  25
ENDBRANCH  20  21
ENDBRANCH  15  20
ENDBRANCH   8  14
ENDBRANCH   5   7
ENDBRANCH   3   5
ENDBRANCH   2   3
ENDBRANCH   1   2
BRANCH   1  31
ATOM     31  C   UNL A   1      39.053  21.993  25.757  1.00  0.00     0.202 C 
BRANCH  31  32
ATOM     32  O   UNL A   1      39.504  20.708  26.158  1.00  0.00    -0.376 OA
BRANCH  32  33
ATOM     33  C   UNL A   1      40.758  20.583  26.823  1.00  0.00     0.188 C 
BRANCH  33  34
ATOM     34  C   UNL A   1      41.990  20.112  26.038  1.00  0.00     0.188 C 
BRANCH  34  35
ATOM     35  O   UNL A   1      42.772  21.160  25.496  1.00  0.00    -0.376 OA
BRANCH  35  36
ATOM     36  C   UNL A   1      42.945  22.284  26.339  1.00  0.00     0.202 C 
BRANCH  36  37
ATOM     37  C   UNL A   1      42.745  23.597  25.575  1.00  0.00     0.261 C 
BRANCH  37  38
ATOM     38  O   UNL A   1      41.655  24.413  26.049  1.00  0.00    -0.460 OA
BRANCH  38  39
ATOM     39  C   UNL A   1      41.816  25.748  25.950  1.00  0.00     0.338 C 
ATOM     40  O   UNL A   1      41.767  26.422  24.926  1.00  0.00    -0.246 OA
BRANCH  39  41
ATOM     41  C   UNL A   1      41.849  26.327  27.307  1.00  0.00     0.060 A 
ATOM     42  C   UNL A   1      40.857  25.953  28.225  1.00  0.00     0.016 A 
ATOM     43  C   UNL A   1      42.829  27.254  27.666  1.00  0.00     0.016 A 
ATOM     44  C   UNL A   1      40.804  26.551  29.484  1.00  0.00     0.010 A 
ATOM     45  C   UNL A   1      42.768  27.862  28.923  1.00  0.00     0.010 A 
ATOM     46  C   UNL A   1      41.729  27.547  29.820  1.00  0.00    -0.014 A 
BRANCH  46  47
ATOM     47  C   UNL A   1      41.485  28.417  30.999  1.00  0.00     0.031 A 
ATOM     48  C   UNL A   1      40.362  29.420  30.918  1.00  0.00     0.074 A 
ATOM     49  C   UNL A   1      42.225  28.320  32.119  1.00  0.00     0.049 A 
ATOM     50  N   UNL A   1      40.001  30.336  31.777  1.00  0.00    -0.248 NA
ATOM     51  C   UNL A   1      39.539  29.383  29.697  1.00  0.00     0.031 C 
ATOM     52  C   UNL A   1      43.308  27.364  32.339  1.00  0.00     0.029 A 
ATOM     53  N   UNL A   1      42.178  29.050  33.281  1.00  0.00    -0.354 N 
ATOM     54  C   UNL A   1      38.922  30.993  31.197  1.00  0.00     0.074 A 
ATOM     55  C   UNL A   1      38.703  30.389  29.902  1.00  0.00     0.031 C 
ATOM     56  C   UNL A   1      43.837  27.580  33.558  1.00  0.00     0.029 A 
ATOM     57  C   UNL A   1      43.153  28.708  34.188  1.00  0.00     0.049 A 
ATOM     58  H   UNL A   1      41.509  29.753  33.449  1.00  0.00     0.167 HD
ATOM     59  C   UNL A   1      38.175  32.003  31.701  1.00  0.00     0.037 A 
ATOM     60  C   UNL A   1      43.470  29.261  35.377  1.00  0.00     0.037 A 
ATOM     61  C   UNL A   1      38.391  32.599  32.993  1.00  0.00     0.049 A 
ATOM     62  C   UNL A   1      42.663  30.429  35.891  1.00  0.00     0.074 A 
ATOM     63  C   UNL A   1      37.678  33.618  33.600  1.00  0.00     0.029 A 
ATOM     64  N   UNL A   1      39.398  32.235  33.875  1.00  0.00    -0.354 N 
ATOM     65  N   UNL A   1      41.634  31.030  35.341  1.00  0.00    -0.248 NA
ATOM     66  C   UNL A   1      43.060  30.994  37.190  1.00  0.00     0.031 C 
ATOM     67  C   UNL A   1      38.284  33.904  34.826  1.00  0.00     0.029 A 
ATOM     68  C   UNL A   1      39.338  33.024  35.011  1.00  0.00     0.049 A 
ATOM     69  H   UNL A   1      40.058  31.521  33.716  1.00  0.00     0.167 HD
ATOM     70  C   UNL A   1      41.241  32.017  36.241  1.00  0.00     0.074 A 
ATOM     71  C   UNL A   1      42.136  31.927  37.374  1.00  0.00     0.031 C 
ATOM     72  C   UNL A   1      40.227  32.914  36.141  1.00  0.00     0.037 A 
BRANCH  59  73
ATOM     73  C   UNL A   1      37.066  32.545  30.843  1.00  0.00     0.058 A 
ATOM     74  C   UNL A   1      37.308  33.481  29.825  1.00  0.00     0.135 A 
ATOM     75  C   UNL A   1      35.747  32.094  31.016  1.00  0.00     0.135 A 
ATOM     76  F   UNL A   1      38.546  33.964  29.630  1.00  0.00    -0.206 F 
ATOM     77  C   UNL A   1      36.280  33.967  29.024  1.00  0.00     0.059 A 
ATOM     78  C   UNL A   1      34.707  32.545  30.208  1.00  0.00     0.059 A 
ATOM     79  F   UNL A   1      35.459  31.204  31.979  1.00  0.00    -0.206 F 
ATOM     80  C   UNL A   1      34.982  33.490  29.222  1.00  0.00     0.060 A 
BRANCH  80  81
ATOM     81  S   UNL A   1      33.663  34.123  28.165  1.00  0.00     0.124 S 
ATOM     82  O   UNL A   1      33.124  32.889  27.601  1.00  0.00    -0.237 OA
ATOM     83  O   UNL A   1      32.802  34.810  29.122  1.00  0.00    -0.237 OA
ATOM     84  O   UNL A   1      34.366  34.988  27.223  1.00  0.00    -0.744 OA
ENDBRANCH  80  81
ENDBRANCH  59  73
BRANCH  60  85
ATOM     85  C   UNL A   1      44.618  28.734  36.167  1.00  0.00     0.058 A 
ATOM     86  C   UNL A   1      44.444  27.701  37.100  1.00  0.00     0.135 A 
ATOM     87  C   UNL A   1      45.905  29.274  36.027  1.00  0.00     0.135 A 
ATOM     88  F   UNL A   1      43.230  27.161  37.284  1.00  0.00    -0.206 F 
ATOM     89  C   UNL A   1      45.499  27.237  37.883  1.00  0.00     0.059 A 
ATOM     90  C   UNL A   1      46.982  28.809  36.776  1.00  0.00     0.059 A 
ATOM     91  F   UNL A   1      46.129  30.260  35.144  1.00  0.00    -0.206 F 
ATOM     92  C   UNL A   1      46.765  27.799  37.712  1.00  0.00     0.060 A 
BRANCH  92  93
ATOM     93  S   UNL A   1      48.133  27.170  38.710  1.00  0.00     0.124 S 
ATOM     94  O   UNL A   1      48.720  28.406  39.215  1.00  0.00    -0.237 OA
ATOM     95  O   UNL A   1      47.439  26.345  39.694  1.00  0.00    -0.237 OA
ATOM     96  O   UNL A   1      48.944  26.434  37.744  1.00  0.00    -0.744 OA
ENDBRANCH  92  93
ENDBRANCH  60  85
BRANCH  72  97
ATOM     97  C   UNL A   1      39.993  33.840  37.305  1.00  0.00     0.058 A 
ATOM     98  C   UNL A   1      40.617  35.094  37.394  1.00  0.00     0.135 A 
ATOM     99  C   UNL A   1      39.085  33.486  38.318  1.00  0.00     0.135 A 
ATOM    100  F   UNL A   1      41.494  35.481  36.456  1.00  0.00    -0.206 F 
ATOM    101  C   UNL A   1      40.369  35.954  38.460  1.00  0.00     0.059 A 
ATOM    102  C   UNL A   1      38.800  34.344  39.377  1.00  0.00     0.059 A 
ATOM    103  F   UNL A   1      38.449  32.305  38.275  1.00  0.00    -0.206 F 
ATOM    104  C   UNL A   1      39.458  35.570  39.447  1.00  0.00     0.060 A 
BRANCH 104 105
ATOM    105  S   UNL A   1      39.124  36.707  40.809  1.00  0.00     0.124 S 
ATOM    106  O   UNL A   1      38.295  35.883  41.683  1.00  0.00    -0.237 OA
ATOM    107  O   UNL A   1      40.465  37.006  41.304  1.00  0.00    -0.237 OA
ATOM    108  O   UNL A   1      38.439  37.822  40.162  1.00  0.00    -0.744 OA
ENDBRANCH 104 105
ENDBRANCH  72  97
ENDBRANCH  46  47
ENDBRANCH  39  41
ENDBRANCH  38  39
ENDBRANCH  37  38
ENDBRANCH  36  37
ENDBRANCH  35  36
ENDBRANCH  34  35
ENDBRANCH  33  34
ENDBRANCH  32  33
ENDBRANCH  31  32
ENDBRANCH   1  31
TORSDOF 29
ENDMDL
MODEL 2
REMARK VINA RESULT:      -7.3      6.203     13.207
REMARK SMILES CCCCCCNC(=O)Oc1cccc(-c2ccc([C@@H](C)C(=O)OCCOCCOCCOC(=O)c3ccc(-c4c5nc(c(-c6c(F)cc(S(=O)(=O)[O-])cc6F)c6ccc([nH]6)c(-c6c(F)cc(S(=O)(=O)[O-])cc6F)c6nc(c(-c7c(F)cc(S(=O)(=O)[O-])cc7F)c7ccc4[nH]7)C=C6)C=C5)cc3)cc2C)c1
REMARK SMILES IDX 25 1 24 2 22 3 23 4 20 5 21 6 19 7 16 8 17 9 103 10 18 11
REMARK SMILES IDX 102 12 104 13 15 14 11 15 12 16 105 17 13 18 14 19 10 20
REMARK SMILES IDX 8 21 7 22 9 24 6 25 5 26 4 27 3 28 2 29 1 30 26 31 27 32
REMARK SMILES IDX 28 33 29 34 30 35 31 36 32 37 33 38 34 39 35 40 36 41 37 42
REMARK SMILES IDX 101 43 38 44 100 45 39 46 40 47 41 48 94 49 42 50 99 51
REMARK SMILES IDX 93 52 95 53 43 54 98 55 92 56 91 57 44 59 78 60 57 61 77 62
REMARK SMILES IDX 58 63 61 64 76 65 96 66 59 67 60 68 75 70 97 71 62 72 45 73
REMARK SMILES IDX 46 74 55 75 47 76 48 77 54 78 56 79 49 80 50 81 51 82 52 83
REMARK SMILES IDX 53 84 79 85 80 86 89 87 81 88 82 89 88 90 90 91 83 92 84 93
REMARK SMILES IDX 85 94 86 95 87 96 63 97 64 98 73 99 65 100 66 101 72 102
REMARK SMILES IDX 74 103 67 104 68 105 69 106 70 107 71 108
REMARK H PARENT 7 23 95 58 61 69
REMARK Flexibility Score: inf
ROOT
ATOM      1  C   UNL A   1      39.379  29.211  30.015  1.00  0.00     0.261 C 
ENDROOT
BRANCH   1   2
ATOM      2  O   UNL A   1      39.311  29.466  31.435  1.00  0.00    -0.463 OA
BRANCH   2   3
ATOM      3  C   UNL A   1      38.332  28.820  32.116  1.00  0.00     0.313 C 
ATOM      4  O   UNL A   1      38.239  27.594  32.154  1.00  0.00    -0.252 OA
BRANCH   3   5
ATOM      5  C   UNL A   1      37.319  29.700  32.855  1.00  0.00     0.126 C 
ATOM      6  C   UNL A   1      36.356  30.289  31.824  1.00  0.00     0.025 C 
BRANCH   5   7
ATOM      7  C   UNL A   1      37.762  30.781  33.839  1.00  0.00    -0.034 A 
ATOM      8  C   UNL A   1      38.523  32.917  35.608  1.00  0.00    -0.015 A 
ATOM      9  C   UNL A   1      39.220  31.690  35.566  1.00  0.00     0.009 A 
ATOM     10  C   UNL A   1      37.437  33.077  34.721  1.00  0.00    -0.043 A 
ATOM     11  C   UNL A   1      38.862  30.649  34.690  1.00  0.00     0.005 A 
ATOM     12  C   UNL A   1      37.067  32.009  33.869  1.00  0.00     0.008 A 
ATOM     13  C   UNL A   1      36.623  34.346  34.643  1.00  0.00     0.045 C 
BRANCH   8  14
ATOM     14  C   UNL A   1      38.996  33.999  36.506  1.00  0.00    -0.014 A 
ATOM     15  C   UNL A   1      40.494  35.836  37.056  1.00  0.00     0.133 A 
ATOM     16  C   UNL A   1      39.979  35.911  38.348  1.00  0.00     0.047 A 
ATOM     17  C   UNL A   1      40.006  34.905  36.131  1.00  0.00     0.056 A 
ATOM     18  C   UNL A   1      38.955  35.048  38.723  1.00  0.00     0.004 A 
ATOM     19  C   UNL A   1      38.476  34.098  37.814  1.00  0.00     0.009 A 
BRANCH  15  20
ATOM     20  O   UNL A   1      41.642  36.613  36.800  1.00  0.00    -0.410 OA
BRANCH  20  21
ATOM     21  C   UNL A   1      42.880  36.003  36.712  1.00  0.00     0.412 C 
ATOM     22  N   UNL A   1      43.395  35.996  35.446  1.00  0.00    -0.321 N 
ATOM     23  H   UNL A   1      44.305  35.635  35.344  1.00  0.00     0.167 HD
ATOM     24  O   UNL A   1      43.486  35.473  37.648  1.00  0.00    -0.224 OA
BRANCH  22  25
ATOM     25  C   UNL A   1      42.745  36.466  34.233  1.00  0.00     0.119 C 
BRANCH  25  26
ATOM     26  C   UNL A   1      43.736  36.930  33.166  1.00  0.00     0.021 C 
BRANCH  26  27
ATOM     27  C   UNL A   1      44.779  37.950  33.640  1.00  0.00     0.002 C 
BRANCH  27  28
ATOM     28  C   UNL A   1      44.987  39.165  32.728  1.00  0.00    -0.000 C 
BRANCH  28  29
ATOM     29  C   UNL A   1      44.431  40.491  33.255  1.00  0.00    -0.003 C 
ATOM     30  C   UNL A   1      44.338  41.574  32.190  1.00  0.00     0.004 C 
ENDBRANCH  28  29
ENDBRANCH  27  28
ENDBRANCH  26  27
ENDBRANCH  25  26
ENDBRANCH  22  25
ENDBRANCH  20  21
ENDBRANCH  15  20
ENDBRANCH   8  14
ENDBRANCH   5   7
ENDBRANCH   3   5
ENDBRANCH   2   3
ENDBRANCH   1   2
BRANCH   1  31
ATOM     31  C   UNL A   1      38.031  29.240  29.285  1.00  0.00     0.202 C 
BRANCH  31  32
ATOM     32  O   UNL A   1      38.049  29.168  27.867  1.00  0.00    -0.376 OA
BRANCH  32  33
ATOM     33  C   UNL A   1      36.867  29.481  27.136  1.00  0.00     0.188 C 
BRANCH  33  34
ATOM     34  C   UNL A   1      35.534  29.641  27.880  1.00  0.00     0.188 C 
BRANCH  34  35
ATOM     35  O   UNL A   1      34.451  30.038  27.061  1.00  0.00    -0.376 OA
BRANCH  35  36
ATOM     36  C   UNL A   1      33.803  31.235  27.453  1.00  0.00     0.202 C 
BRANCH  36  37
ATOM     37  C   UNL A   1      34.432  31.828  28.718  1.00  0.00     0.261 C 
BRANCH  37  38
ATOM     38  O   UNL A   1      35.282  32.971  28.495  1.00  0.00    -0.460 OA
BRANCH  38  39
ATOM     39  C   UNL A   1      35.511  33.767  29.558  1.00  0.00     0.338 C 
ATOM     40  O   UNL A   1      34.672  34.357  30.230  1.00  0.00    -0.246 OA
BRANCH  39  41
ATOM     41  C   UNL A   1      36.932  33.655  29.941  1.00  0.00     0.060 A 
ATOM     42  C   UNL A   1      37.373  34.312  31.098  1.00  0.00     0.016 A 
ATOM     43  C   UNL A   1      37.831  32.935  29.152  1.00  0.00     0.016 A 
ATOM     44  C   UNL A   1      38.727  34.305  31.437  1.00  0.00     0.010 A 
ATOM     45  C   UNL A   1      39.188  32.938  29.485  1.00  0.00     0.010 A 
ATOM     46  C   UNL A   1      39.648  33.661  30.602  1.00  0.00    -0.014 A 
BRANCH  46  47
ATOM     47  C   UNL A   1      41.102  33.925  30.761  1.00  0.00     0.031 A 
ATOM     48  C   UNL A   1      41.879  33.054  31.714  1.00  0.00     0.074 A 
ATOM     49  C   UNL A   1      41.725  34.901  30.076  1.00  0.00     0.049 A 
ATOM     50  N   UNL A   1      43.130  33.133  32.081  1.00  0.00    -0.248 NA
ATOM     51  C   UNL A   1      41.138  31.944  32.339  1.00  0.00     0.031 C 
ATOM     52  C   UNL A   1      41.097  35.783  29.095  1.00  0.00     0.029 A 
ATOM     53  N   UNL A   1      43.033  35.318  30.115  1.00  0.00    -0.354 N 
ATOM     54  C   UNL A   1      43.324  32.097  32.989  1.00  0.00     0.074 A 
ATOM     55  C   UNL A   1      42.055  31.420  33.137  1.00  0.00     0.031 C 
ATOM     56  C   UNL A   1      42.018  36.651  28.637  1.00  0.00     0.029 A 
ATOM     57  C   UNL A   1      43.290  36.408  29.317  1.00  0.00     0.049 A 
ATOM     58  H   UNL A   1      43.723  34.879  30.664  1.00  0.00     0.167 HD
ATOM     59  C   UNL A   1      44.458  31.737  33.634  1.00  0.00     0.037 A 
ATOM     60  C   UNL A   1      44.415  37.139  29.174  1.00  0.00     0.037 A 
ATOM     61  C   UNL A   1      45.721  32.409  33.480  1.00  0.00     0.049 A 
ATOM     62  C   UNL A   1      45.651  36.758  29.953  1.00  0.00     0.074 A 
ATOM     63  C   UNL A   1      46.932  32.110  34.080  1.00  0.00     0.029 A 
ATOM     64  N   UNL A   1      45.936  33.517  32.675  1.00  0.00    -0.354 N 
ATOM     65  N   UNL A   1      45.826  35.765  30.795  1.00  0.00    -0.248 NA
ATOM     66  C   UNL A   1      46.845  37.595  29.762  1.00  0.00     0.031 C 
ATOM     67  C   UNL A   1      47.867  33.067  33.675  1.00  0.00     0.029 A 
ATOM     68  C   UNL A   1      47.254  33.927  32.779  1.00  0.00     0.049 A 
ATOM     69  H   UNL A   1      45.252  33.949  32.113  1.00  0.00     0.167 HD
ATOM     70  C   UNL A   1      47.155  35.840  31.203  1.00  0.00     0.074 A 
ATOM     71  C   UNL A   1      47.740  36.967  30.511  1.00  0.00     0.031 C 
ATOM     72  C   UNL A   1      47.831  35.044  32.070  1.00  0.00     0.037 A 
BRANCH  59  73
ATOM     73  C   UNL A   1      44.380  30.574  34.585  1.00  0.00     0.058 A 
ATOM     74  C   UNL A   1      43.927  30.728  35.905  1.00  0.00     0.135 A 
ATOM     75  C   UNL A   1      44.727  29.282  34.159  1.00  0.00     0.135 A 
ATOM     76  F   UNL A   1      43.603  31.945  36.372  1.00  0.00    -0.206 F 
ATOM     77  C   UNL A   1      43.842  29.647  36.775  1.00  0.00     0.059 A 
ATOM     78  C   UNL A   1      44.624  28.181  35.004  1.00  0.00     0.059 A 
ATOM     79  F   UNL A   1      45.172  29.080  32.909  1.00  0.00    -0.206 F 
ATOM     80  C   UNL A   1      44.190  28.376  36.314  1.00  0.00     0.060 A 
BRANCH  80  81
ATOM     81  S   UNL A   1      44.062  26.982  37.454  1.00  0.00     0.124 S 
ATOM     82  O   UNL A   1      44.751  27.503  38.630  1.00  0.00    -0.237 OA
ATOM     83  O   UNL A   1      42.617  26.823  37.587  1.00  0.00    -0.237 OA
ATOM     84  O   UNL A   1      44.749  25.903  36.752  1.00  0.00    -0.744 OA
ENDBRANCH  80  81
ENDBRANCH  59  73
BRANCH  60  85
ATOM     85  C   UNL A   1      44.432  38.322  28.270  1.00  0.00     0.058 A 
ATOM     86  C   UNL A   1      43.884  39.550  28.669  1.00  0.00     0.135 A 
ATOM     87  C   UNL A   1      44.969  38.240  26.976  1.00  0.00     0.135 A 
ATOM     88  F   UNL A   1      43.344  39.678  29.891  1.00  0.00    -0.206 F 
ATOM     89  C   UNL A   1      43.846  40.648  27.813  1.00  0.00     0.059 A 
ATOM     90  C   UNL A   1      44.970  39.330  26.111  1.00  0.00     0.059 A 
ATOM     91  F   UNL A   1      45.511  37.090  26.545  1.00  0.00    -0.206 F 
ATOM     92  C   UNL A   1      44.393  40.526  26.534  1.00  0.00     0.060 A 
BRANCH  92  93
ATOM     93  S   UNL A   1      44.366  41.964  25.441  1.00  0.00     0.124 S 
ATOM     94  O   UNL A   1      44.675  43.045  26.371  1.00  0.00    -0.237 OA
ATOM     95  O   UNL A   1      45.411  41.635  24.476  1.00  0.00    -0.237 OA
ATOM     96  O   UNL A   1      43.006  41.957  24.910  1.00  0.00    -0.744 OA
ENDBRANCH  92  93
ENDBRANCH  60  85
BRANCH  72  97
ATOM     97  C   UNL A   1      49.294  35.325  32.285  1.00  0.00     0.058 A 
ATOM     98  C   UNL A   1      49.746  36.166  33.314  1.00  0.00     0.135 A 
ATOM     99  C   UNL A   1      50.261  34.697  31.481  1.00  0.00     0.135 A 
ATOM    100  F   UNL A   1      48.866  36.793  34.110  1.00  0.00    -0.206 F 
ATOM    101  C   UNL A   1      51.103  36.395  33.522  1.00  0.00     0.059 A 
ATOM    102  C   UNL A   1      51.623  34.888  31.691  1.00  0.00     0.059 A 
ATOM    103  F   UNL A   1      49.885  33.872  30.492  1.00  0.00    -0.206 F 
ATOM    104  C   UNL A   1      52.034  35.751  32.705  1.00  0.00     0.060 A 
BRANCH 104 105
ATOM    105  S   UNL A   1      53.792  36.034  33.004  1.00  0.00     0.124 S 
ATOM    106  O   UNL A   1      54.149  36.887  31.874  1.00  0.00    -0.237 OA
ATOM    107  O   UNL A   1      53.788  36.683  34.312  1.00  0.00    -0.237 OA
ATOM    108  O   UNL A   1      54.363  34.690  32.980  1.00  0.00    -0.744 OA
ENDBRANCH 104 105
ENDBRANCH  72  97
ENDBRANCH  46  47
ENDBRANCH  39  41
ENDBRANCH  38  39
ENDBRANCH  37  38
ENDBRANCH  36  37
ENDBRANCH  35  36
ENDBRANCH  34  35
ENDBRANCH  33  34
ENDBRANCH  32  33
ENDBRANCH  31  32
ENDBRANCH   1  31
TORSDOF 29
ENDMDL
MODEL 3
REMARK VINA RESULT:      -6.8     10.044     15.911
REMARK SMILES CCCCCCNC(=O)Oc1cccc(-c2ccc([C@@H](C)C(=O)OCCOCCOCCOC(=O)c3ccc(-c4c5nc(c(-c6c(F)cc(S(=O)(=O)[O-])cc6F)c6ccc([nH]6)c(-c6c(F)cc(S(=O)(=O)[O-])cc6F)c6nc(c(-c7c(F)cc(S(=O)(=O)[O-])cc7F)c7ccc4[nH]7)C=C6)C=C5)cc3)cc2C)c1
REMARK SMILES IDX 25 1 24 2 22 3 23 4 20 5 21 6 19 7 16 8 17 9 103 10 18 11
REMARK SMILES IDX 102 12 104 13 15 14 11 15 12 16 105 17 13 18 14 19 10 20
REMARK SMILES IDX 8 21 7 22 9 24 6 25 5 26 4 27 3 28 2 29 1 30 26 31 27 32
REMARK SMILES IDX 28 33 29 34 30 35 31 36 32 37 33 38 34 39 35 40 36 41 37 42
REMARK SMILES IDX 101 43 38 44 100 45 39 46 40 47 41 48 94 49 42 50 99 51
REMARK SMILES IDX 93 52 95 53 43 54 98 55 92 56 91 57 44 59 78 60 57 61 77 62
REMARK SMILES IDX 58 63 61 64 76 65 96 66 59 67 60 68 75 70 97 71 62 72 45 73
REMARK SMILES IDX 46 74 55 75 47 76 48 77 54 78 56 79 49 80 50 81 51 82 52 83
REMARK SMILES IDX 53 84 79 85 80 86 89 87 81 88 82 89 88 90 90 91 83 92 84 93
REMARK SMILES IDX 85 94 86 95 87 96 63 97 64 98 73 99 65 100 66 101 72 102
REMARK SMILES IDX 74 103 67 104 68 105 69 106 70 107 71 108
REMARK H PARENT 7 23 95 58 61 69
REMARK Flexibility Score: inf
ROOT
ATOM      1  C   UNL A   1      44.422  41.445  27.520  1.00  0.00     0.261 C 
ENDROOT
BRANCH   1   2
ATOM      2  O   UNL A   1      45.854  41.492  27.704  1.00  0.00    -0.463 OA
BRANCH   2   3
ATOM      3  C   UNL A   1      46.608  41.038  26.671  1.00  0.00     0.313 C 
ATOM      4  O   UNL A   1      46.860  39.847  26.498  1.00  0.00    -0.252 OA
BRANCH   3   5
ATOM      5  C   UNL A   1      47.147  42.095  25.703  1.00  0.00     0.126 C 
ATOM      6  C   UNL A   1      47.474  43.355  26.505  1.00  0.00     0.025 C 
BRANCH   5   7
ATOM      7  C   UNL A   1      46.401  42.467  24.422  1.00  0.00    -0.034 A 
ATOM      8  C   UNL A   1      44.880  43.200  22.094  1.00  0.00    -0.015 A 
ATOM      9  C   UNL A   1      46.007  42.353  22.021  1.00  0.00     0.009 A 
ATOM     10  C   UNL A   1      44.501  43.665  23.372  1.00  0.00    -0.043 A 
ATOM     11  C   UNL A   1      46.744  41.977  23.159  1.00  0.00     0.005 A 
ATOM     12  C   UNL A   1      45.270  43.306  24.504  1.00  0.00     0.008 A 
ATOM     13  C   UNL A   1      43.301  44.554  23.597  1.00  0.00     0.045 C 
BRANCH   8  14
ATOM     14  C   UNL A   1      44.107  43.501  20.865  1.00  0.00    -0.014 A 
ATOM     15  C   UNL A   1      43.551  44.922  18.969  1.00  0.00     0.133 A 
ATOM     16  C   UNL A   1      42.462  44.116  18.644  1.00  0.00     0.047 A 
ATOM     17  C   UNL A   1      44.381  44.622  20.056  1.00  0.00     0.056 A 
ATOM     18  C   UNL A   1      42.201  42.986  19.410  1.00  0.00     0.004 A 
ATOM     19  C   UNL A   1      43.010  42.687  20.512  1.00  0.00     0.009 A 
BRANCH  15  20
ATOM     20  O   UNL A   1      43.653  46.140  18.266  1.00  0.00    -0.410 OA
BRANCH  20  21
ATOM     21  C   UNL A   1      44.788  46.415  17.526  1.00  0.00     0.412 C 
ATOM     22  N   UNL A   1      45.365  47.614  17.838  1.00  0.00    -0.321 N 
ATOM     23  H   UNL A   1      46.214  47.824  17.387  1.00  0.00     0.167 HD
ATOM     24  O   UNL A   1      45.255  45.696  16.637  1.00  0.00    -0.224 OA
BRANCH  22  25
ATOM     25  C   UNL A   1      44.860  48.614  18.765  1.00  0.00     0.119 C 
BRANCH  25  26
ATOM     26  C   UNL A   1      45.874  48.993  19.844  1.00  0.00     0.021 C 
BRANCH  26  27
ATOM     27  C   UNL A   1      47.306  49.222  19.346  1.00  0.00     0.002 C 
BRANCH  27  28
ATOM     28  C   UNL A   1      48.393  49.248  20.427  1.00  0.00    -0.000 C 
BRANCH  28  29
ATOM     29  C   UNL A   1      48.724  47.897  21.066  1.00  0.00    -0.003 C 
ATOM     30  C   UNL A   1      49.228  48.012  22.498  1.00  0.00     0.004 C 
ENDBRANCH  28  29
ENDBRANCH  27  28
ENDBRANCH  26  27
ENDBRANCH  25  26
ENDBRANCH  22  25
ENDBRANCH  20  21
ENDBRANCH  15  20
ENDBRANCH   8  14
ENDBRANCH   5   7
ENDBRANCH   3   5
ENDBRANCH   2   3
ENDBRANCH   1   2
BRANCH   1  31
ATOM     31  C   UNL A   1      43.715  40.282  28.227  1.00  0.00     0.202 C 
BRANCH  31  32
ATOM     32  O   UNL A   1      43.129  40.542  29.494  1.00  0.00    -0.376 OA
BRANCH  32  33
ATOM     33  C   UNL A   1      43.102  41.877  29.992  1.00  0.00     0.188 C 
BRANCH  33  34
ATOM     34  C   UNL A   1      42.829  42.126  31.481  1.00  0.00     0.188 C 
BRANCH  34  35
ATOM     35  O   UNL A   1      43.816  41.606  32.351  1.00  0.00    -0.376 OA
BRANCH  35  36
ATOM     36  C   UNL A   1      43.344  41.178  33.616  1.00  0.00     0.202 C 
BRANCH  36  37
ATOM     37  C   UNL A   1      43.078  39.669  33.637  1.00  0.00     0.261 C 
BRANCH  37  38
ATOM     38  O   UNL A   1      44.149  38.874  34.185  1.00  0.00    -0.460 OA
BRANCH  38  39
ATOM     39  C   UNL A   1      45.263  38.766  33.434  1.00  0.00     0.338 C 
ATOM     40  O   UNL A   1      46.208  39.548  33.404  1.00  0.00    -0.246 OA
BRANCH  39  41
ATOM     41  C   UNL A   1      45.284  37.435  32.798  1.00  0.00     0.060 A 
ATOM     42  C   UNL A   1      45.092  37.346  31.412  1.00  0.00     0.016 A 
ATOM     43  C   UNL A   1      45.460  36.280  33.561  1.00  0.00     0.016 A 
ATOM     44  C   UNL A   1      45.013  36.098  30.793  1.00  0.00     0.010 A 
ATOM     45  C   UNL A   1      45.368  35.030  32.942  1.00  0.00     0.010 A 
ATOM     46  C   UNL A   1      45.098  34.933  31.564  1.00  0.00    -0.014 A 
BRANCH  46  47
ATOM     47  C   UNL A   1      44.685  33.629  30.984  1.00  0.00     0.031 A 
ATOM     48  C   UNL A   1      43.213  33.302  30.959  1.00  0.00     0.074 A 
ATOM     49  C   UNL A   1      45.579  32.759  30.481  1.00  0.00     0.049 A 
ATOM     50  N   UNL A   1      42.612  32.206  30.578  1.00  0.00    -0.248 NA
ATOM     51  C   UNL A   1      42.300  34.356  31.432  1.00  0.00     0.031 C 
ATOM     52  C   UNL A   1      47.023  32.975  30.407  1.00  0.00     0.029 A 
ATOM     53  N   UNL A   1      45.398  31.508  29.946  1.00  0.00    -0.354 N 
ATOM     54  C   UNL A   1      41.254  32.431  30.779  1.00  0.00     0.074 A 
ATOM     55  C   UNL A   1      41.123  33.757  31.340  1.00  0.00     0.031 C 
ATOM     56  C   UNL A   1      47.599  31.882  29.874  1.00  0.00     0.029 A 
ATOM     57  C   UNL A   1      46.571  30.879  29.600  1.00  0.00     0.049 A 
ATOM     58  H   UNL A   1      44.511  31.098  29.822  1.00  0.00     0.167 HD
ATOM     59  C   UNL A   1      40.211  31.612  30.513  1.00  0.00     0.037 A 
ATOM     60  C   UNL A   1      46.789  29.629  29.142  1.00  0.00     0.037 A 
ATOM     61  C   UNL A   1      40.344  30.294  29.949  1.00  0.00     0.049 A 
ATOM     62  C   UNL A   1      45.614  28.708  28.913  1.00  0.00     0.074 A 
ATOM     63  C   UNL A   1      39.345  29.391  29.629  1.00  0.00     0.029 A 
ATOM     64  N   UNL A   1      41.550  29.688  29.628  1.00  0.00    -0.354 N 
ATOM     65  N   UNL A   1      44.334  28.940  29.090  1.00  0.00    -0.248 NA
ATOM     66  C   UNL A   1      45.912  27.356  28.419  1.00  0.00     0.031 C 
ATOM     67  C   UNL A   1      39.949  28.221  29.160  1.00  0.00     0.029 A 
ATOM     68  C   UNL A   1      41.321  28.416  29.133  1.00  0.00     0.049 A 
ATOM     69  H   UNL A   1      42.437  30.102  29.736  1.00  0.00     0.167 HD
ATOM     70  C   UNL A   1      43.676  27.777  28.696  1.00  0.00     0.074 A 
ATOM     71  C   UNL A   1      44.698  26.848  28.264  1.00  0.00     0.031 C 
ATOM     72  C   UNL A   1      42.347  27.504  28.690  1.00  0.00     0.037 A 
BRANCH  59  73
ATOM     73  C   UNL A   1      38.831  32.107  30.850  1.00  0.00     0.058 A 
ATOM     74  C   UNL A   1      38.289  31.966  32.137  1.00  0.00     0.135 A 
ATOM     75  C   UNL A   1      38.056  32.765  29.882  1.00  0.00     0.135 A 
ATOM     76  F   UNL A   1      38.977  31.325  33.095  1.00  0.00    -0.206 F 
ATOM     77  C   UNL A   1      37.018  32.440  32.446  1.00  0.00     0.059 A 
ATOM     78  C   UNL A   1      36.794  33.272  30.176  1.00  0.00     0.059 A 
ATOM     79  F   UNL A   1      38.525  32.921  28.633  1.00  0.00    -0.206 F 
ATOM     80  C   UNL A   1      36.279  33.095  31.459  1.00  0.00     0.060 A 
BRANCH  80  81
ATOM     81  S   UNL A   1      34.638  33.714  31.882  1.00  0.00     0.124 S 
ATOM     82  O   UNL A   1      34.966  34.932  32.616  1.00  0.00    -0.237 OA
ATOM     83  O   UNL A   1      34.032  33.911  30.569  1.00  0.00    -0.237 OA
ATOM     84  O   UNL A   1      34.062  32.637  32.681  1.00  0.00    -0.744 OA
ENDBRANCH  80  81
ENDBRANCH  59  73
BRANCH  60  85
ATOM     85  C   UNL A   1      48.176  29.156  28.882  1.00  0.00     0.058 A 
ATOM     86  C   UNL A   1      48.943  28.561  29.895  1.00  0.00     0.135 A 
ATOM     87  C   UNL A   1      48.774  29.316  27.622  1.00  0.00     0.135 A 
ATOM     88  F   UNL A   1      48.424  28.399  31.121  1.00  0.00    -0.206 F 
ATOM     89  C   UNL A   1      50.260  28.163  29.677  1.00  0.00     0.059 A 
ATOM     90  C   UNL A   1      50.079  28.900  27.370  1.00  0.00     0.059 A 
ATOM     91  F   UNL A   1      48.083  29.873  26.615  1.00  0.00    -0.206 F 
ATOM     92  C   UNL A   1      50.818  28.338  28.409  1.00  0.00     0.060 A 
BRANCH  92  93
ATOM     93  S   UNL A   1      52.517  27.791  28.129  1.00  0.00     0.124 S 
ATOM     94  O   UNL A   1      52.364  26.952  26.946  1.00  0.00    -0.237 OA
ATOM     95  O   UNL A   1      53.216  29.056  27.927  1.00  0.00    -0.237 OA
ATOM     96  O   UNL A   1      52.852  27.087  29.364  1.00  0.00    -0.744 OA
ENDBRANCH  92  93
ENDBRANCH  60  85
BRANCH  72  97
ATOM     97  C   UNL A   1      41.908  26.168  28.152  1.00  0.00     0.058 A 
ATOM     98  C   UNL A   1      42.131  24.974  28.856  1.00  0.00     0.135 A 
ATOM     99  C   UNL A   1      41.203  26.091  26.939  1.00  0.00     0.135 A 
ATOM    100  F   UNL A   1      42.801  24.990  30.018  1.00  0.00    -0.206 F 
ATOM    101  C   UNL A   1      41.694  23.748  28.363  1.00  0.00     0.059 A 
ATOM    102  C   UNL A   1      40.731  24.880  26.443  1.00  0.00     0.059 A 
ATOM    103  F   UNL A   1      40.949  27.203  26.232  1.00  0.00    -0.206 F 
ATOM    104  C   UNL A   1      40.994  23.711  27.155  1.00  0.00     0.060 A 
BRANCH 104 105
ATOM    105  S   UNL A   1      40.407  22.118  26.541  1.00  0.00     0.124 S 
ATOM    106  O   UNL A   1      39.090  22.469  26.023  1.00  0.00    -0.237 OA
ATOM    107  O   UNL A   1      41.414  21.779  25.538  1.00  0.00    -0.237 OA
ATOM    108  O   UNL A   1      40.409  21.272  27.731  1.00  0.00    -0.744 OA
ENDBRANCH 104 105
ENDBRANCH  72  97
ENDBRANCH  46  47
ENDBRANCH  39  41
ENDBRANCH  38  39
ENDBRANCH  37  38
ENDBRANCH  36  37
ENDBRANCH  35  36
ENDBRANCH  34  35
ENDBRANCH  33  34
ENDBRANCH  32  33
ENDBRANCH  31  32
ENDBRANCH   1  31
TORSDOF 29
ENDMDL
