MODEL 1
REMARK VINA RESULT:     -11.2      0.000      0.000
REMARK SMILES Cc1c(-c2nn(-c3ccccc3)cc2/C=N/O)nnn1-c1ccc(C(=O)OCCOCCOCCOC(=O)c2ccc(-c3c4nc(c(-c5c(F)cc(S(=O)(=O)[O-])cc5F)c5ccc([nH]5)c(-c5c(F)cc(S(=O)(=O)[O-])cc5F)c5nc(c(-c6c(F)cc(S(=O)(=O)[O-])cc6F)c6ccc3[nH]6)C=C5)C=C4)cc2)cc1
REMARK SMILES IDX 31 1 30 2 29 3 28 4 27 5 25 6 26 7 24 8 21 9 22 10 106 11
REMARK SMILES IDX 23 12 105 13 20 14 1 15 2 16 3 17 18 18 19 19 4 20 5 21
REMARK SMILES IDX 14 22 6 23 13 24 15 25 16 26 17 27 7 29 8 30 12 31 9 32
REMARK SMILES IDX 11 33 10 34 32 35 33 36 34 37 35 38 36 39 37 40 38 41 39 42
REMARK SMILES IDX 40 43 104 44 41 45 103 46 42 47 43 48 44 49 97 50 45 51
REMARK SMILES IDX 102 52 96 53 98 54 46 55 101 56 95 57 94 58 47 60 81 61
REMARK SMILES IDX 60 62 80 63 61 64 64 65 79 66 99 67 62 68 63 69 78 71 100 72
REMARK SMILES IDX 65 73 48 74 49 75 58 76 50 77 51 78 57 79 59 80 52 81 53 82
REMARK SMILES IDX 54 83 55 84 56 85 82 86 83 87 92 88 84 89 85 90 91 91 93 92
REMARK SMILES IDX 86 93 87 94 88 95 89 96 90 97 66 98 67 99 76 100 68 101
REMARK SMILES IDX 69 102 75 103 77 104 70 105 71 106 72 107 73 108 74 109
REMARK H PARENT 17 28 98 59 64 70
REMARK Flexibility Score: inf
ROOT
ATOM      1  C   UNL A   1      32.150  30.825  25.851  1.00  0.00     0.188 C 
ENDROOT
BRANCH   1   2
ATOM      2  O   UNL A   1      30.741  30.857  25.658  1.00  0.00    -0.376 OA
BRANCH   2   3
ATOM      3  C   UNL A   1      30.149  31.948  24.967  1.00  0.00     0.202 C 
BRANCH   3   4
ATOM      4  C   UNL A   1      29.464  31.693  23.613  1.00  0.00     0.261 C 
BRANCH   4   5
ATOM      5  O   UNL A   1      28.806  30.418  23.498  1.00  0.00    -0.460 OA
BRANCH   5   6
ATOM      6  C   UNL A   1      29.372  29.541  22.640  1.00  0.00     0.338 C 
ATOM      7  O   UNL A   1      29.603  29.718  21.450  1.00  0.00    -0.246 OA
BRANCH   6   8
ATOM      8  C   UNL A   1      29.833  28.333  23.358  1.00  0.00     0.060 A 
ATOM      9  C   UNL A   1      30.867  26.014  24.535  1.00  0.00     0.067 A 
ATOM     10  C   UNL A   1      31.701  27.116  24.319  1.00  0.00     0.029 A 
ATOM     11  C   UNL A   1      29.493  26.113  24.256  1.00  0.00     0.029 A 
ATOM     12  C   UNL A   1      31.190  28.257  23.699  1.00  0.00     0.018 A 
ATOM     13  C   UNL A   1      28.971  27.280  23.680  1.00  0.00     0.018 A 
BRANCH   9  14
ATOM     14  N   UNL A   1      31.449  24.792  24.964  1.00  0.00    -0.217 N 
ATOM     15  C   UNL A   1      32.552  24.001  22.802  1.00  0.00     0.069 C 
ATOM     16  C   UNL A   1      32.160  23.862  24.224  1.00  0.00     0.071 A 
ATOM     17  C   UNL A   1      32.515  22.908  25.158  1.00  0.00     0.137 A 
ATOM     18  N   UNL A   1      32.096  23.280  26.397  1.00  0.00    -0.128 NA
ATOM     19  N   UNL A   1      31.494  24.459  26.281  1.00  0.00    -0.061 NA
BRANCH  17  20
ATOM     20  C   UNL A   1      33.329  21.716  24.942  1.00  0.00     0.124 A 
ATOM     21  N   UNL A   1      32.780  20.506  24.769  1.00  0.00    -0.165 NA
ATOM     22  C   UNL A   1      34.739  21.665  25.012  1.00  0.00     0.044 A 
ATOM     23  N   UNL A   1      33.821  19.649  24.836  1.00  0.00    -0.240 N 
ATOM     24  C   UNL A   1      35.019  20.312  24.980  1.00  0.00     0.125 A 
BRANCH  22  25
ATOM     25  C   UNL A   1      35.733  22.703  25.115  1.00  0.00     0.166 C 
ATOM     26  N   UNL A   1      36.772  22.685  24.350  1.00  0.00    -0.097 NA
BRANCH  26  27
ATOM     27  O   UNL A   1      37.596  23.772  24.667  1.00  0.00    -0.411 OA
ATOM     28  H   UNL A   1      37.220  24.619  24.807  1.00  0.00     0.330 HD
ENDBRANCH  26  27
ENDBRANCH  22  25
BRANCH  23  29
ATOM     29  C   UNL A   1      33.615  18.248  24.804  1.00  0.00     0.065 A 
ATOM     30  C   UNL A   1      34.167  17.493  23.761  1.00  0.00     0.028 A 
ATOM     31  C   UNL A   1      32.852  17.618  25.798  1.00  0.00     0.028 A 
ATOM     32  C   UNL A   1      33.985  16.109  23.734  1.00  0.00     0.002 A 
ATOM     33  C   UNL A   1      32.637  16.240  25.736  1.00  0.00     0.002 A 
ATOM     34  C   UNL A   1      33.214  15.486  24.714  1.00  0.00     0.000 A 
ENDBRANCH  23  29
ENDBRANCH  17  20
ENDBRANCH   9  14
ENDBRANCH   6   8
ENDBRANCH   5   6
ENDBRANCH   4   5
ENDBRANCH   3   4
ENDBRANCH   2   3
ENDBRANCH   1   2
BRANCH   1  35
ATOM     35  C   UNL A   1      32.777  31.123  27.233  1.00  0.00     0.188 C 
BRANCH  35  36
ATOM     36  O   UNL A   1      32.787  32.493  27.612  1.00  0.00    -0.376 OA
BRANCH  36  37
ATOM     37  C   UNL A   1      34.040  33.003  28.053  1.00  0.00     0.202 C 
BRANCH  37  38
ATOM     38  C   UNL A   1      33.975  33.946  29.255  1.00  0.00     0.261 C 
BRANCH  38  39
ATOM     39  O   UNL A   1      35.033  33.793  30.197  1.00  0.00    -0.460 OA
BRANCH  39  40
ATOM     40  C   UNL A   1      35.159  32.578  30.756  1.00  0.00     0.338 C 
ATOM     41  O   UNL A   1      34.476  32.125  31.674  1.00  0.00    -0.246 OA
BRANCH  40  42
ATOM     42  C   UNL A   1      36.296  31.881  30.141  1.00  0.00     0.060 A 
ATOM     43  C   UNL A   1      36.266  30.486  30.115  1.00  0.00     0.016 A 
ATOM     44  C   UNL A   1      37.461  32.594  29.806  1.00  0.00     0.016 A 
ATOM     45  C   UNL A   1      37.454  29.804  29.945  1.00  0.00     0.010 A 
ATOM     46  C   UNL A   1      38.650  31.909  29.644  1.00  0.00     0.010 A 
ATOM     47  C   UNL A   1      38.645  30.527  29.805  1.00  0.00    -0.014 A 
BRANCH  47  48
ATOM     48  C   UNL A   1      39.883  29.792  29.983  1.00  0.00     0.031 A 
ATOM     49  C   UNL A   1      40.378  29.642  31.364  1.00  0.00     0.074 A 
ATOM     50  C   UNL A   1      40.554  29.274  28.936  1.00  0.00     0.049 A 
ATOM     51  N   UNL A   1      41.424  30.184  31.892  1.00  0.00    -0.248 NA
ATOM     52  C   UNL A   1      39.570  28.838  32.288  1.00  0.00     0.031 C 
ATOM     53  C   UNL A   1      40.070  29.097  27.563  1.00  0.00     0.029 A 
ATOM     54  N   UNL A   1      41.802  28.726  28.909  1.00  0.00    -0.354 N 
ATOM     55  C   UNL A   1      41.524  29.635  33.164  1.00  0.00     0.074 A 
ATOM     56  C   UNL A   1      40.295  28.918  33.404  1.00  0.00     0.031 C 
ATOM     57  C   UNL A   1      40.945  28.324  26.883  1.00  0.00     0.029 A 
ATOM     58  C   UNL A   1      42.101  28.070  27.727  1.00  0.00     0.049 A 
ATOM     59  H   UNL A   1      42.433  28.792  29.660  1.00  0.00     0.167 HD
ATOM     60  C   UNL A   1      42.696  29.624  33.851  1.00  0.00     0.037 A 
ATOM     61  C   UNL A   1      43.204  27.330  27.468  1.00  0.00     0.037 A 
ATOM     62  C   UNL A   1      43.668  30.527  33.299  1.00  0.00     0.049 A 
ATOM     63  C   UNL A   1      44.278  27.770  28.391  1.00  0.00     0.074 A 
ATOM     64  C   UNL A   1      43.785  31.896  33.185  1.00  0.00     0.029 A 
ATOM     65  N   UNL A   1      44.609  29.981  32.463  1.00  0.00    -0.354 N 
ATOM     66  N   UNL A   1      44.851  28.942  28.342  1.00  0.00    -0.248 NA
ATOM     67  C   UNL A   1      44.540  27.005  29.603  1.00  0.00     0.031 C 
ATOM     68  C   UNL A   1      44.581  32.126  32.026  1.00  0.00     0.029 A 
ATOM     69  C   UNL A   1      44.904  30.886  31.473  1.00  0.00     0.049 A 
ATOM     70  H   UNL A   1      45.006  29.084  32.557  1.00  0.00     0.167 HD
ATOM     71  C   UNL A   1      45.204  29.220  29.652  1.00  0.00     0.074 A 
ATOM     72  C   UNL A   1      45.143  27.942  30.341  1.00  0.00     0.031 C 
ATOM     73  C   UNL A   1      45.230  30.502  30.115  1.00  0.00     0.037 A 
BRANCH  60  74
ATOM     74  C   UNL A   1      43.077  28.533  34.814  1.00  0.00     0.058 A 
ATOM     75  C   UNL A   1      43.456  28.856  36.130  1.00  0.00     0.135 A 
ATOM     76  C   UNL A   1      43.345  27.209  34.398  1.00  0.00     0.135 A 
ATOM     77  F   UNL A   1      43.270  30.096  36.609  1.00  0.00    -0.206 F 
ATOM     78  C   UNL A   1      44.095  27.937  36.964  1.00  0.00     0.059 A 
ATOM     79  C   UNL A   1      43.931  26.264  35.228  1.00  0.00     0.059 A 
ATOM     80  F   UNL A   1      43.139  26.812  33.135  1.00  0.00    -0.206 F 
ATOM     81  C   UNL A   1      44.343  26.648  36.495  1.00  0.00     0.060 A 
BRANCH  81  82
ATOM     82  S   UNL A   1      45.275  25.493  37.516  1.00  0.00     0.124 S 
ATOM     83  O   UNL A   1      45.516  24.407  36.574  1.00  0.00    -0.237 OA
ATOM     84  O   UNL A   1      46.443  26.284  37.893  1.00  0.00    -0.237 OA
ATOM     85  O   UNL A   1      44.352  25.192  38.606  1.00  0.00    -0.744 OA
ENDBRANCH  81  82
ENDBRANCH  60  74
BRANCH  61  86
ATOM     86  C   UNL A   1      43.304  26.114  26.627  1.00  0.00     0.058 A 
ATOM     87  C   UNL A   1      44.201  26.042  25.550  1.00  0.00     0.135 A 
ATOM     88  C   UNL A   1      42.711  24.899  27.029  1.00  0.00     0.135 A 
ATOM     89  F   UNL A   1      44.830  27.146  25.118  1.00  0.00    -0.206 F 
ATOM     90  C   UNL A   1      44.529  24.830  24.937  1.00  0.00     0.059 A 
ATOM     91  C   UNL A   1      43.008  23.683  26.423  1.00  0.00     0.059 A 
ATOM     92  F   UNL A   1      41.890  24.844  28.088  1.00  0.00    -0.206 F 
ATOM     93  C   UNL A   1      43.941  23.651  25.394  1.00  0.00     0.060 A 
BRANCH  93  94
ATOM     94  S   UNL A   1      44.499  22.066  24.733  1.00  0.00     0.124 S 
ATOM     95  O   UNL A   1      45.836  21.954  25.304  1.00  0.00    -0.237 OA
ATOM     96  O   UNL A   1      43.499  21.144  25.262  1.00  0.00    -0.237 OA
ATOM     97  O   UNL A   1      44.452  22.267  23.286  1.00  0.00    -0.744 OA
ENDBRANCH  93  94
ENDBRANCH  61  86
BRANCH  73  98
ATOM     98  C   UNL A   1      45.341  31.598  29.091  1.00  0.00     0.058 A 
ATOM     99  C   UNL A   1      46.562  32.119  28.634  1.00  0.00     0.135 A 
ATOM    100  C   UNL A   1      44.170  32.059  28.471  1.00  0.00     0.135 A 
ATOM    101  F   UNL A   1      47.727  31.661  29.117  1.00  0.00    -0.206 F 
ATOM    102  C   UNL A   1      46.616  33.088  27.630  1.00  0.00     0.059 A 
ATOM    103  C   UNL A   1      44.200  33.005  27.448  1.00  0.00     0.059 A 
ATOM    104  F   UNL A   1      42.976  31.555  28.826  1.00  0.00    -0.206 F 
ATOM    105  C   UNL A   1      45.429  33.524  27.042  1.00  0.00     0.060 A 
BRANCH 105 106
ATOM    106  S   UNL A   1      45.504  34.705  25.676  1.00  0.00     0.124 S 
ATOM    107  O   UNL A   1      45.508  35.984  26.375  1.00  0.00    -0.237 OA
ATOM    108  O   UNL A   1      46.751  34.344  25.007  1.00  0.00    -0.237 OA
ATOM    109  O   UNL A   1      44.294  34.414  24.910  1.00  0.00    -0.744 OA
ENDBRANCH 105 106
ENDBRANCH  73  98
ENDBRANCH  47  48
ENDBRANCH  40  42
ENDBRANCH  39  40
ENDBRANCH  38  39
ENDBRANCH  37  38
ENDBRANCH  36  37
ENDBRANCH  35  36
ENDBRANCH   1  35
TORSDOF 25
ENDMDL
MODEL 2
REMARK VINA RESULT:     -10.0      2.180      6.711
REMARK SMILES Cc1c(-c2nn(-c3ccccc3)cc2/C=N/O)nnn1-c1ccc(C(=O)OCCOCCOCCOC(=O)c2ccc(-c3c4nc(c(-c5c(F)cc(S(=O)(=O)[O-])cc5F)c5ccc([nH]5)c(-c5c(F)cc(S(=O)(=O)[O-])cc5F)c5nc(c(-c6c(F)cc(S(=O)(=O)[O-])cc6F)c6ccc3[nH]6)C=C5)C=C4)cc2)cc1
REMARK SMILES IDX 31 1 30 2 29 3 28 4 27 5 25 6 26 7 24 8 21 9 22 10 106 11
REMARK SMILES IDX 23 12 105 13 20 14 1 15 2 16 3 17 18 18 19 19 4 20 5 21
REMARK SMILES IDX 14 22 6 23 13 24 15 25 16 26 17 27 7 29 8 30 12 31 9 32
REMARK SMILES IDX 11 33 10 34 32 35 33 36 34 37 35 38 36 39 37 40 38 41 39 42
REMARK SMILES IDX 40 43 104 44 41 45 103 46 42 47 43 48 44 49 97 50 45 51
REMARK SMILES IDX 102 52 96 53 98 54 46 55 101 56 95 57 94 58 47 60 81 61
REMARK SMILES IDX 60 62 80 63 61 64 64 65 79 66 99 67 62 68 63 69 78 71 100 72
REMARK SMILES IDX 65 73 48 74 49 75 58 76 50 77 51 78 57 79 59 80 52 81 53 82
REMARK SMILES IDX 54 83 55 84 56 85 82 86 83 87 92 88 84 89 85 90 91 91 93 92
REMARK SMILES IDX 86 93 87 94 88 95 89 96 90 97 66 98 67 99 76 100 68 101
REMARK SMILES IDX 69 102 75 103 77 104 70 105 71 106 72 107 73 108 74 109
REMARK H PARENT 17 28 98 59 64 70
REMARK Flexibility Score: inf
ROOT
ATOM      1  C   UNL A   1      32.551  30.131  25.774  1.00  0.00     0.188 C 
ENDROOT
BRANCH   1   2
ATOM      2  O   UNL A   1      31.141  30.304  25.714  1.00  0.00    -0.376 OA
BRANCH   2   3
ATOM      3  C   UNL A   1      30.598  31.574  25.382  1.00  0.00     0.202 C 
BRANCH   3   4
ATOM      4  C   UNL A   1      29.596  31.678  24.220  1.00  0.00     0.261 C 
BRANCH   4   5
ATOM      5  O   UNL A   1      29.075  30.420  23.755  1.00  0.00    -0.460 OA
BRANCH   5   6
ATOM      6  C   UNL A   1      29.596  29.962  22.594  1.00  0.00     0.338 C 
ATOM      7  O   UNL A   1      29.557  30.513  21.500  1.00  0.00    -0.246 OA
BRANCH   6   8
ATOM      8  C   UNL A   1      30.379  28.729  22.825  1.00  0.00     0.060 A 
ATOM      9  C   UNL A   1      31.928  26.407  23.027  1.00  0.00     0.067 A 
ATOM     10  C   UNL A   1      32.534  27.620  22.680  1.00  0.00     0.029 A 
ATOM     11  C   UNL A   1      30.566  26.381  23.373  1.00  0.00     0.029 A 
ATOM     12  C   UNL A   1      31.751  28.768  22.546  1.00  0.00     0.018 A 
ATOM     13  C   UNL A   1      29.793  27.546  23.287  1.00  0.00     0.018 A 
BRANCH   9  14
ATOM     14  N   UNL A   1      32.695  25.215  22.947  1.00  0.00    -0.217 N 
ATOM     15  C   UNL A   1      32.418  24.308  25.318  1.00  0.00     0.069 C 
ATOM     16  C   UNL A   1      32.967  24.290  23.942  1.00  0.00     0.071 A 
ATOM     17  C   UNL A   1      33.713  23.326  23.292  1.00  0.00     0.137 A 
ATOM     18  N   UNL A   1      33.825  23.626  21.970  1.00  0.00    -0.128 NA
ATOM     19  N   UNL A   1      33.153  24.751  21.755  1.00  0.00    -0.061 NA
BRANCH  17  20
ATOM     20  C   UNL A   1      34.230  22.080  23.849  1.00  0.00     0.124 A 
ATOM     21  N   UNL A   1      33.609  20.908  23.659  1.00  0.00    -0.165 NA
ATOM     22  C   UNL A   1      35.330  21.972  24.729  1.00  0.00     0.044 A 
ATOM     23  N   UNL A   1      34.233  20.054  24.498  1.00  0.00    -0.240 N 
ATOM     24  C   UNL A   1      35.277  20.659  25.159  1.00  0.00     0.125 A 
BRANCH  22  25
ATOM     25  C   UNL A   1      36.313  22.934  25.159  1.00  0.00     0.166 C 
ATOM     26  N   UNL A   1      36.735  22.930  26.378  1.00  0.00    -0.097 NA
BRANCH  26  27
ATOM     27  O   UNL A   1      37.651  23.975  26.552  1.00  0.00    -0.411 OA
ATOM     28  H   UNL A   1      38.162  24.275  25.825  1.00  0.00     0.330 HD
ENDBRANCH  26  27
ENDBRANCH  22  25
BRANCH  23  29
ATOM     29  C   UNL A   1      33.773  18.724  24.658  1.00  0.00     0.065 A 
ATOM     30  C   UNL A   1      34.306  17.708  23.852  1.00  0.00     0.028 A 
ATOM     31  C   UNL A   1      32.782  18.422  25.602  1.00  0.00     0.028 A 
ATOM     32  C   UNL A   1      33.874  16.391  24.018  1.00  0.00     0.002 A 
ATOM     33  C   UNL A   1      32.322  17.109  25.727  1.00  0.00     0.002 A 
ATOM     34  C   UNL A   1      32.877  16.095  24.947  1.00  0.00     0.000 A 
ENDBRANCH  23  29
ENDBRANCH  17  20
ENDBRANCH   9  14
ENDBRANCH   6   8
ENDBRANCH   5   6
ENDBRANCH   4   5
ENDBRANCH   3   4
ENDBRANCH   2   3
ENDBRANCH   1   2
BRANCH   1  35
ATOM     35  C   UNL A   1      33.324  30.296  27.103  1.00  0.00     0.188 C 
BRANCH  35  36
ATOM     36  O   UNL A   1      33.320  31.607  27.650  1.00  0.00    -0.376 OA
BRANCH  36  37
ATOM     37  C   UNL A   1      34.600  32.168  27.919  1.00  0.00     0.202 C 
BRANCH  37  38
ATOM     38  C   UNL A   1      34.628  33.238  29.010  1.00  0.00     0.261 C 
BRANCH  38  39
ATOM     39  O   UNL A   1      35.643  33.067  29.996  1.00  0.00    -0.460 OA
BRANCH  39  40
ATOM     40  C   UNL A   1      35.339  32.259  31.026  1.00  0.00     0.338 C 
ATOM     41  O   UNL A   1      34.302  32.282  31.688  1.00  0.00    -0.246 OA
BRANCH  40  42
ATOM     42  C   UNL A   1      36.478  31.370  31.291  1.00  0.00     0.060 A 
ATOM     43  C   UNL A   1      37.118  31.485  32.527  1.00  0.00     0.016 A 
ATOM     44  C   UNL A   1      37.030  30.604  30.250  1.00  0.00     0.016 A 
ATOM     45  C   UNL A   1      38.403  30.996  32.652  1.00  0.00     0.010 A 
ATOM     46  C   UNL A   1      38.320  30.123  30.375  1.00  0.00     0.010 A 
ATOM     47  C   UNL A   1      39.021  30.405  31.543  1.00  0.00    -0.014 A 
BRANCH  47  48
ATOM     48  C   UNL A   1      40.460  30.231  31.610  1.00  0.00     0.031 A 
ATOM     49  C   UNL A   1      41.288  31.272  30.976  1.00  0.00     0.074 A 
ATOM     50  C   UNL A   1      41.015  29.166  32.220  1.00  0.00     0.049 A 
ATOM     51  N   UNL A   1      42.013  31.167  29.913  1.00  0.00    -0.248 NA
ATOM     52  C   UNL A   1      41.252  32.616  31.563  1.00  0.00     0.031 C 
ATOM     53  C   UNL A   1      40.362  28.208  33.118  1.00  0.00     0.029 A 
ATOM     54  N   UNL A   1      42.317  28.761  32.213  1.00  0.00    -0.354 N 
ATOM     55  C   UNL A   1      42.688  32.375  29.802  1.00  0.00     0.074 A 
ATOM     56  C   UNL A   1      42.090  33.273  30.761  1.00  0.00     0.031 C 
ATOM     57  C   UNL A   1      41.306  27.443  33.709  1.00  0.00     0.029 A 
ATOM     58  C   UNL A   1      42.601  27.766  33.133  1.00  0.00     0.049 A 
ATOM     59  H   UNL A   1      42.994  29.141  31.609  1.00  0.00     0.167 HD
ATOM     60  C   UNL A   1      43.835  32.495  29.084  1.00  0.00     0.037 A 
ATOM     61  C   UNL A   1      43.821  27.268  33.437  1.00  0.00     0.037 A 
ATOM     62  C   UNL A   1      44.049  31.384  28.197  1.00  0.00     0.049 A 
ATOM     63  C   UNL A   1      44.719  27.521  32.284  1.00  0.00     0.074 A 
ATOM     64  C   UNL A   1      43.430  30.894  27.067  1.00  0.00     0.029 A 
ATOM     65  N   UNL A   1      44.895  30.398  28.641  1.00  0.00    -0.354 N 
ATOM     66  N   UNL A   1      44.592  26.950  31.117  1.00  0.00    -0.248 NA
ATOM     67  C   UNL A   1      45.622  28.665  32.316  1.00  0.00     0.031 C 
ATOM     68  C   UNL A   1      43.686  29.492  27.056  1.00  0.00     0.029 A 
ATOM     69  C   UNL A   1      44.439  29.184  28.190  1.00  0.00     0.049 A 
ATOM     70  H   UNL A   1      45.698  30.539  29.194  1.00  0.00     0.167 HD
ATOM     71  C   UNL A   1      45.071  27.880  30.211  1.00  0.00     0.074 A 
ATOM     72  C   UNL A   1      45.834  28.828  31.007  1.00  0.00     0.031 C 
ATOM     73  C   UNL A   1      44.564  27.955  28.948  1.00  0.00     0.037 A 
BRANCH  60  74
ATOM     74  C   UNL A   1      44.938  33.451  29.444  1.00  0.00     0.058 A 
ATOM     75  C   UNL A   1      45.644  33.291  30.650  1.00  0.00     0.135 A 
ATOM     76  C   UNL A   1      45.134  34.677  28.768  1.00  0.00     0.135 A 
ATOM     77  F   UNL A   1      45.502  32.173  31.380  1.00  0.00    -0.206 F 
ATOM     78  C   UNL A   1      46.457  34.298  31.173  1.00  0.00     0.059 A 
ATOM     79  C   UNL A   1      45.980  35.671  29.243  1.00  0.00     0.059 A 
ATOM     80  F   UNL A   1      44.433  34.998  27.673  1.00  0.00    -0.206 F 
ATOM     81  C   UNL A   1      46.604  35.491  30.468  1.00  0.00     0.060 A 
BRANCH  81  82
ATOM     82  S   UNL A   1      47.551  36.842  31.190  1.00  0.00     0.124 S 
ATOM     83  O   UNL A   1      46.532  37.877  31.308  1.00  0.00    -0.237 OA
ATOM     84  O   UNL A   1      48.019  36.258  32.444  1.00  0.00    -0.237 OA
ATOM     85  O   UNL A   1      48.591  37.088  30.196  1.00  0.00    -0.744 OA
ENDBRANCH  81  82
ENDBRANCH  60  74
BRANCH  61  86
ATOM     86  C   UNL A   1      44.305  26.793  34.754  1.00  0.00     0.058 A 
ATOM     87  C   UNL A   1      44.928  25.543  34.897  1.00  0.00     0.135 A 
ATOM     88  C   UNL A   1      44.408  27.673  35.853  1.00  0.00     0.135 A 
ATOM     89  F   UNL A   1      44.901  24.655  33.892  1.00  0.00    -0.206 F 
ATOM     90  C   UNL A   1      45.651  25.200  36.043  1.00  0.00     0.059 A 
ATOM     91  C   UNL A   1      45.108  27.347  37.010  1.00  0.00     0.059 A 
ATOM     92  F   UNL A   1      43.907  28.915  35.797  1.00  0.00    -0.206 F 
ATOM     93  C   UNL A   1      45.752  26.119  37.088  1.00  0.00     0.060 A 
BRANCH  93  94
ATOM     94  S   UNL A   1      46.836  25.756  38.486  1.00  0.00     0.124 S 
ATOM     95  O   UNL A   1      47.774  24.804  37.902  1.00  0.00    -0.237 OA
ATOM     96  O   UNL A   1      47.377  27.074  38.804  1.00  0.00    -0.237 OA
ATOM     97  O   UNL A   1      45.925  25.203  39.486  1.00  0.00    -0.744 OA
ENDBRANCH  93  94
ENDBRANCH  61  86
BRANCH  73  98
ATOM     98  C   UNL A   1      43.850  26.740  28.422  1.00  0.00     0.058 A 
ATOM     99  C   UNL A   1      44.489  25.697  27.733  1.00  0.00     0.135 A 
ATOM    100  C   UNL A   1      42.490  26.576  28.726  1.00  0.00     0.135 A 
ATOM    101  F   UNL A   1      45.807  25.743  27.488  1.00  0.00    -0.206 F 
ATOM    102  C   UNL A   1      43.797  24.555  27.327  1.00  0.00     0.059 A 
ATOM    103  C   UNL A   1      41.785  25.433  28.355  1.00  0.00     0.059 A 
ATOM    104  F   UNL A   1      41.840  27.515  29.433  1.00  0.00    -0.206 F 
ATOM    105  C   UNL A   1      42.444  24.432  27.644  1.00  0.00     0.060 A 
BRANCH 105 106
ATOM    106  S   UNL A   1      41.571  22.911  27.204  1.00  0.00     0.124 S 
ATOM    107  O   UNL A   1      42.428  22.354  26.164  1.00  0.00    -0.237 OA
ATOM    108  O   UNL A   1      41.547  22.177  28.466  1.00  0.00    -0.237 OA
ATOM    109  O   UNL A   1      40.267  23.388  26.751  1.00  0.00    -0.744 OA
ENDBRANCH 105 106
ENDBRANCH  73  98
ENDBRANCH  47  48
ENDBRANCH  40  42
ENDBRANCH  39  40
ENDBRANCH  38  39
ENDBRANCH  37  38
ENDBRANCH  36  37
ENDBRANCH  35  36
ENDBRANCH   1  35
TORSDOF 25
ENDMDL
MODEL 3
REMARK VINA RESULT:      -9.9      3.700      9.974
REMARK SMILES Cc1c(-c2nn(-c3ccccc3)cc2/C=N/O)nnn1-c1ccc(C(=O)OCCOCCOCCOC(=O)c2ccc(-c3c4nc(c(-c5c(F)cc(S(=O)(=O)[O-])cc5F)c5ccc([nH]5)c(-c5c(F)cc(S(=O)(=O)[O-])cc5F)c5nc(c(-c6c(F)cc(S(=O)(=O)[O-])cc6F)c6ccc3[nH]6)C=C5)C=C4)cc2)cc1
REMARK SMILES IDX 31 1 30 2 29 3 28 4 27 5 25 6 26 7 24 8 21 9 22 10 106 11
REMARK SMILES IDX 23 12 105 13 20 14 1 15 2 16 3 17 18 18 19 19 4 20 5 21
REMARK SMILES IDX 14 22 6 23 13 24 15 25 16 26 17 27 7 29 8 30 12 31 9 32
REMARK SMILES IDX 11 33 10 34 32 35 33 36 34 37 35 38 36 39 37 40 38 41 39 42
REMARK SMILES IDX 40 43 104 44 41 45 103 46 42 47 43 48 44 49 97 50 45 51
REMARK SMILES IDX 102 52 96 53 98 54 46 55 101 56 95 57 94 58 47 60 81 61
REMARK SMILES IDX 60 62 80 63 61 64 64 65 79 66 99 67 62 68 63 69 78 71 100 72
REMARK SMILES IDX 65 73 48 74 49 75 58 76 50 77 51 78 57 79 59 80 52 81 53 82
REMARK SMILES IDX 54 83 55 84 56 85 82 86 83 87 92 88 84 89 85 90 91 91 93 92
REMARK SMILES IDX 86 93 87 94 88 95 89 96 90 97 66 98 67 99 76 100 68 101
REMARK SMILES IDX 69 102 75 103 77 104 70 105 71 106 72 107 73 108 74 109
REMARK H PARENT 17 28 98 59 64 70
REMARK Flexibility Score: inf
ROOT
ATOM      1  C   UNL A   1      44.072  22.946  26.793  1.00  0.00     0.188 C 
ENDROOT
BRANCH   1   2
ATOM      2  O   UNL A   1      44.225  21.678  26.168  1.00  0.00    -0.376 OA
BRANCH   2   3
ATOM      3  C   UNL A   1      43.079  20.964  25.730  1.00  0.00     0.202 C 
BRANCH   3   4
ATOM      4  C   UNL A   1      41.956  20.661  26.736  1.00  0.00     0.261 C 
BRANCH   4   5
ATOM      5  O   UNL A   1      40.623  20.881  26.241  1.00  0.00    -0.460 OA
BRANCH   5   6
ATOM      6  C   UNL A   1      39.943  21.898  26.817  1.00  0.00     0.338 C 
ATOM      7  O   UNL A   1      40.266  22.528  27.817  1.00  0.00    -0.246 OA
BRANCH   6   8
ATOM      8  C   UNL A   1      38.777  22.280  25.991  1.00  0.00     0.060 A 
ATOM      9  C   UNL A   1      36.457  23.063  24.637  1.00  0.00     0.067 A 
ATOM     10  C   UNL A   1      37.157  23.993  25.413  1.00  0.00     0.029 A 
ATOM     11  C   UNL A   1      36.978  21.770  24.457  1.00  0.00     0.029 A 
ATOM     12  C   UNL A   1      38.293  23.589  26.115  1.00  0.00     0.018 A 
ATOM     13  C   UNL A   1      38.149  21.382  25.123  1.00  0.00     0.018 A 
BRANCH   9  14
ATOM     14  N   UNL A   1      35.191  23.431  24.108  1.00  0.00    -0.217 N 
ATOM     15  C   UNL A   1      34.151  24.601  26.124  1.00  0.00     0.069 C 
ATOM     16  C   UNL A   1      34.138  24.070  24.741  1.00  0.00     0.071 A 
ATOM     17  C   UNL A   1      33.195  24.206  23.741  1.00  0.00     0.137 A 
ATOM     18  N   UNL A   1      33.682  23.735  22.563  1.00  0.00    -0.128 NA
ATOM     19  N   UNL A   1      34.923  23.314  22.781  1.00  0.00    -0.061 NA
BRANCH  17  20
ATOM     20  C   UNL A   1      31.895  24.864  23.834  1.00  0.00     0.124 A 
ATOM     21  N   UNL A   1      31.582  25.923  23.076  1.00  0.00    -0.165 NA
ATOM     22  C   UNL A   1      30.891  24.563  24.782  1.00  0.00     0.044 A 
ATOM     23  N   UNL A   1      30.426  26.385  23.599  1.00  0.00    -0.240 N 
ATOM     24  C   UNL A   1      29.978  25.588  24.628  1.00  0.00     0.125 A 
BRANCH  22  25
ATOM     25  C   UNL A   1      30.764  23.491  25.737  1.00  0.00     0.166 C 
ATOM     26  N   UNL A   1      30.308  23.727  26.921  1.00  0.00    -0.097 NA
BRANCH  26  27
ATOM     27  O   UNL A   1      30.316  22.539  27.662  1.00  0.00    -0.411 OA
ATOM     28  H   UNL A   1      29.947  21.758  27.298  1.00  0.00     0.330 HD
ENDBRANCH  26  27
ENDBRANCH  22  25
BRANCH  23  29
ATOM     29  C   UNL A   1      29.836  27.580  23.120  1.00  0.00     0.065 A 
ATOM     30  C   UNL A   1      30.639  28.545  22.498  1.00  0.00     0.028 A 
ATOM     31  C   UNL A   1      28.461  27.808  23.279  1.00  0.00     0.028 A 
ATOM     32  C   UNL A   1      30.061  29.716  22.005  1.00  0.00     0.002 A 
ATOM     33  C   UNL A   1      27.901  29.004  22.824  1.00  0.00     0.002 A 
ATOM     34  C   UNL A   1      28.697  29.949  22.176  1.00  0.00     0.000 A 
ENDBRANCH  23  29
ENDBRANCH  17  20
ENDBRANCH   9  14
ENDBRANCH   6   8
ENDBRANCH   5   6
ENDBRANCH   4   5
ENDBRANCH   3   4
ENDBRANCH   2   3
ENDBRANCH   1   2
BRANCH   1  35
ATOM     35  C   UNL A   1      44.622  23.214  28.212  1.00  0.00     0.188 C 
BRANCH  35  36
ATOM     36  O   UNL A   1      45.675  24.166  28.286  1.00  0.00    -0.376 OA
BRANCH  36  37
ATOM     37  C   UNL A   1      46.710  24.017  27.320  1.00  0.00     0.202 C 
BRANCH  37  38
ATOM     38  C   UNL A   1      47.005  25.261  26.482  1.00  0.00     0.261 C 
BRANCH  38  39
ATOM     39  O   UNL A   1      45.881  25.801  25.792  1.00  0.00    -0.460 OA
BRANCH  39  40
ATOM     40  C   UNL A   1      46.096  26.935  25.103  1.00  0.00     0.338 C 
ATOM     41  O   UNL A   1      46.821  27.061  24.117  1.00  0.00    -0.246 OA
BRANCH  40  42
ATOM     42  C   UNL A   1      45.375  28.036  25.755  1.00  0.00     0.060 A 
ATOM     43  C   UNL A   1      46.037  29.258  25.887  1.00  0.00     0.016 A 
ATOM     44  C   UNL A   1      44.159  27.788  26.415  1.00  0.00     0.016 A 
ATOM     45  C   UNL A   1      45.584  30.154  26.834  1.00  0.00     0.010 A 
ATOM     46  C   UNL A   1      43.712  28.683  27.368  1.00  0.00     0.010 A 
ATOM     47  C   UNL A   1      44.482  29.813  27.628  1.00  0.00    -0.014 A 
BRANCH  47  48
ATOM     48  C   UNL A   1      44.262  30.607  28.822  1.00  0.00     0.031 A 
ATOM     49  C   UNL A   1      44.442  29.928  30.117  1.00  0.00     0.074 A 
ATOM     50  C   UNL A   1      43.907  31.905  28.752  1.00  0.00     0.049 A 
ATOM     51  N   UNL A   1      43.534  29.623  30.983  1.00  0.00    -0.248 NA
ATOM     52  C   UNL A   1      45.795  29.474  30.462  1.00  0.00     0.031 C 
ATOM     53  C   UNL A   1      43.956  32.783  27.579  1.00  0.00     0.029 A 
ATOM     54  N   UNL A   1      43.490  32.730  29.753  1.00  0.00    -0.354 N 
ATOM     55  C   UNL A   1      44.220  29.115  32.078  1.00  0.00     0.074 A 
ATOM     56  C   UNL A   1      45.587  28.925  31.659  1.00  0.00     0.031 C 
ATOM     57  C   UNL A   1      43.755  34.059  27.975  1.00  0.00     0.029 A 
ATOM     58  C   UNL A   1      43.433  34.066  29.393  1.00  0.00     0.049 A 
ATOM     59  H   UNL A   1      43.250  32.407  30.651  1.00  0.00     0.167 HD
ATOM     60  C   UNL A   1      43.670  29.086  33.321  1.00  0.00     0.037 A 
ATOM     61  C   UNL A   1      43.181  35.115  30.208  1.00  0.00     0.037 A 
ATOM     62  C   UNL A   1      42.247  29.282  33.299  1.00  0.00     0.049 A 
ATOM     63  C   UNL A   1      42.438  34.610  31.389  1.00  0.00     0.074 A 
ATOM     64  C   UNL A   1      41.162  28.566  32.838  1.00  0.00     0.029 A 
ATOM     65  N   UNL A   1      41.798  30.553  33.559  1.00  0.00    -0.354 N 
ATOM     66  N   UNL A   1      41.221  34.141  31.343  1.00  0.00    -0.248 NA
ATOM     67  C   UNL A   1      43.158  34.336  32.626  1.00  0.00     0.031 C 
ATOM     68  C   UNL A   1      40.161  29.530  32.524  1.00  0.00     0.029 A 
ATOM     69  C   UNL A   1      40.683  30.796  32.794  1.00  0.00     0.049 A 
ATOM     70  H   UNL A   1      42.209  31.187  34.190  1.00  0.00     0.167 HD
ATOM     71  C   UNL A   1      41.166  33.195  32.352  1.00  0.00     0.074 A 
ATOM     72  C   UNL A   1      42.312  33.477  33.201  1.00  0.00     0.031 C 
ATOM     73  C   UNL A   1      40.365  32.097  32.242  1.00  0.00     0.037 A 
BRANCH  60  74
ATOM     74  C   UNL A   1      44.476  29.231  34.582  1.00  0.00     0.058 A 
ATOM     75  C   UNL A   1      44.472  28.203  35.542  1.00  0.00     0.135 A 
ATOM     76  C   UNL A   1      45.030  30.464  34.996  1.00  0.00     0.135 A 
ATOM     77  F   UNL A   1      43.942  27.003  35.255  1.00  0.00    -0.206 F 
ATOM     78  C   UNL A   1      44.948  28.398  36.840  1.00  0.00     0.059 A 
ATOM     79  C   UNL A   1      45.557  30.665  36.264  1.00  0.00     0.059 A 
ATOM     80  F   UNL A   1      44.987  31.553  34.215  1.00  0.00    -0.206 F 
ATOM     81  C   UNL A   1      45.472  29.640  37.194  1.00  0.00     0.060 A 
BRANCH  81  82
ATOM     82  S   UNL A   1      45.976  29.941  38.898  1.00  0.00     0.124 S 
ATOM     83  O   UNL A   1      45.846  31.391  38.983  1.00  0.00    -0.237 OA
ATOM     84  O   UNL A   1      44.996  29.166  39.653  1.00  0.00    -0.237 OA
ATOM     85  O   UNL A   1      47.340  29.424  38.937  1.00  0.00    -0.744 OA
ENDBRANCH  81  82
ENDBRANCH  60  74
BRANCH  61  86
ATOM     86  C   UNL A   1      43.747  36.482  30.130  1.00  0.00     0.058 A 
ATOM     87  C   UNL A   1      43.112  37.496  29.395  1.00  0.00     0.135 A 
ATOM     88  C   UNL A   1      44.783  36.893  30.996  1.00  0.00     0.135 A 
ATOM     89  F   UNL A   1      42.100  37.197  28.566  1.00  0.00    -0.206 F 
ATOM     90  C   UNL A   1      43.450  38.843  29.543  1.00  0.00     0.059 A 
ATOM     91  C   UNL A   1      45.149  38.227  31.147  1.00  0.00     0.059 A 
ATOM     92  F   UNL A   1      45.411  36.016  31.792  1.00  0.00    -0.206 F 
ATOM     93  C   UNL A   1      44.458  39.201  30.438  1.00  0.00     0.060 A 
BRANCH  93  94
ATOM     94  S   UNL A   1      44.770  40.948  30.770  1.00  0.00     0.124 S 
ATOM     95  O   UNL A   1      44.690  40.998  32.225  1.00  0.00    -0.237 OA
ATOM     96  O   UNL A   1      46.100  41.137  30.197  1.00  0.00    -0.237 OA
ATOM     97  O   UNL A   1      43.688  41.628  30.061  1.00  0.00    -0.744 OA
ENDBRANCH  93  94
ENDBRANCH  61  86
BRANCH  73  98
ATOM     98  C   UNL A   1      39.223  32.177  31.267  1.00  0.00     0.058 A 
ATOM     99  C   UNL A   1      39.300  31.734  29.937  1.00  0.00     0.135 A 
ATOM    100  C   UNL A   1      37.973  32.615  31.730  1.00  0.00     0.135 A 
ATOM    101  F   UNL A   1      40.438  31.218  29.451  1.00  0.00    -0.206 F 
ATOM    102  C   UNL A   1      38.190  31.762  29.090  1.00  0.00     0.059 A 
ATOM    103  C   UNL A   1      36.846  32.627  30.912  1.00  0.00     0.059 A 
ATOM    104  F   UNL A   1      37.825  32.996  33.011  1.00  0.00    -0.206 F 
ATOM    105  C   UNL A   1      36.966  32.210  29.587  1.00  0.00     0.060 A 
BRANCH 105 106
ATOM    106  S   UNL A   1      35.509  32.156  28.520  1.00  0.00     0.124 S 
ATOM    107  O   UNL A   1      34.423  32.364  29.471  1.00  0.00    -0.237 OA
ATOM    108  O   UNL A   1      35.751  33.252  27.586  1.00  0.00    -0.237 OA
ATOM    109  O   UNL A   1      35.573  30.822  27.926  1.00  0.00    -0.744 OA
ENDBRANCH 105 106
ENDBRANCH  73  98
ENDBRANCH  47  48
ENDBRANCH  40  42
ENDBRANCH  39  40
ENDBRANCH  38  39
ENDBRANCH  37  38
ENDBRANCH  36  37
ENDBRANCH  35  36
ENDBRANCH   1  35
TORSDOF 25
ENDMDL
