MODEL 1
REMARK VINA RESULT:      -9.5      0.000      0.000
REMARK SMILES CS(=O)(=O)N1CCC[C@@H]1C(=O)N1CCC[C@@H]1C(=O)OCCOCCOCCOC(=O)c1ccc(-c2c3nc(c(-c4c(F)cc(S(=O)(=O)[O-])cc4F)c4ccc([nH]4)c(-c4c(F)cc(S(=O)(=O)[O-])cc4F)c4nc(c(-c5c(F)cc(S(=O)(=O)[O-])cc5F)c5ccc2[nH]5)C=C4)C=C3)cc1
REMARK SMILES IDX 23 1 22 2 21 3 20 4 19 5 17 6 18 7 16 8 12 9 13 10 14 11
REMARK SMILES IDX 15 12 10 13 11 14 9 15 5 16 6 17 7 18 8 19 2 20 1 21 3 22
REMARK SMILES IDX 4 23 24 24 25 25 26 26 27 27 28 28 29 29 30 30 31 31 32 32
REMARK SMILES IDX 96 33 33 34 95 35 34 36 35 37 36 38 89 39 37 40 94 41 88 42
REMARK SMILES IDX 90 43 38 44 93 45 87 46 86 47 39 49 73 50 52 51 72 52 53 53
REMARK SMILES IDX 56 54 71 55 91 56 54 57 55 58 70 60 92 61 57 62 40 63 41 64
REMARK SMILES IDX 50 65 42 66 43 67 49 68 51 69 44 70 45 71 46 72 47 73 48 74
REMARK SMILES IDX 74 75 75 76 84 77 76 78 77 79 83 80 85 81 78 82 79 83 80 84
REMARK SMILES IDX 81 85 82 86 58 87 59 88 68 89 60 90 61 91 67 92 69 93 62 94
REMARK SMILES IDX 63 95 64 96 65 97 66 98
REMARK H PARENT 90 48 56 59
REMARK Flexibility Score: inf
ROOT
ATOM      1  C   UNL A   1      35.526  31.043  27.680  1.00  0.00     0.188 C 
ENDROOT
BRANCH   1   2
ATOM      2  O   UNL A   1      34.863  29.843  28.034  1.00  0.00    -0.376 OA
BRANCH   2   3
ATOM      3  C   UNL A   1      33.825  29.493  27.130  1.00  0.00     0.202 C 
BRANCH   3   4
ATOM      4  C   UNL A   1      33.850  28.055  26.611  1.00  0.00     0.261 C 
BRANCH   4   5
ATOM      5  O   UNL A   1      32.921  27.677  25.570  1.00  0.00    -0.462 OA
BRANCH   5   6
ATOM      6  C   UNL A   1      33.048  26.508  24.899  1.00  0.00     0.328 C 
ATOM      7  O   UNL A   1      34.058  26.210  24.273  1.00  0.00    -0.250 OA
BRANCH   6   8
ATOM      8  C   UNL A   1      31.745  25.649  24.921  1.00  0.00     0.195 C 
ATOM      9  N   UNL A   1      31.920  24.210  24.631  1.00  0.00    -0.327 N 
ATOM     10  C   UNL A   1      30.649  23.703  24.153  1.00  0.00     0.120 C 
ATOM     11  C   UNL A   1      30.132  24.806  23.267  1.00  0.00     0.024 C 
ATOM     12  C   UNL A   1      30.614  26.076  23.956  1.00  0.00     0.039 C 
BRANCH   9  13
ATOM     13  C   UNL A   1      32.772  23.450  25.400  1.00  0.00     0.241 C 
ATOM     14  O   UNL A   1      32.583  23.350  26.615  1.00  0.00    -0.273 OA
BRANCH  13  15
ATOM     15  C   UNL A   1      34.038  22.816  24.775  1.00  0.00     0.162 C 
ATOM     16  N   UNL A   1      34.057  21.398  24.252  1.00  0.00    -0.190 NA
ATOM     17  C   UNL A   1      35.102  20.637  24.999  1.00  0.00     0.103 C 
ATOM     18  C   UNL A   1      35.478  21.516  26.171  1.00  0.00     0.019 C 
ATOM     19  C   UNL A   1      35.318  22.912  25.604  1.00  0.00     0.032 C 
BRANCH  16  20
ATOM     20  S   UNL A   1      32.644  20.520  24.072  1.00  0.00     0.211 S 
ATOM     21  C   UNL A   1      33.133  18.800  24.190  1.00  0.00     0.176 C 
ATOM     22  O   UNL A   1      32.155  20.874  22.772  1.00  0.00    -0.212 OA
ATOM     23  O   UNL A   1      31.806  20.804  25.230  1.00  0.00    -0.212 OA
ENDBRANCH  16  20
ENDBRANCH  13  15
ENDBRANCH   9  13
ENDBRANCH   6   8
ENDBRANCH   5   6
ENDBRANCH   4   5
ENDBRANCH   3   4
ENDBRANCH   2   3
ENDBRANCH   1   2
BRANCH   1  24
ATOM     24  C   UNL A   1      34.681  32.310  27.876  1.00  0.00     0.188 C 
BRANCH  24  25
ATOM     25  O   UNL A   1      35.163  33.440  28.583  1.00  0.00    -0.376 OA
BRANCH  25  26
ATOM     26  C   UNL A   1      34.578  33.768  29.833  1.00  0.00     0.202 C 
BRANCH  26  27
ATOM     27  C   UNL A   1      35.385  33.612  31.138  1.00  0.00     0.261 C 
BRANCH  27  28
ATOM     28  O   UNL A   1      36.740  33.157  30.995  1.00  0.00    -0.460 OA
BRANCH  28  29
ATOM     29  C   UNL A   1      37.100  32.113  31.794  1.00  0.00     0.338 C 
ATOM     30  O   UNL A   1      36.524  31.728  32.793  1.00  0.00    -0.246 OA
BRANCH  29  31
ATOM     31  C   UNL A   1      38.143  31.317  31.089  1.00  0.00     0.060 A 
ATOM     32  C   UNL A   1      38.930  30.431  31.851  1.00  0.00     0.016 A 
ATOM     33  C   UNL A   1      38.296  31.374  29.705  1.00  0.00     0.016 A 
ATOM     34  C   UNL A   1      39.873  29.612  31.239  1.00  0.00     0.010 A 
ATOM     35  C   UNL A   1      39.291  30.601  29.096  1.00  0.00     0.010 A 
ATOM     36  C   UNL A   1      40.108  29.751  29.868  1.00  0.00    -0.014 A 
BRANCH  36  37
ATOM     37  C   UNL A   1      41.414  29.302  29.332  1.00  0.00     0.031 A 
ATOM     38  C   UNL A   1      42.504  30.340  29.255  1.00  0.00     0.074 A 
ATOM     39  C   UNL A   1      41.653  28.031  28.968  1.00  0.00     0.049 A 
ATOM     40  N   UNL A   1      43.714  30.246  28.773  1.00  0.00    -0.248 NA
ATOM     41  C   UNL A   1      42.175  31.670  29.798  1.00  0.00     0.031 C 
ATOM     42  C   UNL A   1      40.704  26.924  29.064  1.00  0.00     0.029 A 
ATOM     43  N   UNL A   1      42.782  27.462  28.433  1.00  0.00    -0.354 N 
ATOM     44  C   UNL A   1      44.280  31.504  28.940  1.00  0.00     0.074 A 
ATOM     45  C   UNL A   1      43.277  32.353  29.540  1.00  0.00     0.031 C 
ATOM     46  C   UNL A   1      41.284  25.811  28.580  1.00  0.00     0.029 A 
ATOM     47  C   UNL A   1      42.633  26.135  28.112  1.00  0.00     0.049 A 
ATOM     48  H   UNL A   1      43.620  27.959  28.292  1.00  0.00     0.167 HD
ATOM     49  C   UNL A   1      45.529  31.918  28.625  1.00  0.00     0.037 A 
ATOM     50  C   UNL A   1      43.482  25.291  27.489  1.00  0.00     0.037 A 
ATOM     51  C   UNL A   1      46.519  31.071  28.022  1.00  0.00     0.049 A 
ATOM     52  C   UNL A   1      44.844  25.794  27.073  1.00  0.00     0.074 A 
ATOM     53  C   UNL A   1      47.815  31.387  27.659  1.00  0.00     0.029 A 
ATOM     54  N   UNL A   1      46.320  29.739  27.684  1.00  0.00    -0.354 N 
ATOM     55  N   UNL A   1      45.373  26.985  27.234  1.00  0.00    -0.248 NA
ATOM     56  C   UNL A   1      45.729  24.835  26.395  1.00  0.00     0.031 C 
ATOM     57  C   UNL A   1      48.382  30.262  27.051  1.00  0.00     0.029 A 
ATOM     58  C   UNL A   1      47.464  29.225  27.098  1.00  0.00     0.049 A 
ATOM     59  H   UNL A   1      45.489  29.235  27.840  1.00  0.00     0.167 HD
ATOM     60  C   UNL A   1      46.662  26.907  26.714  1.00  0.00     0.074 A 
ATOM     61  C   UNL A   1      46.835  25.550  26.238  1.00  0.00     0.031 C 
ATOM     62  C   UNL A   1      47.621  27.866  26.643  1.00  0.00     0.037 A 
BRANCH  49  63
ATOM     63  C   UNL A   1      45.868  33.358  28.892  1.00  0.00     0.058 A 
ATOM     64  C   UNL A   1      45.668  34.361  27.930  1.00  0.00     0.135 A 
ATOM     65  C   UNL A   1      46.401  33.740  30.135  1.00  0.00     0.135 A 
ATOM     66  F   UNL A   1      45.191  34.047  26.715  1.00  0.00    -0.206 F 
ATOM     67  C   UNL A   1      46.007  35.686  28.180  1.00  0.00     0.059 A 
ATOM     68  C   UNL A   1      46.717  35.064  30.418  1.00  0.00     0.059 A 
ATOM     69  F   UNL A   1      46.624  32.820  31.086  1.00  0.00    -0.206 F 
ATOM     70  C   UNL A   1      46.530  36.028  29.429  1.00  0.00     0.060 A 
BRANCH  70  71
ATOM     71  S   UNL A   1      46.958  37.754  29.740  1.00  0.00     0.124 S 
ATOM     72  O   UNL A   1      47.581  38.133  28.476  1.00  0.00    -0.237 OA
ATOM     73  O   UNL A   1      45.655  38.353  30.009  1.00  0.00    -0.237 OA
ATOM     74  O   UNL A   1      47.859  37.680  30.887  1.00  0.00    -0.744 OA
ENDBRANCH  70  71
ENDBRANCH  49  63
BRANCH  50  75
ATOM     75  C   UNL A   1      43.071  23.888  27.206  1.00  0.00     0.058 A 
ATOM     76  C   UNL A   1      43.231  22.876  28.164  1.00  0.00     0.135 A 
ATOM     77  C   UNL A   1      42.519  23.528  25.966  1.00  0.00     0.135 A 
ATOM     78  F   UNL A   1      43.770  23.164  29.359  1.00  0.00    -0.206 F 
ATOM     79  C   UNL A   1      42.875  21.557  27.900  1.00  0.00     0.059 A 
ATOM     80  C   UNL A   1      42.127  22.222  25.689  1.00  0.00     0.059 A 
ATOM     81  F   UNL A   1      42.339  24.458  25.014  1.00  0.00    -0.206 F 
ATOM     82  C   UNL A   1      42.318  21.240  26.660  1.00  0.00     0.060 A 
BRANCH  82  83
ATOM     83  S   UNL A   1      41.814  19.534  26.347  1.00  0.00     0.124 S 
ATOM     84  O   UNL A   1      42.088  18.905  27.634  1.00  0.00    -0.237 OA
ATOM     85  O   UNL A   1      40.405  19.692  26.001  1.00  0.00    -0.237 OA
ATOM     86  O   UNL A   1      42.680  19.123  25.247  1.00  0.00    -0.744 OA
ENDBRANCH  82  83
ENDBRANCH  50  75
BRANCH  62  87
ATOM     87  C   UNL A   1      48.964  27.474  26.087  1.00  0.00     0.058 A 
ATOM     88  C   UNL A   1      50.030  27.084  26.914  1.00  0.00     0.135 A 
ATOM     89  C   UNL A   1      49.167  27.435  24.697  1.00  0.00     0.135 A 
ATOM     90  F   UNL A   1      49.892  27.103  28.249  1.00  0.00    -0.206 F 
ATOM     91  C   UNL A   1      51.258  26.700  26.383  1.00  0.00     0.059 A 
ATOM     92  C   UNL A   1      50.374  27.022  24.144  1.00  0.00     0.059 A 
ATOM     93  F   UNL A   1      48.177  27.781  23.859  1.00  0.00    -0.206 F 
ATOM     94  C   UNL A   1      51.420  26.671  24.996  1.00  0.00     0.060 A 
BRANCH  94  95
ATOM     95  S   UNL A   1      53.010  26.151  24.320  1.00  0.00     0.124 S 
ATOM     96  O   UNL A   1      52.762  26.239  22.884  1.00  0.00    -0.237 OA
ATOM     97  O   UNL A   1      53.924  27.149  24.867  1.00  0.00    -0.237 OA
ATOM     98  O   UNL A   1      53.179  24.799  24.846  1.00  0.00    -0.744 OA
ENDBRANCH  94  95
ENDBRANCH  62  87
ENDBRANCH  36  37
ENDBRANCH  29  31
ENDBRANCH  28  29
ENDBRANCH  27  28
ENDBRANCH  26  27
ENDBRANCH  25  26
ENDBRANCH  24  25
ENDBRANCH   1  24
TORSDOF 23
ENDMDL
MODEL 2
REMARK VINA RESULT:      -8.8      4.545      5.910
REMARK SMILES CS(=O)(=O)N1CCC[C@@H]1C(=O)N1CCC[C@@H]1C(=O)OCCOCCOCCOC(=O)c1ccc(-c2c3nc(c(-c4c(F)cc(S(=O)(=O)[O-])cc4F)c4ccc([nH]4)c(-c4c(F)cc(S(=O)(=O)[O-])cc4F)c4nc(c(-c5c(F)cc(S(=O)(=O)[O-])cc5F)c5ccc2[nH]5)C=C4)C=C3)cc1
REMARK SMILES IDX 23 1 22 2 21 3 20 4 19 5 17 6 18 7 16 8 12 9 13 10 14 11
REMARK SMILES IDX 15 12 10 13 11 14 9 15 5 16 6 17 7 18 8 19 2 20 1 21 3 22
REMARK SMILES IDX 4 23 24 24 25 25 26 26 27 27 28 28 29 29 30 30 31 31 32 32
REMARK SMILES IDX 96 33 33 34 95 35 34 36 35 37 36 38 89 39 37 40 94 41 88 42
REMARK SMILES IDX 90 43 38 44 93 45 87 46 86 47 39 49 73 50 52 51 72 52 53 53
REMARK SMILES IDX 56 54 71 55 91 56 54 57 55 58 70 60 92 61 57 62 40 63 41 64
REMARK SMILES IDX 50 65 42 66 43 67 49 68 51 69 44 70 45 71 46 72 47 73 48 74
REMARK SMILES IDX 74 75 75 76 84 77 76 78 77 79 83 80 85 81 78 82 79 83 80 84
REMARK SMILES IDX 81 85 82 86 58 87 59 88 68 89 60 90 61 91 67 92 69 93 62 94
REMARK SMILES IDX 63 95 64 96 65 97 66 98
REMARK H PARENT 90 48 56 59
REMARK Flexibility Score: inf
ROOT
ATOM      1  C   UNL A   1      32.782  27.499  26.477  1.00  0.00     0.188 C 
ENDROOT
BRANCH   1   2
ATOM      2  O   UNL A   1      31.670  27.127  27.271  1.00  0.00    -0.376 OA
BRANCH   2   3
ATOM      3  C   UNL A   1      30.575  26.647  26.503  1.00  0.00     0.202 C 
BRANCH   3   4
ATOM      4  C   UNL A   1      30.904  25.555  25.485  1.00  0.00     0.261 C 
BRANCH   4   5
ATOM      5  O   UNL A   1      30.153  25.509  24.250  1.00  0.00    -0.462 OA
BRANCH   5   6
ATOM      6  C   UNL A   1      30.541  24.727  23.215  1.00  0.00     0.328 C 
ATOM      7  O   UNL A   1      30.079  23.609  23.020  1.00  0.00    -0.250 OA
BRANCH   6   8
ATOM      8  C   UNL A   1      31.701  25.355  22.380  1.00  0.00     0.195 C 
ATOM      9  N   UNL A   1      33.068  25.009  22.820  1.00  0.00    -0.327 N 
ATOM     10  C   UNL A   1      33.957  26.051  22.347  1.00  0.00     0.120 C 
ATOM     11  C   UNL A   1      33.171  27.319  22.558  1.00  0.00     0.024 C 
ATOM     12  C   UNL A   1      31.732  26.899  22.286  1.00  0.00     0.039 C 
BRANCH   9  13
ATOM     13  C   UNL A   1      33.457  23.690  22.894  1.00  0.00     0.241 C 
ATOM     14  O   UNL A   1      33.785  23.086  21.870  1.00  0.00    -0.273 OA
BRANCH  13  15
ATOM     15  C   UNL A   1      33.370  22.921  24.234  1.00  0.00     0.162 C 
ATOM     16  N   UNL A   1      34.601  22.484  24.995  1.00  0.00    -0.190 NA
ATOM     17  C   UNL A   1      34.560  20.998  25.138  1.00  0.00     0.103 C 
ATOM     18  C   UNL A   1      33.474  20.533  24.194  1.00  0.00     0.019 C 
ATOM     19  C   UNL A   1      32.482  21.678  24.240  1.00  0.00     0.032 C 
BRANCH  16  20
ATOM     20  S   UNL A   1      36.123  23.036  24.575  1.00  0.00     0.211 S 
ATOM     21  C   UNL A   1      37.218  22.445  25.865  1.00  0.00     0.176 C 
ATOM     22  O   UNL A   1      36.003  24.465  24.555  1.00  0.00    -0.212 OA
ATOM     23  O   UNL A   1      36.508  22.354  23.346  1.00  0.00    -0.212 OA
ENDBRANCH  16  20
ENDBRANCH  13  15
ENDBRANCH   9  13
ENDBRANCH   6   8
ENDBRANCH   5   6
ENDBRANCH   4   5
ENDBRANCH   3   4
ENDBRANCH   2   3
ENDBRANCH   1   2
BRANCH   1  24
ATOM     24  C   UNL A   1      32.492  28.628  25.477  1.00  0.00     0.188 C 
BRANCH  24  25
ATOM     25  O   UNL A   1      31.880  29.846  25.867  1.00  0.00    -0.376 OA
BRANCH  25  26
ATOM     26  C   UNL A   1      32.278  30.456  27.084  1.00  0.00     0.202 C 
BRANCH  26  27
ATOM     27  C   UNL A   1      33.770  30.533  27.466  1.00  0.00     0.261 C 
BRANCH  27  28
ATOM     28  O   UNL A   1      34.289  31.844  27.742  1.00  0.00    -0.460 OA
BRANCH  28  29
ATOM     29  C   UNL A   1      34.729  32.050  29.015  1.00  0.00     0.338 C 
ATOM     30  O   UNL A   1      34.097  32.528  29.936  1.00  0.00    -0.246 OA
BRANCH  29  31
ATOM     31  C   UNL A   1      36.015  31.318  29.193  1.00  0.00     0.060 A 
ATOM     32  C   UNL A   1      36.041  30.230  30.088  1.00  0.00     0.016 A 
ATOM     33  C   UNL A   1      37.147  31.635  28.444  1.00  0.00     0.016 A 
ATOM     34  C   UNL A   1      37.193  29.466  30.244  1.00  0.00     0.010 A 
ATOM     35  C   UNL A   1      38.326  30.911  28.651  1.00  0.00     0.010 A 
ATOM     36  C   UNL A   1      38.362  29.854  29.582  1.00  0.00    -0.014 A 
BRANCH  36  37
ATOM     37  C   UNL A   1      39.661  29.403  30.132  1.00  0.00     0.031 A 
ATOM     38  C   UNL A   1      40.195  30.170  31.315  1.00  0.00     0.074 A 
ATOM     39  C   UNL A   1      40.327  28.341  29.649  1.00  0.00     0.049 A 
ATOM     40  N   UNL A   1      41.326  30.039  31.953  1.00  0.00    -0.248 NA
ATOM     41  C   UNL A   1      39.325  31.235  31.845  1.00  0.00     0.031 C 
ATOM     42  C   UNL A   1      39.878  27.478  28.558  1.00  0.00     0.029 A 
ATOM     43  N   UNL A   1      41.539  27.814  30.019  1.00  0.00    -0.354 N 
ATOM     44  C   UNL A   1      41.309  31.012  32.945  1.00  0.00     0.074 A 
ATOM     45  C   UNL A   1      40.072  31.745  32.809  1.00  0.00     0.031 C 
ATOM     46  C   UNL A   1      40.817  26.540  28.331  1.00  0.00     0.029 A 
ATOM     47  C   UNL A   1      41.944  26.757  29.240  1.00  0.00     0.049 A 
ATOM     48  H   UNL A   1      42.069  28.162  30.773  1.00  0.00     0.167 HD
ATOM     49  C   UNL A   1      42.241  31.272  33.890  1.00  0.00     0.037 A 
ATOM     50  C   UNL A   1      43.103  26.067  29.247  1.00  0.00     0.037 A 
ATOM     51  C   UNL A   1      43.473  30.544  34.015  1.00  0.00     0.049 A 
ATOM     52  C   UNL A   1      44.165  26.424  30.260  1.00  0.00     0.074 A 
ATOM     53  C   UNL A   1      44.489  30.725  34.934  1.00  0.00     0.029 A 
ATOM     54  N   UNL A   1      43.860  29.500  33.187  1.00  0.00    -0.354 N 
ATOM     55  N   UNL A   1      44.143  27.346  31.195  1.00  0.00    -0.248 NA
ATOM     56  C   UNL A   1      45.410  25.643  30.222  1.00  0.00     0.031 C 
ATOM     57  C   UNL A   1      45.516  29.826  34.629  1.00  0.00     0.029 A 
ATOM     58  C   UNL A   1      45.110  29.039  33.562  1.00  0.00     0.049 A 
ATOM     59  H   UNL A   1      43.325  29.139  32.443  1.00  0.00     0.167 HD
ATOM     60  C   UNL A   1      45.349  27.229  31.880  1.00  0.00     0.074 A 
ATOM     61  C   UNL A   1      46.076  26.144  31.254  1.00  0.00     0.031 C 
ATOM     62  C   UNL A   1      45.812  27.946  32.935  1.00  0.00     0.037 A 
BRANCH  49  63
ATOM     63  C   UNL A   1      41.974  32.415  34.829  1.00  0.00     0.058 A 
ATOM     64  C   UNL A   1      41.164  32.271  35.967  1.00  0.00     0.135 A 
ATOM     65  C   UNL A   1      42.540  33.678  34.585  1.00  0.00     0.135 A 
ATOM     66  F   UNL A   1      40.572  31.095  36.232  1.00  0.00    -0.206 F 
ATOM     67  C   UNL A   1      40.904  33.342  36.815  1.00  0.00     0.059 A 
ATOM     68  C   UNL A   1      42.320  34.754  35.437  1.00  0.00     0.059 A 
ATOM     69  F   UNL A   1      43.311  33.874  33.504  1.00  0.00    -0.206 F 
ATOM     70  C   UNL A   1      41.489  34.580  36.542  1.00  0.00     0.060 A 
BRANCH  70  71
ATOM     71  S   UNL A   1      41.149  35.958  37.657  1.00  0.00     0.124 S 
ATOM     72  O   UNL A   1      42.255  36.860  37.352  1.00  0.00    -0.237 OA
ATOM     73  O   UNL A   1      39.831  36.399  37.214  1.00  0.00    -0.237 OA
ATOM     74  O   UNL A   1      41.188  35.343  38.981  1.00  0.00    -0.744 OA
ENDBRANCH  70  71
ENDBRANCH  49  63
BRANCH  50  75
ATOM     75  C   UNL A   1      43.332  24.977  28.259  1.00  0.00     0.058 A 
ATOM     76  C   UNL A   1      43.758  25.257  26.952  1.00  0.00     0.135 A 
ATOM     77  C   UNL A   1      43.119  23.631  28.598  1.00  0.00     0.135 A 
ATOM     78  F   UNL A   1      43.960  26.528  26.572  1.00  0.00    -0.206 F 
ATOM     79  C   UNL A   1      43.950  24.249  26.014  1.00  0.00     0.059 A 
ATOM     80  C   UNL A   1      43.332  22.602  27.686  1.00  0.00     0.059 A 
ATOM     81  F   UNL A   1      42.714  23.305  29.836  1.00  0.00    -0.206 F 
ATOM     82  C   UNL A   1      43.739  22.922  26.391  1.00  0.00     0.060 A 
BRANCH  82  83
ATOM     83  S   UNL A   1      44.039  21.617  25.179  1.00  0.00     0.124 S 
ATOM     84  O   UNL A   1      42.967  20.677  25.486  1.00  0.00    -0.237 OA
ATOM     85  O   UNL A   1      43.913  22.339  23.917  1.00  0.00    -0.237 OA
ATOM     86  O   UNL A   1      45.388  21.162  25.501  1.00  0.00    -0.744 OA
ENDBRANCH  82  83
ENDBRANCH  50  75
BRANCH  62  87
ATOM     87  C   UNL A   1      47.139  27.548  33.525  1.00  0.00     0.058 A 
ATOM     88  C   UNL A   1      48.346  28.132  33.110  1.00  0.00     0.135 A 
ATOM     89  C   UNL A   1      47.193  26.606  34.567  1.00  0.00     0.135 A 
ATOM     90  F   UNL A   1      48.354  29.037  32.119  1.00  0.00    -0.206 F 
ATOM     91  C   UNL A   1      49.562  27.772  33.683  1.00  0.00     0.059 A 
ATOM     92  C   UNL A   1      48.392  26.256  35.178  1.00  0.00     0.059 A 
ATOM     93  F   UNL A   1      46.066  26.029  35.016  1.00  0.00    -0.206 F 
ATOM     94  C   UNL A   1      49.575  26.834  34.718  1.00  0.00     0.060 A 
BRANCH  94  95
ATOM     95  S   UNL A   1      51.155  26.391  35.468  1.00  0.00     0.124 S 
ATOM     96  O   UNL A   1      50.841  26.481  36.891  1.00  0.00    -0.237 OA
ATOM     97  O   UNL A   1      51.379  25.043  34.953  1.00  0.00    -0.237 OA
ATOM     98  O   UNL A   1      52.070  27.410  34.961  1.00  0.00    -0.744 OA
ENDBRANCH  94  95
ENDBRANCH  62  87
ENDBRANCH  36  37
ENDBRANCH  29  31
ENDBRANCH  28  29
ENDBRANCH  27  28
ENDBRANCH  26  27
ENDBRANCH  25  26
ENDBRANCH  24  25
ENDBRANCH   1  24
TORSDOF 23
ENDMDL
MODEL 3
REMARK VINA RESULT:      -8.7      4.599     13.398
REMARK SMILES CS(=O)(=O)N1CCC[C@@H]1C(=O)N1CCC[C@@H]1C(=O)OCCOCCOCCOC(=O)c1ccc(-c2c3nc(c(-c4c(F)cc(S(=O)(=O)[O-])cc4F)c4ccc([nH]4)c(-c4c(F)cc(S(=O)(=O)[O-])cc4F)c4nc(c(-c5c(F)cc(S(=O)(=O)[O-])cc5F)c5ccc2[nH]5)C=C4)C=C3)cc1
REMARK SMILES IDX 23 1 22 2 21 3 20 4 19 5 17 6 18 7 16 8 12 9 13 10 14 11
REMARK SMILES IDX 15 12 10 13 11 14 9 15 5 16 6 17 7 18 8 19 2 20 1 21 3 22
REMARK SMILES IDX 4 23 24 24 25 25 26 26 27 27 28 28 29 29 30 30 31 31 32 32
REMARK SMILES IDX 96 33 33 34 95 35 34 36 35 37 36 38 89 39 37 40 94 41 88 42
REMARK SMILES IDX 90 43 38 44 93 45 87 46 86 47 39 49 73 50 52 51 72 52 53 53
REMARK SMILES IDX 56 54 71 55 91 56 54 57 55 58 70 60 92 61 57 62 40 63 41 64
REMARK SMILES IDX 50 65 42 66 43 67 49 68 51 69 44 70 45 71 46 72 47 73 48 74
REMARK SMILES IDX 74 75 75 76 84 77 76 78 77 79 83 80 85 81 78 82 79 83 80 84
REMARK SMILES IDX 81 85 82 86 58 87 59 88 68 89 60 90 61 91 67 92 69 93 62 94
REMARK SMILES IDX 63 95 64 96 65 97 66 98
REMARK H PARENT 90 48 56 59
REMARK Flexibility Score: inf
ROOT
ATOM      1  C   UNL A   1      49.304  38.784  27.218  1.00  0.00     0.188 C 
ENDROOT
BRANCH   1   2
ATOM      2  O   UNL A   1      48.395  38.202  26.300  1.00  0.00    -0.376 OA
BRANCH   2   3
ATOM      3  C   UNL A   1      47.431  39.124  25.813  1.00  0.00     0.202 C 
BRANCH   3   4
ATOM      4  C   UNL A   1      46.001  38.922  26.319  1.00  0.00     0.261 C 
BRANCH   4   5
ATOM      5  O   UNL A   1      45.551  39.696  27.454  1.00  0.00    -0.462 OA
BRANCH   5   6
ATOM      6  C   UNL A   1      44.696  40.736  27.306  1.00  0.00     0.328 C 
ATOM      7  O   UNL A   1      44.791  41.769  27.958  1.00  0.00    -0.250 OA
BRANCH   6   8
ATOM      8  C   UNL A   1      43.533  40.430  26.311  1.00  0.00     0.195 C 
ATOM      9  N   UNL A   1      43.090  41.565  25.474  1.00  0.00    -0.327 N 
ATOM     10  C   UNL A   1      41.729  41.296  25.057  1.00  0.00     0.120 C 
ATOM     11  C   UNL A   1      41.089  40.697  26.282  1.00  0.00     0.024 C 
ATOM     12  C   UNL A   1      42.217  39.898  26.923  1.00  0.00     0.039 C 
BRANCH   9  13
ATOM     13  C   UNL A   1      43.991  42.218  24.663  1.00  0.00     0.241 C 
ATOM     14  O   UNL A   1      44.982  41.619  24.236  1.00  0.00    -0.273 OA
BRANCH  13  15
ATOM     15  C   UNL A   1      43.839  43.731  24.381  1.00  0.00     0.162 C 
ATOM     16  N   UNL A   1      43.438  44.263  23.024  1.00  0.00    -0.190 NA
ATOM     17  C   UNL A   1      44.522  45.165  22.534  1.00  0.00     0.103 C 
ATOM     18  C   UNL A   1      45.697  44.918  23.455  1.00  0.00     0.019 C 
ATOM     19  C   UNL A   1      45.023  44.612  24.778  1.00  0.00     0.032 C 
BRANCH  16  20
ATOM     20  S   UNL A   1      42.876  43.243  21.823  1.00  0.00     0.211 S 
ATOM     21  C   UNL A   1      43.189  44.101  20.281  1.00  0.00     0.176 C 
ATOM     22  O   UNL A   1      41.478  43.084  22.101  1.00  0.00    -0.212 OA
ATOM     23  O   UNL A   1      43.724  42.057  21.829  1.00  0.00    -0.212 OA
ENDBRANCH  16  20
ENDBRANCH  13  15
ENDBRANCH   9  13
ENDBRANCH   6   8
ENDBRANCH   5   6
ENDBRANCH   4   5
ENDBRANCH   3   4
ENDBRANCH   2   3
ENDBRANCH   1   2
BRANCH   1  24
ATOM     24  C   UNL A   1      50.781  38.510  26.899  1.00  0.00     0.188 C 
BRANCH  24  25
ATOM     25  O   UNL A   1      51.263  37.211  26.598  1.00  0.00    -0.376 OA
BRANCH  25  26
ATOM     26  C   UNL A   1      51.716  36.385  27.659  1.00  0.00     0.202 C 
BRANCH  26  27
ATOM     27  C   UNL A   1      50.737  35.439  28.384  1.00  0.00     0.261 C 
BRANCH  27  28
ATOM     28  O   UNL A   1      50.308  35.849  29.692  1.00  0.00    -0.460 OA
BRANCH  28  29
ATOM     29  C   UNL A   1      48.991  36.181  29.804  1.00  0.00     0.338 C 
ATOM     30  O   UNL A   1      48.526  37.300  29.889  1.00  0.00    -0.246 OA
BRANCH  29  31
ATOM     31  C   UNL A   1      48.173  34.973  29.501  1.00  0.00     0.060 A 
ATOM     32  C   UNL A   1      47.981  34.027  30.527  1.00  0.00     0.016 A 
ATOM     33  C   UNL A   1      47.542  34.806  28.270  1.00  0.00     0.016 A 
ATOM     34  C   UNL A   1      47.172  32.914  30.326  1.00  0.00     0.010 A 
ATOM     35  C   UNL A   1      46.784  33.652  28.043  1.00  0.00     0.010 A 
ATOM     36  C   UNL A   1      46.632  32.685  29.056  1.00  0.00    -0.014 A 
BRANCH  36  37
ATOM     37  C   UNL A   1      46.244  31.301  28.700  1.00  0.00     0.031 A 
ATOM     38  C   UNL A   1      44.795  30.936  28.896  1.00  0.00     0.074 A 
ATOM     39  C   UNL A   1      47.109  30.412  28.184  1.00  0.00     0.049 A 
ATOM     40  N   UNL A   1      44.193  29.790  28.730  1.00  0.00    -0.248 NA
ATOM     41  C   UNL A   1      43.905  32.022  29.346  1.00  0.00     0.031 C 
ATOM     42  C   UNL A   1      48.516  30.669  27.882  1.00  0.00     0.029 A 
ATOM     43  N   UNL A   1      46.923  29.099  27.832  1.00  0.00    -0.354 N 
ATOM     44  C   UNL A   1      42.864  30.013  29.070  1.00  0.00     0.074 A 
ATOM     45  C   UNL A   1      42.750  31.394  29.478  1.00  0.00     0.031 C 
ATOM     46  C   UNL A   1      49.072  29.538  27.409  1.00  0.00     0.029 A 
ATOM     47  C   UNL A   1      48.069  28.473  27.405  1.00  0.00     0.049 A 
ATOM     48  H   UNL A   1      46.049  28.648  27.880  1.00  0.00     0.167 HD
ATOM     49  C   UNL A   1      41.826  29.146  29.041  1.00  0.00     0.037 A 
ATOM     50  C   UNL A   1      48.282  27.181  27.077  1.00  0.00     0.037 A 
ATOM     51  C   UNL A   1      41.948  27.772  28.641  1.00  0.00     0.049 A 
ATOM     52  C   UNL A   1      47.127  26.209  27.128  1.00  0.00     0.074 A 
ATOM     53  C   UNL A   1      40.963  26.805  28.577  1.00  0.00     0.029 A 
ATOM     54  N   UNL A   1      43.133  27.167  28.245  1.00  0.00    -0.354 N 
ATOM     55  N   UNL A   1      45.873  26.428  27.450  1.00  0.00    -0.248 NA
ATOM     56  C   UNL A   1      47.415  24.814  26.764  1.00  0.00     0.031 C 
ATOM     57  C   UNL A   1      41.561  25.600  28.195  1.00  0.00     0.029 A 
ATOM     58  C   UNL A   1      42.907  25.833  27.954  1.00  0.00     0.049 A 
ATOM     59  H   UNL A   1      44.005  27.620  28.180  1.00  0.00     0.167 HD
ATOM     60  C   UNL A   1      45.216  25.211  27.290  1.00  0.00     0.074 A 
ATOM     61  C   UNL A   1      46.212  24.260  26.838  1.00  0.00     0.031 C 
ATOM     62  C   UNL A   1      43.909  24.905  27.490  1.00  0.00     0.037 A 
BRANCH  49  63
ATOM     63  C   UNL A   1      40.487  29.656  29.494  1.00  0.00     0.058 A 
ATOM     64  C   UNL A   1      39.429  29.870  28.596  1.00  0.00     0.135 A 
ATOM     65  C   UNL A   1      40.258  29.933  30.852  1.00  0.00     0.135 A 
ATOM     66  F   UNL A   1      39.601  29.652  27.283  1.00  0.00    -0.206 F 
ATOM     67  C   UNL A   1      38.201  30.365  29.023  1.00  0.00     0.059 A 
ATOM     68  C   UNL A   1      39.028  30.397  31.307  1.00  0.00     0.059 A 
ATOM     69  F   UNL A   1      41.239  29.758  31.752  1.00  0.00    -0.206 F 
ATOM     70  C   UNL A   1      38.011  30.623  30.382  1.00  0.00     0.060 A 
BRANCH  70  71
ATOM     71  S   UNL A   1      36.409  31.257  30.922  1.00  0.00     0.124 S 
ATOM     72  O   UNL A   1      35.658  31.255  29.671  1.00  0.00    -0.237 OA
ATOM     73  O   UNL A   1      35.998  30.263  31.908  1.00  0.00    -0.237 OA
ATOM     74  O   UNL A   1      36.728  32.576  31.461  1.00  0.00    -0.744 OA
ENDBRANCH  70  71
ENDBRANCH  49  63
BRANCH  50  75
ATOM     75  C   UNL A   1      49.643  26.723  26.685  1.00  0.00     0.058 A 
ATOM     76  C   UNL A   1      50.593  26.356  27.649  1.00  0.00     0.135 A 
ATOM     77  C   UNL A   1      50.027  26.654  25.335  1.00  0.00     0.135 A 
ATOM     78  F   UNL A   1      50.283  26.420  28.953  1.00  0.00    -0.206 F 
ATOM     79  C   UNL A   1      51.876  25.951  27.294  1.00  0.00     0.059 A 
ATOM     80  C   UNL A   1      51.294  26.224  24.954  1.00  0.00     0.059 A 
ATOM     81  F   UNL A   1      49.156  26.990  24.371  1.00  0.00    -0.206 F 
ATOM     82  C   UNL A   1      52.217  25.884  25.942  1.00  0.00     0.060 A 
BRANCH  82  83
ATOM     83  S   UNL A   1      53.869  25.309  25.492  1.00  0.00     0.124 S 
ATOM     84  O   UNL A   1      54.421  24.951  26.794  1.00  0.00    -0.237 OA
ATOM     85  O   UNL A   1      53.571  24.196  24.597  1.00  0.00    -0.237 OA
ATOM     86  O   UNL A   1      54.468  26.476  24.851  1.00  0.00    -0.744 OA
ENDBRANCH  82  83
ENDBRANCH  50  75
BRANCH  62  87
ATOM     87  C   UNL A   1      43.458  23.506  27.165  1.00  0.00     0.058 A 
ATOM     88  C   UNL A   1      43.249  22.539  28.161  1.00  0.00     0.135 A 
ATOM     89  C   UNL A   1      43.174  23.148  25.836  1.00  0.00     0.135 A 
ATOM     90  F   UNL A   1      43.504  22.826  29.447  1.00  0.00    -0.206 F 
ATOM     91  C   UNL A   1      42.807  21.257  27.847  1.00  0.00     0.059 A 
ATOM     92  C   UNL A   1      42.700  21.884  25.503  1.00  0.00     0.059 A 
ATOM     93  F   UNL A   1      43.340  24.039  24.846  1.00  0.00    -0.206 F 
ATOM     94  C   UNL A   1      42.533  20.940  26.514  1.00  0.00     0.060 A 
BRANCH  94  95
ATOM     95  S   UNL A   1      41.940  19.281  26.123  1.00  0.00     0.124 S 
ATOM     96  O   UNL A   1      42.720  18.963  24.930  1.00  0.00    -0.237 OA
ATOM     97  O   UNL A   1      42.290  18.532  27.327  1.00  0.00    -0.237 OA
ATOM     98  O   UNL A   1      40.509  19.473  25.904  1.00  0.00    -0.744 OA
ENDBRANCH  94  95
ENDBRANCH  62  87
ENDBRANCH  36  37
ENDBRANCH  29  31
ENDBRANCH  28  29
ENDBRANCH  27  28
ENDBRANCH  26  27
ENDBRANCH  25  26
ENDBRANCH  24  25
ENDBRANCH   1  24
TORSDOF 23
ENDMDL
