MODEL 1
REMARK VINA RESULT:     -13.4      0.000      0.000
REMARK SMILES O=C(OCCOCCOCCOC(=O)[C@H]1CCCC[C@H]1C(=O)N1CCN(S(=O)(=O)c2ccc(F)cc2)CC1)c1ccc(-c2c3nc(c(-c4c(F)cc(S(=O)(=O)[O-])cc4F)c4ccc([nH]4)c(-c4c(F)cc(S(=O)(=O)[O-])cc4F)c4nc(c(-c5c(F)cc(S(=O)(=O)[O-])cc5F)c5ccc2[nH]5)C=C4)C=C3)cc1
REMARK SMILES IDX 7 1 6 2 5 3 4 4 3 5 2 6 1 7 39 8 40 9 104 10 41 11 103 12
REMARK SMILES IDX 42 13 43 14 44 15 97 16 45 17 102 18 96 19 98 20 46 21
REMARK SMILES IDX 101 22 95 23 94 24 47 26 81 27 60 28 80 29 61 30 64 31 79 32
REMARK SMILES IDX 99 33 62 34 63 35 78 37 100 38 65 39 48 40 49 41 58 42 50 43
REMARK SMILES IDX 51 44 57 45 59 46 52 47 53 48 54 49 55 50 56 51 82 52 83 53
REMARK SMILES IDX 92 54 84 55 85 56 91 57 93 58 86 59 87 60 88 61 89 62 90 63
REMARK SMILES IDX 66 64 67 65 76 66 68 67 69 68 75 69 77 70 70 71 71 72 72 73
REMARK SMILES IDX 73 74 74 75 8 76 9 77 10 78 11 79 12 80 13 81 14 82 15 83
REMARK SMILES IDX 16 84 20 85 17 86 19 87 18 88 21 89 22 90 23 91 24 92 38 93
REMARK SMILES IDX 25 94 37 95 26 96 27 97 28 98 29 99 30 100 31 101 36 102
REMARK SMILES IDX 32 103 35 104 33 105 34 106
REMARK H PARENT 98 25 64 36
REMARK Flexibility Score: inf
ROOT
ATOM      1  C   UNL A   1      35.043  31.035  27.990  1.00  0.00     0.188 C 
ENDROOT
BRANCH   1   2
ATOM      2  O   UNL A   1      35.227  32.778  27.866  1.00  0.00    -0.376 OA
BRANCH   2   3
ATOM      3  C   UNL A   1      35.235  34.078  29.392  1.00  0.00     0.202 C 
BRANCH   3   4
ATOM      4  C   UNL A   1      34.780  33.182  31.095  1.00  0.00     0.261 C 
BRANCH   4   5
ATOM      5  O   UNL A   1      35.509  31.563  31.513  1.00  0.00    -0.460 OA
BRANCH   5   6
ATOM      6  C   UNL A   1      36.627  30.691  31.918  1.00  0.00     0.338 C 
ATOM      7  O   UNL A   1      36.975  30.753  33.102  1.00  0.00    -0.246 OA
BRANCH   6   8
ATOM      8  C   UNL A   1      37.564  29.683  31.037  1.00  0.00     0.060 A 
ATOM      9  C   UNL A   1      38.481  28.819  31.579  1.00  0.00     0.016 A 
ATOM     10  C   UNL A   1      37.441  29.318  29.686  1.00  0.00     0.016 A 
ATOM     11  C   UNL A   1      39.572  28.215  30.930  1.00  0.00     0.010 A 
ATOM     12  C   UNL A   1      38.508  28.573  28.960  1.00  0.00     0.010 A 
ATOM     13  C   UNL A   1      39.709  28.178  29.588  1.00  0.00    -0.014 A 
BRANCH  13  14
ATOM     14  C   UNL A   1      41.193  28.206  29.178  1.00  0.00     0.031 A 
ATOM     15  C   UNL A   1      41.642  27.003  28.397  1.00  0.00     0.074 A 
ATOM     16  C   UNL A   1      41.983  29.318  28.996  1.00  0.00     0.049 A 
ATOM     17  N   UNL A   1      42.837  26.673  27.997  1.00  0.00    -0.248 NA
ATOM     18  C   UNL A   1      40.594  26.052  27.996  1.00  0.00     0.031 C 
ATOM     19  C   UNL A   1      41.616  30.687  29.354  1.00  0.00     0.029 A 
ATOM     20  N   UNL A   1      43.193  29.516  28.324  1.00  0.00    -0.354 N 
ATOM     21  C   UNL A   1      42.697  25.405  27.457  1.00  0.00     0.074 A 
ATOM     22  C   UNL A   1      41.301  25.060  27.492  1.00  0.00     0.031 C 
ATOM     23  C   UNL A   1      42.446  31.562  28.752  1.00  0.00     0.029 A 
ATOM     24  C   UNL A   1      43.571  30.850  28.172  1.00  0.00     0.049 A 
ATOM     25  H   UNL A   1      43.738  28.771  27.983  1.00  0.00     0.167 HD
ATOM     26  C   UNL A   1      43.678  24.583  27.038  1.00  0.00     0.037 A 
ATOM     27  C   UNL A   1      44.707  31.447  27.712  1.00  0.00     0.037 A 
ATOM     28  C   UNL A   1      45.048  24.991  26.943  1.00  0.00     0.049 A 
ATOM     29  C   UNL A   1      45.854  30.521  27.388  1.00  0.00     0.074 A 
ATOM     30  C   UNL A   1      46.164  24.215  26.710  1.00  0.00     0.029 A 
ATOM     31  N   UNL A   1      45.481  26.307  27.045  1.00  0.00    -0.354 N 
ATOM     32  N   UNL A   1      45.826  29.218  27.233  1.00  0.00    -0.248 NA
ATOM     33  C   UNL A   1      47.200  31.105  27.289  1.00  0.00     0.031 C 
ATOM     34  C   UNL A   1      47.282  25.053  26.737  1.00  0.00     0.029 A 
ATOM     35  C   UNL A   1      46.851  26.363  26.891  1.00  0.00     0.049 A 
ATOM     36  H   UNL A   1      44.896  27.083  27.205  1.00  0.00     0.167 HD
ATOM     37  C   UNL A   1      47.142  28.825  27.040  1.00  0.00     0.074 A 
ATOM     38  C   UNL A   1      47.945  30.031  27.057  1.00  0.00     0.031 C 
ATOM     39  C   UNL A   1      47.636  27.572  26.885  1.00  0.00     0.037 A 
BRANCH  26  40
ATOM     40  C   UNL A   1      43.310  23.142  26.873  1.00  0.00     0.058 A 
ATOM     41  C   UNL A   1      43.410  22.571  25.593  1.00  0.00     0.135 A 
ATOM     42  C   UNL A   1      42.934  22.313  27.938  1.00  0.00     0.135 A 
ATOM     43  F   UNL A   1      43.818  23.311  24.550  1.00  0.00    -0.206 F 
ATOM     44  C   UNL A   1      43.111  21.238  25.367  1.00  0.00     0.059 A 
ATOM     45  C   UNL A   1      42.670  20.961  27.741  1.00  0.00     0.059 A 
ATOM     46  F   UNL A   1      42.900  22.792  29.192  1.00  0.00    -0.206 F 
ATOM     47  C   UNL A   1      42.740  20.441  26.448  1.00  0.00     0.060 A 
BRANCH  47  48
ATOM     48  S   UNL A   1      42.370  18.706  26.131  1.00  0.00     0.124 S 
ATOM     49  O   UNL A   1      40.964  18.767  25.752  1.00  0.00    -0.237 OA
ATOM     50  O   UNL A   1      43.308  18.387  25.058  1.00  0.00    -0.237 OA
ATOM     51  O   UNL A   1      42.652  18.062  27.411  1.00  0.00    -0.744 OA
ENDBRANCH  47  48
ENDBRANCH  26  40
BRANCH  27  52
ATOM     52  C   UNL A   1      44.929  32.951  27.739  1.00  0.00     0.058 A 
ATOM     53  C   UNL A   1      45.439  33.583  28.888  1.00  0.00     0.135 A 
ATOM     54  C   UNL A   1      44.719  33.791  26.623  1.00  0.00     0.135 A 
ATOM     55  F   UNL A   1      45.763  32.858  29.969  1.00  0.00    -0.206 F 
ATOM     56  C   UNL A   1      45.631  34.962  28.971  1.00  0.00     0.059 A 
ATOM     57  C   UNL A   1      44.951  35.178  26.666  1.00  0.00     0.059 A 
ATOM     58  F   UNL A   1      44.313  33.270  25.454  1.00  0.00    -0.206 F 
ATOM     59  C   UNL A   1      45.376  35.758  27.859  1.00  0.00     0.060 A 
BRANCH  59  60
ATOM     60  S   UNL A   1      45.605  37.547  28.024  1.00  0.00     0.124 S 
ATOM     61  O   UNL A   1      45.724  37.696  29.472  1.00  0.00    -0.237 OA
ATOM     62  O   UNL A   1      46.831  37.772  27.264  1.00  0.00    -0.237 OA
ATOM     63  O   UNL A   1      44.392  38.105  27.436  1.00  0.00    -0.744 OA
ENDBRANCH  59  60
ENDBRANCH  27  52
BRANCH  39  64
ATOM     64  C   UNL A   1      49.105  27.425  26.632  1.00  0.00     0.058 A 
ATOM     65  C   UNL A   1      49.987  27.359  27.723  1.00  0.00     0.135 A 
ATOM     66  C   UNL A   1      49.652  27.444  25.340  1.00  0.00     0.135 A 
ATOM     67  F   UNL A   1      49.514  27.351  28.979  1.00  0.00    -0.206 F 
ATOM     68  C   UNL A   1      51.362  27.336  27.542  1.00  0.00     0.059 A 
ATOM     69  C   UNL A   1      51.027  27.381  25.135  1.00  0.00     0.059 A 
ATOM     70  F   UNL A   1      48.849  27.503  24.266  1.00  0.00    -0.206 F 
ATOM     71  C   UNL A   1      51.871  27.343  26.245  1.00  0.00     0.060 A 
BRANCH  71  72
ATOM     72  S   UNL A   1      53.661  27.275  26.039  1.00  0.00     0.124 S 
ATOM     73  O   UNL A   1      53.905  25.836  26.014  1.00  0.00    -0.237 OA
ATOM     74  O   UNL A   1      53.848  27.973  24.771  1.00  0.00    -0.237 OA
ATOM     75  O   UNL A   1      54.165  27.977  27.215  1.00  0.00    -0.744 OA
ENDBRANCH  71  72
ENDBRANCH  39  64
ENDBRANCH  13  14
ENDBRANCH   6   8
ENDBRANCH   5   6
ENDBRANCH   4   5
ENDBRANCH   3   4
ENDBRANCH   2   3
ENDBRANCH   1   2
BRANCH   1  76
ATOM     76  C   UNL A   1      34.101  30.094  27.245  1.00  0.00     0.188 C 
BRANCH  76  77
ATOM     77  O   UNL A   1      34.447  28.802  26.811  1.00  0.00    -0.376 OA
BRANCH  77  78
ATOM     78  C   UNL A   1      33.559  27.979  26.083  1.00  0.00     0.202 C 
BRANCH  78  79
ATOM     79  C   UNL A   1      32.109  27.669  26.557  1.00  0.00     0.261 C 
BRANCH  79  80
ATOM     80  O   UNL A   1      31.028  28.001  25.653  1.00  0.00    -0.463 OA
BRANCH  80  81
ATOM     81  C   UNL A   1      30.433  26.929  25.080  1.00  0.00     0.309 C 
ATOM     82  O   UNL A   1      29.942  26.027  25.754  1.00  0.00    -0.252 OA
BRANCH  81  83
ATOM     83  C   UNL A   1      30.446  26.930  23.549  1.00  0.00     0.111 C 
ATOM     84  C   UNL A   1      29.098  27.599  23.129  1.00  0.00     0.016 C 
ATOM     85  C   UNL A   1      31.555  27.529  22.637  1.00  0.00     0.093 C 
ATOM     86  C   UNL A   1      29.141  29.122  23.278  1.00  0.00     0.001 C 
ATOM     87  C   UNL A   1      31.426  29.029  22.192  1.00  0.00     0.014 C 
ATOM     88  C   UNL A   1      30.053  29.703  22.226  1.00  0.00     0.001 C 
BRANCH  85  89
ATOM     89  C   UNL A   1      32.952  26.825  22.394  1.00  0.00     0.226 C 
ATOM     90  O   UNL A   1      33.902  27.574  22.149  1.00  0.00    -0.275 OA
ATOM     91  N   UNL A   1      33.302  25.539  22.660  1.00  0.00    -0.340 N 
ATOM     92  C   UNL A   1      34.084  25.223  23.945  1.00  0.00     0.136 C 
ATOM     93  C   UNL A   1      32.914  24.236  21.878  1.00  0.00     0.136 C 
ATOM     94  C   UNL A   1      33.066  24.326  25.438  1.00  0.00     0.124 C 
ATOM     95  C   UNL A   1      31.929  22.963  22.693  1.00  0.00     0.124 C 
ATOM     96  N   UNL A   1      31.991  22.661  24.641  1.00  0.00    -0.194 NA
BRANCH  96  97
ATOM     97  S   UNL A   1      32.436  20.645  24.376  1.00  0.00     0.243 S 
ATOM     98  O   UNL A   1      31.787  19.821  25.377  1.00  0.00    -0.207 OA
ATOM     99  O   UNL A   1      32.227  20.366  22.971  1.00  0.00    -0.207 OA
BRANCH  97 100
ATOM    100  C   UNL A   1      34.238  20.287  24.730  1.00  0.00     0.082 A 
ATOM    101  C   UNL A   1      34.879  19.026  24.627  1.00  0.00     0.025 A 
ATOM    102  C   UNL A   1      35.098  21.388  24.685  1.00  0.00     0.025 A 
ATOM    103  C   UNL A   1      36.243  18.842  24.874  1.00  0.00     0.040 A 
ATOM    104  C   UNL A   1      36.495  21.215  24.731  1.00  0.00     0.040 A 
ATOM    105  C   UNL A   1      37.049  19.952  24.910  1.00  0.00     0.123 A 
ATOM    106  F   UNL A   1      38.375  19.797  25.001  1.00  0.00    -0.207 F 
ENDBRANCH  97 100
ENDBRANCH  96  97
ENDBRANCH  85  89
ENDBRANCH  81  83
ENDBRANCH  80  81
ENDBRANCH  79  80
ENDBRANCH  78  79
ENDBRANCH  77  78
ENDBRANCH  76  77
ENDBRANCH   1  76
TORSDOF 23
ENDMDL
MODEL 2
REMARK VINA RESULT:     -11.7      2.675      3.609
REMARK SMILES O=C(OCCOCCOCCOC(=O)[C@H]1CCCC[C@H]1C(=O)N1CCN(S(=O)(=O)c2ccc(F)cc2)CC1)c1ccc(-c2c3nc(c(-c4c(F)cc(S(=O)(=O)[O-])cc4F)c4ccc([nH]4)c(-c4c(F)cc(S(=O)(=O)[O-])cc4F)c4nc(c(-c5c(F)cc(S(=O)(=O)[O-])cc5F)c5ccc2[nH]5)C=C4)C=C3)cc1
REMARK SMILES IDX 7 1 6 2 5 3 4 4 3 5 2 6 1 7 39 8 40 9 104 10 41 11 103 12
REMARK SMILES IDX 42 13 43 14 44 15 97 16 45 17 102 18 96 19 98 20 46 21
REMARK SMILES IDX 101 22 95 23 94 24 47 26 81 27 60 28 80 29 61 30 64 31 79 32
REMARK SMILES IDX 99 33 62 34 63 35 78 37 100 38 65 39 48 40 49 41 58 42 50 43
REMARK SMILES IDX 51 44 57 45 59 46 52 47 53 48 54 49 55 50 56 51 82 52 83 53
REMARK SMILES IDX 92 54 84 55 85 56 91 57 93 58 86 59 87 60 88 61 89 62 90 63
REMARK SMILES IDX 66 64 67 65 76 66 68 67 69 68 75 69 77 70 70 71 71 72 72 73
REMARK SMILES IDX 73 74 74 75 8 76 9 77 10 78 11 79 12 80 13 81 14 82 15 83
REMARK SMILES IDX 16 84 20 85 17 86 19 87 18 88 21 89 22 90 23 91 24 92 38 93
REMARK SMILES IDX 25 94 37 95 26 96 27 97 28 98 29 99 30 100 31 101 36 102
REMARK SMILES IDX 32 103 35 104 33 105 34 106
REMARK H PARENT 98 25 64 36
REMARK Flexibility Score: inf
ROOT
ATOM      1  C   UNL A   1      34.891  30.706  28.206  1.00  0.00     0.188 C 
ENDROOT
BRANCH   1   2
ATOM      2  O   UNL A   1      35.255  32.247  27.444  1.00  0.00    -0.376 OA
BRANCH   2   3
ATOM      3  C   UNL A   1      34.721  34.057  28.122  1.00  0.00     0.202 C 
BRANCH   3   4
ATOM      4  C   UNL A   1      34.139  33.969  30.009  1.00  0.00     0.261 C 
BRANCH   4   5
ATOM      5  O   UNL A   1      34.932  32.806  31.169  1.00  0.00    -0.460 OA
BRANCH   5   6
ATOM      6  C   UNL A   1      36.104  32.138  31.764  1.00  0.00     0.338 C 
ATOM      7  O   UNL A   1      36.189  32.165  32.997  1.00  0.00    -0.246 OA
BRANCH   6   8
ATOM      8  C   UNL A   1      37.388  31.413  31.059  1.00  0.00     0.060 A 
ATOM      9  C   UNL A   1      38.423  30.841  31.754  1.00  0.00     0.016 A 
ATOM     10  C   UNL A   1      37.551  31.010  29.723  1.00  0.00     0.016 A 
ATOM     11  C   UNL A   1      39.713  30.549  31.278  1.00  0.00     0.010 A 
ATOM     12  C   UNL A   1      38.867  30.576  29.175  1.00  0.00     0.010 A 
ATOM     13  C   UNL A   1      40.034  30.533  29.968  1.00  0.00    -0.014 A 
BRANCH  13  14
ATOM     14  C   UNL A   1      41.496  30.961  29.746  1.00  0.00     0.031 A 
ATOM     15  C   UNL A   1      42.285  30.036  28.862  1.00  0.00     0.074 A 
ATOM     16  C   UNL A   1      42.009  32.235  29.821  1.00  0.00     0.049 A 
ATOM     17  N   UNL A   1      43.553  30.052  28.565  1.00  0.00    -0.248 NA
ATOM     18  C   UNL A   1      41.533  28.954  28.208  1.00  0.00     0.031 C 
ATOM     19  C   UNL A   1      41.296  33.409  30.323  1.00  0.00     0.029 A 
ATOM     20  N   UNL A   1      43.188  32.808  29.334  1.00  0.00    -0.354 N 
ATOM     21  C   UNL A   1      43.766  28.893  27.838  1.00  0.00     0.074 A 
ATOM     22  C   UNL A   1      42.496  28.244  27.657  1.00  0.00     0.031 C 
ATOM     23  C   UNL A   1      41.939  34.534  29.954  1.00  0.00     0.029 A 
ATOM     24  C   UNL A   1      43.246  34.199  29.418  1.00  0.00     0.049 A 
ATOM     25  H   UNL A   1      43.922  32.271  28.958  1.00  0.00     0.167 HD
ATOM     26  C   UNL A   1      44.947  28.393  27.427  1.00  0.00     0.037 A 
ATOM     27  C   UNL A   1      44.240  35.103  29.187  1.00  0.00     0.037 A 
ATOM     28  C   UNL A   1      46.183  29.108  27.556  1.00  0.00     0.049 A 
ATOM     29  C   UNL A   1      45.599  34.524  28.875  1.00  0.00     0.074 A 
ATOM     30  C   UNL A   1      47.467  28.650  27.350  1.00  0.00     0.029 A 
ATOM     31  N   UNL A   1      46.277  30.450  27.895  1.00  0.00    -0.354 N 
ATOM     32  N   UNL A   1      45.897  33.292  28.535  1.00  0.00    -0.248 NA
ATOM     33  C   UNL A   1      46.769  35.404  29.022  1.00  0.00     0.031 C 
ATOM     34  C   UNL A   1      48.345  29.701  27.629  1.00  0.00     0.029 A 
ATOM     35  C   UNL A   1      47.602  30.837  27.915  1.00  0.00     0.049 A 
ATOM     36  H   UNL A   1      45.512  31.038  28.092  1.00  0.00     0.167 HD
ATOM     37  C   UNL A   1      47.280  33.242  28.446  1.00  0.00     0.074 A 
ATOM     38  C   UNL A   1      47.766  34.577  28.731  1.00  0.00     0.031 C 
ATOM     39  C   UNL A   1      48.072  32.175  28.175  1.00  0.00     0.037 A 
BRANCH  26  40
ATOM     40  C   UNL A   1      44.951  26.954  27.016  1.00  0.00     0.058 A 
ATOM     41  C   UNL A   1      44.706  26.646  25.667  1.00  0.00     0.135 A 
ATOM     42  C   UNL A   1      45.250  25.901  27.890  1.00  0.00     0.135 A 
ATOM     43  F   UNL A   1      44.468  27.624  24.779  1.00  0.00    -0.206 F 
ATOM     44  C   UNL A   1      44.718  25.340  25.207  1.00  0.00     0.059 A 
ATOM     45  C   UNL A   1      45.308  24.585  27.441  1.00  0.00     0.059 A 
ATOM     46  F   UNL A   1      45.567  26.151  29.171  1.00  0.00    -0.206 F 
ATOM     47  C   UNL A   1      45.019  24.315  26.103  1.00  0.00     0.060 A 
BRANCH  47  48
ATOM     48  S   UNL A   1      45.042  22.625  25.476  1.00  0.00     0.124 S 
ATOM     49  O   UNL A   1      44.786  22.833  24.056  1.00  0.00    -0.237 OA
ATOM     50  O   UNL A   1      46.392  22.191  25.826  1.00  0.00    -0.237 OA
ATOM     51  O   UNL A   1      43.969  21.975  26.223  1.00  0.00    -0.744 OA
ENDBRANCH  47  48
ENDBRANCH  26  40
BRANCH  27  52
ATOM     52  C   UNL A   1      44.092  36.592  29.454  1.00  0.00     0.058 A 
ATOM     53  C   UNL A   1      44.294  37.117  30.744  1.00  0.00     0.135 A 
ATOM     54  C   UNL A   1      43.822  37.543  28.445  1.00  0.00     0.135 A 
ATOM     55  F   UNL A   1      44.650  36.308  31.752  1.00  0.00    -0.206 F 
ATOM     56  C   UNL A   1      44.141  38.470  31.044  1.00  0.00     0.059 A 
ATOM     57  C   UNL A   1      43.710  38.920  28.712  1.00  0.00     0.059 A 
ATOM     58  F   UNL A   1      43.696  37.152  27.167  1.00  0.00    -0.206 F 
ATOM     59  C   UNL A   1      43.838  39.368  30.025  1.00  0.00     0.060 A 
BRANCH  59  60
ATOM     60  S   UNL A   1      43.612  41.110  30.467  1.00  0.00     0.124 S 
ATOM     61  O   UNL A   1      43.881  41.773  29.194  1.00  0.00    -0.237 OA
ATOM     62  O   UNL A   1      42.223  41.138  30.912  1.00  0.00    -0.237 OA
ATOM     63  O   UNL A   1      44.608  41.331  31.510  1.00  0.00    -0.744 OA
ENDBRANCH  59  60
ENDBRANCH  27  52
BRANCH  39  64
ATOM     64  C   UNL A   1      49.549  32.405  28.081  1.00  0.00     0.058 A 
ATOM     65  C   UNL A   1      50.357  32.143  29.200  1.00  0.00     0.135 A 
ATOM     66  C   UNL A   1      50.153  32.962  26.945  1.00  0.00     0.135 A 
ATOM     67  F   UNL A   1      49.824  31.622  30.316  1.00  0.00    -0.206 F 
ATOM     68  C   UNL A   1      51.711  32.445  29.202  1.00  0.00     0.059 A 
ATOM     69  C   UNL A   1      51.517  33.235  26.911  1.00  0.00     0.059 A 
ATOM     70  F   UNL A   1      49.422  33.226  25.850  1.00  0.00    -0.206 F 
ATOM     71  C   UNL A   1      52.282  32.986  28.051  1.00  0.00     0.060 A 
BRANCH  71  72
ATOM     72  S   UNL A   1      54.051  33.334  28.069  1.00  0.00     0.124 S 
ATOM     73  O   UNL A   1      54.413  33.114  26.672  1.00  0.00    -0.237 OA
ATOM     74  O   UNL A   1      54.083  34.721  28.522  1.00  0.00    -0.237 OA
ATOM     75  O   UNL A   1      54.579  32.357  29.016  1.00  0.00    -0.744 OA
ENDBRANCH  71  72
ENDBRANCH  39  64
ENDBRANCH  13  14
ENDBRANCH   6   8
ENDBRANCH   5   6
ENDBRANCH   4   5
ENDBRANCH   3   4
ENDBRANCH   2   3
ENDBRANCH   1   2
BRANCH   1  76
ATOM     76  C   UNL A   1      34.244  29.454  27.623  1.00  0.00     0.188 C 
BRANCH  76  77
ATOM     77  O   UNL A   1      34.402  29.022  26.294  1.00  0.00    -0.376 OA
BRANCH  77  78
ATOM     78  C   UNL A   1      33.356  28.424  25.556  1.00  0.00     0.202 C 
BRANCH  78  79
ATOM     79  C   UNL A   1      32.223  27.587  26.218  1.00  0.00     0.261 C 
BRANCH  79  80
ATOM     80  O   UNL A   1      30.900  27.683  25.640  1.00  0.00    -0.463 OA
BRANCH  80  81
ATOM     81  C   UNL A   1      30.468  26.545  25.048  1.00  0.00     0.309 C 
ATOM     82  O   UNL A   1      30.118  25.568  25.706  1.00  0.00    -0.252 OA
BRANCH  81  83
ATOM     83  C   UNL A   1      30.475  26.576  23.516  1.00  0.00     0.111 C 
ATOM     84  C   UNL A   1      29.128  27.255  23.115  1.00  0.00     0.016 C 
ATOM     85  C   UNL A   1      31.583  27.188  22.612  1.00  0.00     0.093 C 
ATOM     86  C   UNL A   1      29.175  28.775  23.292  1.00  0.00     0.001 C 
ATOM     87  C   UNL A   1      31.456  28.697  22.197  1.00  0.00     0.014 C 
ATOM     88  C   UNL A   1      30.085  29.374  22.248  1.00  0.00     0.001 C 
BRANCH  85  89
ATOM     89  C   UNL A   1      32.977  26.486  22.351  1.00  0.00     0.226 C 
ATOM     90  O   UNL A   1      33.914  27.233  22.053  1.00  0.00    -0.275 OA
ATOM     91  N   UNL A   1      33.344  25.212  22.648  1.00  0.00    -0.340 N 
ATOM     92  C   UNL A   1      34.167  24.944  23.920  1.00  0.00     0.136 C 
ATOM     93  C   UNL A   1      32.943  23.881  21.922  1.00  0.00     0.136 C 
ATOM     94  C   UNL A   1      33.201  24.091  25.471  1.00  0.00     0.124 C 
ATOM     95  C   UNL A   1      31.992  22.629  22.808  1.00  0.00     0.124 C 
ATOM     96  N   UNL A   1      32.115  22.393  24.762  1.00  0.00    -0.194 NA
BRANCH  96  97
ATOM     97  S   UNL A   1      32.566  20.372  24.550  1.00  0.00     0.243 S 
ATOM     98  O   UNL A   1      31.968  19.580  25.608  1.00  0.00    -0.207 OA
ATOM     99  O   UNL A   1      32.300  20.041  23.167  1.00  0.00    -0.207 OA
BRANCH  97 100
ATOM    100  C   UNL A   1      34.385  20.041  24.840  1.00  0.00     0.082 A 
ATOM    101  C   UNL A   1      35.062  18.816  24.610  1.00  0.00     0.025 A 
ATOM    102  C   UNL A   1      35.210  21.169  24.881  1.00  0.00     0.025 A 
ATOM    103  C   UNL A   1      36.435  18.654  24.816  1.00  0.00     0.040 A 
ATOM    104  C   UNL A   1      36.613  21.037  24.886  1.00  0.00     0.040 A 
ATOM    105  C   UNL A   1      37.208  19.782  24.939  1.00  0.00     0.123 A 
ATOM    106  F   UNL A   1      38.539  19.661  24.994  1.00  0.00    -0.207 F 
ENDBRANCH  97 100
ENDBRANCH  96  97
ENDBRANCH  85  89
ENDBRANCH  81  83
ENDBRANCH  80  81
ENDBRANCH  79  80
ENDBRANCH  78  79
ENDBRANCH  77  78
ENDBRANCH  76  77
ENDBRANCH   1  76
TORSDOF 23
ENDMDL
MODEL 3
REMARK VINA RESULT:     -11.3      3.568      5.170
REMARK SMILES O=C(OCCOCCOCCOC(=O)[C@H]1CCCC[C@H]1C(=O)N1CCN(S(=O)(=O)c2ccc(F)cc2)CC1)c1ccc(-c2c3nc(c(-c4c(F)cc(S(=O)(=O)[O-])cc4F)c4ccc([nH]4)c(-c4c(F)cc(S(=O)(=O)[O-])cc4F)c4nc(c(-c5c(F)cc(S(=O)(=O)[O-])cc5F)c5ccc2[nH]5)C=C4)C=C3)cc1
REMARK SMILES IDX 7 1 6 2 5 3 4 4 3 5 2 6 1 7 39 8 40 9 104 10 41 11 103 12
REMARK SMILES IDX 42 13 43 14 44 15 97 16 45 17 102 18 96 19 98 20 46 21
REMARK SMILES IDX 101 22 95 23 94 24 47 26 81 27 60 28 80 29 61 30 64 31 79 32
REMARK SMILES IDX 99 33 62 34 63 35 78 37 100 38 65 39 48 40 49 41 58 42 50 43
REMARK SMILES IDX 51 44 57 45 59 46 52 47 53 48 54 49 55 50 56 51 82 52 83 53
REMARK SMILES IDX 92 54 84 55 85 56 91 57 93 58 86 59 87 60 88 61 89 62 90 63
REMARK SMILES IDX 66 64 67 65 76 66 68 67 69 68 75 69 77 70 70 71 71 72 72 73
REMARK SMILES IDX 73 74 74 75 8 76 9 77 10 78 11 79 12 80 13 81 14 82 15 83
REMARK SMILES IDX 16 84 20 85 17 86 19 87 18 88 21 89 22 90 23 91 24 92 38 93
REMARK SMILES IDX 25 94 37 95 26 96 27 97 28 98 29 99 30 100 31 101 36 102
REMARK SMILES IDX 32 103 35 104 33 105 34 106
REMARK H PARENT 98 25 64 36
REMARK Flexibility Score: inf
ROOT
ATOM      1  C   UNL A   1      35.523  29.955  28.304  1.00  0.00     0.188 C 
ENDROOT
BRANCH   1   2
ATOM      2  O   UNL A   1      35.918  31.647  28.045  1.00  0.00    -0.376 OA
BRANCH   2   3
ATOM      3  C   UNL A   1      35.197  33.202  29.086  1.00  0.00     0.202 C 
BRANCH   3   4
ATOM      4  C   UNL A   1      34.792  32.686  30.951  1.00  0.00     0.261 C 
BRANCH   4   5
ATOM      5  O   UNL A   1      35.616  31.248  31.713  1.00  0.00    -0.460 OA
BRANCH   5   6
ATOM      6  C   UNL A   1      36.797  30.531  32.228  1.00  0.00     0.338 C 
ATOM      7  O   UNL A   1      36.650  29.327  32.466  1.00  0.00    -0.246 OA
BRANCH   6   8
ATOM      8  C   UNL A   1      38.285  31.076  32.624  1.00  0.00     0.060 A 
ATOM      9  C   UNL A   1      38.653  32.397  32.588  1.00  0.00     0.016 A 
ATOM     10  C   UNL A   1      39.323  30.405  33.293  1.00  0.00     0.016 A 
ATOM     11  C   UNL A   1      39.956  32.919  32.531  1.00  0.00     0.010 A 
ATOM     12  C   UNL A   1      40.706  30.953  33.374  1.00  0.00     0.010 A 
ATOM     13  C   UNL A   1      41.060  32.188  32.791  1.00  0.00    -0.014 A 
BRANCH  13  14
ATOM     14  C   UNL A   1      42.261  32.675  31.959  1.00  0.00     0.031 A 
ATOM     15  C   UNL A   1      42.558  31.833  30.751  1.00  0.00     0.074 A 
ATOM     16  C   UNL A   1      42.752  33.958  31.881  1.00  0.00     0.049 A 
ATOM     17  N   UNL A   1      43.552  31.908  29.911  1.00  0.00    -0.248 NA
ATOM     18  C   UNL A   1      41.590  30.771  30.436  1.00  0.00     0.031 C 
ATOM     19  C   UNL A   1      42.348  35.075  32.734  1.00  0.00     0.029 A 
ATOM     20  N   UNL A   1      43.580  34.597  30.953  1.00  0.00    -0.354 N 
ATOM     21  C   UNL A   1      43.409  30.804  29.087  1.00  0.00     0.074 A 
ATOM     22  C   UNL A   1      42.195  30.128  29.458  1.00  0.00     0.031 C 
ATOM     23  C   UNL A   1      42.753  36.241  32.194  1.00  0.00     0.029 A 
ATOM     24  C   UNL A   1      43.671  35.981  31.099  1.00  0.00     0.049 A 
ATOM     25  H   UNL A   1      44.061  34.108  30.248  1.00  0.00     0.167 HD
ATOM     26  C   UNL A   1      44.272  30.368  28.149  1.00  0.00     0.037 A 
ATOM     27  C   UNL A   1      44.451  36.929  30.506  1.00  0.00     0.037 A 
ATOM     28  C   UNL A   1      45.431  31.112  27.752  1.00  0.00     0.049 A 
ATOM     29  C   UNL A   1      45.517  36.413  29.569  1.00  0.00     0.074 A 
ATOM     30  C   UNL A   1      46.480  30.709  26.953  1.00  0.00     0.029 A 
ATOM     31  N   UNL A   1      45.671  32.433  28.105  1.00  0.00    -0.354 N 
ATOM     32  N   UNL A   1      45.627  35.215  29.045  1.00  0.00    -0.248 NA
ATOM     33  C   UNL A   1      46.626  37.318  29.229  1.00  0.00     0.031 C 
ATOM     34  C   UNL A   1      47.389  31.766  26.875  1.00  0.00     0.029 A 
ATOM     35  C   UNL A   1      46.860  32.858  27.547  1.00  0.00     0.049 A 
ATOM     36  H   UNL A   1      45.081  32.983  28.669  1.00  0.00     0.167 HD
ATOM     37  C   UNL A   1      46.817  35.214  28.334  1.00  0.00     0.074 A 
ATOM     38  C   UNL A   1      47.381  36.543  28.459  1.00  0.00     0.031 C 
ATOM     39  C   UNL A   1      47.397  34.192  27.658  1.00  0.00     0.037 A 
BRANCH  26  40
ATOM     40  C   UNL A   1      44.087  28.959  27.682  1.00  0.00     0.058 A 
ATOM     41  C   UNL A   1      43.241  28.727  26.584  1.00  0.00     0.135 A 
ATOM     42  C   UNL A   1      44.762  27.864  28.238  1.00  0.00     0.135 A 
ATOM     43  F   UNL A   1      42.614  29.750  25.982  1.00  0.00    -0.206 F 
ATOM     44  C   UNL A   1      43.040  27.454  26.079  1.00  0.00     0.059 A 
ATOM     45  C   UNL A   1      44.607  26.582  27.720  1.00  0.00     0.059 A 
ATOM     46  F   UNL A   1      45.640  28.045  29.238  1.00  0.00    -0.206 F 
ATOM     47  C   UNL A   1      43.727  26.386  26.655  1.00  0.00     0.060 A 
BRANCH  47  48
ATOM     48  S   UNL A   1      43.459  24.741  25.970  1.00  0.00     0.124 S 
ATOM     49  O   UNL A   1      42.005  24.636  26.010  1.00  0.00    -0.237 OA
ATOM     50  O   UNL A   1      44.054  24.864  24.642  1.00  0.00    -0.237 OA
ATOM     51  O   UNL A   1      44.180  23.870  26.894  1.00  0.00    -0.744 OA
ENDBRANCH  47  48
ENDBRANCH  26  40
BRANCH  27  52
ATOM     52  C   UNL A   1      44.442  38.393  30.914  1.00  0.00     0.058 A 
ATOM     53  C   UNL A   1      45.235  38.847  31.985  1.00  0.00     0.135 A 
ATOM     54  C   UNL A   1      43.718  39.392  30.226  1.00  0.00     0.135 A 
ATOM     55  F   UNL A   1      46.033  37.993  32.642  1.00  0.00    -0.206 F 
ATOM     56  C   UNL A   1      45.237  40.173  32.416  1.00  0.00     0.059 A 
ATOM     57  C   UNL A   1      43.742  40.744  30.610  1.00  0.00     0.059 A 
ATOM     58  F   UNL A   1      42.998  39.073  29.138  1.00  0.00    -0.206 F 
ATOM     59  C   UNL A   1      44.480  41.118  31.731  1.00  0.00     0.060 A 
BRANCH  59  60
ATOM     60  S   UNL A   1      44.486  42.821  32.348  1.00  0.00     0.124 S 
ATOM     61  O   UNL A   1      43.573  43.475  31.415  1.00  0.00    -0.237 OA
ATOM     62  O   UNL A   1      43.986  42.658  33.710  1.00  0.00    -0.237 OA
ATOM     63  O   UNL A   1      45.884  43.221  32.238  1.00  0.00    -0.744 OA
ENDBRANCH  59  60
ENDBRANCH  27  52
BRANCH  39  64
ATOM     64  C   UNL A   1      48.669  34.473  26.919  1.00  0.00     0.058 A 
ATOM     65  C   UNL A   1      49.894  34.386  27.601  1.00  0.00     0.135 A 
ATOM     66  C   UNL A   1      48.684  34.913  25.587  1.00  0.00     0.135 A 
ATOM     67  F   UNL A   1      49.931  33.982  28.881  1.00  0.00    -0.206 F 
ATOM     68  C   UNL A   1      51.088  34.746  26.994  1.00  0.00     0.059 A 
ATOM     69  C   UNL A   1      49.875  35.240  24.947  1.00  0.00     0.059 A 
ATOM     70  F   UNL A   1      47.539  35.009  24.893  1.00  0.00    -0.206 F 
ATOM     71  C   UNL A   1      51.068  35.166  25.666  1.00  0.00     0.060 A 
BRANCH  71  72
ATOM     72  S   UNL A   1      52.640  35.591  24.891  1.00  0.00     0.124 S 
ATOM     73  O   UNL A   1      52.636  34.729  23.713  1.00  0.00    -0.237 OA
ATOM     74  O   UNL A   1      52.475  37.018  24.633  1.00  0.00    -0.237 OA
ATOM     75  O   UNL A   1      53.625  35.254  25.913  1.00  0.00    -0.744 OA
ENDBRANCH  71  72
ENDBRANCH  39  64
ENDBRANCH  13  14
ENDBRANCH   6   8
ENDBRANCH   5   6
ENDBRANCH   4   5
ENDBRANCH   3   4
ENDBRANCH   2   3
ENDBRANCH   1   2
BRANCH   1  76
ATOM     76  C   UNL A   1      34.791  28.970  27.397  1.00  0.00     0.188 C 
BRANCH  76  77
ATOM     77  O   UNL A   1      34.395  29.248  26.077  1.00  0.00    -0.376 OA
BRANCH  77  78
ATOM     78  C   UNL A   1      33.123  28.898  25.573  1.00  0.00     0.202 C 
BRANCH  78  79
ATOM     79  C   UNL A   1      32.303  27.687  26.107  1.00  0.00     0.261 C 
BRANCH  79  80
ATOM     80  O   UNL A   1      30.872  27.705  25.894  1.00  0.00    -0.463 OA
BRANCH  80  81
ATOM     81  C   UNL A   1      30.362  26.537  25.439  1.00  0.00     0.309 C 
ATOM     82  O   UNL A   1      29.986  25.654  26.207  1.00  0.00    -0.252 OA
BRANCH  81  83
ATOM     83  C   UNL A   1      30.319  26.406  23.913  1.00  0.00     0.111 C 
ATOM     84  C   UNL A   1      28.905  26.924  23.499  1.00  0.00     0.016 C 
ATOM     85  C   UNL A   1      31.339  27.011  22.907  1.00  0.00     0.093 C 
ATOM     86  C   UNL A   1      28.824  28.453  23.518  1.00  0.00     0.001 C 
ATOM     87  C   UNL A   1      31.067  28.452  22.345  1.00  0.00     0.014 C 
ATOM     88  C   UNL A   1      29.645  29.013  22.383  1.00  0.00     0.001 C 
BRANCH  85  89
ATOM     89  C   UNL A   1      32.781  26.405  22.663  1.00  0.00     0.226 C 
ATOM     90  O   UNL A   1      33.679  27.218  22.423  1.00  0.00    -0.275 OA
ATOM     91  N   UNL A   1      33.216  25.143  22.922  1.00  0.00    -0.340 N 
ATOM     92  C   UNL A   1      34.017  24.874  24.207  1.00  0.00     0.136 C 
ATOM     93  C   UNL A   1      32.918  23.821  22.133  1.00  0.00     0.136 C 
ATOM     94  C   UNL A   1      33.060  23.903  25.694  1.00  0.00     0.124 C 
ATOM     95  C   UNL A   1      32.020  22.480  22.940  1.00  0.00     0.124 C 
ATOM     96  N   UNL A   1      32.101  22.174  24.886  1.00  0.00    -0.194 NA
BRANCH  96  97
ATOM     97  S   UNL A   1      32.681  20.194  24.611  1.00  0.00     0.243 S 
ATOM     98  O   UNL A   1      32.326  19.372  25.752  1.00  0.00    -0.207 OA
ATOM     99  O   UNL A   1      32.228  19.820  23.289  1.00  0.00    -0.207 OA
BRANCH  97 100
ATOM    100  C   UNL A   1      34.543  20.018  24.609  1.00  0.00     0.082 A 
ATOM    101  C   UNL A   1      35.480  21.007  25.003  1.00  0.00     0.025 A 
ATOM    102  C   UNL A   1      35.031  18.708  24.626  1.00  0.00     0.025 A 
ATOM    103  C   UNL A   1      36.862  20.790  25.009  1.00  0.00     0.040 A 
ATOM    104  C   UNL A   1      36.401  18.450  24.833  1.00  0.00     0.040 A 
ATOM    105  C   UNL A   1      37.312  19.495  24.937  1.00  0.00     0.123 A 
ATOM    106  F   UNL A   1      38.619  19.247  25.084  1.00  0.00    -0.207 F 
ENDBRANCH  97 100
ENDBRANCH  96  97
ENDBRANCH  85  89
ENDBRANCH  81  83
ENDBRANCH  80  81
ENDBRANCH  79  80
ENDBRANCH  78  79
ENDBRANCH  77  78
ENDBRANCH  76  77
ENDBRANCH   1  76
TORSDOF 23
ENDMDL
