MODEL 1
REMARK VINA RESULT:     -10.0      0.000      0.000
REMARK SMILES COc1ncccc1C[C@H](C(=O)OCCOCCOCCOC(=O)c1ccc(-c2c3nc(c(-c4c(F)cc(S(=O)(=O)[O-])cc4F)c4ccc([nH]4)c(-c4c(F)cc(S(=O)(=O)[O-])cc4F)c4nc(c(-c5c(F)cc(S(=O)(=O)[O-])cc5F)c5ccc2[nH]5)C=C4)C=C3)cc1)c1ccc(F)cc1
REMARK SMILES IDX 17 1 16 2 15 3 14 4 13 5 11 6 12 7 10 8 9 9 8 10 3 11 4 12
REMARK SMILES IDX 5 13 7 14 6 15 2 16 1 17 91 18 92 19 97 20 93 21 96 22 94 23
REMARK SMILES IDX 95 24 18 25 19 26 20 27 21 28 22 29 23 30 24 31 25 32 26 33
REMARK SMILES IDX 90 34 27 35 89 36 28 37 29 38 30 39 83 40 31 41 88 42 82 43
REMARK SMILES IDX 84 44 32 45 87 46 81 47 80 48 33 50 67 51 46 52 66 53 47 54
REMARK SMILES IDX 50 55 65 56 85 57 48 58 49 59 64 61 86 62 51 63 34 64 35 65
REMARK SMILES IDX 44 66 36 67 37 68 43 69 45 70 38 71 39 72 40 73 41 74 42 75
REMARK SMILES IDX 68 76 69 77 78 78 70 79 71 80 77 81 79 82 72 83 73 84 74 85
REMARK SMILES IDX 75 86 76 87 52 88 53 89 62 90 54 91 55 92 61 93 63 94 56 95
REMARK SMILES IDX 57 96 58 97 59 98 60 99
REMARK H PARENT 84 49 50 60
REMARK Flexibility Score: inf
ROOT
ATOM      1  C   UNL A   1      34.199  31.819  28.087  1.00  0.00     0.188 C 
ENDROOT
BRANCH   1   2
ATOM      2  O   UNL A   1      33.273  31.463  27.065  1.00  0.00    -0.376 OA
BRANCH   2   3
ATOM      3  C   UNL A   1      32.709  30.163  27.024  1.00  0.00     0.202 C 
BRANCH   3   4
ATOM      4  C   UNL A   1      31.856  29.796  25.802  1.00  0.00     0.261 C 
BRANCH   4   5
ATOM      5  O   UNL A   1      32.403  28.744  24.979  1.00  0.00    -0.463 OA
BRANCH   5   6
ATOM      6  C   UNL A   1      31.614  27.646  24.833  1.00  0.00     0.313 C 
ATOM      7  O   UNL A   1      31.103  27.064  25.784  1.00  0.00    -0.252 OA
BRANCH   6   8
ATOM      8  C   UNL A   1      31.335  27.283  23.351  1.00  0.00     0.134 C 
BRANCH   8   9
ATOM      9  C   UNL A   1      30.975  25.791  23.073  1.00  0.00     0.061 C 
BRANCH   9  10
ATOM     10  C   UNL A   1      32.135  24.811  23.125  1.00  0.00     0.015 A 
ATOM     11  C   UNL A   1      33.310  24.995  22.392  1.00  0.00     0.216 A 
ATOM     12  N   UNL A   1      34.413  24.221  22.496  1.00  0.00    -0.222 NA
ATOM     13  C   UNL A   1      34.326  23.153  23.317  1.00  0.00     0.115 A 
ATOM     14  C   UNL A   1      32.071  23.661  23.919  1.00  0.00     0.011 A 
ATOM     15  C   UNL A   1      33.173  22.810  24.003  1.00  0.00     0.021 A 
BRANCH  11  16
ATOM     16  O   UNL A   1      33.279  25.858  21.326  1.00  0.00    -0.481 OA
ATOM     17  C   UNL A   1      32.587  25.311  20.216  1.00  0.00     0.280 C 
ENDBRANCH  11  16
ENDBRANCH   9  10
ENDBRANCH   8   9
BRANCH   8  18
ATOM     18  C   UNL A   1      30.220  28.213  22.854  1.00  0.00    -0.033 A 
ATOM     19  C   UNL A   1      28.886  27.986  23.243  1.00  0.00     0.007 A 
ATOM     20  C   UNL A   1      30.528  29.376  22.127  1.00  0.00     0.007 A 
ATOM     21  C   UNL A   1      27.887  28.895  22.901  1.00  0.00     0.039 A 
ATOM     22  C   UNL A   1      29.520  30.270  21.765  1.00  0.00     0.039 A 
ATOM     23  C   UNL A   1      28.211  30.023  22.160  1.00  0.00     0.123 A 
ATOM     24  F   UNL A   1      27.246  30.892  21.835  1.00  0.00    -0.207 F 
ENDBRANCH   8  18
ENDBRANCH   6   8
ENDBRANCH   5   6
ENDBRANCH   4   5
ENDBRANCH   3   4
ENDBRANCH   2   3
ENDBRANCH   1   2
BRANCH   1  25
ATOM     25  C   UNL A   1      34.017  33.099  28.917  1.00  0.00     0.188 C 
BRANCH  25  26
ATOM     26  O   UNL A   1      35.194  33.857  29.123  1.00  0.00    -0.376 OA
BRANCH  26  27
ATOM     27  C   UNL A   1      36.335  33.465  28.378  1.00  0.00     0.202 C 
BRANCH  27  28
ATOM     28  C   UNL A   1      37.596  33.287  29.226  1.00  0.00     0.261 C 
BRANCH  28  29
ATOM     29  O   UNL A   1      37.379  32.651  30.498  1.00  0.00    -0.460 OA
BRANCH  29  30
ATOM     30  C   UNL A   1      37.261  31.304  30.500  1.00  0.00     0.338 C 
ATOM     31  O   UNL A   1      36.230  30.662  30.669  1.00  0.00    -0.246 OA
BRANCH  30  32
ATOM     32  C   UNL A   1      38.550  30.734  30.060  1.00  0.00     0.060 A 
ATOM     33  C   UNL A   1      39.627  30.680  30.956  1.00  0.00     0.016 A 
ATOM     34  C   UNL A   1      38.692  30.243  28.759  1.00  0.00     0.016 A 
ATOM     35  C   UNL A   1      40.857  30.158  30.540  1.00  0.00     0.010 A 
ATOM     36  C   UNL A   1      39.927  29.738  28.342  1.00  0.00     0.010 A 
ATOM     37  C   UNL A   1      41.025  29.718  29.218  1.00  0.00    -0.014 A 
BRANCH  37  38
ATOM     38  C   UNL A   1      42.378  29.395  28.693  1.00  0.00     0.031 A 
ATOM     39  C   UNL A   1      42.674  27.969  28.301  1.00  0.00     0.074 A 
ATOM     40  C   UNL A   1      43.332  30.337  28.568  1.00  0.00     0.049 A 
ATOM     41  N   UNL A   1      43.800  27.429  27.913  1.00  0.00    -0.248 NA
ATOM     42  C   UNL A   1      41.545  27.025  28.359  1.00  0.00     0.031 C 
ATOM     43  C   UNL A   1      43.170  31.756  28.879  1.00  0.00     0.029 A 
ATOM     44  N   UNL A   1      44.640  30.232  28.156  1.00  0.00    -0.354 N 
ATOM     45  C   UNL A   1      43.516  26.089  27.674  1.00  0.00     0.074 A 
ATOM     46  C   UNL A   1      42.122  25.888  28.000  1.00  0.00     0.031 C 
ATOM     47  C   UNL A   1      44.338  32.387  28.662  1.00  0.00     0.029 A 
ATOM     48  C   UNL A   1      45.341  31.413  28.231  1.00  0.00     0.049 A 
ATOM     49  H   UNL A   1      45.037  29.390  27.836  1.00  0.00     0.167 HD
ATOM     50  C   UNL A   1      44.338  25.118  27.212  1.00  0.00     0.037 A 
ATOM     51  C   UNL A   1      46.647  31.671  28.005  1.00  0.00     0.037 A 
ATOM     52  C   UNL A   1      45.728  25.313  26.891  1.00  0.00     0.049 A 
ATOM     53  C   UNL A   1      47.562  30.548  27.574  1.00  0.00     0.074 A 
ATOM     54  C   UNL A   1      46.643  24.384  26.428  1.00  0.00     0.029 A 
ATOM     55  N   UNL A   1      46.403  26.519  26.995  1.00  0.00    -0.354 N 
ATOM     56  N   UNL A   1      47.277  29.287  27.347  1.00  0.00    -0.248 NA
ATOM     57  C   UNL A   1      48.979  30.885  27.367  1.00  0.00     0.031 C 
ATOM     58  C   UNL A   1      47.881  25.018  26.290  1.00  0.00     0.029 A 
ATOM     59  C   UNL A   1      47.725  26.355  26.617  1.00  0.00     0.049 A 
ATOM     60  H   UNL A   1      46.002  27.368  27.295  1.00  0.00     0.167 HD
ATOM     61  C   UNL A   1      48.468  28.696  26.933  1.00  0.00     0.074 A 
ATOM     62  C   UNL A   1      49.473  29.736  26.928  1.00  0.00     0.031 C 
ATOM     63  C   UNL A   1      48.711  27.405  26.589  1.00  0.00     0.037 A 
BRANCH  50  64
ATOM     64  C   UNL A   1      43.759  23.743  27.018  1.00  0.00     0.058 A 
ATOM     65  C   UNL A   1      43.569  22.871  28.102  1.00  0.00     0.135 A 
ATOM     66  C   UNL A   1      43.320  23.321  25.753  1.00  0.00     0.135 A 
ATOM     67  F   UNL A   1      43.989  23.217  29.330  1.00  0.00    -0.206 F 
ATOM     68  C   UNL A   1      42.971  21.626  27.938  1.00  0.00     0.059 A 
ATOM     69  C   UNL A   1      42.696  22.091  25.569  1.00  0.00     0.059 A 
ATOM     70  F   UNL A   1      43.483  24.114  24.682  1.00  0.00    -0.206 F 
ATOM     71  C   UNL A   1      42.531  21.248  26.668  1.00  0.00     0.060 A 
BRANCH  71  72
ATOM     72  S   UNL A   1      41.718  19.647  26.481  1.00  0.00     0.124 S 
ATOM     73  O   UNL A   1      40.312  20.036  26.441  1.00  0.00    -0.237 OA
ATOM     74  O   UNL A   1      42.278  19.160  25.223  1.00  0.00    -0.237 OA
ATOM     75  O   UNL A   1      42.132  18.913  27.674  1.00  0.00    -0.744 OA
ENDBRANCH  71  72
ENDBRANCH  50  64
BRANCH  51  76
ATOM     76  C   UNL A   1      47.198  33.041  28.205  1.00  0.00     0.058 A 
ATOM     77  C   UNL A   1      47.698  33.448  29.451  1.00  0.00     0.135 A 
ATOM     78  C   UNL A   1      47.169  33.993  27.174  1.00  0.00     0.135 A 
ATOM     79  F   UNL A   1      47.737  32.581  30.474  1.00  0.00    -0.206 F 
ATOM     80  C   UNL A   1      48.105  34.759  29.683  1.00  0.00     0.059 A 
ATOM     81  C   UNL A   1      47.601  35.301  27.371  1.00  0.00     0.059 A 
ATOM     82  F   UNL A   1      46.711  33.656  25.959  1.00  0.00    -0.206 F 
ATOM     83  C   UNL A   1      48.046  35.681  28.637  1.00  0.00     0.060 A 
BRANCH  83  84
ATOM     84  S   UNL A   1      48.563  37.383  28.948  1.00  0.00     0.124 S 
ATOM     85  O   UNL A   1      49.480  37.618  27.839  1.00  0.00    -0.237 OA
ATOM     86  O   UNL A   1      47.294  38.104  28.893  1.00  0.00    -0.237 OA
ATOM     87  O   UNL A   1      49.176  37.310  30.271  1.00  0.00    -0.744 OA
ENDBRANCH  83  84
ENDBRANCH  51  76
BRANCH  63  88
ATOM     88  C   UNL A   1      50.098  27.056  26.120  1.00  0.00     0.058 A 
ATOM     89  C   UNL A   1      50.474  27.152  24.772  1.00  0.00     0.135 A 
ATOM     90  C   UNL A   1      51.080  26.658  27.044  1.00  0.00     0.135 A 
ATOM     91  F   UNL A   1      49.576  27.526  23.845  1.00  0.00    -0.206 F 
ATOM     92  C   UNL A   1      51.763  26.836  24.350  1.00  0.00     0.059 A 
ATOM     93  C   UNL A   1      52.382  26.367  26.650  1.00  0.00     0.059 A 
ATOM     94  F   UNL A   1      50.781  26.562  28.350  1.00  0.00    -0.206 F 
ATOM     95  C   UNL A   1      52.710  26.443  25.297  1.00  0.00     0.060 A 
BRANCH  95  96
ATOM     96  S   UNL A   1      54.383  26.055  24.740  1.00  0.00     0.124 S 
ATOM     97  O   UNL A   1      54.490  24.643  25.092  1.00  0.00    -0.237 OA
ATOM     98  O   UNL A   1      54.313  26.348  23.312  1.00  0.00    -0.237 OA
ATOM     99  O   UNL A   1      55.221  26.961  25.519  1.00  0.00    -0.744 OA
ENDBRANCH  95  96
ENDBRANCH  63  88
ENDBRANCH  37  38
ENDBRANCH  30  32
ENDBRANCH  29  30
ENDBRANCH  28  29
ENDBRANCH  27  28
ENDBRANCH  26  27
ENDBRANCH  25  26
ENDBRANCH   1  25
TORSDOF 24
ENDMDL
MODEL 2
REMARK VINA RESULT:     -10.0      1.531      8.187
REMARK SMILES COc1ncccc1C[C@H](C(=O)OCCOCCOCCOC(=O)c1ccc(-c2c3nc(c(-c4c(F)cc(S(=O)(=O)[O-])cc4F)c4ccc([nH]4)c(-c4c(F)cc(S(=O)(=O)[O-])cc4F)c4nc(c(-c5c(F)cc(S(=O)(=O)[O-])cc5F)c5ccc2[nH]5)C=C4)C=C3)cc1)c1ccc(F)cc1
REMARK SMILES IDX 17 1 16 2 15 3 14 4 13 5 11 6 12 7 10 8 9 9 8 10 3 11 4 12
REMARK SMILES IDX 5 13 7 14 6 15 2 16 1 17 91 18 92 19 97 20 93 21 96 22 94 23
REMARK SMILES IDX 95 24 18 25 19 26 20 27 21 28 22 29 23 30 24 31 25 32 26 33
REMARK SMILES IDX 90 34 27 35 89 36 28 37 29 38 30 39 83 40 31 41 88 42 82 43
REMARK SMILES IDX 84 44 32 45 87 46 81 47 80 48 33 50 67 51 46 52 66 53 47 54
REMARK SMILES IDX 50 55 65 56 85 57 48 58 49 59 64 61 86 62 51 63 34 64 35 65
REMARK SMILES IDX 44 66 36 67 37 68 43 69 45 70 38 71 39 72 40 73 41 74 42 75
REMARK SMILES IDX 68 76 69 77 78 78 70 79 71 80 77 81 79 82 72 83 73 84 74 85
REMARK SMILES IDX 75 86 76 87 52 88 53 89 62 90 54 91 55 92 61 93 63 94 56 95
REMARK SMILES IDX 57 96 58 97 59 98 60 99
REMARK H PARENT 84 49 50 60
REMARK Flexibility Score: inf
ROOT
ATOM      1  C   UNL A   1      33.573  33.051  27.761  1.00  0.00     0.188 C 
ENDROOT
BRANCH   1   2
ATOM      2  O   UNL A   1      34.135  31.804  27.365  1.00  0.00    -0.376 OA
BRANCH   2   3
ATOM      3  C   UNL A   1      33.458  30.588  27.639  1.00  0.00     0.202 C 
BRANCH   3   4
ATOM      4  C   UNL A   1      33.366  29.555  26.508  1.00  0.00     0.261 C 
BRANCH   4   5
ATOM      5  O   UNL A   1      33.185  28.193  26.949  1.00  0.00    -0.463 OA
BRANCH   5   6
ATOM      6  C   UNL A   1      31.959  27.657  26.703  1.00  0.00     0.313 C 
ATOM      7  O   UNL A   1      31.026  27.743  27.496  1.00  0.00    -0.252 OA
BRANCH   6   8
ATOM      8  C   UNL A   1      31.831  27.040  25.286  1.00  0.00     0.134 C 
BRANCH   8   9
ATOM      9  C   UNL A   1      31.471  25.523  25.236  1.00  0.00     0.061 C 
BRANCH   9  10
ATOM     10  C   UNL A   1      32.416  24.594  25.980  1.00  0.00     0.015 A 
ATOM     11  C   UNL A   1      31.963  23.601  26.852  1.00  0.00     0.216 A 
ATOM     12  N   UNL A   1      32.751  22.674  27.441  1.00  0.00    -0.222 NA
ATOM     13  C   UNL A   1      34.078  22.780  27.218  1.00  0.00     0.115 A 
ATOM     14  C   UNL A   1      33.801  24.700  25.823  1.00  0.00     0.011 A 
ATOM     15  C   UNL A   1      34.647  23.794  26.464  1.00  0.00     0.021 A 
BRANCH  11  16
ATOM     16  O   UNL A   1      30.686  23.703  27.342  1.00  0.00    -0.481 OA
ATOM     17  C   UNL A   1      29.908  22.554  27.053  1.00  0.00     0.280 C 
ENDBRANCH  11  16
ENDBRANCH   9  10
ENDBRANCH   8   9
BRANCH   8  18
ATOM     18  C   UNL A   1      30.794  27.870  24.517  1.00  0.00    -0.033 A 
ATOM     19  C   UNL A   1      31.062  29.215  24.200  1.00  0.00     0.007 A 
ATOM     20  C   UNL A   1      29.634  27.268  24.001  1.00  0.00     0.007 A 
ATOM     21  C   UNL A   1      30.185  29.939  23.396  1.00  0.00     0.039 A 
ATOM     22  C   UNL A   1      28.745  28.004  23.217  1.00  0.00     0.039 A 
ATOM     23  C   UNL A   1      29.032  29.330  22.919  1.00  0.00     0.123 A 
ATOM     24  F   UNL A   1      28.193  30.032  22.147  1.00  0.00    -0.207 F 
ENDBRANCH   8  18
ENDBRANCH   6   8
ENDBRANCH   5   6
ENDBRANCH   4   5
ENDBRANCH   3   4
ENDBRANCH   2   3
ENDBRANCH   1   2
BRANCH   1  25
ATOM     25  C   UNL A   1      34.041  33.767  29.038  1.00  0.00     0.188 C 
BRANCH  25  26
ATOM     26  O   UNL A   1      35.438  33.745  29.264  1.00  0.00    -0.376 OA
BRANCH  26  27
ATOM     27  C   UNL A   1      35.874  34.144  30.553  1.00  0.00     0.202 C 
BRANCH  27  28
ATOM     28  C   UNL A   1      37.217  33.539  30.966  1.00  0.00     0.261 C 
BRANCH  28  29
ATOM     29  O   UNL A   1      37.119  32.319  31.723  1.00  0.00    -0.460 OA
BRANCH  29  30
ATOM     30  C   UNL A   1      36.749  31.206  31.051  1.00  0.00     0.338 C 
ATOM     31  O   UNL A   1      35.604  30.873  30.765  1.00  0.00    -0.246 OA
BRANCH  30  32
ATOM     32  C   UNL A   1      37.973  30.557  30.538  1.00  0.00     0.060 A 
ATOM     33  C   UNL A   1      38.891  29.998  31.438  1.00  0.00     0.016 A 
ATOM     34  C   UNL A   1      38.209  30.494  29.162  1.00  0.00     0.016 A 
ATOM     35  C   UNL A   1      40.061  29.398  30.960  1.00  0.00     0.010 A 
ATOM     36  C   UNL A   1      39.387  29.909  28.689  1.00  0.00     0.010 A 
ATOM     37  C   UNL A   1      40.335  29.383  29.584  1.00  0.00    -0.014 A 
BRANCH  37  38
ATOM     38  C   UNL A   1      41.673  28.976  29.081  1.00  0.00     0.031 A 
ATOM     39  C   UNL A   1      42.745  30.031  28.959  1.00  0.00     0.074 A 
ATOM     40  C   UNL A   1      41.941  27.704  28.733  1.00  0.00     0.049 A 
ATOM     41  N   UNL A   1      43.949  29.939  28.459  1.00  0.00    -0.248 NA
ATOM     42  C   UNL A   1      42.407  31.370  29.469  1.00  0.00     0.031 C 
ATOM     43  C   UNL A   1      41.009  26.582  28.830  1.00  0.00     0.029 A 
ATOM     44  N   UNL A   1      43.083  27.145  28.208  1.00  0.00    -0.354 N 
ATOM     45  C   UNL A   1      44.515  31.201  28.598  1.00  0.00     0.074 A 
ATOM     46  C   UNL A   1      43.509  32.052  29.193  1.00  0.00     0.031 C 
ATOM     47  C   UNL A   1      41.611  25.472  28.366  1.00  0.00     0.029 A 
ATOM     48  C   UNL A   1      42.957  25.809  27.904  1.00  0.00     0.049 A 
ATOM     49  H   UNL A   1      43.913  27.653  28.063  1.00  0.00     0.167 HD
ATOM     50  C   UNL A   1      45.765  31.611  28.275  1.00  0.00     0.037 A 
ATOM     51  C   UNL A   1      43.819  24.965  27.298  1.00  0.00     0.037 A 
ATOM     52  C   UNL A   1      46.767  30.767  27.678  1.00  0.00     0.049 A 
ATOM     53  C   UNL A   1      45.176  25.471  26.867  1.00  0.00     0.074 A 
ATOM     54  C   UNL A   1      48.058  31.098  27.303  1.00  0.00     0.029 A 
ATOM     55  N   UNL A   1      46.596  29.426  27.373  1.00  0.00    -0.354 N 
ATOM     56  N   UNL A   1      45.699  26.667  27.012  1.00  0.00    -0.248 NA
ATOM     57  C   UNL A   1      46.062  24.511  26.191  1.00  0.00     0.031 C 
ATOM     58  C   UNL A   1      48.653  29.968  26.735  1.00  0.00     0.029 A 
ATOM     59  C   UNL A   1      47.753  28.919  26.804  1.00  0.00     0.049 A 
ATOM     60  H   UNL A   1      45.773  28.910  27.536  1.00  0.00     0.167 HD
ATOM     61  C   UNL A   1      46.985  26.587  26.481  1.00  0.00     0.074 A 
ATOM     62  C   UNL A   1      47.166  25.226  26.025  1.00  0.00     0.031 C 
ATOM     63  C   UNL A   1      47.931  27.554  26.378  1.00  0.00     0.037 A 
BRANCH  50  64
ATOM     64  C   UNL A   1      46.129  33.042  28.560  1.00  0.00     0.058 A 
ATOM     65  C   UNL A   1      46.762  33.410  29.757  1.00  0.00     0.135 A 
ATOM     66  C   UNL A   1      45.911  34.043  27.599  1.00  0.00     0.135 A 
ATOM     67  F   UNL A   1      46.975  32.497  30.718  1.00  0.00    -0.206 F 
ATOM     68  C   UNL A   1      47.162  34.721  29.996  1.00  0.00     0.059 A 
ATOM     69  C   UNL A   1      46.326  35.355  27.805  1.00  0.00     0.059 A 
ATOM     70  F   UNL A   1      45.304  33.746  26.439  1.00  0.00    -0.206 F 
ATOM     71  C   UNL A   1      46.946  35.685  29.009  1.00  0.00     0.060 A 
BRANCH  71  72
ATOM     72  S   UNL A   1      47.509  37.371  29.318  1.00  0.00     0.124 S 
ATOM     73  O   UNL A   1      47.171  37.539  30.729  1.00  0.00    -0.237 OA
ATOM     74  O   UNL A   1      48.935  37.283  29.015  1.00  0.00    -0.237 OA
ATOM     75  O   UNL A   1      46.722  38.172  28.386  1.00  0.00    -0.744 OA
ENDBRANCH  71  72
ENDBRANCH  50  64
BRANCH  51  76
ATOM     76  C   UNL A   1      43.436  23.551  27.025  1.00  0.00     0.058 A 
ATOM     77  C   UNL A   1      43.088  23.129  25.733  1.00  0.00     0.135 A 
ATOM     78  C   UNL A   1      43.336  22.611  28.063  1.00  0.00     0.135 A 
ATOM     79  F   UNL A   1      43.153  23.991  24.706  1.00  0.00    -0.206 F 
ATOM     80  C   UNL A   1      42.614  21.844  25.485  1.00  0.00     0.059 A 
ATOM     81  C   UNL A   1      42.897  21.311  27.836  1.00  0.00     0.059 A 
ATOM     82  F   UNL A   1      43.665  22.957  29.318  1.00  0.00    -0.206 F 
ATOM     83  C   UNL A   1      42.515  20.943  26.546  1.00  0.00     0.060 A 
BRANCH  83  84
ATOM     84  S   UNL A   1      41.887  19.281  26.221  1.00  0.00     0.124 S 
ATOM     85  O   UNL A   1      40.470  19.543  25.993  1.00  0.00    -0.237 OA
ATOM     86  O   UNL A   1      42.660  18.887  25.047  1.00  0.00    -0.237 OA
ATOM     87  O   UNL A   1      42.208  18.557  27.446  1.00  0.00    -0.744 OA
ENDBRANCH  83  84
ENDBRANCH  51  76
BRANCH  63  88
ATOM     88  C   UNL A   1      49.269  27.165  25.807  1.00  0.00     0.058 A 
ATOM     89  C   UNL A   1      49.543  27.246  24.433  1.00  0.00     0.135 A 
ATOM     90  C   UNL A   1      50.307  26.744  26.656  1.00  0.00     0.135 A 
ATOM     91  F   UNL A   1      48.588  27.640  23.576  1.00  0.00    -0.206 F 
ATOM     92  C   UNL A   1      50.787  26.893  23.916  1.00  0.00     0.059 A 
ATOM     93  C   UNL A   1      51.567  26.416  26.165  1.00  0.00     0.059 A 
ATOM     94  F   UNL A   1      50.106  26.661  27.981  1.00  0.00    -0.206 F 
ATOM     95  C   UNL A   1      51.792  26.478  24.791  1.00  0.00     0.060 A 
BRANCH  95  96
ATOM     96  S   UNL A   1      53.407  26.042  24.110  1.00  0.00     0.124 S 
ATOM     97  O   UNL A   1      53.602  24.701  24.651  1.00  0.00    -0.237 OA
ATOM     98  O   UNL A   1      53.171  26.117  22.672  1.00  0.00    -0.237 OA
ATOM     99  O   UNL A   1      54.293  27.071  24.648  1.00  0.00    -0.744 OA
ENDBRANCH  95  96
ENDBRANCH  63  88
ENDBRANCH  37  38
ENDBRANCH  30  32
ENDBRANCH  29  30
ENDBRANCH  28  29
ENDBRANCH  27  28
ENDBRANCH  26  27
ENDBRANCH  25  26
ENDBRANCH   1  25
TORSDOF 24
ENDMDL
MODEL 3
REMARK VINA RESULT:      -9.9      1.273      2.333
REMARK SMILES COc1ncccc1C[C@H](C(=O)OCCOCCOCCOC(=O)c1ccc(-c2c3nc(c(-c4c(F)cc(S(=O)(=O)[O-])cc4F)c4ccc([nH]4)c(-c4c(F)cc(S(=O)(=O)[O-])cc4F)c4nc(c(-c5c(F)cc(S(=O)(=O)[O-])cc5F)c5ccc2[nH]5)C=C4)C=C3)cc1)c1ccc(F)cc1
REMARK SMILES IDX 17 1 16 2 15 3 14 4 13 5 11 6 12 7 10 8 9 9 8 10 3 11 4 12
REMARK SMILES IDX 5 13 7 14 6 15 2 16 1 17 91 18 92 19 97 20 93 21 96 22 94 23
REMARK SMILES IDX 95 24 18 25 19 26 20 27 21 28 22 29 23 30 24 31 25 32 26 33
REMARK SMILES IDX 90 34 27 35 89 36 28 37 29 38 30 39 83 40 31 41 88 42 82 43
REMARK SMILES IDX 84 44 32 45 87 46 81 47 80 48 33 50 67 51 46 52 66 53 47 54
REMARK SMILES IDX 50 55 65 56 85 57 48 58 49 59 64 61 86 62 51 63 34 64 35 65
REMARK SMILES IDX 44 66 36 67 37 68 43 69 45 70 38 71 39 72 40 73 41 74 42 75
REMARK SMILES IDX 68 76 69 77 78 78 70 79 71 80 77 81 79 82 72 83 73 84 74 85
REMARK SMILES IDX 75 86 76 87 52 88 53 89 62 90 54 91 55 92 61 93 63 94 56 95
REMARK SMILES IDX 57 96 58 97 59 98 60 99
REMARK H PARENT 84 49 50 60
REMARK Flexibility Score: inf
ROOT
ATOM      1  C   UNL A   1      33.872  31.313  27.408  1.00  0.00     0.188 C 
ENDROOT
BRANCH   1   2
ATOM      2  O   UNL A   1      34.398  29.991  27.457  1.00  0.00    -0.376 OA
BRANCH   2   3
ATOM      3  C   UNL A   1      33.536  28.868  27.374  1.00  0.00     0.202 C 
BRANCH   3   4
ATOM      4  C   UNL A   1      33.648  27.976  26.130  1.00  0.00     0.261 C 
BRANCH   4   5
ATOM      5  O   UNL A   1      33.102  26.650  26.288  1.00  0.00    -0.463 OA
BRANCH   5   6
ATOM      6  C   UNL A   1      31.754  26.550  26.134  1.00  0.00     0.313 C 
ATOM      7  O   UNL A   1      30.961  26.848  27.021  1.00  0.00    -0.252 OA
BRANCH   6   8
ATOM      8  C   UNL A   1      31.329  26.141  24.699  1.00  0.00     0.134 C 
BRANCH   8   9
ATOM      9  C   UNL A   1      30.713  24.715  24.553  1.00  0.00     0.061 C 
BRANCH   9  10
ATOM     10  C   UNL A   1      31.688  23.558  24.686  1.00  0.00     0.015 A 
ATOM     11  C   UNL A   1      31.741  22.744  25.820  1.00  0.00     0.216 A 
ATOM     12  N   UNL A   1      32.502  21.633  25.938  1.00  0.00    -0.222 NA
ATOM     13  C   UNL A   1      33.319  21.348  24.902  1.00  0.00     0.115 A 
ATOM     14  C   UNL A   1      32.591  23.256  23.661  1.00  0.00     0.011 A 
ATOM     15  C   UNL A   1      33.432  22.148  23.776  1.00  0.00     0.021 A 
BRANCH  11  16
ATOM     16  O   UNL A   1      31.183  23.216  26.981  1.00  0.00    -0.481 OA
ATOM     17  C   UNL A   1      29.802  22.911  27.073  1.00  0.00     0.280 C 
ENDBRANCH  11  16
ENDBRANCH   9  10
ENDBRANCH   8   9
BRANCH   8  18
ATOM     18  C   UNL A   1      30.353  27.210  24.189  1.00  0.00    -0.033 A 
ATOM     19  C   UNL A   1      30.795  28.530  23.984  1.00  0.00     0.007 A 
ATOM     20  C   UNL A   1      29.051  26.859  23.790  1.00  0.00     0.007 A 
ATOM     21  C   UNL A   1      29.951  29.475  23.404  1.00  0.00     0.039 A 
ATOM     22  C   UNL A   1      28.202  27.815  23.233  1.00  0.00     0.039 A 
ATOM     23  C   UNL A   1      28.662  29.112  23.042  1.00  0.00     0.123 A 
ATOM     24  F   UNL A   1      27.856  30.025  22.485  1.00  0.00    -0.207 F 
ENDBRANCH   8  18
ENDBRANCH   6   8
ENDBRANCH   5   6
ENDBRANCH   4   5
ENDBRANCH   3   4
ENDBRANCH   2   3
ENDBRANCH   1   2
BRANCH   1  25
ATOM     25  C   UNL A   1      34.078  32.298  28.569  1.00  0.00     0.188 C 
BRANCH  25  26
ATOM     26  O   UNL A   1      35.317  32.184  29.244  1.00  0.00    -0.376 OA
BRANCH  26  27
ATOM     27  C   UNL A   1      35.487  32.997  30.393  1.00  0.00     0.202 C 
BRANCH  27  28
ATOM     28  C   UNL A   1      36.944  33.365  30.681  1.00  0.00     0.261 C 
BRANCH  28  29
ATOM     29  O   UNL A   1      37.520  32.692  31.815  1.00  0.00    -0.460 OA
BRANCH  29  30
ATOM     30  C   UNL A   1      37.416  31.344  31.849  1.00  0.00     0.338 C 
ATOM     31  O   UNL A   1      36.436  30.696  32.200  1.00  0.00    -0.246 OA
BRANCH  30  32
ATOM     32  C   UNL A   1      38.615  30.780  31.195  1.00  0.00     0.060 A 
ATOM     33  C   UNL A   1      39.675  30.307  31.981  1.00  0.00     0.016 A 
ATOM     34  C   UNL A   1      38.686  30.711  29.801  1.00  0.00     0.016 A 
ATOM     35  C   UNL A   1      40.821  29.789  31.369  1.00  0.00     0.010 A 
ATOM     36  C   UNL A   1      39.839  30.208  29.193  1.00  0.00     0.010 A 
ATOM     37  C   UNL A   1      40.926  29.770  29.970  1.00  0.00    -0.014 A 
BRANCH  37  38
ATOM     38  C   UNL A   1      42.221  29.456  29.310  1.00  0.00     0.031 A 
ATOM     39  C   UNL A   1      42.452  28.051  28.814  1.00  0.00     0.074 A 
ATOM     40  C   UNL A   1      43.179  30.389  29.154  1.00  0.00     0.049 A 
ATOM     41  N   UNL A   1      43.529  27.517  28.298  1.00  0.00    -0.248 NA
ATOM     42  C   UNL A   1      41.313  27.124  28.918  1.00  0.00     0.031 C 
ATOM     43  C   UNL A   1      43.075  31.790  29.558  1.00  0.00     0.029 A 
ATOM     44  N   UNL A   1      44.444  30.287  28.624  1.00  0.00    -0.354 N 
ATOM     45  C   UNL A   1      43.198  26.198  28.011  1.00  0.00     0.074 A 
ATOM     46  C   UNL A   1      41.833  26.000  28.447  1.00  0.00     0.031 C 
ATOM     47  C   UNL A   1      44.232  32.414  29.275  1.00  0.00     0.029 A 
ATOM     48  C   UNL A   1      45.174  31.452  28.703  1.00  0.00     0.049 A 
ATOM     49  H   UNL A   1      44.794  29.460  28.224  1.00  0.00     0.167 HD
ATOM     50  C   UNL A   1      43.956  25.242  27.424  1.00  0.00     0.037 A 
ATOM     51  C   UNL A   1      46.460  31.701  28.378  1.00  0.00     0.037 A 
ATOM     52  C   UNL A   1      45.316  25.434  26.994  1.00  0.00     0.049 A 
ATOM     53  C   UNL A   1      47.311  30.591  27.805  1.00  0.00     0.074 A 
ATOM     54  C   UNL A   1      46.168  24.518  26.401  1.00  0.00     0.029 A 
ATOM     55  N   UNL A   1      46.023  26.621  27.106  1.00  0.00    -0.354 N 
ATOM     56  N   UNL A   1      46.981  29.350  27.534  1.00  0.00    -0.248 NA
ATOM     57  C   UNL A   1      48.711  30.917  27.494  1.00  0.00     0.031 C 
ATOM     58  C   UNL A   1      47.403  25.140  26.190  1.00  0.00     0.029 A 
ATOM     59  C   UNL A   1      47.303  26.458  26.603  1.00  0.00     0.049 A 
ATOM     60  H   UNL A   1      45.667  27.457  27.487  1.00  0.00     0.167 HD
ATOM     61  C   UNL A   1      48.119  28.765  26.984  1.00  0.00     0.074 A 
ATOM     62  C   UNL A   1      49.141  29.788  26.949  1.00  0.00     0.031 C 
ATOM     63  C   UNL A   1      48.304  27.493  26.549  1.00  0.00     0.037 A 
BRANCH  50  64
ATOM     64  C   UNL A   1      43.333  23.890  27.206  1.00  0.00     0.058 A 
ATOM     65  C   UNL A   1      42.664  23.578  26.011  1.00  0.00     0.135 A 
ATOM     66  C   UNL A   1      43.470  22.874  28.165  1.00  0.00     0.135 A 
ATOM     67  F   UNL A   1      42.488  24.519  25.070  1.00  0.00    -0.206 F 
ATOM     68  C   UNL A   1      42.147  22.308  25.778  1.00  0.00     0.059 A 
ATOM     69  C   UNL A   1      42.984  21.589  27.942  1.00  0.00     0.059 A 
ATOM     70  F   UNL A   1      44.096  23.120  29.326  1.00  0.00    -0.206 F 
ATOM     71  C   UNL A   1      42.319  21.318  26.747  1.00  0.00     0.060 A 
BRANCH  71  72
ATOM     72  S   UNL A   1      41.678  19.665  26.408  1.00  0.00     0.124 S 
ATOM     73  O   UNL A   1      42.073  18.945  27.616  1.00  0.00    -0.237 OA
ATOM     74  O   UNL A   1      40.247  19.912  26.257  1.00  0.00    -0.237 OA
ATOM     75  O   UNL A   1      42.376  19.271  25.188  1.00  0.00    -0.744 OA
ENDBRANCH  71  72
ENDBRANCH  50  64
BRANCH  51  76
ATOM     76  C   UNL A   1      47.055  33.049  28.605  1.00  0.00     0.058 A 
ATOM     77  C   UNL A   1      47.079  34.013  27.585  1.00  0.00     0.135 A 
ATOM     78  C   UNL A   1      47.678  33.373  29.820  1.00  0.00     0.135 A 
ATOM     79  F   UNL A   1      46.510  33.749  26.399  1.00  0.00    -0.206 F 
ATOM     80  C   UNL A   1      47.737  35.229  27.744  1.00  0.00     0.059 A 
ATOM     81  C   UNL A   1      48.313  34.595  30.015  1.00  0.00     0.059 A 
ATOM     82  F   UNL A   1      47.676  32.493  30.833  1.00  0.00    -0.206 F 
ATOM     83  C   UNL A   1      48.359  35.508  28.962  1.00  0.00     0.060 A 
BRANCH  83  84
ATOM     84  S   UNL A   1      49.221  37.083  29.157  1.00  0.00     0.124 S 
ATOM     85  O   UNL A   1      48.229  37.872  29.879  1.00  0.00    -0.237 OA
ATOM     86  O   UNL A   1      50.404  36.692  29.919  1.00  0.00    -0.237 OA
ATOM     87  O   UNL A   1      49.479  37.496  27.781  1.00  0.00    -0.744 OA
ENDBRANCH  83  84
ENDBRANCH  51  76
BRANCH  63  88
ATOM     88  C   UNL A   1      49.638  27.149  25.940  1.00  0.00     0.058 A 
ATOM     89  C   UNL A   1      50.700  26.648  26.709  1.00  0.00     0.135 A 
ATOM     90  C   UNL A   1      49.842  27.285  24.556  1.00  0.00     0.135 A 
ATOM     91  F   UNL A   1      50.561  26.500  28.036  1.00  0.00    -0.206 F 
ATOM     92  C   UNL A   1      51.926  26.324  26.134  1.00  0.00     0.059 A 
ATOM     93  C   UNL A   1      51.048  26.939  23.956  1.00  0.00     0.059 A 
ATOM     94  F   UNL A   1      48.856  27.745  23.769  1.00  0.00    -0.206 F 
ATOM     95  C   UNL A   1      52.091  26.474  24.757  1.00  0.00     0.060 A 
BRANCH  95  96
ATOM     96  S   UNL A   1      53.679  26.032  24.021  1.00  0.00     0.124 S 
ATOM     97  O   UNL A   1      53.363  26.062  22.597  1.00  0.00    -0.237 OA
ATOM     98  O   UNL A   1      54.553  27.099  24.498  1.00  0.00    -0.237 OA
ATOM     99  O   UNL A   1      53.956  24.709  24.574  1.00  0.00    -0.744 OA
ENDBRANCH  95  96
ENDBRANCH  63  88
ENDBRANCH  37  38
ENDBRANCH  30  32
ENDBRANCH  29  30
ENDBRANCH  28  29
ENDBRANCH  27  28
ENDBRANCH  26  27
ENDBRANCH  25  26
ENDBRANCH   1  25
TORSDOF 24
ENDMDL
