MODEL 1
REMARK VINA RESULT:      -9.7      0.000      0.000
REMARK SMILES Cc1cc(N2CC[C@H](CC(=O)OCCOCCOCCOC(=O)c3ccc(-c4c5nc(c(-c6c(F)cc(S(=O)(=O)[O-])cc6F)c6ccc([nH]6)c(-c6c(F)cc(S(=O)(=O)[O-])cc6F)c6nc(c(-c7c(F)cc(S(=O)(=O)[O-])cc7F)c7ccc4[nH]7)C=C6)C=C5)cc3)C2)ncc1[N+](=O)[O-]
REMARK SMILES IDX 16 1 15 2 14 3 13 4 12 5 10 6 11 7 9 8 8 9 5 10 6 11 90 12
REMARK SMILES IDX 7 13 4 14 1 15 2 16 3 17 93 18 92 19 91 20 94 21 95 22 96 23
REMARK SMILES IDX 17 24 18 25 19 26 20 27 21 28 22 29 23 30 24 31 25 32 89 33
REMARK SMILES IDX 26 34 88 35 27 36 28 37 29 38 82 39 30 40 87 41 81 42 83 43
REMARK SMILES IDX 31 44 86 45 80 46 79 47 32 49 66 50 45 51 65 52 46 53 49 54
REMARK SMILES IDX 64 55 84 56 47 57 48 58 63 60 85 61 50 62 33 63 34 64 43 65
REMARK SMILES IDX 35 66 36 67 42 68 44 69 37 70 38 71 39 72 40 73 41 74 67 75
REMARK SMILES IDX 68 76 77 77 69 78 70 79 76 80 78 81 71 82 72 83 73 84 74 85
REMARK SMILES IDX 75 86 51 87 52 88 61 89 53 90 54 91 60 92 62 93 55 94 56 95
REMARK SMILES IDX 57 96 58 97 59 98
REMARK H PARENT 83 48 49 59
REMARK Flexibility Score: inf
ROOT
ATOM      1  C   UNL A   1      31.470  24.647  26.498  1.00  0.00     0.188 C 
ENDROOT
BRANCH   1   2
ATOM      2  O   UNL A   1      32.536  23.703  26.466  1.00  0.00    -0.376 OA
BRANCH   2   3
ATOM      3  C   UNL A   1      32.506  22.670  27.451  1.00  0.00     0.202 C 
BRANCH   3   4
ATOM      4  C   UNL A   1      33.696  21.699  27.455  1.00  0.00     0.261 C 
BRANCH   4   5
ATOM      5  O   UNL A   1      33.769  20.857  26.284  1.00  0.00    -0.463 OA
BRANCH   5   6
ATOM      6  C   UNL A   1      34.859  21.041  25.496  1.00  0.00     0.306 C 
ATOM      7  O   UNL A   1      35.583  20.139  25.088  1.00  0.00    -0.252 OA
BRANCH   6   8
ATOM      8  C   UNL A   1      35.080  22.477  25.057  1.00  0.00     0.128 C 
BRANCH   8   9
ATOM      9  C   UNL A   1      34.734  22.895  23.628  1.00  0.00     0.021 C 
ATOM     10  N   UNL A   1      33.613  24.629  22.430  1.00  0.00    -0.356 N 
ATOM     11  C   UNL A   1      33.047  23.355  21.999  1.00  0.00     0.118 C 
ATOM     12  C   UNL A   1      34.571  24.432  23.520  1.00  0.00     0.122 C 
ATOM     13  C   UNL A   1      33.386  22.387  23.126  1.00  0.00     0.027 C 
BRANCH  10  14
ATOM     14  C   UNL A   1      32.757  25.712  22.547  1.00  0.00     0.129 A 
ATOM     15  C   UNL A   1      29.201  26.260  23.717  1.00  0.00     0.052 C 
ATOM     16  C   UNL A   1      30.560  26.598  23.173  1.00  0.00     0.032 A 
ATOM     17  C   UNL A   1      31.440  25.512  22.963  1.00  0.00     0.057 A 
ATOM     18  C   UNL A   1      31.047  27.875  22.867  1.00  0.00     0.290 A 
ATOM     19  C   UNL A   1      32.362  27.994  22.430  1.00  0.00     0.199 A 
ATOM     20  N   UNL A   1      33.216  26.951  22.281  1.00  0.00    -0.232 NA
BRANCH  18  21
ATOM     21  N   UNL A   1      30.274  29.112  22.975  1.00  0.00     0.064 N 
ATOM     22  O   UNL A   1      29.497  29.383  22.046  1.00  0.00    -0.258 OA
ATOM     23  O   UNL A   1      30.405  29.809  23.988  1.00  0.00    -0.258 OA
ENDBRANCH  18  21
ENDBRANCH  10  14
ENDBRANCH   8   9
ENDBRANCH   6   8
ENDBRANCH   5   6
ENDBRANCH   4   5
ENDBRANCH   3   4
ENDBRANCH   2   3
ENDBRANCH   1   2
BRANCH   1  24
ATOM     24  C   UNL A   1      31.883  26.120  26.553  1.00  0.00     0.188 C 
BRANCH  24  25
ATOM     25  O   UNL A   1      33.256  26.380  26.287  1.00  0.00    -0.376 OA
BRANCH  25  26
ATOM     26  C   UNL A   1      33.583  27.720  25.904  1.00  0.00     0.202 C 
BRANCH  26  27
ATOM     27  C   UNL A   1      33.360  28.819  26.964  1.00  0.00     0.261 C 
BRANCH  27  28
ATOM     28  O   UNL A   1      33.927  30.109  26.649  1.00  0.00    -0.460 OA
BRANCH  28  29
ATOM     29  C   UNL A   1      34.394  30.853  27.678  1.00  0.00     0.338 C 
ATOM     30  O   UNL A   1      33.759  31.674  28.318  1.00  0.00    -0.246 OA
BRANCH  29  31
ATOM     31  C   UNL A   1      35.722  30.321  28.090  1.00  0.00     0.060 A 
ATOM     32  C   UNL A   1      35.839  29.780  29.378  1.00  0.00     0.016 A 
ATOM     33  C   UNL A   1      36.819  30.284  27.222  1.00  0.00     0.016 A 
ATOM     34  C   UNL A   1      37.057  29.253  29.817  1.00  0.00     0.010 A 
ATOM     35  C   UNL A   1      38.044  29.765  27.666  1.00  0.00     0.010 A 
ATOM     36  C   UNL A   1      38.181  29.281  28.980  1.00  0.00    -0.014 A 
BRANCH  36  37
ATOM     37  C   UNL A   1      39.523  28.988  29.552  1.00  0.00     0.031 A 
ATOM     38  C   UNL A   1      40.016  29.842  30.693  1.00  0.00     0.074 A 
ATOM     39  C   UNL A   1      40.272  27.954  29.123  1.00  0.00     0.049 A 
ATOM     40  N   UNL A   1      41.130  29.758  31.375  1.00  0.00    -0.248 NA
ATOM     41  C   UNL A   1      39.130  30.936  31.123  1.00  0.00     0.031 C 
ATOM     42  C   UNL A   1      39.907  27.028  28.053  1.00  0.00     0.029 A 
ATOM     43  N   UNL A   1      41.502  27.509  29.546  1.00  0.00    -0.354 N 
ATOM     44  C   UNL A   1      41.076  30.780  32.316  1.00  0.00     0.074 A 
ATOM     45  C   UNL A   1      39.838  31.496  32.092  1.00  0.00     0.031 C 
ATOM     46  C   UNL A   1      40.895  26.126  27.900  1.00  0.00     0.029 A 
ATOM     47  C   UNL A   1      41.971  26.422  28.846  1.00  0.00     0.049 A 
ATOM     48  H   UNL A   1      42.001  27.930  30.283  1.00  0.00     0.167 HD
ATOM     49  C   UNL A   1      41.964  31.090  33.289  1.00  0.00     0.037 A 
ATOM     50  C   UNL A   1      43.139  25.751  28.947  1.00  0.00     0.037 A 
ATOM     51  C   UNL A   1      43.200  30.386  33.515  1.00  0.00     0.049 A 
ATOM     52  C   UNL A   1      44.147  26.159  29.995  1.00  0.00     0.074 A 
ATOM     53  C   UNL A   1      44.158  30.623  34.487  1.00  0.00     0.029 A 
ATOM     54  N   UNL A   1      43.656  29.318  32.758  1.00  0.00    -0.354 N 
ATOM     55  N   UNL A   1      44.066  27.108  30.898  1.00  0.00    -0.248 NA
ATOM     56  C   UNL A   1      45.406  25.400  30.040  1.00  0.00     0.031 C 
ATOM     57  C   UNL A   1      45.217  29.730  34.286  1.00  0.00     0.029 A 
ATOM     58  C   UNL A   1      44.894  28.902  33.225  1.00  0.00     0.049 A 
ATOM     59  H   UNL A   1      43.174  28.915  32.001  1.00  0.00     0.167 HD
ATOM     60  C   UNL A   1      45.247  27.038  31.633  1.00  0.00     0.074 A 
ATOM     61  C   UNL A   1      46.017  25.945  31.081  1.00  0.00     0.031 C 
ATOM     62  C   UNL A   1      45.656  27.809  32.673  1.00  0.00     0.037 A 
BRANCH  49  63
ATOM     63  C   UNL A   1      41.641  32.259  34.178  1.00  0.00     0.058 A 
ATOM     64  C   UNL A   1      40.825  32.120  35.311  1.00  0.00     0.135 A 
ATOM     65  C   UNL A   1      42.187  33.525  33.914  1.00  0.00     0.135 A 
ATOM     66  F   UNL A   1      40.260  30.936  35.598  1.00  0.00    -0.206 F 
ATOM     67  C   UNL A   1      40.543  33.201  36.140  1.00  0.00     0.059 A 
ATOM     68  C   UNL A   1      41.942  34.614  34.745  1.00  0.00     0.059 A 
ATOM     69  F   UNL A   1      42.970  33.713  32.840  1.00  0.00    -0.206 F 
ATOM     70  C   UNL A   1      41.108  34.443  35.850  1.00  0.00     0.060 A 
BRANCH  70  71
ATOM     71  S   UNL A   1      40.742  35.832  36.942  1.00  0.00     0.124 S 
ATOM     72  O   UNL A   1      42.035  36.507  37.000  1.00  0.00    -0.237 OA
ATOM     73  O   UNL A   1      39.692  36.535  36.212  1.00  0.00    -0.237 OA
ATOM     74  O   UNL A   1      40.316  35.188  38.182  1.00  0.00    -0.744 OA
ENDBRANCH  70  71
ENDBRANCH  49  63
BRANCH  50  75
ATOM     75  C   UNL A   1      43.437  24.621  28.025  1.00  0.00     0.058 A 
ATOM     76  C   UNL A   1      44.111  24.826  26.811  1.00  0.00     0.135 A 
ATOM     77  C   UNL A   1      43.018  23.314  28.324  1.00  0.00     0.135 A 
ATOM     78  F   UNL A   1      44.516  26.058  26.469  1.00  0.00    -0.206 F 
ATOM     79  C   UNL A   1      44.341  23.784  25.918  1.00  0.00     0.059 A 
ATOM     80  C   UNL A   1      43.262  22.250  27.460  1.00  0.00     0.059 A 
ATOM     81  F   UNL A   1      42.372  23.061  29.472  1.00  0.00    -0.206 F 
ATOM     82  C   UNL A   1      43.913  22.498  26.252  1.00  0.00     0.060 A 
BRANCH  82  83
ATOM     83  S   UNL A   1      44.250  21.144  25.104  1.00  0.00     0.124 S 
ATOM     84  O   UNL A   1      45.562  20.696  25.557  1.00  0.00    -0.237 OA
ATOM     85  O   UNL A   1      43.138  20.237  25.367  1.00  0.00    -0.237 OA
ATOM     86  O   UNL A   1      44.223  21.797  23.799  1.00  0.00    -0.744 OA
ENDBRANCH  82  83
ENDBRANCH  50  75
BRANCH  62  87
ATOM     87  C   UNL A   1      46.981  27.479  33.309  1.00  0.00     0.058 A 
ATOM     88  C   UNL A   1      47.091  26.547  34.354  1.00  0.00     0.135 A 
ATOM     89  C   UNL A   1      48.163  28.078  32.843  1.00  0.00     0.135 A 
ATOM     90  F   UNL A   1      45.995  25.944  34.839  1.00  0.00    -0.206 F 
ATOM     91  C   UNL A   1      48.320  26.251  34.938  1.00  0.00     0.059 A 
ATOM     92  C   UNL A   1      49.405  27.775  33.392  1.00  0.00     0.059 A 
ATOM     93  F   UNL A   1      48.120  28.964  31.835  1.00  0.00    -0.206 F 
ATOM     94  C   UNL A   1      49.472  26.872  34.452  1.00  0.00     0.060 A 
BRANCH  94  95
ATOM     95  S   UNL A   1      51.059  26.474  35.214  1.00  0.00     0.124 S 
ATOM     96  O   UNL A   1      50.645  26.027  36.540  1.00  0.00    -0.237 OA
ATOM     97  O   UNL A   1      51.582  25.437  34.330  1.00  0.00    -0.237 OA
ATOM     98  O   UNL A   1      51.782  27.743  35.177  1.00  0.00    -0.744 OA
ENDBRANCH  94  95
ENDBRANCH  62  87
ENDBRANCH  36  37
ENDBRANCH  29  31
ENDBRANCH  28  29
ENDBRANCH  27  28
ENDBRANCH  26  27
ENDBRANCH  25  26
ENDBRANCH  24  25
ENDBRANCH   1  24
TORSDOF 23
ENDMDL
MODEL 2
REMARK VINA RESULT:      -9.6      1.847      8.158
REMARK SMILES Cc1cc(N2CC[C@H](CC(=O)OCCOCCOCCOC(=O)c3ccc(-c4c5nc(c(-c6c(F)cc(S(=O)(=O)[O-])cc6F)c6ccc([nH]6)c(-c6c(F)cc(S(=O)(=O)[O-])cc6F)c6nc(c(-c7c(F)cc(S(=O)(=O)[O-])cc7F)c7ccc4[nH]7)C=C6)C=C5)cc3)C2)ncc1[N+](=O)[O-]
REMARK SMILES IDX 16 1 15 2 14 3 13 4 12 5 10 6 11 7 9 8 8 9 5 10 6 11 90 12
REMARK SMILES IDX 7 13 4 14 1 15 2 16 3 17 93 18 92 19 91 20 94 21 95 22 96 23
REMARK SMILES IDX 17 24 18 25 19 26 20 27 21 28 22 29 23 30 24 31 25 32 89 33
REMARK SMILES IDX 26 34 88 35 27 36 28 37 29 38 82 39 30 40 87 41 81 42 83 43
REMARK SMILES IDX 31 44 86 45 80 46 79 47 32 49 66 50 45 51 65 52 46 53 49 54
REMARK SMILES IDX 64 55 84 56 47 57 48 58 63 60 85 61 50 62 33 63 34 64 43 65
REMARK SMILES IDX 35 66 36 67 42 68 44 69 37 70 38 71 39 72 40 73 41 74 67 75
REMARK SMILES IDX 68 76 77 77 69 78 70 79 76 80 78 81 71 82 72 83 73 84 74 85
REMARK SMILES IDX 75 86 51 87 52 88 61 89 53 90 54 91 60 92 62 93 55 94 56 95
REMARK SMILES IDX 57 96 58 97 59 98
REMARK H PARENT 83 48 49 59
REMARK Flexibility Score: inf
ROOT
ATOM      1  C   UNL A   1      31.261  24.405  26.273  1.00  0.00     0.188 C 
ENDROOT
BRANCH   1   2
ATOM      2  O   UNL A   1      31.949  23.159  26.343  1.00  0.00    -0.376 OA
BRANCH   2   3
ATOM      3  C   UNL A   1      32.743  22.931  27.506  1.00  0.00     0.202 C 
BRANCH   3   4
ATOM      4  C   UNL A   1      34.249  22.730  27.273  1.00  0.00     0.261 C 
BRANCH   4   5
ATOM      5  O   UNL A   1      34.604  21.390  26.868  1.00  0.00    -0.463 OA
BRANCH   5   6
ATOM      6  C   UNL A   1      35.214  21.286  25.659  1.00  0.00     0.306 C 
ATOM      7  O   UNL A   1      35.572  20.230  25.149  1.00  0.00    -0.252 OA
BRANCH   6   8
ATOM      8  C   UNL A   1      35.343  22.597  24.906  1.00  0.00     0.128 C 
BRANCH   8   9
ATOM      9  C   UNL A   1      34.670  22.760  23.543  1.00  0.00     0.021 C 
ATOM     10  N   UNL A   1      33.337  24.312  22.313  1.00  0.00    -0.356 N 
ATOM     11  C   UNL A   1      32.649  23.025  22.296  1.00  0.00     0.118 C 
ATOM     12  C   UNL A   1      34.526  24.256  23.166  1.00  0.00     0.122 C 
ATOM     13  C   UNL A   1      33.227  22.268  23.485  1.00  0.00     0.027 C 
BRANCH  10  14
ATOM     14  C   UNL A   1      32.565  25.459  22.404  1.00  0.00     0.129 A 
ATOM     15  C   UNL A   1      29.177  26.356  23.832  1.00  0.00     0.052 C 
ATOM     16  C   UNL A   1      30.497  26.548  23.139  1.00  0.00     0.032 A 
ATOM     17  C   UNL A   1      31.283  25.389  22.954  1.00  0.00     0.057 A 
ATOM     18  C   UNL A   1      31.030  27.756  22.672  1.00  0.00     0.290 A 
ATOM     19  C   UNL A   1      32.302  27.744  22.110  1.00  0.00     0.199 A 
ATOM     20  N   UNL A   1      33.073  26.634  21.984  1.00  0.00    -0.232 NA
BRANCH  18  21
ATOM     21  N   UNL A   1      30.349  29.050  22.732  1.00  0.00     0.064 N 
ATOM     22  O   UNL A   1      29.974  29.548  21.659  1.00  0.00    -0.258 OA
ATOM     23  O   UNL A   1      30.154  29.569  23.837  1.00  0.00    -0.258 OA
ENDBRANCH  18  21
ENDBRANCH  10  14
ENDBRANCH   8   9
ENDBRANCH   6   8
ENDBRANCH   5   6
ENDBRANCH   4   5
ENDBRANCH   3   4
ENDBRANCH   2   3
ENDBRANCH   1   2
BRANCH   1  24
ATOM     24  C   UNL A   1      32.069  25.638  26.688  1.00  0.00     0.188 C 
BRANCH  24  25
ATOM     25  O   UNL A   1      33.145  25.982  25.824  1.00  0.00    -0.376 OA
BRANCH  25  26
ATOM     26  C   UNL A   1      33.365  27.381  25.615  1.00  0.00     0.202 C 
BRANCH  26  27
ATOM     27  C   UNL A   1      33.575  28.247  26.876  1.00  0.00     0.261 C 
BRANCH  27  28
ATOM     28  O   UNL A   1      34.002  29.604  26.633  1.00  0.00    -0.460 OA
BRANCH  28  29
ATOM     29  C   UNL A   1      34.474  30.308  27.688  1.00  0.00     0.338 C 
ATOM     30  O   UNL A   1      33.815  31.007  28.439  1.00  0.00    -0.246 OA
BRANCH  29  31
ATOM     31  C   UNL A   1      35.875  29.883  27.958  1.00  0.00     0.060 A 
ATOM     32  C   UNL A   1      36.189  29.449  29.254  1.00  0.00     0.016 A 
ATOM     33  C   UNL A   1      36.854  29.841  26.959  1.00  0.00     0.016 A 
ATOM     34  C   UNL A   1      37.484  29.025  29.566  1.00  0.00     0.010 A 
ATOM     35  C   UNL A   1      38.156  29.426  27.275  1.00  0.00     0.010 A 
ATOM     36  C   UNL A   1      38.488  29.051  28.589  1.00  0.00    -0.014 A 
BRANCH  36  37
ATOM     37  C   UNL A   1      39.909  28.878  29.000  1.00  0.00     0.031 A 
ATOM     38  C   UNL A   1      40.594  27.576  28.672  1.00  0.00     0.074 A 
ATOM     39  C   UNL A   1      40.605  29.866  29.594  1.00  0.00     0.049 A 
ATOM     40  N   UNL A   1      41.830  27.206  28.895  1.00  0.00    -0.248 NA
ATOM     41  C   UNL A   1      39.775  26.556  27.998  1.00  0.00     0.031 C 
ATOM     42  C   UNL A   1      40.080  31.185  29.941  1.00  0.00     0.029 A 
ATOM     43  N   UNL A   1      41.916  29.907  30.008  1.00  0.00    -0.354 N 
ATOM     44  C   UNL A   1      41.938  25.918  28.385  1.00  0.00     0.074 A 
ATOM     45  C   UNL A   1      40.632  25.554  27.877  1.00  0.00     0.031 C 
ATOM     46  C   UNL A   1      41.059  31.906  30.519  1.00  0.00     0.029 A 
ATOM     47  C   UNL A   1      42.273  31.095  30.604  1.00  0.00     0.049 A 
ATOM     48  H   UNL A   1      42.540  29.156  29.888  1.00  0.00     0.167 HD
ATOM     49  C   UNL A   1      43.024  25.112  28.329  1.00  0.00     0.037 A 
ATOM     50  C   UNL A   1      43.440  31.477  31.164  1.00  0.00     0.037 A 
ATOM     51  C   UNL A   1      44.325  25.465  28.837  1.00  0.00     0.049 A 
ATOM     52  C   UNL A   1      44.620  30.534  31.152  1.00  0.00     0.074 A 
ATOM     53  C   UNL A   1      45.488  24.715  28.812  1.00  0.00     0.029 A 
ATOM     54  N   UNL A   1      44.633  26.659  29.469  1.00  0.00    -0.354 N 
ATOM     55  N   UNL A   1      44.714  29.331  30.638  1.00  0.00    -0.248 NA
ATOM     56  C   UNL A   1      45.856  31.006  31.796  1.00  0.00     0.031 C 
ATOM     57  C   UNL A   1      46.489  25.435  29.474  1.00  0.00     0.029 A 
ATOM     58  C   UNL A   1      45.963  26.656  29.862  1.00  0.00     0.049 A 
ATOM     59  H   UNL A   1      44.002  27.399  29.618  1.00  0.00     0.167 HD
ATOM     60  C   UNL A   1      46.024  28.918  30.869  1.00  0.00     0.074 A 
ATOM     61  C   UNL A   1      46.689  30.004  31.555  1.00  0.00     0.031 C 
ATOM     62  C   UNL A   1      46.622  27.743  30.542  1.00  0.00     0.037 A 
BRANCH  49  63
ATOM     63  C   UNL A   1      42.850  23.753  27.709  1.00  0.00     0.058 A 
ATOM     64  C   UNL A   1      43.034  23.540  26.334  1.00  0.00     0.135 A 
ATOM     65  C   UNL A   1      42.532  22.643  28.508  1.00  0.00     0.135 A 
ATOM     66  F   UNL A   1      43.318  24.571  25.521  1.00  0.00    -0.206 F 
ATOM     67  C   UNL A   1      42.888  22.278  25.768  1.00  0.00     0.059 A 
ATOM     68  C   UNL A   1      42.410  21.366  27.968  1.00  0.00     0.059 A 
ATOM     69  F   UNL A   1      42.341  22.793  29.828  1.00  0.00    -0.206 F 
ATOM     70  C   UNL A   1      42.578  21.197  26.595  1.00  0.00     0.060 A 
BRANCH  70  71
ATOM     71  S   UNL A   1      42.405  19.564  25.846  1.00  0.00     0.124 S 
ATOM     72  O   UNL A   1      40.992  19.560  25.478  1.00  0.00    -0.237 OA
ATOM     73  O   UNL A   1      43.349  19.628  24.735  1.00  0.00    -0.237 OA
ATOM     74  O   UNL A   1      42.773  18.652  26.926  1.00  0.00    -0.744 OA
ENDBRANCH  70  71
ENDBRANCH  49  63
BRANCH  50  75
ATOM     75  C   UNL A   1      43.563  32.819  31.799  1.00  0.00     0.058 A 
ATOM     76  C   UNL A   1      43.346  32.999  33.174  1.00  0.00     0.135 A 
ATOM     77  C   UNL A   1      43.864  33.957  31.033  1.00  0.00     0.135 A 
ATOM     78  F   UNL A   1      43.038  31.947  33.947  1.00  0.00    -0.206 F 
ATOM     79  C   UNL A   1      43.403  34.258  33.764  1.00  0.00     0.059 A 
ATOM     80  C   UNL A   1      43.954  35.223  31.604  1.00  0.00     0.059 A 
ATOM     81  F   UNL A   1      44.084  33.841  29.714  1.00  0.00    -0.206 F 
ATOM     82  C   UNL A   1      43.708  35.365  32.970  1.00  0.00     0.060 A 
BRANCH  82  83
ATOM     83  S   UNL A   1      43.817  36.991  33.750  1.00  0.00     0.124 S 
ATOM     84  O   UNL A   1      42.477  37.139  34.306  1.00  0.00    -0.237 OA
ATOM     85  O   UNL A   1      44.892  36.794  34.717  1.00  0.00    -0.237 OA
ATOM     86  O   UNL A   1      44.139  37.877  32.636  1.00  0.00    -0.744 OA
ENDBRANCH  82  83
ENDBRANCH  50  75
BRANCH  62  87
ATOM     87  C   UNL A   1      48.079  27.582  30.888  1.00  0.00     0.058 A 
ATOM     88  C   UNL A   1      49.100  27.990  30.014  1.00  0.00     0.135 A 
ATOM     89  C   UNL A   1      48.461  27.041  32.127  1.00  0.00     0.135 A 
ATOM     90  F   UNL A   1      48.794  28.513  28.816  1.00  0.00    -0.206 F 
ATOM     91  C   UNL A   1      50.444  27.833  30.340  1.00  0.00     0.059 A 
ATOM     92  C   UNL A   1      49.798  26.903  32.487  1.00  0.00     0.059 A 
ATOM     93  F   UNL A   1      47.529  26.649  33.010  1.00  0.00    -0.206 F 
ATOM     94  C   UNL A   1      50.784  27.286  31.579  1.00  0.00     0.060 A 
BRANCH  94  95
ATOM     95  S   UNL A   1      52.531  27.094  31.992  1.00  0.00     0.124 S 
ATOM     96  O   UNL A   1      53.175  27.769  30.870  1.00  0.00    -0.237 OA
ATOM     97  O   UNL A   1      52.626  27.775  33.280  1.00  0.00    -0.237 OA
ATOM     98  O   UNL A   1      52.712  25.646  32.042  1.00  0.00    -0.744 OA
ENDBRANCH  94  95
ENDBRANCH  62  87
ENDBRANCH  36  37
ENDBRANCH  29  31
ENDBRANCH  28  29
ENDBRANCH  27  28
ENDBRANCH  26  27
ENDBRANCH  25  26
ENDBRANCH  24  25
ENDBRANCH   1  24
TORSDOF 23
ENDMDL
MODEL 3
REMARK VINA RESULT:      -9.5      3.102      9.435
REMARK SMILES Cc1cc(N2CC[C@H](CC(=O)OCCOCCOCCOC(=O)c3ccc(-c4c5nc(c(-c6c(F)cc(S(=O)(=O)[O-])cc6F)c6ccc([nH]6)c(-c6c(F)cc(S(=O)(=O)[O-])cc6F)c6nc(c(-c7c(F)cc(S(=O)(=O)[O-])cc7F)c7ccc4[nH]7)C=C6)C=C5)cc3)C2)ncc1[N+](=O)[O-]
REMARK SMILES IDX 16 1 15 2 14 3 13 4 12 5 10 6 11 7 9 8 8 9 5 10 6 11 90 12
REMARK SMILES IDX 7 13 4 14 1 15 2 16 3 17 93 18 92 19 91 20 94 21 95 22 96 23
REMARK SMILES IDX 17 24 18 25 19 26 20 27 21 28 22 29 23 30 24 31 25 32 89 33
REMARK SMILES IDX 26 34 88 35 27 36 28 37 29 38 82 39 30 40 87 41 81 42 83 43
REMARK SMILES IDX 31 44 86 45 80 46 79 47 32 49 66 50 45 51 65 52 46 53 49 54
REMARK SMILES IDX 64 55 84 56 47 57 48 58 63 60 85 61 50 62 33 63 34 64 43 65
REMARK SMILES IDX 35 66 36 67 42 68 44 69 37 70 38 71 39 72 40 73 41 74 67 75
REMARK SMILES IDX 68 76 77 77 69 78 70 79 76 80 78 81 71 82 72 83 73 84 74 85
REMARK SMILES IDX 75 86 51 87 52 88 61 89 53 90 54 91 60 92 62 93 55 94 56 95
REMARK SMILES IDX 57 96 58 97 59 98
REMARK H PARENT 83 48 49 59
REMARK Flexibility Score: inf
ROOT
ATOM      1  C   UNL A   1      31.977  29.031  25.279  1.00  0.00     0.188 C 
ENDROOT
BRANCH   1   2
ATOM      2  O   UNL A   1      32.995  29.560  24.435  1.00  0.00    -0.376 OA
BRANCH   2   3
ATOM      3  C   UNL A   1      33.896  28.620  23.851  1.00  0.00     0.202 C 
BRANCH   3   4
ATOM      4  C   UNL A   1      33.541  28.124  22.440  1.00  0.00     0.261 C 
BRANCH   4   5
ATOM      5  O   UNL A   1      33.231  26.715  22.376  1.00  0.00    -0.463 OA
BRANCH   5   6
ATOM      6  C   UNL A   1      31.943  26.412  22.074  1.00  0.00     0.306 C 
ATOM      7  O   UNL A   1      31.545  26.096  20.957  1.00  0.00    -0.252 OA
BRANCH   6   8
ATOM      8  C   UNL A   1      31.006  26.392  23.267  1.00  0.00     0.128 C 
BRANCH   8   9
ATOM      9  C   UNL A   1      30.882  25.126  24.114  1.00  0.00     0.021 C 
ATOM     10  N   UNL A   1      32.225  23.391  25.054  1.00  0.00    -0.356 N 
ATOM     11  C   UNL A   1      31.161  22.759  24.281  1.00  0.00     0.118 C 
ATOM     12  C   UNL A   1      32.189  24.846  24.897  1.00  0.00     0.122 C 
ATOM     13  C   UNL A   1      30.699  23.841  23.313  1.00  0.00     0.027 C 
BRANCH  10  14
ATOM     14  C   UNL A   1      33.478  22.799  25.040  1.00  0.00     0.129 A 
ATOM     15  C   UNL A   1      36.589  23.058  22.902  1.00  0.00     0.052 C 
ATOM     16  C   UNL A   1      35.688  22.581  24.006  1.00  0.00     0.032 A 
ATOM     17  C   UNL A   1      34.375  23.100  24.013  1.00  0.00     0.057 A 
ATOM     18  C   UNL A   1      36.021  21.687  25.032  1.00  0.00     0.290 A 
ATOM     19  C   UNL A   1      35.066  21.413  26.005  1.00  0.00     0.199 A 
ATOM     20  N   UNL A   1      33.824  21.957  26.033  1.00  0.00    -0.232 NA
BRANCH  18  21
ATOM     21  N   UNL A   1      37.313  21.014  25.168  1.00  0.00     0.064 N 
ATOM     22  O   UNL A   1      38.280  21.702  25.529  1.00  0.00    -0.258 OA
ATOM     23  O   UNL A   1      37.377  19.799  24.950  1.00  0.00    -0.258 OA
ENDBRANCH  18  21
ENDBRANCH  10  14
ENDBRANCH   8   9
ENDBRANCH   6   8
ENDBRANCH   5   6
ENDBRANCH   4   5
ENDBRANCH   3   4
ENDBRANCH   2   3
ENDBRANCH   1   2
BRANCH   1  24
ATOM     24  C   UNL A   1      31.846  29.682  26.658  1.00  0.00     0.188 C 
BRANCH  24  25
ATOM     25  O   UNL A   1      33.036  29.704  27.438  1.00  0.00    -0.376 OA
BRANCH  25  26
ATOM     26  C   UNL A   1      33.719  30.960  27.512  1.00  0.00     0.202 C 
BRANCH  26  27
ATOM     27  C   UNL A   1      32.855  32.230  27.358  1.00  0.00     0.261 C 
BRANCH  27  28
ATOM     28  O   UNL A   1      33.581  33.478  27.364  1.00  0.00    -0.460 OA
BRANCH  28  29
ATOM     29  C   UNL A   1      33.466  34.262  28.461  1.00  0.00     0.338 C 
ATOM     30  O   UNL A   1      32.538  35.010  28.717  1.00  0.00    -0.246 OA
BRANCH  29  31
ATOM     31  C   UNL A   1      34.514  33.867  29.443  1.00  0.00     0.060 A 
ATOM     32  C   UNL A   1      35.849  34.150  29.124  1.00  0.00     0.016 A 
ATOM     33  C   UNL A   1      34.205  33.292  30.681  1.00  0.00     0.016 A 
ATOM     34  C   UNL A   1      36.876  33.815  30.012  1.00  0.00     0.010 A 
ATOM     35  C   UNL A   1      35.236  32.946  31.567  1.00  0.00     0.010 A 
ATOM     36  C   UNL A   1      36.581  33.171  31.221  1.00  0.00    -0.014 A 
BRANCH  36  37
ATOM     37  C   UNL A   1      37.686  32.566  32.013  1.00  0.00     0.031 A 
ATOM     38  C   UNL A   1      38.425  31.390  31.428  1.00  0.00     0.074 A 
ATOM     39  C   UNL A   1      38.079  33.077  33.196  1.00  0.00     0.049 A 
ATOM     40  N   UNL A   1      39.441  30.720  31.910  1.00  0.00    -0.248 NA
ATOM     41  C   UNL A   1      37.955  30.906  30.119  1.00  0.00     0.031 C 
ATOM     42  C   UNL A   1      37.478  34.229  33.865  1.00  0.00     0.029 A 
ATOM     43  N   UNL A   1      39.088  32.685  34.044  1.00  0.00    -0.354 N 
ATOM     44  C   UNL A   1      39.735  29.744  30.965  1.00  0.00     0.074 A 
ATOM     45  C   UNL A   1      38.765  29.883  29.899  1.00  0.00     0.031 C 
ATOM     46  C   UNL A   1      38.128  34.449  35.023  1.00  0.00     0.029 A 
ATOM     47  C   UNL A   1      39.177  33.442  35.189  1.00  0.00     0.049 A 
ATOM     48  H   UNL A   1      39.691  31.932  33.849  1.00  0.00     0.167 HD
ATOM     49  C   UNL A   1      40.728  28.824  30.971  1.00  0.00     0.037 A 
ATOM     50  C   UNL A   1      39.999  33.328  36.254  1.00  0.00     0.037 A 
ATOM     51  C   UNL A   1      41.693  28.677  32.030  1.00  0.00     0.049 A 
ATOM     52  C   UNL A   1      41.055  32.249  36.270  1.00  0.00     0.074 A 
ATOM     53  C   UNL A   1      42.743  27.778  32.115  1.00  0.00     0.029 A 
ATOM     54  N   UNL A   1      41.722  29.436  33.190  1.00  0.00    -0.354 N 
ATOM     55  N   UNL A   1      41.340  31.354  35.354  1.00  0.00    -0.248 NA
ATOM     56  C   UNL A   1      41.906  32.168  37.468  1.00  0.00     0.031 C 
ATOM     57  C   UNL A   1      43.377  27.961  33.349  1.00  0.00     0.029 A 
ATOM     58  C   UNL A   1      42.757  29.009  34.008  1.00  0.00     0.049 A 
ATOM     59  H   UNL A   1      41.100  30.168  33.401  1.00  0.00     0.167 HD
ATOM     60  C   UNL A   1      42.419  30.627  35.852  1.00  0.00     0.074 A 
ATOM     61  C   UNL A   1      42.746  31.196  37.142  1.00  0.00     0.031 C 
ATOM     62  C   UNL A   1      43.080  29.582  35.291  1.00  0.00     0.037 A 
BRANCH  49  63
ATOM     63  C   UNL A   1      40.812  27.885  29.799  1.00  0.00     0.058 A 
ATOM     64  C   UNL A   1      39.914  26.817  29.644  1.00  0.00     0.135 A 
ATOM     65  C   UNL A   1      41.778  28.080  28.800  1.00  0.00     0.135 A 
ATOM     66  F   UNL A   1      38.983  26.574  30.581  1.00  0.00    -0.206 F 
ATOM     67  C   UNL A   1      39.985  25.962  28.549  1.00  0.00     0.059 A 
ATOM     68  C   UNL A   1      41.849  27.254  27.682  1.00  0.00     0.059 A 
ATOM     69  F   UNL A   1      42.664  29.083  28.903  1.00  0.00    -0.206 F 
ATOM     70  C   UNL A   1      40.955  26.190  27.573  1.00  0.00     0.060 A 
BRANCH  70  71
ATOM     71  S   UNL A   1      41.026  25.078  26.153  1.00  0.00     0.124 S 
ATOM     72  O   UNL A   1      41.729  23.931  26.716  1.00  0.00    -0.237 OA
ATOM     73  O   UNL A   1      39.613  24.870  25.850  1.00  0.00    -0.237 OA
ATOM     74  O   UNL A   1      41.771  25.843  25.157  1.00  0.00    -0.744 OA
ENDBRANCH  70  71
ENDBRANCH  49  63
BRANCH  50  75
ATOM     75  C   UNL A   1      39.862  34.256  37.411  1.00  0.00     0.058 A 
ATOM     76  C   UNL A   1      40.626  35.429  37.503  1.00  0.00     0.135 A 
ATOM     77  C   UNL A   1      38.987  33.964  38.471  1.00  0.00     0.135 A 
ATOM     78  F   UNL A   1      41.490  35.743  36.526  1.00  0.00    -0.206 F 
ATOM     79  C   UNL A   1      40.545  36.270  38.609  1.00  0.00     0.059 A 
ATOM     80  C   UNL A   1      38.866  34.804  39.574  1.00  0.00     0.059 A 
ATOM     81  F   UNL A   1      38.230  32.857  38.434  1.00  0.00    -0.206 F 
ATOM     82  C   UNL A   1      39.661  35.949  39.640  1.00  0.00     0.060 A 
BRANCH  82  83
ATOM     83  S   UNL A   1      39.534  37.065  41.055  1.00  0.00     0.124 S 
ATOM     84  O   UNL A   1      40.939  37.303  41.367  1.00  0.00    -0.237 OA
ATOM     85  O   UNL A   1      38.805  38.195  40.487  1.00  0.00    -0.237 OA
ATOM     86  O   UNL A   1      38.794  36.279  42.037  1.00  0.00    -0.744 OA
ENDBRANCH  82  83
ENDBRANCH  50  75
BRANCH  62  87
ATOM     87  C   UNL A   1      44.247  29.006  36.049  1.00  0.00     0.058 A 
ATOM     88  C   UNL A   1      44.098  27.920  36.927  1.00  0.00     0.135 A 
ATOM     89  C   UNL A   1      45.540  29.524  35.868  1.00  0.00     0.135 A 
ATOM     90  F   UNL A   1      42.886  27.384  37.139  1.00  0.00    -0.206 F 
ATOM     91  C   UNL A   1      45.183  27.396  37.627  1.00  0.00     0.059 A 
ATOM     92  C   UNL A   1      46.642  28.997  36.533  1.00  0.00     0.059 A 
ATOM     93  F   UNL A   1      45.745  30.552  35.028  1.00  0.00    -0.206 F 
ATOM     94  C   UNL A   1      46.451  27.943  37.425  1.00  0.00     0.060 A 
BRANCH  94  95
ATOM     95  S   UNL A   1      47.849  27.250  38.333  1.00  0.00     0.124 S 
ATOM     96  O   UNL A   1      48.257  28.384  39.155  1.00  0.00    -0.237 OA
ATOM     97  O   UNL A   1      47.237  26.135  39.051  1.00  0.00    -0.237 OA
ATOM     98  O   UNL A   1      48.785  26.870  37.279  1.00  0.00    -0.744 OA
ENDBRANCH  94  95
ENDBRANCH  62  87
ENDBRANCH  36  37
ENDBRANCH  29  31
ENDBRANCH  28  29
ENDBRANCH  27  28
ENDBRANCH  26  27
ENDBRANCH  25  26
ENDBRANCH  24  25
ENDBRANCH   1  24
TORSDOF 23
ENDMDL
