MODEL 1
REMARK VINA RESULT:      -8.2      0.000      0.000
REMARK SMILES C[C@@H](CCCO)Nc1ccc(C(=O)OCCOCCOCCOC(=O)c2ccc(-c3c4nc(c(-c5c(F)cc(S(=O)(=O)[O-])cc5F)c5ccc([nH]5)c(-c5c(F)cc(S(=O)(=O)[O-])cc5F)c5nc(c(-c6c(F)cc(S(=O)(=O)[O-])cc6F)c6ccc3[nH]6)C=C5)C=C4)cc2)o1
REMARK SMILES IDX 17 1 16 2 15 3 14 4 12 5 13 6 11 7 8 8 9 9 92 10 10 11 7 12
REMARK SMILES IDX 2 14 1 15 3 16 4 17 5 18 6 19 18 21 19 22 20 23 21 24 22 25
REMARK SMILES IDX 23 26 24 27 25 28 26 29 27 30 91 31 28 32 90 33 29 34 30 35
REMARK SMILES IDX 31 36 84 37 32 38 89 39 83 40 85 41 33 42 88 43 82 44 81 45
REMARK SMILES IDX 34 47 68 48 47 49 67 50 48 51 51 52 66 53 86 54 49 55 50 56
REMARK SMILES IDX 65 58 87 59 52 60 35 61 36 62 45 63 37 64 38 65 44 66 46 67
REMARK SMILES IDX 39 68 40 69 41 70 42 71 43 72 69 73 70 74 79 75 71 76 72 77
REMARK SMILES IDX 78 78 80 79 73 80 74 81 75 82 76 83 77 84 53 85 54 86 63 87
REMARK SMILES IDX 55 88 56 89 62 90 64 91 57 92 58 93 59 94 60 95 61 96
REMARK H PARENT 7 13 6 20 85 46 51 57
REMARK Flexibility Score: inf
ROOT
ATOM      1  O   UNL A   1      34.044  32.339  28.835  1.00  0.00    -0.376 OA
ENDROOT
BRANCH   1   2
ATOM      2  C   UNL A   1      34.200  31.596  27.635  1.00  0.00     0.202 C 
BRANCH   2   3
ATOM      3  C   UNL A   1      33.225  30.443  27.394  1.00  0.00     0.261 C 
BRANCH   3   4
ATOM      4  O   UNL A   1      33.271  29.948  26.045  1.00  0.00    -0.457 OA
BRANCH   4   5
ATOM      5  C   UNL A   1      33.821  28.705  25.901  1.00  0.00     0.374 C 
ATOM      6  O   UNL A   1      34.244  28.021  26.824  1.00  0.00    -0.242 OA
BRANCH   5   7
ATOM      7  C   UNL A   1      33.744  28.288  24.523  1.00  0.00     0.214 A 
ATOM      8  C   UNL A   1      33.685  26.755  22.949  1.00  0.00     0.194 A 
ATOM      9  C   UNL A   1      33.633  27.965  22.299  1.00  0.00     0.070 A 
ATOM     10  O   UNL A   1      33.735  26.940  24.285  1.00  0.00    -0.434 OA
ATOM     11  C   UNL A   1      33.631  28.957  23.317  1.00  0.00     0.060 A 
BRANCH   8  12
ATOM     12  N   UNL A   1      33.716  25.469  22.555  1.00  0.00    -0.354 N 
ATOM     13  H   UNL A   1      34.529  25.098  22.141  1.00  0.00     0.163 HD
BRANCH  12  14
ATOM     14  C   UNL A   1      32.534  24.630  22.744  1.00  0.00     0.079 C 
ATOM     15  C   UNL A   1      32.669  23.864  24.062  1.00  0.00     0.031 C 
BRANCH  14  16
ATOM     16  C   UNL A   1      31.238  25.448  22.657  1.00  0.00     0.027 C 
BRANCH  16  17
ATOM     17  C   UNL A   1      30.123  25.119  23.659  1.00  0.00     0.030 C 
BRANCH  17  18
ATOM     18  C   UNL A   1      29.618  26.284  24.502  1.00  0.00     0.156 C 
BRANCH  18  19
ATOM     19  O   UNL A   1      30.654  27.227  24.739  1.00  0.00    -0.396 OA
ATOM     20  H   UNL A   1      30.339  27.903  25.360  1.00  0.00     0.210 HD
ENDBRANCH  18  19
ENDBRANCH  17  18
ENDBRANCH  16  17
ENDBRANCH  14  16
ENDBRANCH  12  14
ENDBRANCH   8  12
ENDBRANCH   5   7
ENDBRANCH   4   5
ENDBRANCH   3   4
ENDBRANCH   2   3
ENDBRANCH   1   2
BRANCH   1  21
ATOM     21  C   UNL A   1      34.455  33.701  28.889  1.00  0.00     0.188 C 
BRANCH  21  22
ATOM     22  C   UNL A   1      34.220  34.519  30.174  1.00  0.00     0.188 C 
BRANCH  22  23
ATOM     23  O   UNL A   1      34.338  33.774  31.379  1.00  0.00    -0.376 OA
BRANCH  23  24
ATOM     24  C   UNL A   1      35.366  34.192  32.266  1.00  0.00     0.202 C 
BRANCH  24  25
ATOM     25  C   UNL A   1      36.395  33.096  32.558  1.00  0.00     0.261 C 
BRANCH  25  26
ATOM     26  O   UNL A   1      37.076  32.595  31.396  1.00  0.00    -0.460 OA
BRANCH  26  27
ATOM     27  C   UNL A   1      36.857  31.299  31.081  1.00  0.00     0.338 C 
ATOM     28  O   UNL A   1      35.790  30.711  31.090  1.00  0.00    -0.246 OA
BRANCH  27  29
ATOM     29  C   UNL A   1      38.118  30.740  30.558  1.00  0.00     0.060 A 
ATOM     30  C   UNL A   1      39.094  30.313  31.465  1.00  0.00     0.016 A 
ATOM     31  C   UNL A   1      38.336  30.647  29.180  1.00  0.00     0.016 A 
ATOM     32  C   UNL A   1      40.309  29.815  30.990  1.00  0.00     0.010 A 
ATOM     33  C   UNL A   1      39.557  30.160  28.708  1.00  0.00     0.010 A 
ATOM     34  C   UNL A   1      40.560  29.768  29.611  1.00  0.00    -0.014 A 
BRANCH  34  35
ATOM     35  C   UNL A   1      41.922  29.453  29.119  1.00  0.00     0.031 A 
ATOM     36  C   UNL A   1      42.210  28.064  28.622  1.00  0.00     0.074 A 
ATOM     37  C   UNL A   1      42.893  30.384  29.118  1.00  0.00     0.049 A 
ATOM     38  N   UNL A   1      43.316  27.573  28.126  1.00  0.00    -0.248 NA
ATOM     39  C   UNL A   1      41.103  27.098  28.703  1.00  0.00     0.031 C 
ATOM     40  C   UNL A   1      42.747  31.760  29.591  1.00  0.00     0.029 A 
ATOM     41  N   UNL A   1      44.202  30.301  28.716  1.00  0.00    -0.354 N 
ATOM     42  C   UNL A   1      43.040  26.243  27.834  1.00  0.00     0.074 A 
ATOM     43  C   UNL A   1      41.672  25.996  28.239  1.00  0.00     0.031 C 
ATOM     44  C   UNL A   1      43.930  32.388  29.469  1.00  0.00     0.029 A 
ATOM     45  C   UNL A   1      44.915  31.457  28.918  1.00  0.00     0.049 A 
ATOM     46  H   UNL A   1      44.594  29.489  28.321  1.00  0.00     0.167 HD
ATOM     47  C   UNL A   1      43.847  25.313  27.271  1.00  0.00     0.037 A 
ATOM     48  C   UNL A   1      46.216  31.730  28.692  1.00  0.00     0.037 A 
ATOM     49  C   UNL A   1      45.209  25.552  26.877  1.00  0.00     0.049 A 
ATOM     50  C   UNL A   1      47.101  30.680  28.075  1.00  0.00     0.074 A 
ATOM     51  C   UNL A   1      46.093  24.687  26.254  1.00  0.00     0.029 A 
ATOM     52  N   UNL A   1      45.895  26.741  27.085  1.00  0.00    -0.354 N 
ATOM     53  N   UNL A   1      46.805  29.449  27.730  1.00  0.00    -0.248 NA
ATOM     54  C   UNL A   1      48.494  31.062  27.802  1.00  0.00     0.031 C 
ATOM     55  C   UNL A   1      47.324  25.340  26.122  1.00  0.00     0.029 A 
ATOM     56  C   UNL A   1      47.196  26.625  26.625  1.00  0.00     0.049 A 
ATOM     57  H   UNL A   1      45.512  27.547  27.499  1.00  0.00     0.167 HD
ATOM     58  C   UNL A   1      47.969  28.915  27.184  1.00  0.00     0.074 A 
ATOM     59  C   UNL A   1      48.970  29.962  27.232  1.00  0.00     0.031 C 
ATOM     60  C   UNL A   1      48.187  27.672  26.686  1.00  0.00     0.037 A 
BRANCH  47  61
ATOM     61  C   UNL A   1      43.270  23.939  27.075  1.00  0.00     0.058 A 
ATOM     62  C   UNL A   1      42.732  23.536  25.842  1.00  0.00     0.135 A 
ATOM     63  C   UNL A   1      43.243  23.020  28.135  1.00  0.00     0.135 A 
ATOM     64  F   UNL A   1      42.717  24.383  24.801  1.00  0.00    -0.206 F 
ATOM     65  C   UNL A   1      42.151  22.283  25.679  1.00  0.00     0.059 A 
ATOM     66  C   UNL A   1      42.688  21.753  27.988  1.00  0.00     0.059 A 
ATOM     67  F   UNL A   1      43.743  23.357  29.335  1.00  0.00    -0.206 F 
ATOM     68  C   UNL A   1      42.126  21.402  26.761  1.00  0.00     0.060 A 
BRANCH  68  69
ATOM     69  S   UNL A   1      41.343  19.789  26.548  1.00  0.00     0.124 S 
ATOM     70  O   UNL A   1      40.030  20.168  26.039  1.00  0.00    -0.237 OA
ATOM     71  O   UNL A   1      42.228  19.132  25.591  1.00  0.00    -0.237 OA
ATOM     72  O   UNL A   1      41.356  19.226  27.895  1.00  0.00    -0.744 OA
ENDBRANCH  68  69
ENDBRANCH  47  61
BRANCH  48  73
ATOM     73  C   UNL A   1      46.756  33.068  29.047  1.00  0.00     0.058 A 
ATOM     74  C   UNL A   1      46.804  34.105  28.106  1.00  0.00     0.135 A 
ATOM     75  C   UNL A   1      47.210  33.340  30.346  1.00  0.00     0.135 A 
ATOM     76  F   UNL A   1      46.390  33.889  26.847  1.00  0.00    -0.206 F 
ATOM     77  C   UNL A   1      47.288  35.367  28.437  1.00  0.00     0.059 A 
ATOM     78  C   UNL A   1      47.680  34.599  30.709  1.00  0.00     0.059 A 
ATOM     79  F   UNL A   1      47.177  32.380  31.284  1.00  0.00    -0.206 F 
ATOM     80  C   UNL A   1      47.718  35.606  29.744  1.00  0.00     0.060 A 
BRANCH  80  81
ATOM     81  S   UNL A   1      48.273  37.267  30.185  1.00  0.00     0.124 S 
ATOM     82  O   UNL A   1      47.045  38.037  30.032  1.00  0.00    -0.237 OA
ATOM     83  O   UNL A   1      48.744  37.081  31.555  1.00  0.00    -0.237 OA
ATOM     84  O   UNL A   1      49.318  37.541  29.203  1.00  0.00    -0.744 OA
ENDBRANCH  80  81
ENDBRANCH  48  73
BRANCH  60  85
ATOM     85  C   UNL A   1      49.555  27.380  26.136  1.00  0.00     0.058 A 
ATOM     86  C   UNL A   1      49.829  27.452  24.761  1.00  0.00     0.135 A 
ATOM     87  C   UNL A   1      50.614  27.051  26.999  1.00  0.00     0.135 A 
ATOM     88  F   UNL A   1      48.852  27.759  23.894  1.00  0.00    -0.206 F 
ATOM     89  C   UNL A   1      51.098  27.177  24.257  1.00  0.00     0.059 A 
ATOM     90  C   UNL A   1      51.895  26.795  26.519  1.00  0.00     0.059 A 
ATOM     91  F   UNL A   1      50.411  26.980  28.323  1.00  0.00    -0.206 F 
ATOM     92  C   UNL A   1      52.123  26.845  25.144  1.00  0.00     0.060 A 
BRANCH  92  93
ATOM     93  S   UNL A   1      53.768  26.497  24.483  1.00  0.00     0.124 S 
ATOM     94  O   UNL A   1      53.661  25.077  24.166  1.00  0.00    -0.237 OA
ATOM     95  O   UNL A   1      53.847  27.398  23.338  1.00  0.00    -0.237 OA
ATOM     96  O   UNL A   1      54.655  26.827  25.595  1.00  0.00    -0.744 OA
ENDBRANCH  92  93
ENDBRANCH  60  85
ENDBRANCH  34  35
ENDBRANCH  27  29
ENDBRANCH  26  27
ENDBRANCH  25  26
ENDBRANCH  24  25
ENDBRANCH  23  24
ENDBRANCH  22  23
ENDBRANCH  21  22
ENDBRANCH   1  21
TORSDOF 26
ENDMDL
MODEL 2
REMARK VINA RESULT:      -8.1      1.726      8.504
REMARK SMILES C[C@@H](CCCO)Nc1ccc(C(=O)OCCOCCOCCOC(=O)c2ccc(-c3c4nc(c(-c5c(F)cc(S(=O)(=O)[O-])cc5F)c5ccc([nH]5)c(-c5c(F)cc(S(=O)(=O)[O-])cc5F)c5nc(c(-c6c(F)cc(S(=O)(=O)[O-])cc6F)c6ccc3[nH]6)C=C5)C=C4)cc2)o1
REMARK SMILES IDX 17 1 16 2 15 3 14 4 12 5 13 6 11 7 8 8 9 9 92 10 10 11 7 12
REMARK SMILES IDX 2 14 1 15 3 16 4 17 5 18 6 19 18 21 19 22 20 23 21 24 22 25
REMARK SMILES IDX 23 26 24 27 25 28 26 29 27 30 91 31 28 32 90 33 29 34 30 35
REMARK SMILES IDX 31 36 84 37 32 38 89 39 83 40 85 41 33 42 88 43 82 44 81 45
REMARK SMILES IDX 34 47 68 48 47 49 67 50 48 51 51 52 66 53 86 54 49 55 50 56
REMARK SMILES IDX 65 58 87 59 52 60 35 61 36 62 45 63 37 64 38 65 44 66 46 67
REMARK SMILES IDX 39 68 40 69 41 70 42 71 43 72 69 73 70 74 79 75 71 76 72 77
REMARK SMILES IDX 78 78 80 79 73 80 74 81 75 82 76 83 77 84 53 85 54 86 63 87
REMARK SMILES IDX 55 88 56 89 62 90 64 91 57 92 58 93 59 94 60 95 61 96
REMARK H PARENT 7 13 6 20 85 46 51 57
REMARK Flexibility Score: inf
ROOT
ATOM      1  O   UNL A   1      33.406  33.734  28.742  1.00  0.00    -0.376 OA
ENDROOT
BRANCH   1   2
ATOM      2  C   UNL A   1      34.161  32.857  27.918  1.00  0.00     0.202 C 
BRANCH   2   3
ATOM      3  C   UNL A   1      33.667  31.415  27.794  1.00  0.00     0.261 C 
BRANCH   3   4
ATOM      4  O   UNL A   1      34.227  30.731  26.661  1.00  0.00    -0.457 OA
BRANCH   4   5
ATOM      5  C   UNL A   1      34.764  29.503  26.931  1.00  0.00     0.374 C 
ATOM      6  O   UNL A   1      35.568  29.278  27.826  1.00  0.00    -0.242 OA
BRANCH   5   7
ATOM      7  C   UNL A   1      34.177  28.507  26.070  1.00  0.00     0.214 A 
ATOM      8  C   UNL A   1      33.262  26.544  25.698  1.00  0.00     0.194 A 
ATOM      9  C   UNL A   1      33.329  27.166  24.474  1.00  0.00     0.070 A 
ATOM     10  O   UNL A   1      33.753  27.349  26.663  1.00  0.00    -0.434 OA
ATOM     11  C   UNL A   1      33.884  28.452  24.718  1.00  0.00     0.060 A 
BRANCH   8  12
ATOM     12  N   UNL A   1      32.845  25.338  26.125  1.00  0.00    -0.354 N 
ATOM     13  H   UNL A   1      32.589  25.207  27.066  1.00  0.00     0.163 HD
BRANCH  12  14
ATOM     14  C   UNL A   1      32.775  24.225  25.178  1.00  0.00     0.079 C 
ATOM     15  C   UNL A   1      33.729  23.119  25.635  1.00  0.00     0.031 C 
BRANCH  14  16
ATOM     16  C   UNL A   1      31.333  23.732  24.989  1.00  0.00     0.027 C 
BRANCH  16  17
ATOM     17  C   UNL A   1      30.237  24.414  25.819  1.00  0.00     0.030 C 
BRANCH  17  18
ATOM     18  C   UNL A   1      29.904  25.851  25.433  1.00  0.00     0.156 C 
BRANCH  18  19
ATOM     19  O   UNL A   1      28.770  25.898  24.577  1.00  0.00    -0.396 OA
ATOM     20  H   UNL A   1      28.355  25.021  24.542  1.00  0.00     0.210 HD
ENDBRANCH  18  19
ENDBRANCH  17  18
ENDBRANCH  16  17
ENDBRANCH  14  16
ENDBRANCH  12  14
ENDBRANCH   8  12
ENDBRANCH   5   7
ENDBRANCH   4   5
ENDBRANCH   3   4
ENDBRANCH   2   3
ENDBRANCH   1   2
BRANCH   1  21
ATOM     21  C   UNL A   1      33.795  35.097  28.877  1.00  0.00     0.188 C 
BRANCH  21  22
ATOM     22  C   UNL A   1      33.116  35.983  29.938  1.00  0.00     0.188 C 
BRANCH  22  23
ATOM     23  O   UNL A   1      33.047  35.406  31.235  1.00  0.00    -0.376 OA
BRANCH  23  24
ATOM     24  C   UNL A   1      33.967  35.919  32.189  1.00  0.00     0.202 C 
BRANCH  24  25
ATOM     25  C   UNL A   1      34.788  34.829  32.884  1.00  0.00     0.261 C 
BRANCH  25  26
ATOM     26  O   UNL A   1      35.664  34.098  32.011  1.00  0.00    -0.460 OA
BRANCH  26  27
ATOM     27  C   UNL A   1      35.380  32.788  31.831  1.00  0.00     0.338 C 
ATOM     28  O   UNL A   1      34.292  32.251  31.939  1.00  0.00    -0.246 OA
BRANCH  27  29
ATOM     29  C   UNL A   1      36.594  32.128  31.316  1.00  0.00     0.060 A 
ATOM     30  C   UNL A   1      37.490  31.556  32.226  1.00  0.00     0.016 A 
ATOM     31  C   UNL A   1      36.848  32.081  29.942  1.00  0.00     0.016 A 
ATOM     32  C   UNL A   1      38.662  30.959  31.761  1.00  0.00     0.010 A 
ATOM     33  C   UNL A   1      38.028  31.493  29.480  1.00  0.00     0.010 A 
ATOM     34  C   UNL A   1      38.954  30.954  30.389  1.00  0.00    -0.014 A 
BRANCH  34  35
ATOM     35  C   UNL A   1      40.293  30.524  29.920  1.00  0.00     0.031 A 
ATOM     36  C   UNL A   1      41.403  31.537  29.874  1.00  0.00     0.074 A 
ATOM     37  C   UNL A   1      40.520  29.256  29.536  1.00  0.00     0.049 A 
ATOM     38  N   UNL A   1      42.653  31.381  29.524  1.00  0.00    -0.248 NA
ATOM     39  C   UNL A   1      41.052  32.911  30.268  1.00  0.00     0.031 C 
ATOM     40  C   UNL A   1      39.525  28.186  29.517  1.00  0.00     0.029 A 
ATOM     41  N   UNL A   1      41.667  28.661  29.073  1.00  0.00    -0.354 N 
ATOM     42  C   UNL A   1      43.240  32.634  29.656  1.00  0.00     0.074 A 
ATOM     43  C   UNL A   1      42.200  33.544  30.087  1.00  0.00     0.031 C 
ATOM     44  C   UNL A   1      40.102  27.066  29.044  1.00  0.00     0.029 A 
ATOM     45  C   UNL A   1      41.502  27.343  28.723  1.00  0.00     0.049 A 
ATOM     46  H   UNL A   1      42.527  29.134  28.998  1.00  0.00     0.167 HD
ATOM     47  C   UNL A   1      44.529  32.993  29.448  1.00  0.00     0.037 A 
ATOM     48  C   UNL A   1      42.378  26.465  28.196  1.00  0.00     0.037 A 
ATOM     49  C   UNL A   1      45.562  32.093  29.010  1.00  0.00     0.049 A 
ATOM     50  C   UNL A   1      43.804  26.885  27.961  1.00  0.00     0.074 A 
ATOM     51  C   UNL A   1      46.908  32.352  28.817  1.00  0.00     0.029 A 
ATOM     52  N   UNL A   1      45.360  30.761  28.678  1.00  0.00    -0.354 N 
ATOM     53  N   UNL A   1      44.365  28.053  28.165  1.00  0.00    -0.248 NA
ATOM     54  C   UNL A   1      44.721  25.862  27.438  1.00  0.00     0.031 C 
ATOM     55  C   UNL A   1      47.512  31.186  28.330  1.00  0.00     0.029 A 
ATOM     56  C   UNL A   1      46.551  30.190  28.259  1.00  0.00     0.049 A 
ATOM     57  H   UNL A   1      44.497  30.291  28.732  1.00  0.00     0.167 HD
ATOM     58  C   UNL A   1      45.703  27.902  27.813  1.00  0.00     0.074 A 
ATOM     59  C   UNL A   1      45.870  26.524  27.395  1.00  0.00     0.031 C 
ATOM     60  C   UNL A   1      46.703  28.820  27.837  1.00  0.00     0.037 A 
BRANCH  47  61
ATOM     61  C   UNL A   1      44.878  34.438  29.671  1.00  0.00     0.058 A 
ATOM     62  C   UNL A   1      45.299  34.907  30.926  1.00  0.00     0.135 A 
ATOM     63  C   UNL A   1      44.778  35.364  28.623  1.00  0.00     0.135 A 
ATOM     64  F   UNL A   1      45.394  34.064  31.967  1.00  0.00    -0.206 F 
ATOM     65  C   UNL A   1      45.570  36.254  31.143  1.00  0.00     0.059 A 
ATOM     66  C   UNL A   1      45.067  36.712  28.811  1.00  0.00     0.059 A 
ATOM     67  F   UNL A   1      44.378  34.967  27.405  1.00  0.00    -0.206 F 
ATOM     68  C   UNL A   1      45.442  37.150  30.081  1.00  0.00     0.060 A 
BRANCH  68  69
ATOM     69  S   UNL A   1      45.769  38.901  30.380  1.00  0.00     0.124 S 
ATOM     70  O   UNL A   1      47.097  38.850  30.980  1.00  0.00    -0.237 OA
ATOM     71  O   UNL A   1      45.702  39.469  29.037  1.00  0.00    -0.237 OA
ATOM     72  O   UNL A   1      44.687  39.297  31.277  1.00  0.00    -0.744 OA
ENDBRANCH  68  69
ENDBRANCH  47  61
BRANCH  48  73
ATOM     73  C   UNL A   1      41.924  25.090  27.861  1.00  0.00     0.058 A 
ATOM     74  C   UNL A   1      41.215  24.826  26.681  1.00  0.00     0.135 A 
ATOM     75  C   UNL A   1      42.217  24.009  28.706  1.00  0.00     0.135 A 
ATOM     76  F   UNL A   1      40.902  25.831  25.847  1.00  0.00    -0.206 F 
ATOM     77  C   UNL A   1      40.807  23.538  26.350  1.00  0.00     0.059 A 
ATOM     78  C   UNL A   1      41.838  22.708  28.388  1.00  0.00     0.059 A 
ATOM     79  F   UNL A   1      42.901  24.211  29.843  1.00  0.00    -0.206 F 
ATOM     80  C   UNL A   1      41.129  22.484  27.208  1.00  0.00     0.060 A 
BRANCH  80  81
ATOM     81  S   UNL A   1      40.662  20.805  26.733  1.00  0.00     0.124 S 
ATOM     82  O   UNL A   1      40.778  20.097  28.002  1.00  0.00    -0.237 OA
ATOM     83  O   UNL A   1      39.305  20.994  26.229  1.00  0.00    -0.237 OA
ATOM     84  O   UNL A   1      41.655  20.456  25.721  1.00  0.00    -0.744 OA
ENDBRANCH  80  81
ENDBRANCH  48  73
BRANCH  60  85
ATOM     85  C   UNL A   1      48.071  28.360  27.414  1.00  0.00     0.058 A 
ATOM     86  C   UNL A   1      49.059  28.027  28.353  1.00  0.00     0.135 A 
ATOM     87  C   UNL A   1      48.388  28.223  26.052  1.00  0.00     0.135 A 
ATOM     88  F   UNL A   1      48.810  28.143  29.667  1.00  0.00    -0.206 F 
ATOM     89  C   UNL A   1      50.326  27.605  27.957  1.00  0.00     0.059 A 
ATOM     90  C   UNL A   1      49.639  27.781  25.635  1.00  0.00     0.059 A 
ATOM     91  F   UNL A   1      47.475  28.516  25.113  1.00  0.00    -0.206 F 
ATOM     92  C   UNL A   1      50.608  27.490  26.595  1.00  0.00     0.060 A 
BRANCH  92  93
ATOM     93  S   UNL A   1      52.250  26.935  26.088  1.00  0.00     0.124 S 
ATOM     94  O   UNL A   1      52.045  25.496  25.960  1.00  0.00    -0.237 OA
ATOM     95  O   UNL A   1      52.459  27.660  24.839  1.00  0.00    -0.237 OA
ATOM     96  O   UNL A   1      53.104  27.351  27.196  1.00  0.00    -0.744 OA
ENDBRANCH  92  93
ENDBRANCH  60  85
ENDBRANCH  34  35
ENDBRANCH  27  29
ENDBRANCH  26  27
ENDBRANCH  25  26
ENDBRANCH  24  25
ENDBRANCH  23  24
ENDBRANCH  22  23
ENDBRANCH  21  22
ENDBRANCH   1  21
TORSDOF 26
ENDMDL
MODEL 3
REMARK VINA RESULT:      -7.9      6.497     13.769
REMARK SMILES C[C@@H](CCCO)Nc1ccc(C(=O)OCCOCCOCCOC(=O)c2ccc(-c3c4nc(c(-c5c(F)cc(S(=O)(=O)[O-])cc5F)c5ccc([nH]5)c(-c5c(F)cc(S(=O)(=O)[O-])cc5F)c5nc(c(-c6c(F)cc(S(=O)(=O)[O-])cc6F)c6ccc3[nH]6)C=C5)C=C4)cc2)o1
REMARK SMILES IDX 17 1 16 2 15 3 14 4 12 5 13 6 11 7 8 8 9 9 92 10 10 11 7 12
REMARK SMILES IDX 2 14 1 15 3 16 4 17 5 18 6 19 18 21 19 22 20 23 21 24 22 25
REMARK SMILES IDX 23 26 24 27 25 28 26 29 27 30 91 31 28 32 90 33 29 34 30 35
REMARK SMILES IDX 31 36 84 37 32 38 89 39 83 40 85 41 33 42 88 43 82 44 81 45
REMARK SMILES IDX 34 47 68 48 47 49 67 50 48 51 51 52 66 53 86 54 49 55 50 56
REMARK SMILES IDX 65 58 87 59 52 60 35 61 36 62 45 63 37 64 38 65 44 66 46 67
REMARK SMILES IDX 39 68 40 69 41 70 42 71 43 72 69 73 70 74 79 75 71 76 72 77
REMARK SMILES IDX 78 78 80 79 73 80 74 81 75 82 76 83 77 84 53 85 54 86 63 87
REMARK SMILES IDX 55 88 56 89 62 90 64 91 57 92 58 93 59 94 60 95 61 96
REMARK H PARENT 7 13 6 20 85 46 51 57
REMARK Flexibility Score: inf
ROOT
ATOM      1  O   UNL A   1      43.155  23.964  25.071  1.00  0.00    -0.376 OA
ENDROOT
BRANCH   1   2
ATOM      2  C   UNL A   1      44.064  25.022  25.335  1.00  0.00     0.202 C 
BRANCH   2   3
ATOM      3  C   UNL A   1      45.526  24.643  25.580  1.00  0.00     0.261 C 
BRANCH   3   4
ATOM      4  O   UNL A   1      46.123  25.395  26.649  1.00  0.00    -0.457 OA
BRANCH   4   5
ATOM      5  C   UNL A   1      45.873  24.917  27.905  1.00  0.00     0.374 C 
ATOM      6  O   UNL A   1      45.823  23.730  28.201  1.00  0.00    -0.242 OA
BRANCH   5   7
ATOM      7  C   UNL A   1      45.766  26.012  28.838  1.00  0.00     0.214 A 
ATOM      8  C   UNL A   1      45.616  26.836  30.870  1.00  0.00     0.194 A 
ATOM      9  C   UNL A   1      45.583  27.917  30.022  1.00  0.00     0.070 A 
ATOM     10  O   UNL A   1      45.743  25.690  30.168  1.00  0.00    -0.434 OA
ATOM     11  C   UNL A   1      45.720  27.389  28.709  1.00  0.00     0.060 A 
BRANCH   8  12
ATOM     12  N   UNL A   1      45.532  26.677  32.203  1.00  0.00    -0.354 N 
ATOM     13  H   UNL A   1      45.043  27.333  32.751  1.00  0.00     0.163 HD
BRANCH  12  14
ATOM     14  C   UNL A   1      46.172  25.521  32.831  1.00  0.00     0.079 C 
ATOM     15  C   UNL A   1      47.685  25.745  32.866  1.00  0.00     0.031 C 
BRANCH  14  16
ATOM     16  C   UNL A   1      45.578  25.227  34.215  1.00  0.00     0.027 C 
BRANCH  16  17
ATOM     17  C   UNL A   1      44.234  24.488  34.267  1.00  0.00     0.030 C 
BRANCH  17  18
ATOM     18  C   UNL A   1      44.047  23.522  35.431  1.00  0.00     0.156 C 
BRANCH  18  19
ATOM     19  O   UNL A   1      42.837  23.791  36.126  1.00  0.00    -0.396 OA
ATOM     20  H   UNL A   1      42.151  23.172  35.832  1.00  0.00     0.210 HD
ENDBRANCH  18  19
ENDBRANCH  17  18
ENDBRANCH  16  17
ENDBRANCH  14  16
ENDBRANCH  12  14
ENDBRANCH   8  12
ENDBRANCH   5   7
ENDBRANCH   4   5
ENDBRANCH   3   4
ENDBRANCH   2   3
ENDBRANCH   1   2
BRANCH   1  21
ATOM     21  C   UNL A   1      43.479  22.632  25.454  1.00  0.00     0.188 C 
BRANCH  21  22
ATOM     22  C   UNL A   1      42.350  21.630  25.764  1.00  0.00     0.188 C 
BRANCH  22  23
ATOM     23  O   UNL A   1      42.147  21.377  27.148  1.00  0.00    -0.376 OA
BRANCH  23  24
ATOM     24  C   UNL A   1      42.829  22.248  28.041  1.00  0.00     0.202 C 
BRANCH  24  25
ATOM     25  C   UNL A   1      41.977  23.436  28.496  1.00  0.00     0.261 C 
BRANCH  25  26
ATOM     26  O   UNL A   1      40.698  23.532  27.849  1.00  0.00    -0.460 OA
BRANCH  26  27
ATOM     27  C   UNL A   1      40.453  24.671  27.162  1.00  0.00     0.338 C 
ATOM     28  O   UNL A   1      40.258  24.778  25.965  1.00  0.00    -0.246 OA
BRANCH  27  29
ATOM     29  C   UNL A   1      40.296  25.764  28.140  1.00  0.00     0.060 A 
ATOM     30  C   UNL A   1      41.257  26.781  28.175  1.00  0.00     0.016 A 
ATOM     31  C   UNL A   1      39.209  25.780  29.019  1.00  0.00     0.016 A 
ATOM     32  C   UNL A   1      41.146  27.805  29.117  1.00  0.00     0.010 A 
ATOM     33  C   UNL A   1      39.107  26.800  29.968  1.00  0.00     0.010 A 
ATOM     34  C   UNL A   1      40.090  27.802  30.040  1.00  0.00    -0.014 A 
BRANCH  34  35
ATOM     35  C   UNL A   1      40.097  28.757  31.173  1.00  0.00     0.031 A 
ATOM     36  C   UNL A   1      39.137  29.913  31.152  1.00  0.00     0.074 A 
ATOM     37  C   UNL A   1      40.947  28.605  32.205  1.00  0.00     0.049 A 
ATOM     38  N   UNL A   1      38.951  30.853  32.043  1.00  0.00    -0.248 NA
ATOM     39  C   UNL A   1      38.277  30.027  29.964  1.00  0.00     0.031 C 
ATOM     40  C   UNL A   1      41.938  27.538  32.334  1.00  0.00     0.029 A 
ATOM     41  N   UNL A   1      41.118  29.366  33.334  1.00  0.00    -0.354 N 
ATOM     42  C   UNL A   1      37.953  31.671  31.525  1.00  0.00     0.074 A 
ATOM     43  C   UNL A   1      37.597  31.133  30.228  1.00  0.00     0.031 C 
ATOM     44  C   UNL A   1      42.629  27.725  33.474  1.00  0.00     0.029 A 
ATOM     45  C   UNL A   1      42.133  28.925  34.147  1.00  0.00     0.049 A 
ATOM     46  H   UNL A   1      40.564  30.153  33.542  1.00  0.00     0.167 HD
ATOM     47  C   UNL A   1      37.377  32.763  32.080  1.00  0.00     0.037 A 
ATOM     48  C   UNL A   1      42.613  29.438  35.297  1.00  0.00     0.037 A 
ATOM     49  C   UNL A   1      37.737  33.305  33.363  1.00  0.00     0.049 A 
ATOM     50  C   UNL A   1      41.968  30.660  35.895  1.00  0.00     0.074 A 
ATOM     51  C   UNL A   1      37.178  34.380  34.033  1.00  0.00     0.029 A 
ATOM     52  N   UNL A   1      38.762  32.824  34.165  1.00  0.00    -0.354 N 
ATOM     53  N   UNL A   1      40.971  31.377  35.433  1.00  0.00    -0.248 NA
ATOM     54  C   UNL A   1      42.502  31.133  37.180  1.00  0.00     0.031 C 
ATOM     55  C   UNL A   1      37.892  34.573  35.222  1.00  0.00     0.029 A 
ATOM     56  C   UNL A   1      38.868  33.594  35.312  1.00  0.00     0.049 A 
ATOM     57  H   UNL A   1      39.330  32.050  33.950  1.00  0.00     0.167 HD
ATOM     58  C   UNL A   1      40.748  32.375  36.377  1.00  0.00     0.074 A 
ATOM     59  C   UNL A   1      41.705  32.160  37.444  1.00  0.00     0.031 C 
ATOM     60  C   UNL A   1      39.831  33.376  36.363  1.00  0.00     0.037 A 
BRANCH  47  61
ATOM     61  C   UNL A   1      36.312  33.455  31.277  1.00  0.00     0.058 A 
ATOM     62  C   UNL A   1      36.625  34.203  30.131  1.00  0.00     0.135 A 
ATOM     63  C   UNL A   1      34.966  33.379  31.666  1.00  0.00     0.135 A 
ATOM     64  F   UNL A   1      37.900  34.322  29.727  1.00  0.00    -0.206 F 
ATOM     65  C   UNL A   1      35.643  34.886  29.421  1.00  0.00     0.059 A 
ATOM     66  C   UNL A   1      33.965  34.035  30.956  1.00  0.00     0.059 A 
ATOM     67  F   UNL A   1      34.615  32.678  32.755  1.00  0.00    -0.206 F 
ATOM     68  C   UNL A   1      34.317  34.803  29.847  1.00  0.00     0.060 A 
BRANCH  68  69
ATOM     69  S   UNL A   1      33.054  35.716  28.935  1.00  0.00     0.124 S 
ATOM     70  O   UNL A   1      32.524  34.680  28.056  1.00  0.00    -0.237 OA
ATOM     71  O   UNL A   1      32.159  36.164  29.997  1.00  0.00    -0.237 OA
ATOM     72  O   UNL A   1      33.814  36.774  28.274  1.00  0.00    -0.744 OA
ENDBRANCH  68  69
ENDBRANCH  47  61
BRANCH  48  73
ATOM     73  C   UNL A   1      43.768  28.784  35.965  1.00  0.00     0.058 A 
ATOM     74  C   UNL A   1      43.593  27.660  36.784  1.00  0.00     0.135 A 
ATOM     75  C   UNL A   1      45.075  29.259  35.773  1.00  0.00     0.135 A 
ATOM     76  F   UNL A   1      42.361  27.177  37.006  1.00  0.00    -0.206 F 
ATOM     77  C   UNL A   1      44.673  27.029  37.394  1.00  0.00     0.059 A 
ATOM     78  C   UNL A   1      46.173  28.634  36.355  1.00  0.00     0.059 A 
ATOM     79  F   UNL A   1      45.293  30.328  34.991  1.00  0.00    -0.206 F 
ATOM     80  C   UNL A   1      45.961  27.520  37.168  1.00  0.00     0.060 A 
BRANCH  80  81
ATOM     81  S   UNL A   1      47.362  26.650  37.903  1.00  0.00     0.124 S 
ATOM     82  O   UNL A   1      48.489  27.285  37.229  1.00  0.00    -0.237 OA
ATOM     83  O   UNL A   1      47.209  26.959  39.321  1.00  0.00    -0.237 OA
ATOM     84  O   UNL A   1      47.115  25.256  37.543  1.00  0.00    -0.744 OA
ENDBRANCH  80  81
ENDBRANCH  48  73
BRANCH  60  85
ATOM     85  C   UNL A   1      39.808  34.306  37.545  1.00  0.00     0.058 A 
ATOM     86  C   UNL A   1      40.417  35.569  37.501  1.00  0.00     0.135 A 
ATOM     87  C   UNL A   1      39.142  33.939  38.727  1.00  0.00     0.135 A 
ATOM     88  F   UNL A   1      41.069  35.967  36.398  1.00  0.00    -0.206 F 
ATOM     89  C   UNL A   1      40.396  36.425  38.599  1.00  0.00     0.059 A 
ATOM     90  C   UNL A   1      39.088  34.788  39.828  1.00  0.00     0.059 A 
ATOM     91  F   UNL A   1      38.532  32.747  38.818  1.00  0.00    -0.206 F 
ATOM     92  C   UNL A   1      39.733  36.023  39.760  1.00  0.00     0.060 A 
BRANCH  92  93
ATOM     93  S   UNL A   1      39.702  37.142  41.178  1.00  0.00     0.124 S 
ATOM     94  O   UNL A   1      41.122  37.425  41.357  1.00  0.00    -0.237 OA
ATOM     95  O   UNL A   1      38.891  38.252  40.689  1.00  0.00    -0.237 OA
ATOM     96  O   UNL A   1      39.084  36.338  42.229  1.00  0.00    -0.744 OA
ENDBRANCH  92  93
ENDBRANCH  60  85
ENDBRANCH  34  35
ENDBRANCH  27  29
ENDBRANCH  26  27
ENDBRANCH  25  26
ENDBRANCH  24  25
ENDBRANCH  23  24
ENDBRANCH  22  23
ENDBRANCH  21  22
ENDBRANCH   1  21
TORSDOF 26
ENDMDL
