MODEL 1
REMARK VINA RESULT:     -11.7      0.000      0.000
REMARK SMILES O=C(OCCOCCOCCOC(=O)[C@H](c1c[nH]c2cc(F)ccc12)[NH+]1CCN(c2ccccc2)CC1)c1ccc(-c2c3nc(c(-c4c(F)cc(S(=O)(=O)[O-])cc4F)c4ccc([nH]4)c(-c4c(F)cc(S(=O)(=O)[O-])cc4F)c4nc(c(-c5c(F)cc(S(=O)(=O)[O-])cc5F)c5ccc2[nH]5)C=C4)C=C3)cc1
REMARK SMILES IDX 7 1 6 2 5 3 4 4 3 5 2 6 1 7 38 8 39 9 103 10 40 11 102 12
REMARK SMILES IDX 41 13 42 14 43 15 96 16 44 17 101 18 95 19 97 20 45 21
REMARK SMILES IDX 100 22 94 23 93 24 46 26 80 27 59 28 79 29 60 30 63 31 78 32
REMARK SMILES IDX 98 33 61 34 62 35 77 37 99 38 64 39 47 40 48 41 57 42 49 43
REMARK SMILES IDX 50 44 56 45 58 46 51 47 52 48 53 49 54 50 55 51 81 52 82 53
REMARK SMILES IDX 91 54 83 55 84 56 90 57 92 58 85 59 86 60 87 61 88 62 89 63
REMARK SMILES IDX 65 64 66 65 75 66 67 67 68 68 74 69 76 70 69 71 70 72 71 73
REMARK SMILES IDX 72 74 73 75 8 76 9 77 10 78 11 79 12 80 13 81 14 82 15 83
REMARK SMILES IDX 26 84 27 85 37 86 28 88 36 89 29 90 30 91 31 92 35 93 32 94
REMARK SMILES IDX 34 95 33 96 16 97 17 98 25 99 18 100 19 101 24 102 20 104
REMARK SMILES IDX 23 105 21 106 22 107
REMARK H PARENT 97 25 63 36 26 87 18 103
REMARK Flexibility Score: inf
ROOT
ATOM      1  C   UNL A   1      40.550  22.821  26.529  1.00  0.00     0.188 C 
ENDROOT
BRANCH   1   2
ATOM      2  O   UNL A   1      41.909  22.665  26.102  1.00  0.00    -0.376 OA
BRANCH   2   3
ATOM      3  C   UNL A   1      42.787  23.734  26.449  1.00  0.00     0.202 C 
BRANCH   3   4
ATOM      4  C   UNL A   1      43.111  24.689  25.295  1.00  0.00     0.261 C 
BRANCH   4   5
ATOM      5  O   UNL A   1      42.162  25.766  25.120  1.00  0.00    -0.460 OA
BRANCH   5   6
ATOM      6  C   UNL A   1      42.193  27.067  25.470  1.00  0.00     0.338 C 
ATOM      7  O   UNL A   1      42.524  27.906  24.633  1.00  0.00    -0.246 OA
BRANCH   6   8
ATOM      8  C   UNL A   1      41.875  27.529  26.842  1.00  0.00     0.060 A 
ATOM      9  C   UNL A   1      41.125  26.790  27.755  1.00  0.00     0.016 A 
ATOM     10  C   UNL A   1      42.512  28.688  27.291  1.00  0.00     0.016 A 
ATOM     11  C   UNL A   1      40.887  27.249  29.050  1.00  0.00     0.010 A 
ATOM     12  C   UNL A   1      42.353  29.108  28.612  1.00  0.00     0.010 A 
ATOM     13  C   UNL A   1      41.498  28.417  29.488  1.00  0.00    -0.014 A 
BRANCH  13  14
ATOM     14  C   UNL A   1      41.143  29.031  30.788  1.00  0.00     0.031 A 
ATOM     15  C   UNL A   1      39.976  29.973  30.794  1.00  0.00     0.074 A 
ATOM     16  C   UNL A   1      41.835  28.782  31.915  1.00  0.00     0.049 A 
ATOM     17  N   UNL A   1      39.610  30.845  31.691  1.00  0.00    -0.248 NA
ATOM     18  C   UNL A   1      39.113  29.933  29.600  1.00  0.00     0.031 C 
ATOM     19  C   UNL A   1      42.902  27.795  32.061  1.00  0.00     0.029 A 
ATOM     20  N   UNL A   1      41.765  29.373  33.153  1.00  0.00    -0.354 N 
ATOM     21  C   UNL A   1      38.511  31.494  31.143  1.00  0.00     0.074 A 
ATOM     22  C   UNL A   1      38.293  30.942  29.826  1.00  0.00     0.031 C 
ATOM     23  C   UNL A   1      43.440  27.897  33.288  1.00  0.00     0.029 A 
ATOM     24  C   UNL A   1      42.768  28.974  34.006  1.00  0.00     0.049 A 
ATOM     25  H   UNL A   1      41.066  30.019  33.404  1.00  0.00     0.167 HD
ATOM     26  C   UNL A   1      37.745  32.459  31.701  1.00  0.00     0.037 A 
ATOM     27  C   UNL A   1      43.126  29.456  35.212  1.00  0.00     0.037 A 
ATOM     28  C   UNL A   1      37.970  32.962  33.027  1.00  0.00     0.049 A 
ATOM     29  C   UNL A   1      42.304  30.568  35.805  1.00  0.00     0.074 A 
ATOM     30  C   UNL A   1      37.273  33.936  33.713  1.00  0.00     0.029 A 
ATOM     31  N   UNL A   1      38.978  32.512  33.869  1.00  0.00    -0.354 N 
ATOM     32  N   UNL A   1      41.283  31.202  35.275  1.00  0.00    -0.248 NA
ATOM     33  C   UNL A   1      42.661  31.022  37.154  1.00  0.00     0.031 C 
ATOM     34  C   UNL A   1      37.882  34.097  34.963  1.00  0.00     0.029 A 
ATOM     35  C   UNL A   1      38.928  33.190  35.071  1.00  0.00     0.049 A 
ATOM     36  H   UNL A   1      39.632  31.811  33.644  1.00  0.00     0.167 HD
ATOM     37  C   UNL A   1      40.847  32.101  36.241  1.00  0.00     0.074 A 
ATOM     38  C   UNL A   1      41.728  31.938  37.382  1.00  0.00     0.031 C 
ATOM     39  C   UNL A   1      39.808  32.972  36.194  1.00  0.00     0.037 A 
BRANCH  26  40
ATOM     40  C   UNL A   1      36.653  33.035  30.843  1.00  0.00     0.058 A 
ATOM     41  C   UNL A   1      36.907  34.035  29.889  1.00  0.00     0.135 A 
ATOM     42  C   UNL A   1      35.318  32.655  31.053  1.00  0.00     0.135 A 
ATOM     43  F   UNL A   1      38.163  34.457  29.669  1.00  0.00    -0.206 F 
ATOM     44  C   UNL A   1      35.872  34.689  29.227  1.00  0.00     0.059 A 
ATOM     45  C   UNL A   1      34.270  33.273  30.378  1.00  0.00     0.059 A 
ATOM     46  F   UNL A   1      35.018  31.707  31.954  1.00  0.00    -0.206 F 
ATOM     47  C   UNL A   1      34.555  34.312  29.494  1.00  0.00     0.060 A 
BRANCH  47  48
ATOM     48  S   UNL A   1      33.217  35.226  28.698  1.00  0.00     0.124 S 
ATOM     49  O   UNL A   1      33.963  36.181  27.886  1.00  0.00    -0.237 OA
ATOM     50  O   UNL A   1      32.516  34.180  27.961  1.00  0.00    -0.237 OA
ATOM     51  O   UNL A   1      32.481  35.797  29.824  1.00  0.00    -0.744 OA
ENDBRANCH  47  48
ENDBRANCH  26  40
BRANCH  27  52
ATOM     52  C   UNL A   1      44.312  28.891  35.911  1.00  0.00     0.058 A 
ATOM     53  C   UNL A   1      44.194  27.798  36.782  1.00  0.00     0.135 A 
ATOM     54  C   UNL A   1      45.603  29.391  35.668  1.00  0.00     0.135 A 
ATOM     55  F   UNL A   1      42.985  27.284  37.050  1.00  0.00    -0.206 F 
ATOM     56  C   UNL A   1      45.309  27.219  37.384  1.00  0.00     0.059 A 
ATOM     57  C   UNL A   1      46.734  28.819  36.244  1.00  0.00     0.059 A 
ATOM     58  F   UNL A   1      45.774  30.424  34.828  1.00  0.00    -0.206 F 
ATOM     59  C   UNL A   1      46.577  27.731  37.101  1.00  0.00     0.060 A 
BRANCH  59  60
ATOM     60  S   UNL A   1      48.021  26.917  37.822  1.00  0.00     0.124 S 
ATOM     61  O   UNL A   1      47.524  26.553  39.144  1.00  0.00    -0.237 OA
ATOM     62  O   UNL A   1      48.240  25.811  36.896  1.00  0.00    -0.237 OA
ATOM     63  O   UNL A   1      49.042  27.960  37.797  1.00  0.00    -0.744 OA
ENDBRANCH  59  60
ENDBRANCH  27  52
BRANCH  39  64
ATOM     64  C   UNL A   1      39.517  33.771  37.428  1.00  0.00     0.058 A 
ATOM     65  C   UNL A   1      38.628  33.312  38.409  1.00  0.00     0.135 A 
ATOM     66  C   UNL A   1      40.249  34.941  37.689  1.00  0.00     0.135 A 
ATOM     67  F   UNL A   1      37.901  32.203  38.198  1.00  0.00    -0.206 F 
ATOM     68  C   UNL A   1      38.487  33.979  39.620  1.00  0.00     0.059 A 
ATOM     69  C   UNL A   1      40.140  35.611  38.900  1.00  0.00     0.059 A 
ATOM     70  F   UNL A   1      41.118  35.411  36.779  1.00  0.00    -0.206 F 
ATOM     71  C   UNL A   1      39.258  35.119  39.862  1.00  0.00     0.060 A 
BRANCH  71  72
ATOM     72  S   UNL A   1      39.148  35.912  41.480  1.00  0.00     0.124 S 
ATOM     73  O   UNL A   1      40.328  35.378  42.150  1.00  0.00    -0.237 OA
ATOM     74  O   UNL A   1      39.199  37.330  41.136  1.00  0.00    -0.237 OA
ATOM     75  O   UNL A   1      37.865  35.447  41.998  1.00  0.00    -0.744 OA
ENDBRANCH  71  72
ENDBRANCH  39  64
ENDBRANCH  13  14
ENDBRANCH   6   8
ENDBRANCH   5   6
ENDBRANCH   4   5
ENDBRANCH   3   4
ENDBRANCH   2   3
ENDBRANCH   1   2
BRANCH   1  76
ATOM     76  C   UNL A   1      39.756  21.539  26.301  1.00  0.00     0.188 C 
BRANCH  76  77
ATOM     77  O   UNL A   1      38.732  21.739  25.340  1.00  0.00    -0.376 OA
BRANCH  77  78
ATOM     78  C   UNL A   1      37.532  22.334  25.817  1.00  0.00     0.202 C 
BRANCH  78  79
ATOM     79  C   UNL A   1      37.017  23.581  25.064  1.00  0.00     0.261 C 
BRANCH  79  80
ATOM     80  O   UNL A   1      35.737  23.492  24.377  1.00  0.00    -0.459 OA
BRANCH  80  81
ATOM     81  C   UNL A   1      34.794  24.406  24.755  1.00  0.00     0.370 C 
ATOM     82  O   UNL A   1      34.984  25.131  25.725  1.00  0.00    -0.245 OA
BRANCH  81  83
ATOM     83  C   UNL A   1      33.500  24.373  23.869  1.00  0.00     0.328 C 
BRANCH  83  84
ATOM     84  N   UNL A   1      32.363  23.603  24.493  1.00  0.00    -0.316 N 
ATOM     85  C   UNL A   1      31.570  22.701  23.635  1.00  0.00     0.284 C 
ATOM     86  C   UNL A   1      32.676  22.813  25.703  1.00  0.00     0.284 C 
ATOM     87  H   UNL A   1      31.806  24.426  24.721  1.00  0.00     0.349 HD
ATOM     88  C   UNL A   1      32.373  21.514  23.105  1.00  0.00     0.178 C 
ATOM     89  C   UNL A   1      33.299  21.398  25.492  1.00  0.00     0.178 C 
ATOM     90  N   UNL A   1      32.919  20.750  24.224  1.00  0.00    -0.360 N 
BRANCH  90  91
ATOM     91  C   UNL A   1      33.220  19.422  24.013  1.00  0.00     0.037 A 
ATOM     92  C   UNL A   1      34.337  18.810  24.591  1.00  0.00     0.026 A 
ATOM     93  C   UNL A   1      32.436  18.677  23.128  1.00  0.00     0.026 A 
ATOM     94  C   UNL A   1      34.670  17.489  24.280  1.00  0.00     0.002 A 
ATOM     95  C   UNL A   1      32.773  17.364  22.798  1.00  0.00     0.002 A 
ATOM     96  C   UNL A   1      33.893  16.770  23.374  1.00  0.00     0.000 A 
ENDBRANCH  90  91
ENDBRANCH  83  84
BRANCH  83  97
ATOM     97  C   UNL A   1      33.116  25.730  23.283  1.00  0.00     0.046 A 
ATOM     98  C   UNL A   1      33.312  26.203  21.996  1.00  0.00     0.094 A 
ATOM     99  C   UNL A   1      32.498  26.828  24.004  1.00  0.00     0.009 A 
ATOM    100  N   UNL A   1      32.861  27.495  21.913  1.00  0.00    -0.361 N 
ATOM    101  C   UNL A   1      32.402  27.916  23.135  1.00  0.00     0.049 A 
ATOM    102  C   UNL A   1      32.075  27.024  25.340  1.00  0.00     0.014 A 
ATOM    103  H   UNL A   1      32.867  28.042  21.095  1.00  0.00     0.166 HD
ATOM    104  C   UNL A   1      31.918  29.173  23.529  1.00  0.00     0.065 A 
ATOM    105  C   UNL A   1      31.575  28.266  25.753  1.00  0.00     0.040 A 
ATOM    106  C   UNL A   1      31.509  29.317  24.853  1.00  0.00     0.125 A 
ATOM    107  F   UNL A   1      31.031  30.501  25.259  1.00  0.00    -0.207 F 
ENDBRANCH  83  97
ENDBRANCH  81  83
ENDBRANCH  80  81
ENDBRANCH  79  80
ENDBRANCH  78  79
ENDBRANCH  77  78
ENDBRANCH  76  77
ENDBRANCH   1  76
TORSDOF 23
ENDMDL
MODEL 2
REMARK VINA RESULT:     -11.4      1.867      4.600
REMARK SMILES O=C(OCCOCCOCCOC(=O)[C@H](c1c[nH]c2cc(F)ccc12)[NH+]1CCN(c2ccccc2)CC1)c1ccc(-c2c3nc(c(-c4c(F)cc(S(=O)(=O)[O-])cc4F)c4ccc([nH]4)c(-c4c(F)cc(S(=O)(=O)[O-])cc4F)c4nc(c(-c5c(F)cc(S(=O)(=O)[O-])cc5F)c5ccc2[nH]5)C=C4)C=C3)cc1
REMARK SMILES IDX 7 1 6 2 5 3 4 4 3 5 2 6 1 7 38 8 39 9 103 10 40 11 102 12
REMARK SMILES IDX 41 13 42 14 43 15 96 16 44 17 101 18 95 19 97 20 45 21
REMARK SMILES IDX 100 22 94 23 93 24 46 26 80 27 59 28 79 29 60 30 63 31 78 32
REMARK SMILES IDX 98 33 61 34 62 35 77 37 99 38 64 39 47 40 48 41 57 42 49 43
REMARK SMILES IDX 50 44 56 45 58 46 51 47 52 48 53 49 54 50 55 51 81 52 82 53
REMARK SMILES IDX 91 54 83 55 84 56 90 57 92 58 85 59 86 60 87 61 88 62 89 63
REMARK SMILES IDX 65 64 66 65 75 66 67 67 68 68 74 69 76 70 69 71 70 72 71 73
REMARK SMILES IDX 72 74 73 75 8 76 9 77 10 78 11 79 12 80 13 81 14 82 15 83
REMARK SMILES IDX 26 84 27 85 37 86 28 88 36 89 29 90 30 91 31 92 35 93 32 94
REMARK SMILES IDX 34 95 33 96 16 97 17 98 25 99 18 100 19 101 24 102 20 104
REMARK SMILES IDX 23 105 21 106 22 107
REMARK H PARENT 97 25 63 36 26 87 18 103
REMARK Flexibility Score: inf
ROOT
ATOM      1  C   UNL A   1      38.525  21.546  25.765  1.00  0.00     0.188 C 
ENDROOT
BRANCH   1   2
ATOM      2  O   UNL A   1      39.661  20.674  25.767  1.00  0.00    -0.376 OA
BRANCH   2   3
ATOM      3  C   UNL A   1      40.889  21.267  26.186  1.00  0.00     0.202 C 
BRANCH   3   4
ATOM      4  C   UNL A   1      40.726  22.460  27.134  1.00  0.00     0.261 C 
BRANCH   4   5
ATOM      5  O   UNL A   1      40.697  23.749  26.481  1.00  0.00    -0.460 OA
BRANCH   5   6
ATOM      6  C   UNL A   1      41.473  24.844  26.604  1.00  0.00     0.338 C 
ATOM      7  O   UNL A   1      42.345  25.058  25.761  1.00  0.00    -0.246 OA
BRANCH   6   8
ATOM      8  C   UNL A   1      41.342  25.790  27.737  1.00  0.00     0.060 A 
ATOM      9  C   UNL A   1      42.257  26.805  28.010  1.00  0.00     0.016 A 
ATOM     10  C   UNL A   1      40.146  25.765  28.457  1.00  0.00     0.016 A 
ATOM     11  C   UNL A   1      42.069  27.699  29.063  1.00  0.00     0.010 A 
ATOM     12  C   UNL A   1      39.908  26.712  29.455  1.00  0.00     0.010 A 
ATOM     13  C   UNL A   1      40.891  27.656  29.798  1.00  0.00    -0.014 A 
BRANCH  13  14
ATOM     14  C   UNL A   1      40.720  28.465  31.026  1.00  0.00     0.031 A 
ATOM     15  C   UNL A   1      39.665  29.531  30.992  1.00  0.00     0.074 A 
ATOM     16  C   UNL A   1      41.478  28.280  32.123  1.00  0.00     0.049 A 
ATOM     17  N   UNL A   1      39.475  30.545  31.787  1.00  0.00    -0.248 NA
ATOM     18  C   UNL A   1      38.702  29.443  29.880  1.00  0.00     0.031 C 
ATOM     19  C   UNL A   1      42.442  27.200  32.322  1.00  0.00     0.029 A 
ATOM     20  N   UNL A   1      41.580  29.025  33.272  1.00  0.00    -0.354 N 
ATOM     21  C   UNL A   1      38.408  31.246  31.239  1.00  0.00     0.074 A 
ATOM     22  C   UNL A   1      38.017  30.563  30.028  1.00  0.00     0.031 C 
ATOM     23  C   UNL A   1      43.093  27.391  33.481  1.00  0.00     0.029 A 
ATOM     24  C   UNL A   1      42.606  28.621  34.096  1.00  0.00     0.049 A 
ATOM     25  H   UNL A   1      40.979  29.774  33.485  1.00  0.00     0.167 HD
ATOM     26  C   UNL A   1      37.802  32.356  31.717  1.00  0.00     0.037 A 
ATOM     27  C   UNL A   1      43.118  29.204  35.197  1.00  0.00     0.037 A 
ATOM     28  C   UNL A   1      38.194  32.991  32.943  1.00  0.00     0.049 A 
ATOM     29  C   UNL A   1      42.475  30.470  35.694  1.00  0.00     0.074 A 
ATOM     30  C   UNL A   1      37.669  34.118  33.542  1.00  0.00     0.029 A 
ATOM     31  N   UNL A   1      39.219  32.534  33.763  1.00  0.00    -0.354 N 
ATOM     32  N   UNL A   1      41.486  31.149  35.159  1.00  0.00    -0.248 NA
ATOM     33  C   UNL A   1      42.996  31.045  36.939  1.00  0.00     0.031 C 
ATOM     34  C   UNL A   1      38.399  34.361  34.711  1.00  0.00     0.029 A 
ATOM     35  C   UNL A   1      39.348  33.359  34.863  1.00  0.00     0.049 A 
ATOM     36  H   UNL A   1      39.772  31.739  33.586  1.00  0.00     0.167 HD
ATOM     37  C   UNL A   1      41.235  32.207  36.025  1.00  0.00     0.074 A 
ATOM     38  C   UNL A   1      42.190  32.086  37.110  1.00  0.00     0.031 C 
ATOM     39  C   UNL A   1      40.295  33.181  35.938  1.00  0.00     0.037 A 
BRANCH  26  40
ATOM     40  C   UNL A   1      36.706  32.944  30.872  1.00  0.00     0.058 A 
ATOM     41  C   UNL A   1      36.968  33.909  29.884  1.00  0.00     0.135 A 
ATOM     42  C   UNL A   1      35.366  32.615  31.127  1.00  0.00     0.135 A 
ATOM     43  F   UNL A   1      38.230  34.283  29.620  1.00  0.00    -0.206 F 
ATOM     44  C   UNL A   1      35.937  34.578  29.231  1.00  0.00     0.059 A 
ATOM     45  C   UNL A   1      34.320  33.248  30.462  1.00  0.00     0.059 A 
ATOM     46  F   UNL A   1      35.059  31.702  32.061  1.00  0.00    -0.206 F 
ATOM     47  C   UNL A   1      34.616  34.253  29.542  1.00  0.00     0.060 A 
BRANCH  47  48
ATOM     48  S   UNL A   1      33.287  35.189  28.756  1.00  0.00     0.124 S 
ATOM     49  O   UNL A   1      32.615  34.146  27.989  1.00  0.00    -0.237 OA
ATOM     50  O   UNL A   1      32.548  35.709  29.900  1.00  0.00    -0.237 OA
ATOM     51  O   UNL A   1      34.000  36.190  27.965  1.00  0.00    -0.744 OA
ENDBRANCH  47  48
ENDBRANCH  26  40
BRANCH  27  52
ATOM     52  C   UNL A   1      44.294  28.595  35.877  1.00  0.00     0.058 A 
ATOM     53  C   UNL A   1      45.600  29.016  35.591  1.00  0.00     0.135 A 
ATOM     54  C   UNL A   1      44.128  27.625  36.879  1.00  0.00     0.135 A 
ATOM     55  F   UNL A   1      45.814  29.938  34.642  1.00  0.00    -0.206 F 
ATOM     56  C   UNL A   1      46.699  28.502  36.276  1.00  0.00     0.059 A 
ATOM     57  C   UNL A   1      45.209  27.108  37.589  1.00  0.00     0.059 A 
ATOM     58  F   UNL A   1      42.896  27.200  37.204  1.00  0.00    -0.206 F 
ATOM     59  C   UNL A   1      46.492  27.554  37.280  1.00  0.00     0.060 A 
BRANCH  59  60
ATOM     60  S   UNL A   1      47.919  26.958  38.216  1.00  0.00     0.124 S 
ATOM     61  O   UNL A   1      47.828  25.518  38.006  1.00  0.00    -0.237 OA
ATOM     62  O   UNL A   1      49.026  27.632  37.545  1.00  0.00    -0.237 OA
ATOM     63  O   UNL A   1      47.646  27.416  39.575  1.00  0.00    -0.744 OA
ENDBRANCH  59  60
ENDBRANCH  27  52
BRANCH  39  64
ATOM     64  C   UNL A   1      40.200  34.157  37.071  1.00  0.00     0.058 A 
ATOM     65  C   UNL A   1      40.791  35.425  37.001  1.00  0.00     0.135 A 
ATOM     66  C   UNL A   1      39.385  33.863  38.176  1.00  0.00     0.135 A 
ATOM     67  F   UNL A   1      41.585  35.746  35.966  1.00  0.00    -0.206 F 
ATOM     68  C   UNL A   1      40.563  36.381  37.984  1.00  0.00     0.059 A 
ATOM     69  C   UNL A   1      39.125  34.809  39.160  1.00  0.00     0.059 A 
ATOM     70  F   UNL A   1      38.793  32.662  38.279  1.00  0.00    -0.206 F 
ATOM     71  C   UNL A   1      39.716  36.068  39.052  1.00  0.00     0.060 A 
BRANCH  71  72
ATOM     72  S   UNL A   1      39.340  37.352  40.263  1.00  0.00     0.124 S 
ATOM     73  O   UNL A   1      40.677  37.776  40.665  1.00  0.00    -0.237 OA
ATOM     74  O   UNL A   1      38.579  38.315  39.470  1.00  0.00    -0.237 OA
ATOM     75  O   UNL A   1      38.571  36.643  41.281  1.00  0.00    -0.744 OA
ENDBRANCH  71  72
ENDBRANCH  39  64
ENDBRANCH  13  14
ENDBRANCH   6   8
ENDBRANCH   5   6
ENDBRANCH   4   5
ENDBRANCH   3   4
ENDBRANCH   2   3
ENDBRANCH   1   2
BRANCH   1  76
ATOM     76  C   UNL A   1      37.473  21.070  24.769  1.00  0.00     0.188 C 
BRANCH  76  77
ATOM     77  O   UNL A   1      36.359  21.948  24.748  1.00  0.00    -0.376 OA
BRANCH  77  78
ATOM     78  C   UNL A   1      36.203  22.734  23.572  1.00  0.00     0.202 C 
BRANCH  78  79
ATOM     79  C   UNL A   1      34.938  23.615  23.479  1.00  0.00     0.261 C 
BRANCH  79  80
ATOM     80  O   UNL A   1      34.038  23.414  22.352  1.00  0.00    -0.459 OA
BRANCH  80  81
ATOM     81  C   UNL A   1      32.930  22.654  22.604  1.00  0.00     0.370 C 
ATOM     82  O   UNL A   1      32.383  22.033  21.700  1.00  0.00    -0.245 OA
BRANCH  81  83
ATOM     83  C   UNL A   1      32.456  22.717  24.098  1.00  0.00     0.328 C 
BRANCH  83  84
ATOM     84  N   UNL A   1      31.057  23.257  24.263  1.00  0.00    -0.316 N 
ATOM     85  C   UNL A   1      30.631  23.712  25.600  1.00  0.00     0.284 C 
ATOM     86  C   UNL A   1      30.644  24.334  23.336  1.00  0.00     0.284 C 
ATOM     87  H   UNL A   1      30.589  22.379  24.041  1.00  0.00     0.349 HD
ATOM     88  C   UNL A   1      31.399  24.939  26.092  1.00  0.00     0.178 C 
ATOM     89  C   UNL A   1      31.071  25.790  23.697  1.00  0.00     0.178 C 
ATOM     90  N   UNL A   1      31.235  26.035  25.142  1.00  0.00    -0.360 N 
BRANCH  90  91
ATOM     91  C   UNL A   1      31.395  27.322  25.607  1.00  0.00     0.037 A 
ATOM     92  C   UNL A   1      31.543  28.414  24.745  1.00  0.00     0.026 A 
ATOM     93  C   UNL A   1      31.497  27.542  26.983  1.00  0.00     0.026 A 
ATOM     94  C   UNL A   1      31.801  29.692  25.247  1.00  0.00     0.002 A 
ATOM     95  C   UNL A   1      31.774  28.812  27.490  1.00  0.00     0.002 A 
ATOM     96  C   UNL A   1      31.928  29.888  26.620  1.00  0.00     0.000 A 
ENDBRANCH  90  91
ENDBRANCH  83  84
BRANCH  83  97
ATOM     97  C   UNL A   1      32.756  21.451  24.897  1.00  0.00     0.046 A 
ATOM     98  C   UNL A   1      33.182  21.338  26.211  1.00  0.00     0.094 A 
ATOM     99  C   UNL A   1      32.696  20.089  24.396  1.00  0.00     0.009 A 
ATOM    100  N   UNL A   1      33.380  20.015  26.512  1.00  0.00    -0.361 N 
ATOM    101  C   UNL A   1      33.135  19.236  25.410  1.00  0.00     0.049 A 
ATOM    102  C   UNL A   1      32.377  19.505  23.148  1.00  0.00     0.014 A 
ATOM    103  H   UNL A   1      33.658  19.673  27.392  1.00  0.00     0.166 HD
ATOM    104  C   UNL A   1      33.276  17.851  25.240  1.00  0.00     0.065 A 
ATOM    105  C   UNL A   1      32.497  18.122  22.959  1.00  0.00     0.040 A 
ATOM    106  C   UNL A   1      32.947  17.320  23.995  1.00  0.00     0.125 A 
ATOM    107  F   UNL A   1      33.059  15.998  23.802  1.00  0.00    -0.207 F 
ENDBRANCH  83  97
ENDBRANCH  81  83
ENDBRANCH  80  81
ENDBRANCH  79  80
ENDBRANCH  78  79
ENDBRANCH  77  78
ENDBRANCH  76  77
ENDBRANCH   1  76
TORSDOF 23
ENDMDL
MODEL 3
REMARK VINA RESULT:     -11.3      1.930      8.985
REMARK SMILES O=C(OCCOCCOCCOC(=O)[C@H](c1c[nH]c2cc(F)ccc12)[NH+]1CCN(c2ccccc2)CC1)c1ccc(-c2c3nc(c(-c4c(F)cc(S(=O)(=O)[O-])cc4F)c4ccc([nH]4)c(-c4c(F)cc(S(=O)(=O)[O-])cc4F)c4nc(c(-c5c(F)cc(S(=O)(=O)[O-])cc5F)c5ccc2[nH]5)C=C4)C=C3)cc1
REMARK SMILES IDX 7 1 6 2 5 3 4 4 3 5 2 6 1 7 38 8 39 9 103 10 40 11 102 12
REMARK SMILES IDX 41 13 42 14 43 15 96 16 44 17 101 18 95 19 97 20 45 21
REMARK SMILES IDX 100 22 94 23 93 24 46 26 80 27 59 28 79 29 60 30 63 31 78 32
REMARK SMILES IDX 98 33 61 34 62 35 77 37 99 38 64 39 47 40 48 41 57 42 49 43
REMARK SMILES IDX 50 44 56 45 58 46 51 47 52 48 53 49 54 50 55 51 81 52 82 53
REMARK SMILES IDX 91 54 83 55 84 56 90 57 92 58 85 59 86 60 87 61 88 62 89 63
REMARK SMILES IDX 65 64 66 65 75 66 67 67 68 68 74 69 76 70 69 71 70 72 71 73
REMARK SMILES IDX 72 74 73 75 8 76 9 77 10 78 11 79 12 80 13 81 14 82 15 83
REMARK SMILES IDX 26 84 27 85 37 86 28 88 36 89 29 90 30 91 31 92 35 93 32 94
REMARK SMILES IDX 34 95 33 96 16 97 17 98 25 99 18 100 19 101 24 102 20 104
REMARK SMILES IDX 23 105 21 106 22 107
REMARK H PARENT 97 25 63 36 26 87 18 103
REMARK Flexibility Score: inf
ROOT
ATOM      1  C   UNL A   1      38.516  21.306  25.676  1.00  0.00     0.188 C 
ENDROOT
BRANCH   1   2
ATOM      2  O   UNL A   1      39.380  20.205  25.985  1.00  0.00    -0.376 OA
BRANCH   2   3
ATOM      3  C   UNL A   1      40.713  20.556  26.352  1.00  0.00     0.202 C 
BRANCH   3   4
ATOM      4  C   UNL A   1      40.824  21.841  27.181  1.00  0.00     0.261 C 
BRANCH   4   5
ATOM      5  O   UNL A   1      40.971  23.050  26.402  1.00  0.00    -0.460 OA
BRANCH   5   6
ATOM      6  C   UNL A   1      41.880  24.044  26.434  1.00  0.00     0.338 C 
ATOM      7  O   UNL A   1      42.863  23.981  25.696  1.00  0.00    -0.246 OA
BRANCH   6   8
ATOM      8  C   UNL A   1      41.762  25.201  27.353  1.00  0.00     0.060 A 
ATOM      9  C   UNL A   1      42.554  26.345  27.264  1.00  0.00     0.016 A 
ATOM     10  C   UNL A   1      40.683  25.209  28.239  1.00  0.00     0.016 A 
ATOM     11  C   UNL A   1      42.377  27.427  28.125  1.00  0.00     0.010 A 
ATOM     12  C   UNL A   1      40.443  26.324  29.042  1.00  0.00     0.010 A 
ATOM     13  C   UNL A   1      41.320  27.423  29.026  1.00  0.00    -0.014 A 
BRANCH  13  14
ATOM     14  C   UNL A   1      41.195  28.465  30.070  1.00  0.00     0.031 A 
ATOM     15  C   UNL A   1      42.095  28.338  31.264  1.00  0.00     0.074 A 
ATOM     16  C   UNL A   1      40.308  29.474  29.979  1.00  0.00     0.049 A 
ATOM     17  N   UNL A   1      42.027  28.919  32.427  1.00  0.00    -0.248 NA
ATOM     18  C   UNL A   1      43.220  27.397  31.120  1.00  0.00     0.031 C 
ATOM     19  C   UNL A   1      39.474  29.774  28.818  1.00  0.00     0.029 A 
ATOM     20  N   UNL A   1      39.935  30.418  30.904  1.00  0.00    -0.354 N 
ATOM     21  C   UNL A   1      43.065  28.373  33.172  1.00  0.00     0.074 A 
ATOM     22  C   UNL A   1      43.723  27.390  32.341  1.00  0.00     0.031 C 
ATOM     23  C   UNL A   1      38.634  30.777  29.120  1.00  0.00     0.029 A 
ATOM     24  C   UNL A   1      38.857  31.175  30.506  1.00  0.00     0.049 A 
ATOM     25  H   UNL A   1      40.394  30.542  31.765  1.00  0.00     0.167 HD
ATOM     26  C   UNL A   1      43.441  28.678  34.434  1.00  0.00     0.037 A 
ATOM     27  C   UNL A   1      38.110  32.056  31.199  1.00  0.00     0.037 A 
ATOM     28  C   UNL A   1      42.786  29.684  35.220  1.00  0.00     0.049 A 
ATOM     29  C   UNL A   1      38.499  32.351  32.622  1.00  0.00     0.074 A 
ATOM     30  C   UNL A   1      43.062  30.093  36.510  1.00  0.00     0.029 A 
ATOM     31  N   UNL A   1      41.716  30.448  34.771  1.00  0.00    -0.354 N 
ATOM     32  N   UNL A   1      39.462  31.813  33.335  1.00  0.00    -0.248 NA
ATOM     33  C   UNL A   1      37.723  33.374  33.333  1.00  0.00     0.031 C 
ATOM     34  C   UNL A   1      42.136  31.084  36.851  1.00  0.00     0.029 A 
ATOM     35  C   UNL A   1      41.313  31.326  35.759  1.00  0.00     0.049 A 
ATOM     36  H   UNL A   1      41.304  30.376  33.879  1.00  0.00     0.167 HD
ATOM     37  C   UNL A   1      39.437  32.461  34.564  1.00  0.00     0.074 A 
ATOM     38  C   UNL A   1      38.351  33.420  34.502  1.00  0.00     0.031 C 
ATOM     39  C   UNL A   1      40.244  32.288  35.640  1.00  0.00     0.037 A 
BRANCH  26  40
ATOM     40  C   UNL A   1      44.567  27.870  35.017  1.00  0.00     0.058 A 
ATOM     41  C   UNL A   1      44.337  26.680  35.729  1.00  0.00     0.135 A 
ATOM     42  C   UNL A   1      45.885  28.349  34.952  1.00  0.00     0.135 A 
ATOM     43  F   UNL A   1      43.091  26.194  35.848  1.00  0.00    -0.206 F 
ATOM     44  C   UNL A   1      45.360  26.035  36.417  1.00  0.00     0.059 A 
ATOM     45  C   UNL A   1      46.929  27.701  35.604  1.00  0.00     0.059 A 
ATOM     46  F   UNL A   1      46.162  29.481  34.287  1.00  0.00    -0.206 F 
ATOM     47  C   UNL A   1      46.650  26.565  36.363  1.00  0.00     0.060 A 
BRANCH  47  48
ATOM     48  S   UNL A   1      47.952  25.772  37.330  1.00  0.00     0.124 S 
ATOM     49  O   UNL A   1      49.091  26.635  37.043  1.00  0.00    -0.237 OA
ATOM     50  O   UNL A   1      47.426  25.847  38.688  1.00  0.00    -0.237 OA
ATOM     51  O   UNL A   1      48.023  24.427  36.762  1.00  0.00    -0.744 OA
ENDBRANCH  47  48
ENDBRANCH  26  40
BRANCH  27  52
ATOM     52  C   UNL A   1      36.933  32.698  30.552  1.00  0.00     0.058 A 
ATOM     53  C   UNL A   1      35.631  32.232  30.780  1.00  0.00     0.135 A 
ATOM     54  C   UNL A   1      37.084  33.838  29.744  1.00  0.00     0.135 A 
ATOM     55  F   UNL A   1      35.432  31.147  31.542  1.00  0.00    -0.206 F 
ATOM     56  C   UNL A   1      34.520  32.873  30.235  1.00  0.00     0.059 A 
ATOM     57  C   UNL A   1      35.988  34.506  29.202  1.00  0.00     0.059 A 
ATOM     58  F   UNL A   1      38.308  34.337  29.509  1.00  0.00    -0.206 F 
ATOM     59  C   UNL A   1      34.708  34.015  29.455  1.00  0.00     0.060 A 
BRANCH  59  60
ATOM     60  S   UNL A   1      33.253  34.883  28.825  1.00  0.00     0.124 S 
ATOM     61  O   UNL A   1      33.852  36.085  28.255  1.00  0.00    -0.237 OA
ATOM     62  O   UNL A   1      32.717  33.922  27.867  1.00  0.00    -0.237 OA
ATOM     63  O   UNL A   1      32.440  35.088  30.019  1.00  0.00    -0.744 OA
ENDBRANCH  59  60
ENDBRANCH  27  52
BRANCH  39  64
ATOM     64  C   UNL A   1      40.036  33.193  36.816  1.00  0.00     0.058 A 
ATOM     65  C   UNL A   1      39.132  32.876  37.838  1.00  0.00     0.135 A 
ATOM     66  C   UNL A   1      40.861  34.317  36.984  1.00  0.00     0.135 A 
ATOM     67  F   UNL A   1      38.318  31.815  37.716  1.00  0.00    -0.206 F 
ATOM     68  C   UNL A   1      39.063  33.635  39.000  1.00  0.00     0.059 A 
ATOM     69  C   UNL A   1      40.825  35.078  38.145  1.00  0.00     0.059 A 
ATOM     70  F   UNL A   1      41.748  34.653  36.032  1.00  0.00    -0.206 F 
ATOM     71  C   UNL A   1      39.925  34.726  39.150  1.00  0.00     0.060 A 
BRANCH  71  72
ATOM     72  S   UNL A   1      39.903  35.638  40.708  1.00  0.00     0.124 S 
ATOM     73  O   UNL A   1      39.665  34.568  41.671  1.00  0.00    -0.237 OA
ATOM     74  O   UNL A   1      41.235  36.236  40.738  1.00  0.00    -0.237 OA
ATOM     75  O   UNL A   1      38.804  36.583  40.532  1.00  0.00    -0.744 OA
ENDBRANCH  71  72
ENDBRANCH  39  64
ENDBRANCH  13  14
ENDBRANCH   6   8
ENDBRANCH   5   6
ENDBRANCH   4   5
ENDBRANCH   3   4
ENDBRANCH   2   3
ENDBRANCH   1   2
BRANCH   1  76
ATOM     76  C   UNL A   1      37.445  20.893  24.671  1.00  0.00     0.188 C 
BRANCH  76  77
ATOM     77  O   UNL A   1      36.366  21.814  24.673  1.00  0.00    -0.376 OA
BRANCH  77  78
ATOM     78  C   UNL A   1      36.236  22.629  23.514  1.00  0.00     0.202 C 
BRANCH  78  79
ATOM     79  C   UNL A   1      35.154  23.731  23.547  1.00  0.00     0.261 C 
BRANCH  79  80
ATOM     80  O   UNL A   1      34.123  23.719  22.520  1.00  0.00    -0.459 OA
BRANCH  80  81
ATOM     81  C   UNL A   1      33.059  22.894  22.754  1.00  0.00     0.370 C 
ATOM     82  O   UNL A   1      32.567  22.240  21.842  1.00  0.00    -0.245 OA
BRANCH  81  83
ATOM     83  C   UNL A   1      32.555  22.930  24.239  1.00  0.00     0.328 C 
BRANCH  83  84
ATOM     84  N   UNL A   1      31.163  23.491  24.388  1.00  0.00    -0.316 N 
ATOM     85  C   UNL A   1      30.748  24.002  25.709  1.00  0.00     0.284 C 
ATOM     86  C   UNL A   1      30.755  24.533  23.422  1.00  0.00     0.284 C 
ATOM     87  H   UNL A   1      30.685  22.609  24.205  1.00  0.00     0.349 HD
ATOM     88  C   UNL A   1      31.530  25.240  26.148  1.00  0.00     0.178 C 
ATOM     89  C   UNL A   1      31.199  25.999  23.722  1.00  0.00     0.178 C 
ATOM     90  N   UNL A   1      31.372  26.300  25.155  1.00  0.00    -0.360 N 
BRANCH  90  91
ATOM     91  C   UNL A   1      31.547  27.602  25.568  1.00  0.00     0.037 A 
ATOM     92  C   UNL A   1      31.895  27.927  26.884  1.00  0.00     0.026 A 
ATOM     93  C   UNL A   1      31.289  28.643  24.672  1.00  0.00     0.026 A 
ATOM     94  C   UNL A   1      31.970  29.260  27.296  1.00  0.00     0.002 A 
ATOM     95  C   UNL A   1      31.343  29.975  25.081  1.00  0.00     0.002 A 
ATOM     96  C   UNL A   1      31.682  30.284  26.396  1.00  0.00     0.000 A 
ENDBRANCH  90  91
ENDBRANCH  83  84
BRANCH  83  97
ATOM     97  C   UNL A   1      32.818  21.641  25.014  1.00  0.00     0.046 A 
ATOM     98  C   UNL A   1      33.258  21.491  26.319  1.00  0.00     0.094 A 
ATOM     99  C   UNL A   1      32.698  20.291  24.493  1.00  0.00     0.009 A 
ATOM    100  N   UNL A   1      33.410  20.157  26.597  1.00  0.00    -0.361 N 
ATOM    101  C   UNL A   1      33.119  19.406  25.486  1.00  0.00     0.049 A 
ATOM    102  C   UNL A   1      32.338  19.739  23.241  1.00  0.00     0.014 A 
ATOM    103  H   UNL A   1      33.688  19.791  27.467  1.00  0.00     0.166 HD
ATOM    104  C   UNL A   1      33.203  18.019  25.293  1.00  0.00     0.065 A 
ATOM    105  C   UNL A   1      32.401  18.356  23.029  1.00  0.00     0.040 A 
ATOM    106  C   UNL A   1      32.834  17.521  24.046  1.00  0.00     0.125 A 
ATOM    107  F   UNL A   1      32.892  16.199  23.831  1.00  0.00    -0.207 F 
ENDBRANCH  83  97
ENDBRANCH  81  83
ENDBRANCH  80  81
ENDBRANCH  79  80
ENDBRANCH  78  79
ENDBRANCH  77  78
ENDBRANCH  76  77
ENDBRANCH   1  76
TORSDOF 23
ENDMDL
