MODEL 1
REMARK VINA RESULT:     -10.5      0.000      0.000
REMARK SMILES C/C(=N\Nc1ccccc1C(=O)OCCOCCOCCOC(=O)c1ccc(-c2c3nc(c(-c4c(F)cc(S(=O)(=O)[O-])cc4F)c4ccc([nH]4)c(-c4c(F)cc(S(=O)(=O)[O-])cc4F)c4nc(c(-c5c(F)cc(S(=O)(=O)[O-])cc5F)c5ccc2[nH]5)C=C4)C=C3)cc1)c1ccc(S(C)(=O)=O)cc1
REMARK SMILES IDX 17 1 16 2 15 3 14 4 13 5 11 6 12 7 10 8 5 9 6 10 7 11 9 12
REMARK SMILES IDX 8 13 4 14 3 16 1 17 2 18 91 19 92 20 100 21 93 22 99 23
REMARK SMILES IDX 94 24 95 25 96 26 97 27 98 28 18 29 19 30 20 31 21 32 22 33
REMARK SMILES IDX 23 34 24 35 25 36 26 37 90 38 27 39 89 40 28 41 29 42 30 43
REMARK SMILES IDX 83 44 31 45 88 46 82 47 84 48 32 49 87 50 81 51 80 52 33 54
REMARK SMILES IDX 67 55 46 56 66 57 47 58 50 59 65 60 85 61 48 62 49 63 64 65
REMARK SMILES IDX 86 66 51 67 34 68 35 69 44 70 36 71 37 72 43 73 45 74 38 75
REMARK SMILES IDX 39 76 40 77 41 78 42 79 68 80 69 81 78 82 70 83 71 84 77 85
REMARK SMILES IDX 79 86 72 87 73 88 74 89 75 90 76 91 52 92 53 93 62 94 54 95
REMARK SMILES IDX 55 96 61 97 63 98 56 99 57 100 58 101 59 102 60 103
REMARK H PARENT 4 15 84 53 50 64
REMARK Flexibility Score: inf
ROOT
ATOM      1  C   UNL A   1      33.056  31.394  27.561  1.00  0.00     0.188 C 
ENDROOT
BRANCH   1   2
ATOM      2  O   UNL A   1      33.465  30.496  26.553  1.00  0.00    -0.376 OA
BRANCH   2   3
ATOM      3  C   UNL A   1      34.018  29.251  26.934  1.00  0.00     0.202 C 
BRANCH   3   4
ATOM      4  C   UNL A   1      33.300  27.910  26.745  1.00  0.00     0.261 C 
BRANCH   4   5
ATOM      5  O   UNL A   1      33.911  26.950  25.879  1.00  0.00    -0.460 OA
BRANCH   5   6
ATOM      6  C   UNL A   1      33.407  25.693  25.914  1.00  0.00     0.340 C 
ATOM      7  O   UNL A   1      32.398  25.341  26.507  1.00  0.00    -0.246 OA
BRANCH   6   8
ATOM      8  C   UNL A   1      34.138  24.787  24.992  1.00  0.00     0.085 A 
ATOM      9  C   UNL A   1      33.623  24.254  23.794  1.00  0.00     0.071 A 
ATOM     10  C   UNL A   1      34.476  23.410  23.042  1.00  0.00     0.028 A 
ATOM     11  C   UNL A   1      35.777  23.104  23.452  1.00  0.00     0.002 A 
ATOM     12  C   UNL A   1      35.453  24.468  25.402  1.00  0.00     0.018 A 
ATOM     13  C   UNL A   1      36.267  23.635  24.636  1.00  0.00     0.001 A 
BRANCH   9  14
ATOM     14  N   UNL A   1      32.399  24.586  23.155  1.00  0.00    -0.277 N 
ATOM     15  H   UNL A   1      31.885  23.845  22.758  1.00  0.00     0.190 HD
BRANCH  14  16
ATOM     16  N   UNL A   1      31.879  25.825  23.042  1.00  0.00    -0.180 NA
ATOM     17  C   UNL A   1      29.839  25.112  24.303  1.00  0.00     0.069 C 
ATOM     18  C   UNL A   1      30.708  26.099  23.544  1.00  0.00     0.065 C 
BRANCH  18  19
ATOM     19  C   UNL A   1      30.144  27.472  23.288  1.00  0.00    -0.002 A 
ATOM     20  C   UNL A   1      28.751  27.648  23.208  1.00  0.00     0.011 A 
ATOM     21  C   UNL A   1      30.973  28.601  23.265  1.00  0.00     0.011 A 
ATOM     22  C   UNL A   1      28.192  28.932  23.181  1.00  0.00     0.021 A 
ATOM     23  C   UNL A   1      30.422  29.883  23.205  1.00  0.00     0.021 A 
ATOM     24  C   UNL A   1      29.036  30.043  23.184  1.00  0.00     0.067 A 
BRANCH  24  25
ATOM     25  S   UNL A   1      28.351  31.682  23.200  1.00  0.00     0.175 S 
ATOM     26  C   UNL A   1      28.276  32.151  21.494  1.00  0.00     0.163 C 
ATOM     27  O   UNL A   1      26.995  31.569  23.700  1.00  0.00    -0.224 OA
ATOM     28  O   UNL A   1      29.320  32.554  23.834  1.00  0.00    -0.224 OA
ENDBRANCH  24  25
ENDBRANCH  18  19
ENDBRANCH  14  16
ENDBRANCH   9  14
ENDBRANCH   6   8
ENDBRANCH   5   6
ENDBRANCH   4   5
ENDBRANCH   3   4
ENDBRANCH   2   3
ENDBRANCH   1   2
BRANCH   1  29
ATOM     29  C   UNL A   1      33.823  32.730  27.697  1.00  0.00     0.188 C 
BRANCH  29  30
ATOM     30  O   UNL A   1      33.688  33.470  28.888  1.00  0.00    -0.376 OA
BRANCH  30  31
ATOM     31  C   UNL A   1      34.795  34.166  29.431  1.00  0.00     0.202 C 
BRANCH  31  32
ATOM     32  C   UNL A   1      36.284  33.807  29.225  1.00  0.00     0.261 C 
BRANCH  32  33
ATOM     33  O   UNL A   1      36.997  33.208  30.309  1.00  0.00    -0.460 OA
BRANCH  33  34
ATOM     34  C   UNL A   1      36.719  31.900  30.560  1.00  0.00     0.338 C 
ATOM     35  O   UNL A   1      35.643  31.426  30.864  1.00  0.00    -0.246 OA
BRANCH  34  36
ATOM     36  C   UNL A   1      37.893  31.095  30.148  1.00  0.00     0.060 A 
ATOM     37  C   UNL A   1      38.776  30.634  31.140  1.00  0.00     0.016 A 
ATOM     38  C   UNL A   1      38.088  30.738  28.813  1.00  0.00     0.016 A 
ATOM     39  C   UNL A   1      39.867  29.835  30.796  1.00  0.00     0.010 A 
ATOM     40  C   UNL A   1      39.203  29.970  28.464  1.00  0.00     0.010 A 
ATOM     41  C   UNL A   1      40.116  29.544  29.449  1.00  0.00    -0.014 A 
BRANCH  41  42
ATOM     42  C   UNL A   1      41.457  29.054  29.045  1.00  0.00     0.031 A 
ATOM     43  C   UNL A   1      42.583  30.055  29.038  1.00  0.00     0.074 A 
ATOM     44  C   UNL A   1      41.690  27.771  28.712  1.00  0.00     0.049 A 
ATOM     45  N   UNL A   1      43.828  29.907  28.669  1.00  0.00    -0.248 NA
ATOM     46  C   UNL A   1      42.251  31.412  29.506  1.00  0.00     0.031 C 
ATOM     47  C   UNL A   1      40.700  26.697  28.724  1.00  0.00     0.029 A 
ATOM     48  N   UNL A   1      42.844  27.161  28.285  1.00  0.00    -0.354 N 
ATOM     49  C   UNL A   1      44.422  31.151  28.851  1.00  0.00     0.074 A 
ATOM     50  C   UNL A   1      43.396  32.050  29.330  1.00  0.00     0.031 C 
ATOM     51  C   UNL A   1      41.287  25.560  28.303  1.00  0.00     0.029 A 
ATOM     52  C   UNL A   1      42.684  25.834  27.963  1.00  0.00     0.049 A 
ATOM     53  H   UNL A   1      43.707  27.630  28.217  1.00  0.00     0.167 HD
ATOM     54  C   UNL A   1      45.709  31.513  28.643  1.00  0.00     0.037 A 
ATOM     55  C   UNL A   1      43.559  24.954  27.432  1.00  0.00     0.037 A 
ATOM     56  C   UNL A   1      46.727  30.620  28.159  1.00  0.00     0.049 A 
ATOM     57  C   UNL A   1      44.972  25.399  27.137  1.00  0.00     0.074 A 
ATOM     58  C   UNL A   1      48.064  30.887  27.928  1.00  0.00     0.029 A 
ATOM     59  N   UNL A   1      46.519  29.291  27.821  1.00  0.00    -0.354 N 
ATOM     60  N   UNL A   1      45.530  26.571  27.336  1.00  0.00    -0.248 NA
ATOM     61  C   UNL A   1      45.877  24.399  26.551  1.00  0.00     0.031 C 
ATOM     62  C   UNL A   1      48.653  29.736  27.393  1.00  0.00     0.029 A 
ATOM     63  C   UNL A   1      47.698  28.731  27.357  1.00  0.00     0.049 A 
ATOM     64  H   UNL A   1      45.660  28.816  27.898  1.00  0.00     0.167 HD
ATOM     65  C   UNL A   1      46.856  26.438  26.930  1.00  0.00     0.074 A 
ATOM     66  C   UNL A   1      47.020  25.069  26.488  1.00  0.00     0.031 C 
ATOM     67  C   UNL A   1      47.850  27.362  26.928  1.00  0.00     0.037 A 
BRANCH  54  68
ATOM     68  C   UNL A   1      46.078  32.947  28.911  1.00  0.00     0.058 A 
ATOM     69  C   UNL A   1      46.551  33.371  30.163  1.00  0.00     0.135 A 
ATOM     70  C   UNL A   1      45.973  33.908  27.891  1.00  0.00     0.135 A 
ATOM     71  F   UNL A   1      46.648  32.500  31.180  1.00  0.00    -0.206 F 
ATOM     72  C   UNL A   1      46.883  34.701  30.403  1.00  0.00     0.059 A 
ATOM     73  C   UNL A   1      46.330  35.236  28.100  1.00  0.00     0.059 A 
ATOM     74  F   UNL A   1      45.519  33.559  26.678  1.00  0.00    -0.206 F 
ATOM     75  C   UNL A   1      46.770  35.626  29.363  1.00  0.00     0.060 A 
BRANCH  75  76
ATOM     76  S   UNL A   1      47.217  37.344  29.689  1.00  0.00     0.124 S 
ATOM     77  O   UNL A   1      46.275  38.057  28.831  1.00  0.00    -0.237 OA
ATOM     78  O   UNL A   1      46.979  37.460  31.123  1.00  0.00    -0.237 OA
ATOM     79  O   UNL A   1      48.616  37.416  29.279  1.00  0.00    -0.744 OA
ENDBRANCH  75  76
ENDBRANCH  54  68
BRANCH  55  80
ATOM     80  C   UNL A   1      43.129  23.560  27.126  1.00  0.00     0.058 A 
ATOM     81  C   UNL A   1      43.038  22.589  28.137  1.00  0.00     0.135 A 
ATOM     82  C   UNL A   1      42.820  23.163  25.815  1.00  0.00     0.135 A 
ATOM     83  F   UNL A   1      43.341  22.911  29.404  1.00  0.00    -0.206 F 
ATOM     84  C   UNL A   1      42.676  21.274  27.858  1.00  0.00     0.059 A 
ATOM     85  C   UNL A   1      42.426  21.861  25.516  1.00  0.00     0.059 A 
ATOM     86  F   UNL A   1      42.889  24.050  24.811  1.00  0.00    -0.206 F 
ATOM     87  C   UNL A   1      42.366  20.921  26.543  1.00  0.00     0.060 A 
BRANCH  87  88
ATOM     88  S   UNL A   1      41.850  19.224  26.203  1.00  0.00     0.124 S 
ATOM     89  O   UNL A   1      40.434  19.401  25.903  1.00  0.00    -0.237 OA
ATOM     90  O   UNL A   1      42.702  18.868  25.073  1.00  0.00    -0.237 OA
ATOM     91  O   UNL A   1      42.148  18.525  27.449  1.00  0.00    -0.744 OA
ENDBRANCH  87  88
ENDBRANCH  55  80
BRANCH  67  92
ATOM     92  C   UNL A   1      49.220  26.921  26.480  1.00  0.00     0.058 A 
ATOM     93  C   UNL A   1      50.147  26.353  27.366  1.00  0.00     0.135 A 
ATOM     94  C   UNL A   1      49.588  27.021  25.127  1.00  0.00     0.135 A 
ATOM     95  F   UNL A   1      49.851  26.232  28.670  1.00  0.00    -0.206 F 
ATOM     96  C   UNL A   1      51.402  25.929  26.935  1.00  0.00     0.059 A 
ATOM     97  C   UNL A   1      50.822  26.573  24.667  1.00  0.00     0.059 A 
ATOM     98  F   UNL A   1      48.735  27.543  24.231  1.00  0.00    -0.206 F 
ATOM     99  C   UNL A   1      51.730  26.042  25.582  1.00  0.00     0.060 A 
BRANCH  99 100
ATOM    100  S   UNL A   1      53.351  25.469  25.033  1.00  0.00     0.124 S 
ATOM    101  O   UNL A   1      53.295  25.756  23.603  1.00  0.00    -0.237 OA
ATOM    102  O   UNL A   1      54.259  26.305  25.813  1.00  0.00    -0.237 OA
ATOM    103  O   UNL A   1      53.351  24.053  25.388  1.00  0.00    -0.744 OA
ENDBRANCH  99 100
ENDBRANCH  67  92
ENDBRANCH  41  42
ENDBRANCH  34  36
ENDBRANCH  33  34
ENDBRANCH  32  33
ENDBRANCH  31  32
ENDBRANCH  30  31
ENDBRANCH  29  30
ENDBRANCH   1  29
TORSDOF 24
ENDMDL
MODEL 2
REMARK VINA RESULT:     -10.3      1.762      8.717
REMARK SMILES C/C(=N\Nc1ccccc1C(=O)OCCOCCOCCOC(=O)c1ccc(-c2c3nc(c(-c4c(F)cc(S(=O)(=O)[O-])cc4F)c4ccc([nH]4)c(-c4c(F)cc(S(=O)(=O)[O-])cc4F)c4nc(c(-c5c(F)cc(S(=O)(=O)[O-])cc5F)c5ccc2[nH]5)C=C4)C=C3)cc1)c1ccc(S(C)(=O)=O)cc1
REMARK SMILES IDX 17 1 16 2 15 3 14 4 13 5 11 6 12 7 10 8 5 9 6 10 7 11 9 12
REMARK SMILES IDX 8 13 4 14 3 16 1 17 2 18 91 19 92 20 100 21 93 22 99 23
REMARK SMILES IDX 94 24 95 25 96 26 97 27 98 28 18 29 19 30 20 31 21 32 22 33
REMARK SMILES IDX 23 34 24 35 25 36 26 37 90 38 27 39 89 40 28 41 29 42 30 43
REMARK SMILES IDX 83 44 31 45 88 46 82 47 84 48 32 49 87 50 81 51 80 52 33 54
REMARK SMILES IDX 67 55 46 56 66 57 47 58 50 59 65 60 85 61 48 62 49 63 64 65
REMARK SMILES IDX 86 66 51 67 34 68 35 69 44 70 36 71 37 72 43 73 45 74 38 75
REMARK SMILES IDX 39 76 40 77 41 78 42 79 68 80 69 81 78 82 70 83 71 84 77 85
REMARK SMILES IDX 79 86 72 87 73 88 74 89 75 90 76 91 52 92 53 93 62 94 54 95
REMARK SMILES IDX 55 96 61 97 63 98 56 99 57 100 58 101 59 102 60 103
REMARK H PARENT 4 15 84 53 50 64
REMARK Flexibility Score: inf
ROOT
ATOM      1  C   UNL A   1      34.916  31.119  27.618  1.00  0.00     0.188 C 
ENDROOT
BRANCH   1   2
ATOM      2  O   UNL A   1      34.105  30.044  27.197  1.00  0.00    -0.376 OA
BRANCH   2   3
ATOM      3  C   UNL A   1      32.922  30.326  26.475  1.00  0.00     0.202 C 
BRANCH   3   4
ATOM      4  C   UNL A   1      31.668  29.446  26.525  1.00  0.00     0.261 C 
BRANCH   4   5
ATOM      5  O   UNL A   1      31.588  28.358  25.601  1.00  0.00    -0.460 OA
BRANCH   5   6
ATOM      6  C   UNL A   1      31.575  28.678  24.284  1.00  0.00     0.340 C 
ATOM      7  O   UNL A   1      32.530  28.626  23.525  1.00  0.00    -0.246 OA
BRANCH   6   8
ATOM      8  C   UNL A   1      30.196  28.952  23.803  1.00  0.00     0.085 A 
ATOM      9  C   UNL A   1      29.220  27.975  23.531  1.00  0.00     0.071 A 
ATOM     10  C   UNL A   1      27.955  28.432  23.085  1.00  0.00     0.028 A 
ATOM     11  C   UNL A   1      27.667  29.788  22.914  1.00  0.00     0.002 A 
ATOM     12  C   UNL A   1      29.898  30.322  23.624  1.00  0.00     0.018 A 
ATOM     13  C   UNL A   1      28.642  30.737  23.185  1.00  0.00     0.001 A 
BRANCH   9  14
ATOM     14  N   UNL A   1      29.288  26.583  23.801  1.00  0.00    -0.277 N 
ATOM     15  H   UNL A   1      28.453  26.136  24.072  1.00  0.00     0.190 HD
BRANCH  14  16
ATOM     16  N   UNL A   1      30.395  25.818  23.718  1.00  0.00    -0.180 NA
ATOM     17  C   UNL A   1      30.072  25.047  26.076  1.00  0.00     0.069 C 
ATOM     18  C   UNL A   1      30.790  25.112  24.740  1.00  0.00     0.065 C 
BRANCH  18  19
ATOM     19  C   UNL A   1      32.093  24.366  24.611  1.00  0.00    -0.002 A 
ATOM     20  C   UNL A   1      32.513  23.916  23.346  1.00  0.00     0.011 A 
ATOM     21  C   UNL A   1      32.959  24.230  25.703  1.00  0.00     0.011 A 
ATOM     22  C   UNL A   1      33.806  23.410  23.160  1.00  0.00     0.021 A 
ATOM     23  C   UNL A   1      34.238  23.695  25.528  1.00  0.00     0.021 A 
ATOM     24  C   UNL A   1      34.661  23.306  24.257  1.00  0.00     0.067 A 
BRANCH  24  25
ATOM     25  S   UNL A   1      36.321  22.713  24.039  1.00  0.00     0.175 S 
ATOM     26  C   UNL A   1      37.293  23.686  25.154  1.00  0.00     0.163 C 
ATOM     27  O   UNL A   1      36.344  21.339  24.499  1.00  0.00    -0.224 OA
ATOM     28  O   UNL A   1      36.740  23.067  22.697  1.00  0.00    -0.224 OA
ENDBRANCH  24  25
ENDBRANCH  18  19
ENDBRANCH  14  16
ENDBRANCH   9  14
ENDBRANCH   6   8
ENDBRANCH   5   6
ENDBRANCH   4   5
ENDBRANCH   3   4
ENDBRANCH   2   3
ENDBRANCH   1   2
BRANCH   1  29
ATOM     29  C   UNL A   1      34.310  32.141  28.607  1.00  0.00     0.188 C 
BRANCH  29  30
ATOM     30  O   UNL A   1      34.706  33.491  28.513  1.00  0.00    -0.376 OA
BRANCH  30  31
ATOM     31  C   UNL A   1      35.663  34.023  29.411  1.00  0.00     0.202 C 
BRANCH  31  32
ATOM     32  C   UNL A   1      37.077  33.457  29.671  1.00  0.00     0.261 C 
BRANCH  32  33
ATOM     33  O   UNL A   1      37.331  32.804  30.917  1.00  0.00    -0.460 OA
BRANCH  33  34
ATOM     34  C   UNL A   1      37.165  31.453  30.931  1.00  0.00     0.338 C 
ATOM     35  O   UNL A   1      36.134  30.846  31.135  1.00  0.00    -0.246 OA
BRANCH  34  36
ATOM     36  C   UNL A   1      38.402  30.835  30.397  1.00  0.00     0.060 A 
ATOM     37  C   UNL A   1      39.425  30.489  31.297  1.00  0.00     0.016 A 
ATOM     38  C   UNL A   1      38.527  30.534  29.040  1.00  0.00     0.016 A 
ATOM     39  C   UNL A   1      40.584  29.863  30.838  1.00  0.00     0.010 A 
ATOM     40  C   UNL A   1      39.706  29.942  28.575  1.00  0.00     0.010 A 
ATOM     41  C   UNL A   1      40.753  29.636  29.466  1.00  0.00    -0.014 A 
BRANCH  41  42
ATOM     42  C   UNL A   1      42.110  29.352  28.936  1.00  0.00     0.031 A 
ATOM     43  C   UNL A   1      42.383  27.950  28.458  1.00  0.00     0.074 A 
ATOM     44  C   UNL A   1      43.068  30.293  28.858  1.00  0.00     0.049 A 
ATOM     45  N   UNL A   1      43.492  27.422  28.011  1.00  0.00    -0.248 NA
ATOM     46  C   UNL A   1      41.245  27.015  28.497  1.00  0.00     0.031 C 
ATOM     47  C   UNL A   1      42.919  31.694  29.242  1.00  0.00     0.029 A 
ATOM     48  N   UNL A   1      44.372  30.197  28.434  1.00  0.00    -0.354 N 
ATOM     49  C   UNL A   1      43.188  26.095  27.728  1.00  0.00     0.074 A 
ATOM     50  C   UNL A   1      41.802  25.888  28.083  1.00  0.00     0.031 C 
ATOM     51  C   UNL A   1      44.093  32.325  29.054  1.00  0.00     0.029 A 
ATOM     52  C   UNL A   1      45.085  31.365  28.566  1.00  0.00     0.049 A 
ATOM     53  H   UNL A   1      44.760  29.369  28.069  1.00  0.00     0.167 HD
ATOM     54  C   UNL A   1      43.988  25.134  27.212  1.00  0.00     0.037 A 
ATOM     55  C   UNL A   1      46.392  31.619  28.343  1.00  0.00     0.037 A 
ATOM     56  C   UNL A   1      45.369  25.340  26.866  1.00  0.00     0.049 A 
ATOM     57  C   UNL A   1      47.287  30.512  27.838  1.00  0.00     0.074 A 
ATOM     58  C   UNL A   1      46.262  24.432  26.325  1.00  0.00     0.029 A 
ATOM     59  N   UNL A   1      46.061  26.529  27.039  1.00  0.00    -0.354 N 
ATOM     60  N   UNL A   1      46.983  29.267  27.550  1.00  0.00    -0.248 NA
ATOM     61  C   UNL A   1      48.703  30.846  27.621  1.00  0.00     0.031 C 
ATOM     62  C   UNL A   1      47.510  25.056  26.225  1.00  0.00     0.029 A 
ATOM     63  C   UNL A   1      47.377  26.373  26.639  1.00  0.00     0.049 A 
ATOM     64  H   UNL A   1      45.673  27.361  27.393  1.00  0.00     0.167 HD
ATOM     65  C   UNL A   1      48.160  28.682  27.089  1.00  0.00     0.074 A 
ATOM     66  C   UNL A   1      49.177  29.712  27.124  1.00  0.00     0.031 C 
ATOM     67  C   UNL A   1      48.379  27.410  26.670  1.00  0.00     0.037 A 
BRANCH  54  68
ATOM     68  C   UNL A   1      43.394  23.765  27.021  1.00  0.00     0.058 A 
ATOM     69  C   UNL A   1      43.239  22.867  28.090  1.00  0.00     0.135 A 
ATOM     70  C   UNL A   1      42.956  23.353  25.752  1.00  0.00     0.135 A 
ATOM     71  F   UNL A   1      43.662  23.200  29.321  1.00  0.00    -0.206 F 
ATOM     72  C   UNL A   1      42.695  21.601  27.903  1.00  0.00     0.059 A 
ATOM     73  C   UNL A   1      42.380  22.103  25.548  1.00  0.00     0.059 A 
ATOM     74  F   UNL A   1      43.088  24.168  24.694  1.00  0.00    -0.206 F 
ATOM     75  C   UNL A   1      42.266  21.229  26.627  1.00  0.00     0.060 A 
BRANCH  75  76
ATOM     76  S   UNL A   1      41.552  19.586  26.405  1.00  0.00     0.124 S 
ATOM     77  O   UNL A   1      41.820  18.975  27.703  1.00  0.00    -0.237 OA
ATOM     78  O   UNL A   1      40.153  19.892  26.126  1.00  0.00    -0.237 OA
ATOM     79  O   UNL A   1      42.307  19.035  25.285  1.00  0.00    -0.744 OA
ENDBRANCH  75  76
ENDBRANCH  54  68
BRANCH  55  80
ATOM     80  C   UNL A   1      46.948  32.977  28.606  1.00  0.00     0.058 A 
ATOM     81  C   UNL A   1      47.426  33.333  29.878  1.00  0.00     0.135 A 
ATOM     82  C   UNL A   1      46.993  33.954  27.599  1.00  0.00     0.135 A 
ATOM     83  F   UNL A   1      47.388  32.443  30.881  1.00  0.00    -0.206 F 
ATOM     84  C   UNL A   1      47.911  34.610  30.146  1.00  0.00     0.059 A 
ATOM     85  C   UNL A   1      47.502  35.228  27.835  1.00  0.00     0.059 A 
ATOM     86  F   UNL A   1      46.550  33.668  26.365  1.00  0.00    -0.206 F 
ATOM     87  C   UNL A   1      47.950  35.550  29.115  1.00  0.00     0.060 A 
BRANCH  87  88
ATOM     88  S   UNL A   1      48.628  37.188  29.464  1.00  0.00     0.124 S 
ATOM     89  O   UNL A   1      49.230  37.537  28.182  1.00  0.00    -0.237 OA
ATOM     90  O   UNL A   1      47.432  37.940  29.833  1.00  0.00    -0.237 OA
ATOM     91  O   UNL A   1      49.566  36.939  30.554  1.00  0.00    -0.744 OA
ENDBRANCH  87  88
ENDBRANCH  55  80
BRANCH  67  92
ATOM     92  C   UNL A   1      49.757  27.063  26.167  1.00  0.00     0.058 A 
ATOM     93  C   UNL A   1      50.792  26.680  27.033  1.00  0.00     0.135 A 
ATOM     94  C   UNL A   1      50.028  27.063  24.788  1.00  0.00     0.135 A 
ATOM     95  F   UNL A   1      50.592  26.661  28.361  1.00  0.00    -0.206 F 
ATOM     96  C   UNL A   1      52.055  26.341  26.554  1.00  0.00     0.059 A 
ATOM     97  C   UNL A   1      51.272  26.696  24.284  1.00  0.00     0.059 A 
ATOM     98  F   UNL A   1      49.071  27.408  23.911  1.00  0.00    -0.206 F 
ATOM     99  C   UNL A   1      52.285  26.351  25.176  1.00  0.00     0.060 A 
BRANCH  99 100
ATOM    100  S   UNL A   1      53.920  25.888  24.567  1.00  0.00     0.124 S 
ATOM    101  O   UNL A   1      53.818  24.433  24.528  1.00  0.00    -0.237 OA
ATOM    102  O   UNL A   1      53.971  26.556  23.270  1.00  0.00    -0.237 OA
ATOM    103  O   UNL A   1      54.826  26.425  25.579  1.00  0.00    -0.744 OA
ENDBRANCH  99 100
ENDBRANCH  67  92
ENDBRANCH  41  42
ENDBRANCH  34  36
ENDBRANCH  33  34
ENDBRANCH  32  33
ENDBRANCH  31  32
ENDBRANCH  30  31
ENDBRANCH  29  30
ENDBRANCH   1  29
TORSDOF 24
ENDMDL
MODEL 3
REMARK VINA RESULT:     -10.0      2.051      4.575
REMARK SMILES C/C(=N\Nc1ccccc1C(=O)OCCOCCOCCOC(=O)c1ccc(-c2c3nc(c(-c4c(F)cc(S(=O)(=O)[O-])cc4F)c4ccc([nH]4)c(-c4c(F)cc(S(=O)(=O)[O-])cc4F)c4nc(c(-c5c(F)cc(S(=O)(=O)[O-])cc5F)c5ccc2[nH]5)C=C4)C=C3)cc1)c1ccc(S(C)(=O)=O)cc1
REMARK SMILES IDX 17 1 16 2 15 3 14 4 13 5 11 6 12 7 10 8 5 9 6 10 7 11 9 12
REMARK SMILES IDX 8 13 4 14 3 16 1 17 2 18 91 19 92 20 100 21 93 22 99 23
REMARK SMILES IDX 94 24 95 25 96 26 97 27 98 28 18 29 19 30 20 31 21 32 22 33
REMARK SMILES IDX 23 34 24 35 25 36 26 37 90 38 27 39 89 40 28 41 29 42 30 43
REMARK SMILES IDX 83 44 31 45 88 46 82 47 84 48 32 49 87 50 81 51 80 52 33 54
REMARK SMILES IDX 67 55 46 56 66 57 47 58 50 59 65 60 85 61 48 62 49 63 64 65
REMARK SMILES IDX 86 66 51 67 34 68 35 69 44 70 36 71 37 72 43 73 45 74 38 75
REMARK SMILES IDX 39 76 40 77 41 78 42 79 68 80 69 81 78 82 70 83 71 84 77 85
REMARK SMILES IDX 79 86 72 87 73 88 74 89 75 90 76 91 52 92 53 93 62 94 54 95
REMARK SMILES IDX 55 96 61 97 63 98 56 99 57 100 58 101 59 102 60 103
REMARK H PARENT 4 15 84 53 50 64
REMARK Flexibility Score: inf
ROOT
ATOM      1  C   UNL A   1      34.211  31.779  27.727  1.00  0.00     0.188 C 
ENDROOT
BRANCH   1   2
ATOM      2  O   UNL A   1      33.452  30.594  27.627  1.00  0.00    -0.376 OA
BRANCH   2   3
ATOM      3  C   UNL A   1      33.928  29.548  26.801  1.00  0.00     0.202 C 
BRANCH   3   4
ATOM      4  C   UNL A   1      33.015  28.644  25.966  1.00  0.00     0.261 C 
BRANCH   4   5
ATOM      5  O   UNL A   1      33.509  28.192  24.703  1.00  0.00    -0.460 OA
BRANCH   5   6
ATOM      6  C   UNL A   1      32.734  28.446  23.621  1.00  0.00     0.340 C 
ATOM      7  O   UNL A   1      33.051  29.123  22.655  1.00  0.00    -0.246 OA
BRANCH   6   8
ATOM      8  C   UNL A   1      31.476  27.657  23.654  1.00  0.00     0.085 A 
ATOM      9  C   UNL A   1      31.397  26.251  23.695  1.00  0.00     0.071 A 
ATOM     10  C   UNL A   1      30.103  25.677  23.728  1.00  0.00     0.028 A 
ATOM     11  C   UNL A   1      28.940  26.452  23.721  1.00  0.00     0.002 A 
ATOM     12  C   UNL A   1      30.295  28.433  23.642  1.00  0.00     0.018 A 
ATOM     13  C   UNL A   1      29.036  27.835  23.678  1.00  0.00     0.001 A 
BRANCH   9  14
ATOM     14  N   UNL A   1      32.462  25.328  23.869  1.00  0.00    -0.277 N 
ATOM     15  H   UNL A   1      33.378  25.691  23.852  1.00  0.00     0.190 HD
BRANCH  14  16
ATOM     16  N   UNL A   1      32.330  24.000  24.057  1.00  0.00    -0.180 NA
ATOM     17  C   UNL A   1      34.807  23.762  24.313  1.00  0.00     0.069 C 
ATOM     18  C   UNL A   1      33.379  23.251  24.251  1.00  0.00     0.065 C 
BRANCH  18  19
ATOM     19  C   UNL A   1      33.165  21.763  24.346  1.00  0.00    -0.002 A 
ATOM     20  C   UNL A   1      32.559  21.078  23.278  1.00  0.00     0.011 A 
ATOM     21  C   UNL A   1      33.681  21.026  25.420  1.00  0.00     0.011 A 
ATOM     22  C   UNL A   1      32.537  19.678  23.246  1.00  0.00     0.021 A 
ATOM     23  C   UNL A   1      33.632  19.630  25.409  1.00  0.00     0.021 A 
ATOM     24  C   UNL A   1      33.079  18.963  24.315  1.00  0.00     0.067 A 
BRANCH  24  25
ATOM     25  S   UNL A   1      33.107  17.187  24.277  1.00  0.00     0.175 S 
ATOM     26  C   UNL A   1      34.775  16.759  24.686  1.00  0.00     0.163 C 
ATOM     27  O   UNL A   1      32.245  16.727  25.347  1.00  0.00    -0.224 OA
ATOM     28  O   UNL A   1      32.891  16.776  22.903  1.00  0.00    -0.224 OA
ENDBRANCH  24  25
ENDBRANCH  18  19
ENDBRANCH  14  16
ENDBRANCH   9  14
ENDBRANCH   6   8
ENDBRANCH   5   6
ENDBRANCH   4   5
ENDBRANCH   3   4
ENDBRANCH   2   3
ENDBRANCH   1   2
BRANCH   1  29
ATOM     29  C   UNL A   1      33.452  33.110  27.938  1.00  0.00     0.188 C 
BRANCH  29  30
ATOM     30  O   UNL A   1      34.197  34.298  28.083  1.00  0.00    -0.376 OA
BRANCH  30  31
ATOM     31  C   UNL A   1      35.079  34.463  29.177  1.00  0.00     0.202 C 
BRANCH  31  32
ATOM     32  C   UNL A   1      36.541  33.968  29.249  1.00  0.00     0.261 C 
BRANCH  32  33
ATOM     33  O   UNL A   1      37.029  33.459  30.493  1.00  0.00    -0.460 OA
BRANCH  33  34
ATOM     34  C   UNL A   1      36.748  32.154  30.758  1.00  0.00     0.338 C 
ATOM     35  O   UNL A   1      35.671  31.687  31.068  1.00  0.00    -0.246 OA
BRANCH  34  36
ATOM     36  C   UNL A   1      37.920  31.343  30.353  1.00  0.00     0.060 A 
ATOM     37  C   UNL A   1      38.778  30.853  31.353  1.00  0.00     0.016 A 
ATOM     38  C   UNL A   1      38.136  31.008  29.015  1.00  0.00     0.016 A 
ATOM     39  C   UNL A   1      39.865  30.047  31.014  1.00  0.00     0.010 A 
ATOM     40  C   UNL A   1      39.248  30.233  28.673  1.00  0.00     0.010 A 
ATOM     41  C   UNL A   1      40.136  29.778  29.667  1.00  0.00    -0.014 A 
BRANCH  41  42
ATOM     42  C   UNL A   1      41.479  29.278  29.279  1.00  0.00     0.031 A 
ATOM     43  C   UNL A   1      42.617  30.265  29.314  1.00  0.00     0.074 A 
ATOM     44  C   UNL A   1      41.702  28.000  28.924  1.00  0.00     0.049 A 
ATOM     45  N   UNL A   1      43.867  30.108  28.967  1.00  0.00    -0.248 NA
ATOM     46  C   UNL A   1      42.293  31.616  29.803  1.00  0.00     0.031 C 
ATOM     47  C   UNL A   1      40.699  26.938  28.895  1.00  0.00     0.029 A 
ATOM     48  N   UNL A   1      42.857  27.384  28.508  1.00  0.00    -0.354 N 
ATOM     49  C   UNL A   1      44.473  31.340  29.185  1.00  0.00     0.074 A 
ATOM     50  C   UNL A   1      43.450  32.242  29.663  1.00  0.00     0.031 C 
ATOM     51  C   UNL A   1      41.279  25.803  28.462  1.00  0.00     0.029 A 
ATOM     52  C   UNL A   1      42.686  26.066  28.155  1.00  0.00     0.049 A 
ATOM     53  H   UNL A   1      43.727  27.843  28.466  1.00  0.00     0.167 HD
ATOM     54  C   UNL A   1      45.769  31.690  29.010  1.00  0.00     0.037 A 
ATOM     55  C   UNL A   1      43.560  25.185  27.623  1.00  0.00     0.037 A 
ATOM     56  C   UNL A   1      46.784  30.793  28.528  1.00  0.00     0.049 A 
ATOM     57  C   UNL A   1      44.984  25.618  27.364  1.00  0.00     0.074 A 
ATOM     58  C   UNL A   1      48.130  31.048  28.328  1.00  0.00     0.029 A 
ATOM     59  N   UNL A   1      46.567  29.475  28.158  1.00  0.00    -0.354 N 
ATOM     60  N   UNL A   1      45.553  26.778  27.598  1.00  0.00    -0.248 NA
ATOM     61  C   UNL A   1      45.888  24.618  26.776  1.00  0.00     0.031 C 
ATOM     62  C   UNL A   1      48.714  29.900  27.781  1.00  0.00     0.029 A 
ATOM     63  C   UNL A   1      47.747  28.909  27.706  1.00  0.00     0.049 A 
ATOM     64  H   UNL A   1      45.700  29.010  28.209  1.00  0.00     0.167 HD
ATOM     65  C   UNL A   1      46.885  26.636  27.216  1.00  0.00     0.074 A 
ATOM     66  C   UNL A   1      47.040  25.275  26.749  1.00  0.00     0.031 C 
ATOM     67  C   UNL A   1      47.891  27.547  27.252  1.00  0.00     0.037 A 
BRANCH  54  68
ATOM     68  C   UNL A   1      46.150  33.113  29.314  1.00  0.00     0.058 A 
ATOM     69  C   UNL A   1      46.044  34.132  28.353  1.00  0.00     0.135 A 
ATOM     70  C   UNL A   1      46.612  33.466  30.593  1.00  0.00     0.135 A 
ATOM     71  F   UNL A   1      45.631  33.847  27.107  1.00  0.00    -0.206 F 
ATOM     72  C   UNL A   1      46.406  35.444  28.641  1.00  0.00     0.059 A 
ATOM     73  C   UNL A   1      46.948  34.778  30.912  1.00  0.00     0.059 A 
ATOM     74  F   UNL A   1      46.740  32.531  31.546  1.00  0.00    -0.206 F 
ATOM     75  C   UNL A   1      46.855  35.757  29.925  1.00  0.00     0.060 A 
BRANCH  75  76
ATOM     76  S   UNL A   1      47.308  37.467  30.284  1.00  0.00     0.124 S 
ATOM     77  O   UNL A   1      48.532  37.287  31.059  1.00  0.00    -0.237 OA
ATOM     78  O   UNL A   1      47.481  38.029  28.949  1.00  0.00    -0.237 OA
ATOM     79  O   UNL A   1      46.162  37.973  31.033  1.00  0.00    -0.744 OA
ENDBRANCH  75  76
ENDBRANCH  54  68
BRANCH  55  80
ATOM     80  C   UNL A   1      43.119  23.803  27.281  1.00  0.00     0.058 A 
ATOM     81  C   UNL A   1      43.066  22.794  28.255  1.00  0.00     0.135 A 
ATOM     82  C   UNL A   1      42.761  23.457  25.967  1.00  0.00     0.135 A 
ATOM     83  F   UNL A   1      43.416  23.068  29.522  1.00  0.00    -0.206 F 
ATOM     84  C   UNL A   1      42.694  21.491  27.940  1.00  0.00     0.059 A 
ATOM     85  C   UNL A   1      42.355  22.167  25.634  1.00  0.00     0.059 A 
ATOM     86  F   UNL A   1      42.791  24.382  24.996  1.00  0.00    -0.206 F 
ATOM     87  C   UNL A   1      42.334  21.188  26.626  1.00  0.00     0.060 A 
BRANCH  87  88
ATOM     88  S   UNL A   1      41.805  19.504  26.240  1.00  0.00     0.124 S 
ATOM     89  O   UNL A   1      42.555  19.232  25.019  1.00  0.00    -0.237 OA
ATOM     90  O   UNL A   1      42.232  18.772  27.428  1.00  0.00    -0.237 OA
ATOM     91  O   UNL A   1      40.360  19.635  26.077  1.00  0.00    -0.744 OA
ENDBRANCH  87  88
ENDBRANCH  55  80
BRANCH  67  92
ATOM     92  C   UNL A   1      49.263  27.098  26.821  1.00  0.00     0.058 A 
ATOM     93  C   UNL A   1      49.703  27.212  25.494  1.00  0.00     0.135 A 
ATOM     94  C   UNL A   1      50.171  26.592  27.767  1.00  0.00     0.135 A 
ATOM     95  F   UNL A   1      48.879  27.688  24.546  1.00  0.00    -0.206 F 
ATOM     96  C   UNL A   1      50.982  26.813  25.113  1.00  0.00     0.059 A 
ATOM     97  C   UNL A   1      51.465  26.218  27.417  1.00  0.00     0.059 A 
ATOM     98  F   UNL A   1      49.810  26.473  29.055  1.00  0.00    -0.206 F 
ATOM     99  C   UNL A   1      51.856  26.318  26.083  1.00  0.00     0.060 A 
BRANCH  99 100
ATOM    100  S   UNL A   1      53.518  25.824  25.580  1.00  0.00     0.124 S 
ATOM    101  O   UNL A   1      54.048  27.075  25.049  1.00  0.00    -0.237 OA
ATOM    102  O   UNL A   1      54.103  25.370  26.837  1.00  0.00    -0.237 OA
ATOM    103  O   UNL A   1      53.278  24.776  24.592  1.00  0.00    -0.744 OA
ENDBRANCH  99 100
ENDBRANCH  67  92
ENDBRANCH  41  42
ENDBRANCH  34  36
ENDBRANCH  33  34
ENDBRANCH  32  33
ENDBRANCH  31  32
ENDBRANCH  30  31
ENDBRANCH  29  30
ENDBRANCH   1  29
TORSDOF 24
ENDMDL
