MODEL 1
REMARK VINA RESULT:     -10.9      0.000      0.000
REMARK SMILES COc1ccc(C(=O)OCCOCCOCCOC(=O)c2ccc(-c3c4nc(c(-c5c(F)cc(S(=O)(=O)[O-])cc5F)c5ccc([nH]5)c(-c5c(F)cc(S(=O)(=O)[O-])cc5F)c5nc(c(-c6c(F)cc(S(=O)(=O)[O-])cc6F)c6ccc3[nH]6)C=C5)C=C4)cc2)cc1S(=O)(=O)N(C)Cc1cccc(F)c1
REMARK SMILES IDX 13 1 12 2 11 3 10 4 9 5 7 6 8 7 6 8 3 9 4 10 88 11 5 12
REMARK SMILES IDX 87 13 2 14 1 15 89 16 90 17 91 18 92 19 93 20 94 21 95 22
REMARK SMILES IDX 96 23 101 24 97 25 99 26 98 27 100 28 14 29 15 30 16 31
REMARK SMILES IDX 17 32 18 33 19 34 20 35 21 36 22 37 86 38 23 39 85 40 24 41
REMARK SMILES IDX 25 42 26 43 79 44 27 45 84 46 78 47 80 48 28 49 83 50 77 51
REMARK SMILES IDX 76 52 29 54 63 55 42 56 62 57 43 58 46 59 61 60 81 61 44 62
REMARK SMILES IDX 45 63 60 65 82 66 47 67 30 68 31 69 40 70 32 71 33 72 39 73
REMARK SMILES IDX 41 74 34 75 35 76 36 77 37 78 38 79 64 80 65 81 74 82 66 83
REMARK SMILES IDX 67 84 73 85 75 86 68 87 69 88 70 89 71 90 72 91 48 92 49 93
REMARK SMILES IDX 58 94 50 95 51 96 57 97 59 98 52 99 53 100 54 101 55 102
REMARK SMILES IDX 56 103
REMARK H PARENT 80 53 46 64
REMARK Flexibility Score: inf
ROOT
ATOM      1  C   UNL A   1      40.738  19.987  26.490  1.00  0.00     0.188 C 
ENDROOT
BRANCH   1   2
ATOM      2  O   UNL A   1      39.825  21.043  26.702  1.00  0.00    -0.376 OA
BRANCH   2   3
ATOM      3  C   UNL A   1      38.899  21.428  25.701  1.00  0.00     0.202 C 
BRANCH   3   4
ATOM      4  C   UNL A   1      37.743  22.417  25.921  1.00  0.00     0.261 C 
BRANCH   4   5
ATOM      5  O   UNL A   1      37.605  23.471  24.965  1.00  0.00    -0.460 OA
BRANCH   5   6
ATOM      6  C   UNL A   1      36.640  23.266  24.037  1.00  0.00     0.338 C 
ATOM      7  O   UNL A   1      36.765  22.689  22.969  1.00  0.00    -0.246 OA
BRANCH   6   8
ATOM      8  C   UNL A   1      35.325  23.723  24.537  1.00  0.00     0.061 A 
ATOM      9  C   UNL A   1      32.965  24.521  25.796  1.00  0.00     0.138 A 
ATOM     10  C   UNL A   1      34.116  25.309  25.899  1.00  0.00     0.049 A 
ATOM     11  C   UNL A   1      32.950  23.415  24.947  1.00  0.00     0.125 A 
ATOM     12  C   UNL A   1      35.297  24.904  25.284  1.00  0.00     0.019 A 
ATOM     13  C   UNL A   1      34.146  23.004  24.323  1.00  0.00     0.041 A 
BRANCH   9  14
ATOM     14  O   UNL A   1      31.911  24.904  26.571  1.00  0.00    -0.495 OA
ATOM     15  C   UNL A   1      31.462  26.203  26.169  1.00  0.00     0.278 C 
ENDBRANCH   9  14
BRANCH  11  16
ATOM     16  S   UNL A   1      31.532  22.399  24.616  1.00  0.00     0.246 S 
ATOM     17  O   UNL A   1      30.860  22.211  25.884  1.00  0.00    -0.207 OA
ATOM     18  O   UNL A   1      30.858  23.050  23.510  1.00  0.00    -0.207 OA
BRANCH  16  19
ATOM     19  N   UNL A   1      32.034  20.871  24.070  1.00  0.00    -0.196 NA
ATOM     20  C   UNL A   1      32.062  20.677  22.600  1.00  0.00     0.125 C 
BRANCH  19  21
ATOM     21  C   UNL A   1      33.234  20.315  24.756  1.00  0.00     0.137 C 
BRANCH  21  22
ATOM     22  C   UNL A   1      33.314  18.806  24.776  1.00  0.00    -0.030 A 
ATOM     23  C   UNL A   1      32.627  18.071  25.757  1.00  0.00     0.005 A 
ATOM     24  C   UNL A   1      33.979  18.115  23.754  1.00  0.00     0.044 A 
ATOM     25  C   UNL A   1      32.550  16.679  25.679  1.00  0.00     0.003 A 
ATOM     26  C   UNL A   1      33.898  16.728  23.689  1.00  0.00     0.123 A 
ATOM     27  C   UNL A   1      33.177  16.008  24.632  1.00  0.00     0.039 A 
ATOM     28  F   UNL A   1      34.506  16.079  22.687  1.00  0.00    -0.207 F 
ENDBRANCH  21  22
ENDBRANCH  19  21
ENDBRANCH  16  19
ENDBRANCH  11  16
ENDBRANCH   6   8
ENDBRANCH   5   6
ENDBRANCH   4   5
ENDBRANCH   3   4
ENDBRANCH   2   3
ENDBRANCH   1   2
BRANCH   1  29
ATOM     29  C   UNL A   1      42.253  20.269  26.473  1.00  0.00     0.188 C 
BRANCH  29  30
ATOM     30  O   UNL A   1      42.813  20.956  25.377  1.00  0.00    -0.376 OA
BRANCH  30  31
ATOM     31  C   UNL A   1      43.221  22.307  25.496  1.00  0.00     0.202 C 
BRANCH  31  32
ATOM     32  C   UNL A   1      42.798  23.286  26.605  1.00  0.00     0.261 C 
BRANCH  32  33
ATOM     33  O   UNL A   1      41.562  23.983  26.451  1.00  0.00    -0.460 OA
BRANCH  33  34
ATOM     34  C   UNL A   1      41.674  25.291  26.119  1.00  0.00     0.338 C 
ATOM     35  O   UNL A   1      41.680  25.772  24.997  1.00  0.00    -0.246 OA
BRANCH  34  36
ATOM     36  C   UNL A   1      41.625  26.101  27.348  1.00  0.00     0.060 A 
ATOM     37  C   UNL A   1      40.560  25.908  28.237  1.00  0.00     0.016 A 
ATOM     38  C   UNL A   1      42.598  27.068  27.600  1.00  0.00     0.016 A 
ATOM     39  C   UNL A   1      40.455  26.702  29.379  1.00  0.00     0.010 A 
ATOM     40  C   UNL A   1      42.480  27.877  28.733  1.00  0.00     0.010 A 
ATOM     41  C   UNL A   1      41.394  27.716  29.613  1.00  0.00    -0.014 A 
BRANCH  41  42
ATOM     42  C   UNL A   1      41.150  28.716  30.680  1.00  0.00     0.031 A 
ATOM     43  C   UNL A   1      42.000  28.662  31.921  1.00  0.00     0.074 A 
ATOM     44  C   UNL A   1      40.205  29.665  30.544  1.00  0.00     0.049 A 
ATOM     45  N   UNL A   1      41.920  29.376  33.012  1.00  0.00    -0.248 NA
ATOM     46  C   UNL A   1      43.086  27.666  31.929  1.00  0.00     0.031 C 
ATOM     47  C   UNL A   1      39.349  29.846  29.373  1.00  0.00     0.029 A 
ATOM     48  N   UNL A   1      39.799  30.648  31.414  1.00  0.00    -0.354 N 
ATOM     49  C   UNL A   1      42.946  28.924  33.834  1.00  0.00     0.074 A 
ATOM     50  C   UNL A   1      43.610  27.847  33.131  1.00  0.00     0.031 C 
ATOM     51  C   UNL A   1      38.501  30.865  29.607  1.00  0.00     0.029 A 
ATOM     52  C   UNL A   1      38.733  31.384  30.955  1.00  0.00     0.049 A 
ATOM     53  H   UNL A   1      40.231  30.809  32.283  1.00  0.00     0.167 HD
ATOM     54  C   UNL A   1      43.311  29.374  35.058  1.00  0.00     0.037 A 
ATOM     55  C   UNL A   1      38.010  32.344  31.566  1.00  0.00     0.037 A 
ATOM     56  C   UNL A   1      42.638  30.433  35.761  1.00  0.00     0.049 A 
ATOM     57  C   UNL A   1      38.377  32.764  32.969  1.00  0.00     0.074 A 
ATOM     58  C   UNL A   1      42.916  30.946  37.017  1.00  0.00     0.029 A 
ATOM     59  N   UNL A   1      41.551  31.143  35.272  1.00  0.00    -0.354 N 
ATOM     60  N   UNL A   1      39.353  32.332  33.734  1.00  0.00    -0.248 NA
ATOM     61  C   UNL A   1      37.546  33.804  33.593  1.00  0.00     0.031 C 
ATOM     62  C   UNL A   1      41.974  31.940  37.302  1.00  0.00     0.029 A 
ATOM     63  C   UNL A   1      41.141  32.081  36.203  1.00  0.00     0.049 A 
ATOM     64  H   UNL A   1      41.134  31.001  34.391  1.00  0.00     0.167 HD
ATOM     65  C   UNL A   1      39.272  33.072  34.910  1.00  0.00     0.074 A 
ATOM     66  C   UNL A   1      38.162  33.987  34.753  1.00  0.00     0.031 C 
ATOM     67  C   UNL A   1      40.047  33.002  36.021  1.00  0.00     0.037 A 
BRANCH  54  68
ATOM     68  C   UNL A   1      44.491  28.717  35.718  1.00  0.00     0.058 A 
ATOM     69  C   UNL A   1      45.799  29.182  35.509  1.00  0.00     0.135 A 
ATOM     70  C   UNL A   1      44.312  27.641  36.602  1.00  0.00     0.135 A 
ATOM     71  F   UNL A   1      46.028  30.194  34.656  1.00  0.00    -0.206 F 
ATOM     72  C   UNL A   1      46.889  28.596  36.143  1.00  0.00     0.059 A 
ATOM     73  C   UNL A   1      45.385  27.056  37.267  1.00  0.00     0.059 A 
ATOM     74  F   UNL A   1      43.082  27.153  36.833  1.00  0.00    -0.206 F 
ATOM     75  C   UNL A   1      46.671  27.535  37.024  1.00  0.00     0.060 A 
BRANCH  75  76
ATOM     76  S   UNL A   1      48.096  26.803  37.856  1.00  0.00     0.124 S 
ATOM     77  O   UNL A   1      47.476  25.695  38.575  1.00  0.00    -0.237 OA
ATOM     78  O   UNL A   1      48.953  26.430  36.733  1.00  0.00    -0.237 OA
ATOM     79  O   UNL A   1      48.599  27.889  38.690  1.00  0.00    -0.744 OA
ENDBRANCH  75  76
ENDBRANCH  54  68
BRANCH  55  80
ATOM     80  C   UNL A   1      36.841  32.962  30.881  1.00  0.00     0.058 A 
ATOM     81  C   UNL A   1      37.010  33.972  29.923  1.00  0.00     0.135 A 
ATOM     82  C   UNL A   1      35.528  32.590  31.211  1.00  0.00     0.135 A 
ATOM     83  F   UNL A   1      38.244  34.371  29.580  1.00  0.00    -0.206 F 
ATOM     84  C   UNL A   1      35.922  34.618  29.343  1.00  0.00     0.059 A 
ATOM     85  C   UNL A   1      34.424  33.199  30.623  1.00  0.00     0.059 A 
ATOM     86  F   UNL A   1      35.310  31.621  32.113  1.00  0.00    -0.206 F 
ATOM     87  C   UNL A   1      34.631  34.227  29.705  1.00  0.00     0.060 A 
BRANCH  87  88
ATOM     88  S   UNL A   1      33.225  35.069  28.947  1.00  0.00     0.124 S 
ATOM     89  O   UNL A   1      32.378  35.325  30.107  1.00  0.00    -0.237 OA
ATOM     90  O   UNL A   1      33.856  36.241  28.347  1.00  0.00    -0.237 OA
ATOM     91  O   UNL A   1      32.717  34.083  27.998  1.00  0.00    -0.744 OA
ENDBRANCH  87  88
ENDBRANCH  55  80
BRANCH  67  92
ATOM     92  C   UNL A   1      39.763  33.975  37.134  1.00  0.00     0.058 A 
ATOM     93  C   UNL A   1      39.021  33.610  38.268  1.00  0.00     0.135 A 
ATOM     94  C   UNL A   1      40.292  35.277  37.089  1.00  0.00     0.135 A 
ATOM     95  F   UNL A   1      38.489  32.381  38.360  1.00  0.00    -0.206 F 
ATOM     96  C   UNL A   1      38.791  34.507  39.306  1.00  0.00     0.059 A 
ATOM     97  C   UNL A   1      40.100  36.181  38.128  1.00  0.00     0.059 A 
ATOM     98  F   UNL A   1      41.020  35.674  36.034  1.00  0.00    -0.206 F 
ATOM     99  C   UNL A   1      39.336  35.791  39.228  1.00  0.00     0.060 A 
BRANCH  99 100
ATOM    100  S   UNL A   1      39.061  36.934  40.598  1.00  0.00     0.124 S 
ATOM    101  O   UNL A   1      38.342  36.089  41.546  1.00  0.00    -0.237 OA
ATOM    102  O   UNL A   1      40.422  37.300  40.979  1.00  0.00    -0.237 OA
ATOM    103  O   UNL A   1      38.277  38.007  39.994  1.00  0.00    -0.744 OA
ENDBRANCH  99 100
ENDBRANCH  67  92
ENDBRANCH  41  42
ENDBRANCH  34  36
ENDBRANCH  33  34
ENDBRANCH  32  33
ENDBRANCH  31  32
ENDBRANCH  30  31
ENDBRANCH  29  30
ENDBRANCH   1  29
TORSDOF 25
ENDMDL
MODEL 2
REMARK VINA RESULT:     -10.8      1.950      3.792
REMARK SMILES COc1ccc(C(=O)OCCOCCOCCOC(=O)c2ccc(-c3c4nc(c(-c5c(F)cc(S(=O)(=O)[O-])cc5F)c5ccc([nH]5)c(-c5c(F)cc(S(=O)(=O)[O-])cc5F)c5nc(c(-c6c(F)cc(S(=O)(=O)[O-])cc6F)c6ccc3[nH]6)C=C5)C=C4)cc2)cc1S(=O)(=O)N(C)Cc1cccc(F)c1
REMARK SMILES IDX 13 1 12 2 11 3 10 4 9 5 7 6 8 7 6 8 3 9 4 10 88 11 5 12
REMARK SMILES IDX 87 13 2 14 1 15 89 16 90 17 91 18 92 19 93 20 94 21 95 22
REMARK SMILES IDX 96 23 101 24 97 25 99 26 98 27 100 28 14 29 15 30 16 31
REMARK SMILES IDX 17 32 18 33 19 34 20 35 21 36 22 37 86 38 23 39 85 40 24 41
REMARK SMILES IDX 25 42 26 43 79 44 27 45 84 46 78 47 80 48 28 49 83 50 77 51
REMARK SMILES IDX 76 52 29 54 63 55 42 56 62 57 43 58 46 59 61 60 81 61 44 62
REMARK SMILES IDX 45 63 60 65 82 66 47 67 30 68 31 69 40 70 32 71 33 72 39 73
REMARK SMILES IDX 41 74 34 75 35 76 36 77 37 78 38 79 64 80 65 81 74 82 66 83
REMARK SMILES IDX 67 84 73 85 75 86 68 87 69 88 70 89 71 90 72 91 48 92 49 93
REMARK SMILES IDX 58 94 50 95 51 96 57 97 59 98 52 99 53 100 54 101 55 102
REMARK SMILES IDX 56 103
REMARK H PARENT 80 53 46 64
REMARK Flexibility Score: inf
ROOT
ATOM      1  C   UNL A   1      42.584  19.205  25.635  1.00  0.00     0.188 C 
ENDROOT
BRANCH   1   2
ATOM      2  O   UNL A   1      41.191  19.275  25.851  1.00  0.00    -0.376 OA
BRANCH   2   3
ATOM      3  C   UNL A   1      40.617  20.309  26.632  1.00  0.00     0.202 C 
BRANCH   3   4
ATOM      4  C   UNL A   1      39.969  21.577  26.054  1.00  0.00     0.261 C 
BRANCH   4   5
ATOM      5  O   UNL A   1      38.583  21.495  25.715  1.00  0.00    -0.460 OA
BRANCH   5   6
ATOM      6  C   UNL A   1      37.905  22.663  25.831  1.00  0.00     0.338 C 
ATOM      7  O   UNL A   1      38.387  23.774  25.975  1.00  0.00    -0.246 OA
BRANCH   6   8
ATOM      8  C   UNL A   1      36.456  22.452  25.623  1.00  0.00     0.061 A 
ATOM      9  C   UNL A   1      33.797  22.008  24.898  1.00  0.00     0.138 A 
ATOM     10  C   UNL A   1      34.712  20.951  24.888  1.00  0.00     0.049 A 
ATOM     11  C   UNL A   1      34.171  23.251  25.409  1.00  0.00     0.125 A 
ATOM     12  C   UNL A   1      36.042  21.174  25.235  1.00  0.00     0.019 A 
ATOM     13  C   UNL A   1      35.518  23.478  25.761  1.00  0.00     0.041 A 
BRANCH   9  14
ATOM     14  O   UNL A   1      32.566  21.734  24.378  1.00  0.00    -0.495 OA
ATOM     15  C   UNL A   1      32.250  20.354  24.586  1.00  0.00     0.278 C 
ENDBRANCH   9  14
BRANCH  11  16
ATOM     16  S   UNL A   1      33.089  24.645  25.604  1.00  0.00     0.246 S 
ATOM     17  O   UNL A   1      32.073  24.244  26.553  1.00  0.00    -0.207 OA
ATOM     18  O   UNL A   1      33.970  25.762  25.888  1.00  0.00    -0.207 OA
BRANCH  16  19
ATOM     19  N   UNL A   1      32.311  24.980  24.131  1.00  0.00    -0.196 NA
ATOM     20  C   UNL A   1      30.829  24.939  24.149  1.00  0.00     0.125 C 
BRANCH  19  21
ATOM     21  C   UNL A   1      32.854  26.145  23.378  1.00  0.00     0.137 C 
BRANCH  21  22
ATOM     22  C   UNL A   1      31.974  27.373  23.385  1.00  0.00    -0.030 A 
ATOM     23  C   UNL A   1      30.967  27.531  22.417  1.00  0.00     0.005 A 
ATOM     24  C   UNL A   1      32.073  28.314  24.419  1.00  0.00     0.044 A 
ATOM     25  C   UNL A   1      30.038  28.568  22.520  1.00  0.00     0.003 A 
ATOM     26  C   UNL A   1      31.143  29.345  24.509  1.00  0.00     0.123 A 
ATOM     27  C   UNL A   1      30.120  29.470  23.578  1.00  0.00     0.039 A 
ATOM     28  F   UNL A   1      31.224  30.217  25.522  1.00  0.00    -0.207 F 
ENDBRANCH  21  22
ENDBRANCH  19  21
ENDBRANCH  16  19
ENDBRANCH  11  16
ENDBRANCH   6   8
ENDBRANCH   5   6
ENDBRANCH   4   5
ENDBRANCH   3   4
ENDBRANCH   2   3
ENDBRANCH   1   2
BRANCH   1  29
ATOM     29  C   UNL A   1      43.462  20.454  25.843  1.00  0.00     0.188 C 
BRANCH  29  30
ATOM     30  O   UNL A   1      43.676  21.332  24.762  1.00  0.00    -0.376 OA
BRANCH  30  31
ATOM     31  C   UNL A   1      43.584  22.735  24.933  1.00  0.00     0.202 C 
BRANCH  31  32
ATOM     32  C   UNL A   1      43.207  23.465  26.234  1.00  0.00     0.261 C 
BRANCH  32  33
ATOM     33  O   UNL A   1      41.897  24.023  26.335  1.00  0.00    -0.460 OA
BRANCH  33  34
ATOM     34  C   UNL A   1      41.798  25.329  25.988  1.00  0.00     0.338 C 
ATOM     35  O   UNL A   1      41.618  25.788  24.871  1.00  0.00    -0.246 OA
BRANCH  34  36
ATOM     36  C   UNL A   1      41.777  26.147  27.213  1.00  0.00     0.060 A 
ATOM     37  C   UNL A   1      40.784  25.898  28.170  1.00  0.00     0.016 A 
ATOM     38  C   UNL A   1      42.702  27.175  27.397  1.00  0.00     0.016 A 
ATOM     39  C   UNL A   1      40.703  26.696  29.310  1.00  0.00     0.010 A 
ATOM     40  C   UNL A   1      42.606  27.986  28.530  1.00  0.00     0.010 A 
ATOM     41  C   UNL A   1      41.590  27.767  29.478  1.00  0.00    -0.014 A 
BRANCH  41  42
ATOM     42  C   UNL A   1      41.352  28.762  30.552  1.00  0.00     0.031 A 
ATOM     43  C   UNL A   1      42.229  28.719  31.775  1.00  0.00     0.074 A 
ATOM     44  C   UNL A   1      40.390  29.695  30.439  1.00  0.00     0.049 A 
ATOM     45  N   UNL A   1      42.161  29.429  32.870  1.00  0.00    -0.248 NA
ATOM     46  C   UNL A   1      43.331  27.741  31.758  1.00  0.00     0.031 C 
ATOM     47  C   UNL A   1      39.506  29.865  29.287  1.00  0.00     0.029 A 
ATOM     48  N   UNL A   1      39.986  30.670  31.319  1.00  0.00    -0.354 N 
ATOM     49  C   UNL A   1      43.212  28.993  33.668  1.00  0.00     0.074 A 
ATOM     50  C   UNL A   1      43.878  27.928  32.949  1.00  0.00     0.031 C 
ATOM     51  C   UNL A   1      38.647  30.869  29.541  1.00  0.00     0.029 A 
ATOM     52  C   UNL A   1      38.899  31.390  30.884  1.00  0.00     0.049 A 
ATOM     53  H   UNL A   1      40.434  30.836  32.179  1.00  0.00     0.167 HD
ATOM     54  C   UNL A   1      43.595  29.446  34.885  1.00  0.00     0.037 A 
ATOM     55  C   UNL A   1      38.174  32.337  31.513  1.00  0.00     0.037 A 
ATOM     56  C   UNL A   1      42.920  30.493  35.605  1.00  0.00     0.049 A 
ATOM     57  C   UNL A   1      38.564  32.760  32.909  1.00  0.00     0.074 A 
ATOM     58  C   UNL A   1      43.216  31.008  36.855  1.00  0.00     0.029 A 
ATOM     59  N   UNL A   1      41.811  31.186  35.140  1.00  0.00    -0.354 N 
ATOM     60  N   UNL A   1      39.563  32.342  33.652  1.00  0.00    -0.248 NA
ATOM     61  C   UNL A   1      37.730  33.785  33.552  1.00  0.00     0.031 C 
ATOM     62  C   UNL A   1      42.265  31.985  37.163  1.00  0.00     0.029 A 
ATOM     63  C   UNL A   1      41.406  32.115  36.083  1.00  0.00     0.049 A 
ATOM     64  H   UNL A   1      41.378  31.038  34.269  1.00  0.00     0.167 HD
ATOM     65  C   UNL A   1      39.495  33.079  34.831  1.00  0.00     0.074 A 
ATOM     66  C   UNL A   1      38.367  33.975  34.700  1.00  0.00     0.031 C 
ATOM     67  C   UNL A   1      40.294  33.019  35.926  1.00  0.00     0.037 A 
BRANCH  54  68
ATOM     68  C   UNL A   1      44.799  28.806  35.518  1.00  0.00     0.058 A 
ATOM     69  C   UNL A   1      44.677  27.686  36.355  1.00  0.00     0.135 A 
ATOM     70  C   UNL A   1      46.091  29.288  35.252  1.00  0.00     0.135 A 
ATOM     71  F   UNL A   1      43.464  27.199  36.660  1.00  0.00    -0.206 F 
ATOM     72  C   UNL A   1      45.792  27.074  36.917  1.00  0.00     0.059 A 
ATOM     73  C   UNL A   1      47.223  28.675  35.781  1.00  0.00     0.059 A 
ATOM     74  F   UNL A   1      46.264  30.360  34.462  1.00  0.00    -0.206 F 
ATOM     75  C   UNL A   1      47.062  27.573  36.621  1.00  0.00     0.060 A 
BRANCH  75  76
ATOM     76  S   UNL A   1      48.498  26.751  37.340  1.00  0.00     0.124 S 
ATOM     77  O   UNL A   1      49.086  27.827  38.131  1.00  0.00    -0.237 OA
ATOM     78  O   UNL A   1      47.886  25.666  38.103  1.00  0.00    -0.237 OA
ATOM     79  O   UNL A   1      49.271  26.334  36.174  1.00  0.00    -0.744 OA
ENDBRANCH  75  76
ENDBRANCH  54  68
BRANCH  55  80
ATOM     80  C   UNL A   1      36.981  32.937  30.854  1.00  0.00     0.058 A 
ATOM     81  C   UNL A   1      37.113  33.949  29.893  1.00  0.00     0.135 A 
ATOM     82  C   UNL A   1      35.681  32.545  31.214  1.00  0.00     0.135 A 
ATOM     83  F   UNL A   1      38.334  34.367  29.522  1.00  0.00    -0.206 F 
ATOM     84  C   UNL A   1      36.003  34.579  29.338  1.00  0.00     0.059 A 
ATOM     85  C   UNL A   1      34.555  33.138  30.650  1.00  0.00     0.059 A 
ATOM     86  F   UNL A   1      35.497  31.573  32.120  1.00  0.00    -0.206 F 
ATOM     87  C   UNL A   1      34.727  34.168  29.728  1.00  0.00     0.060 A 
BRANCH  87  88
ATOM     88  S   UNL A   1      33.291  34.989  29.002  1.00  0.00     0.124 S 
ATOM     89  O   UNL A   1      32.479  35.258  30.183  1.00  0.00    -0.237 OA
ATOM     90  O   UNL A   1      33.895  36.156  28.364  1.00  0.00    -0.237 OA
ATOM     91  O   UNL A   1      32.761  33.986  28.084  1.00  0.00    -0.744 OA
ENDBRANCH  87  88
ENDBRANCH  55  80
BRANCH  67  92
ATOM     92  C   UNL A   1      40.018  33.985  37.046  1.00  0.00     0.058 A 
ATOM     93  C   UNL A   1      40.658  35.231  37.127  1.00  0.00     0.135 A 
ATOM     94  C   UNL A   1      39.053  33.681  38.021  1.00  0.00     0.135 A 
ATOM     95  F   UNL A   1      41.592  35.571  36.224  1.00  0.00    -0.206 F 
ATOM     96  C   UNL A   1      40.372  36.131  38.149  1.00  0.00     0.059 A 
ATOM     97  C   UNL A   1      38.728  34.577  39.035  1.00  0.00     0.059 A 
ATOM     98  F   UNL A   1      38.400  32.508  37.984  1.00  0.00    -0.206 F 
ATOM     99  C   UNL A   1      39.403  35.795  39.099  1.00  0.00     0.060 A 
BRANCH  99 100
ATOM    100  S   UNL A   1      39.015  36.986  40.399  1.00  0.00     0.124 S 
ATOM    101  O   UNL A   1      38.236  36.168  41.323  1.00  0.00    -0.237 OA
ATOM    102  O   UNL A   1      40.340  37.383  40.865  1.00  0.00    -0.237 OA
ATOM    103  O   UNL A   1      38.268  38.025  39.697  1.00  0.00    -0.744 OA
ENDBRANCH  99 100
ENDBRANCH  67  92
ENDBRANCH  41  42
ENDBRANCH  34  36
ENDBRANCH  33  34
ENDBRANCH  32  33
ENDBRANCH  31  32
ENDBRANCH  30  31
ENDBRANCH  29  30
ENDBRANCH   1  29
TORSDOF 25
ENDMDL
MODEL 3
REMARK VINA RESULT:     -10.8      3.172      9.417
REMARK SMILES COc1ccc(C(=O)OCCOCCOCCOC(=O)c2ccc(-c3c4nc(c(-c5c(F)cc(S(=O)(=O)[O-])cc5F)c5ccc([nH]5)c(-c5c(F)cc(S(=O)(=O)[O-])cc5F)c5nc(c(-c6c(F)cc(S(=O)(=O)[O-])cc6F)c6ccc3[nH]6)C=C5)C=C4)cc2)cc1S(=O)(=O)N(C)Cc1cccc(F)c1
REMARK SMILES IDX 13 1 12 2 11 3 10 4 9 5 7 6 8 7 6 8 3 9 4 10 88 11 5 12
REMARK SMILES IDX 87 13 2 14 1 15 89 16 90 17 91 18 92 19 93 20 94 21 95 22
REMARK SMILES IDX 96 23 101 24 97 25 99 26 98 27 100 28 14 29 15 30 16 31
REMARK SMILES IDX 17 32 18 33 19 34 20 35 21 36 22 37 86 38 23 39 85 40 24 41
REMARK SMILES IDX 25 42 26 43 79 44 27 45 84 46 78 47 80 48 28 49 83 50 77 51
REMARK SMILES IDX 76 52 29 54 63 55 42 56 62 57 43 58 46 59 61 60 81 61 44 62
REMARK SMILES IDX 45 63 60 65 82 66 47 67 30 68 31 69 40 70 32 71 33 72 39 73
REMARK SMILES IDX 41 74 34 75 35 76 36 77 37 78 38 79 64 80 65 81 74 82 66 83
REMARK SMILES IDX 67 84 73 85 75 86 68 87 69 88 70 89 71 90 72 91 48 92 49 93
REMARK SMILES IDX 58 94 50 95 51 96 57 97 59 98 52 99 53 100 54 101 55 102
REMARK SMILES IDX 56 103
REMARK H PARENT 80 53 46 64
REMARK Flexibility Score: inf
ROOT
ATOM      1  C   UNL A   1      34.005  27.494  25.472  1.00  0.00     0.188 C 
ENDROOT
BRANCH   1   2
ATOM      2  O   UNL A   1      33.794  28.576  24.589  1.00  0.00    -0.376 OA
BRANCH   2   3
ATOM      3  C   UNL A   1      33.497  28.363  23.221  1.00  0.00     0.202 C 
BRANCH   3   4
ATOM      4  C   UNL A   1      32.226  28.867  22.518  1.00  0.00     0.261 C 
BRANCH   4   5
ATOM      5  O   UNL A   1      31.037  28.094  22.705  1.00  0.00    -0.460 OA
BRANCH   5   6
ATOM      6  C   UNL A   1      31.136  26.804  22.305  1.00  0.00     0.338 C 
ATOM      7  O   UNL A   1      31.386  26.406  21.179  1.00  0.00    -0.246 OA
BRANCH   6   8
ATOM      8  C   UNL A   1      31.034  25.887  23.460  1.00  0.00     0.061 A 
ATOM      9  C   UNL A   1      30.914  24.429  25.838  1.00  0.00     0.138 A 
ATOM     10  C   UNL A   1      29.912  25.356  25.532  1.00  0.00     0.049 A 
ATOM     11  C   UNL A   1      31.894  24.124  24.895  1.00  0.00     0.125 A 
ATOM     12  C   UNL A   1      29.978  26.094  24.354  1.00  0.00     0.019 A 
ATOM     13  C   UNL A   1      31.963  24.871  23.701  1.00  0.00     0.041 A 
BRANCH   9  14
ATOM     14  O   UNL A   1      30.858  23.884  27.087  1.00  0.00    -0.495 OA
ATOM     15  C   UNL A   1      29.790  22.933  27.152  1.00  0.00     0.278 C 
ENDBRANCH   9  14
BRANCH  11  16
ATOM     16  S   UNL A   1      33.150  22.884  25.090  1.00  0.00     0.246 S 
ATOM     17  O   UNL A   1      32.542  21.800  25.831  1.00  0.00    -0.207 OA
ATOM     18  O   UNL A   1      33.669  22.668  23.753  1.00  0.00    -0.207 OA
BRANCH  16  19
ATOM     19  N   UNL A   1      34.424  23.498  26.031  1.00  0.00    -0.196 NA
ATOM     20  C   UNL A   1      34.864  22.653  27.167  1.00  0.00     0.125 C 
BRANCH  19  21
ATOM     21  C   UNL A   1      35.559  24.078  25.260  1.00  0.00     0.137 C 
BRANCH  21  22
ATOM     22  C   UNL A   1      36.902  23.441  25.529  1.00  0.00    -0.030 A 
ATOM     23  C   UNL A   1      37.867  24.115  26.298  1.00  0.00     0.005 A 
ATOM     24  C   UNL A   1      37.165  22.129  25.114  1.00  0.00     0.044 A 
ATOM     25  C   UNL A   1      39.036  23.467  26.700  1.00  0.00     0.003 A 
ATOM     26  C   UNL A   1      38.334  21.494  25.518  1.00  0.00     0.123 A 
ATOM     27  C   UNL A   1      39.263  22.146  26.319  1.00  0.00     0.039 A 
ATOM     28  F   UNL A   1      38.558  20.226  25.147  1.00  0.00    -0.207 F 
ENDBRANCH  21  22
ENDBRANCH  19  21
ENDBRANCH  16  19
ENDBRANCH  11  16
ENDBRANCH   6   8
ENDBRANCH   5   6
ENDBRANCH   4   5
ENDBRANCH   3   4
ENDBRANCH   2   3
ENDBRANCH   1   2
BRANCH   1  29
ATOM     29  C   UNL A   1      32.965  27.174  26.564  1.00  0.00     0.188 C 
BRANCH  29  30
ATOM     30  O   UNL A   1      32.713  28.124  27.573  1.00  0.00    -0.376 OA
BRANCH  30  31
ATOM     31  C   UNL A   1      31.938  29.280  27.309  1.00  0.00     0.202 C 
BRANCH  31  32
ATOM     32  C   UNL A   1      32.480  30.704  27.095  1.00  0.00     0.261 C 
BRANCH  32  33
ATOM     33  O   UNL A   1      33.888  30.868  26.924  1.00  0.00    -0.460 OA
BRANCH  33  34
ATOM     34  C   UNL A   1      34.487  31.685  27.824  1.00  0.00     0.338 C 
ATOM     35  O   UNL A   1      34.018  32.685  28.343  1.00  0.00    -0.246 OA
BRANCH  34  36
ATOM     36  C   UNL A   1      35.771  31.088  28.228  1.00  0.00     0.060 A 
ATOM     37  C   UNL A   1      35.802  29.731  28.574  1.00  0.00     0.016 A 
ATOM     38  C   UNL A   1      36.924  31.870  28.304  1.00  0.00     0.016 A 
ATOM     39  C   UNL A   1      36.992  29.154  29.018  1.00  0.00     0.010 A 
ATOM     40  C   UNL A   1      38.110  31.295  28.769  1.00  0.00     0.010 A 
ATOM     41  C   UNL A   1      38.142  29.942  29.153  1.00  0.00    -0.014 A 
BRANCH  41  42
ATOM     42  C   UNL A   1      39.330  29.400  29.855  1.00  0.00     0.031 A 
ATOM     43  C   UNL A   1      39.764  30.054  31.139  1.00  0.00     0.074 A 
ATOM     44  C   UNL A   1      40.002  28.338  29.372  1.00  0.00     0.049 A 
ATOM     45  N   UNL A   1      40.810  29.808  31.883  1.00  0.00    -0.248 NA
ATOM     46  C   UNL A   1      38.900  31.131  31.651  1.00  0.00     0.031 C 
ATOM     47  C   UNL A   1      39.655  27.594  28.163  1.00  0.00     0.029 A 
ATOM     48  N   UNL A   1      41.132  27.712  29.839  1.00  0.00    -0.354 N 
ATOM     49  C   UNL A   1      40.728  30.691  32.953  1.00  0.00     0.074 A 
ATOM     50  C   UNL A   1      39.551  31.506  32.741  1.00  0.00     0.031 C 
ATOM     51  C   UNL A   1      40.567  26.625  27.970  1.00  0.00     0.029 A 
ATOM     52  C   UNL A   1      41.581  26.702  29.022  1.00  0.00     0.049 A 
ATOM     53  H   UNL A   1      41.578  27.964  30.679  1.00  0.00     0.167 HD
ATOM     54  C   UNL A   1      41.550  30.804  34.023  1.00  0.00     0.037 A 
ATOM     55  C   UNL A   1      42.696  25.949  29.100  1.00  0.00     0.037 A 
ATOM     56  C   UNL A   1      42.729  30.004  34.222  1.00  0.00     0.049 A 
ATOM     57  C   UNL A   1      43.649  26.158  30.254  1.00  0.00     0.074 A 
ATOM     58  C   UNL A   1      43.642  30.059  35.260  1.00  0.00     0.029 A 
ATOM     59  N   UNL A   1      43.161  29.003  33.363  1.00  0.00    -0.354 N 
ATOM     60  N   UNL A   1      43.557  26.994  31.262  1.00  0.00    -0.248 NA
ATOM     61  C   UNL A   1      44.857  25.320  30.281  1.00  0.00     0.031 C 
ATOM     62  C   UNL A   1      44.646  29.117  35.012  1.00  0.00     0.029 A 
ATOM     63  C   UNL A   1      44.331  28.441  33.843  1.00  0.00     0.049 A 
ATOM     64  H   UNL A   1      42.702  28.733  32.536  1.00  0.00     0.167 HD
ATOM     65  C   UNL A   1      44.674  26.756  32.057  1.00  0.00     0.074 A 
ATOM     66  C   UNL A   1      45.421  25.692  31.422  1.00  0.00     0.031 C 
ATOM     67  C   UNL A   1      45.049  27.363  33.211  1.00  0.00     0.037 A 
BRANCH  54  68
ATOM     68  C   UNL A   1      41.205  31.837  35.060  1.00  0.00     0.058 A 
ATOM     69  C   UNL A   1      40.233  31.591  36.041  1.00  0.00     0.135 A 
ATOM     70  C   UNL A   1      41.883  33.065  35.102  1.00  0.00     0.135 A 
ATOM     71  F   UNL A   1      39.540  30.441  36.033  1.00  0.00    -0.206 F 
ATOM     72  C   UNL A   1      39.935  32.532  37.021  1.00  0.00     0.059 A 
ATOM     73  C   UNL A   1      41.620  34.011  36.088  1.00  0.00     0.059 A 
ATOM     74  F   UNL A   1      42.819  33.354  34.182  1.00  0.00    -0.206 F 
ATOM     75  C   UNL A   1      40.637  33.738  37.038  1.00  0.00     0.060 A 
BRANCH  75  76
ATOM     76  S   UNL A   1      40.253  34.938  38.332  1.00  0.00     0.124 S 
ATOM     77  O   UNL A   1      41.588  35.370  38.734  1.00  0.00    -0.237 OA
ATOM     78  O   UNL A   1      39.458  35.928  37.611  1.00  0.00    -0.237 OA
ATOM     79  O   UNL A   1      39.524  34.151  39.320  1.00  0.00    -0.744 OA
ENDBRANCH  75  76
ENDBRANCH  54  68
BRANCH  55  80
ATOM     80  C   UNL A   1      43.006  24.944  28.046  1.00  0.00     0.058 A 
ATOM     81  C   UNL A   1      42.717  23.584  28.229  1.00  0.00     0.135 A 
ATOM     82  C   UNL A   1      43.647  25.320  26.854  1.00  0.00     0.135 A 
ATOM     83  F   UNL A   1      42.116  23.173  29.356  1.00  0.00    -0.206 F 
ATOM     84  C   UNL A   1      43.085  22.626  27.289  1.00  0.00     0.059 A 
ATOM     85  C   UNL A   1      43.996  24.385  25.884  1.00  0.00     0.059 A 
ATOM     86  F   UNL A   1      43.936  26.609  26.622  1.00  0.00    -0.206 F 
ATOM     87  C   UNL A   1      43.729  23.038  26.120  1.00  0.00     0.060 A 
BRANCH  87  88
ATOM     88  S   UNL A   1      44.201  21.788  24.904  1.00  0.00     0.124 S 
ATOM     89  O   UNL A   1      44.080  22.535  23.657  1.00  0.00    -0.237 OA
ATOM     90  O   UNL A   1      45.560  21.455  25.319  1.00  0.00    -0.237 OA
ATOM     91  O   UNL A   1      43.213  20.734  25.108  1.00  0.00    -0.744 OA
ENDBRANCH  87  88
ENDBRANCH  55  80
BRANCH  67  92
ATOM     92  C   UNL A   1      46.292  26.857  33.895  1.00  0.00     0.058 A 
ATOM     93  C   UNL A   1      46.247  25.834  34.854  1.00  0.00     0.135 A 
ATOM     94  C   UNL A   1      47.552  27.367  33.540  1.00  0.00     0.135 A 
ATOM     95  F   UNL A   1      45.068  25.314  35.233  1.00  0.00    -0.206 F 
ATOM     96  C   UNL A   1      47.404  25.351  35.457  1.00  0.00     0.059 A 
ATOM     97  C   UNL A   1      48.725  26.879  34.108  1.00  0.00     0.059 A 
ATOM     98  F   UNL A   1      47.654  28.338  32.618  1.00  0.00    -0.206 F 
ATOM     99  C   UNL A   1      48.640  25.879  35.075  1.00  0.00     0.060 A 
BRANCH  99 100
ATOM    100  S   UNL A   1      50.137  25.219  35.838  1.00  0.00     0.124 S 
ATOM    101  O   UNL A   1      49.865  23.785  35.827  1.00  0.00    -0.237 OA
ATOM    102  O   UNL A   1      51.180  25.674  34.924  1.00  0.00    -0.237 OA
ATOM    103  O   UNL A   1      50.151  25.845  37.157  1.00  0.00    -0.744 OA
ENDBRANCH  99 100
ENDBRANCH  67  92
ENDBRANCH  41  42
ENDBRANCH  34  36
ENDBRANCH  33  34
ENDBRANCH  32  33
ENDBRANCH  31  32
ENDBRANCH  30  31
ENDBRANCH  29  30
ENDBRANCH   1  29
TORSDOF 25
ENDMDL
