MODEL 1
REMARK VINA RESULT:     -10.5      0.000      0.000
REMARK SMILES CCc1cc(OC(F)(F)F)cc2c1O[C@@H](C(F)(F)F)C(C(=O)OCCOCCOCCOC(=O)c1ccc(-c3c4nc(c(-c5c(F)cc(S(=O)(=O)[O-])cc5F)c5ccc([nH]5)c(-c5c(F)cc(S(=O)(=O)[O-])cc5F)c5nc(c(-c6c(F)cc(S(=O)(=O)[O-])cc6F)c6ccc3[nH]6)C=C5)C=C4)cc1)=C2
REMARK SMILES IDX 28 1 27 2 26 3 25 4 24 5 23 6 21 7 22 8 20 9 3 10 4 11 13 12
REMARK SMILES IDX 5 13 12 14 14 15 11 16 101 17 15 18 2 19 1 20 6 21 7 22 8 23
REMARK SMILES IDX 9 24 10 25 16 26 17 27 18 28 19 29 29 30 30 31 31 32 32 33
REMARK SMILES IDX 33 34 34 35 35 36 36 37 100 38 37 39 99 40 38 41 39 42 40 43
REMARK SMILES IDX 93 44 41 45 98 46 92 47 94 48 42 49 97 50 91 51 90 52 43 54
REMARK SMILES IDX 77 55 56 56 76 57 57 58 60 59 75 60 95 61 58 62 59 63 74 65
REMARK SMILES IDX 96 66 61 67 44 68 45 69 54 70 46 71 47 72 53 73 55 74 48 75
REMARK SMILES IDX 49 76 50 77 51 78 52 79 78 80 79 81 88 82 80 83 81 84 87 85
REMARK SMILES IDX 89 86 82 87 83 88 84 89 85 90 86 91 62 92 63 93 72 94 64 95
REMARK SMILES IDX 65 96 71 97 73 98 66 99 67 100 68 101 69 102 70 103
REMARK H PARENT 94 53 60 64
REMARK Flexibility Score: inf
ROOT
ATOM      1  C   UNL A   1      34.820  31.712  27.849  1.00  0.00     0.188 C 
ENDROOT
BRANCH   1   2
ATOM      2  C   UNL A   1      34.106  30.358  28.044  1.00  0.00     0.188 C 
BRANCH   2   3
ATOM      3  O   UNL A   1      33.369  29.933  26.908  1.00  0.00    -0.376 OA
BRANCH   3   4
ATOM      4  C   UNL A   1      32.156  29.244  27.173  1.00  0.00     0.202 C 
BRANCH   4   5
ATOM      5  C   UNL A   1      32.265  27.720  27.057  1.00  0.00     0.261 C 
BRANCH   5   6
ATOM      6  O   UNL A   1      31.025  27.064  26.747  1.00  0.00    -0.460 OA
BRANCH   6   7
ATOM      7  C   UNL A   1      30.875  26.585  25.492  1.00  0.00     0.338 C 
ATOM      8  O   UNL A   1      30.104  27.011  24.651  1.00  0.00    -0.246 OA
BRANCH   7   9
ATOM      9  C   UNL A   1      31.854  25.503  25.262  1.00  0.00     0.087 C 
ATOM     10  C   UNL A   1      34.418  22.433  24.012  1.00  0.00    -0.002 A 
ATOM     11  C   UNL A   1      34.256  21.150  24.566  1.00  0.00     0.054 A 
ATOM     12  C   UNL A   1      33.549  23.453  24.436  1.00  0.00     0.131 A 
ATOM     13  C   UNL A   1      33.234  20.883  25.483  1.00  0.00     0.130 A 
ATOM     14  C   UNL A   1      32.515  23.198  25.346  1.00  0.00     0.021 A 
ATOM     15  O   UNL A   1      33.703  24.695  23.867  1.00  0.00    -0.475 OA
ATOM     16  C   UNL A   1      32.375  21.914  25.878  1.00  0.00     0.058 A 
ATOM     17  C   UNL A   1      31.547  24.252  25.643  1.00  0.00     0.027 C 
ATOM     18  C   UNL A   1      33.203  25.809  24.653  1.00  0.00     0.316 C 
BRANCH  10  19
ATOM     19  C   UNL A   1      35.515  22.756  23.016  1.00  0.00     0.036 C 
ATOM     20  C   UNL A   1      36.932  22.875  23.566  1.00  0.00     0.009 C 
ENDBRANCH  10  19
BRANCH  13  21
ATOM     21  O   UNL A   1      32.969  19.672  26.061  1.00  0.00    -0.406 OA
BRANCH  21  22
ATOM     22  C   UNL A   1      32.991  18.528  25.221  1.00  0.00     0.573 C 
ATOM     23  F   UNL A   1      32.970  17.387  25.941  1.00  0.00    -0.132 F 
ATOM     24  F   UNL A   1      31.956  18.539  24.355  1.00  0.00    -0.132 F 
ATOM     25  F   UNL A   1      34.137  18.544  24.503  1.00  0.00    -0.132 F 
ENDBRANCH  21  22
ENDBRANCH  13  21
BRANCH  18  26
ATOM     26  C   UNL A   1      33.338  27.089  23.815  1.00  0.00     0.430 C 
ATOM     27  F   UNL A   1      34.170  27.975  24.416  1.00  0.00    -0.167 F 
ATOM     28  F   UNL A   1      33.899  26.807  22.613  1.00  0.00    -0.167 F 
ATOM     29  F   UNL A   1      32.155  27.690  23.582  1.00  0.00    -0.167 F 
ENDBRANCH  18  26
ENDBRANCH   7   9
ENDBRANCH   6   7
ENDBRANCH   5   6
ENDBRANCH   4   5
ENDBRANCH   3   4
ENDBRANCH   2   3
ENDBRANCH   1   2
BRANCH   1  30
ATOM     30  O   UNL A   1      34.541  32.809  28.710  1.00  0.00    -0.376 OA
BRANCH  30  31
ATOM     31  C   UNL A   1      34.784  32.687  30.103  1.00  0.00     0.202 C 
BRANCH  31  32
ATOM     32  C   UNL A   1      36.235  32.657  30.593  1.00  0.00     0.261 C 
BRANCH  32  33
ATOM     33  O   UNL A   1      36.528  31.625  31.548  1.00  0.00    -0.460 OA
BRANCH  33  34
ATOM     34  C   UNL A   1      36.861  30.429  31.003  1.00  0.00     0.338 C 
ATOM     35  O   UNL A   1      36.122  29.477  30.817  1.00  0.00    -0.246 OA
BRANCH  34  36
ATOM     36  C   UNL A   1      38.245  30.461  30.487  1.00  0.00     0.060 A 
ATOM     37  C   UNL A   1      38.425  30.268  29.111  1.00  0.00     0.016 A 
ATOM     38  C   UNL A   1      39.349  30.560  31.338  1.00  0.00     0.016 A 
ATOM     39  C   UNL A   1      39.705  30.105  28.587  1.00  0.00     0.010 A 
ATOM     40  C   UNL A   1      40.635  30.376  30.813  1.00  0.00     0.010 A 
ATOM     41  C   UNL A   1      40.812  30.097  29.445  1.00  0.00    -0.014 A 
BRANCH  41  42
ATOM     42  C   UNL A   1      42.098  29.554  28.942  1.00  0.00     0.031 A 
ATOM     43  C   UNL A   1      43.287  30.480  28.882  1.00  0.00     0.074 A 
ATOM     44  C   UNL A   1      42.232  28.259  28.607  1.00  0.00     0.049 A 
ATOM     45  N   UNL A   1      44.515  30.233  28.509  1.00  0.00    -0.248 NA
ATOM     46  C   UNL A   1      43.055  31.872  29.306  1.00  0.00     0.031 C 
ATOM     47  C   UNL A   1      41.172  27.255  28.660  1.00  0.00     0.029 A 
ATOM     48  N   UNL A   1      43.330  27.568  28.155  1.00  0.00    -0.354 N 
ATOM     49  C   UNL A   1      45.202  31.433  28.654  1.00  0.00     0.074 A 
ATOM     50  C   UNL A   1      44.249  32.415  29.119  1.00  0.00     0.031 C 
ATOM     51  C   UNL A   1      41.668  26.075  28.245  1.00  0.00     0.029 A 
ATOM     52  C   UNL A   1      43.075  26.245  27.883  1.00  0.00     0.049 A 
ATOM     53  H   UNL A   1      44.214  27.981  28.036  1.00  0.00     0.167 HD
ATOM     54  C   UNL A   1      46.512  31.694  28.430  1.00  0.00     0.037 A 
ATOM     55  C   UNL A   1      43.885  25.287  27.391  1.00  0.00     0.037 A 
ATOM     56  C   UNL A   1      47.461  30.721  27.961  1.00  0.00     0.049 A 
ATOM     57  C   UNL A   1      45.329  25.611  27.104  1.00  0.00     0.074 A 
ATOM     58  C   UNL A   1      48.808  30.889  27.695  1.00  0.00     0.029 A 
ATOM     59  N   UNL A   1      47.160  29.395  27.685  1.00  0.00    -0.354 N 
ATOM     60  N   UNL A   1      45.968  26.747  27.259  1.00  0.00    -0.248 NA
ATOM     61  C   UNL A   1      46.167  24.519  26.587  1.00  0.00     0.031 C 
ATOM     62  C   UNL A   1      49.316  29.672  27.227  1.00  0.00     0.029 A 
ATOM     63  C   UNL A   1      48.294  28.735  27.243  1.00  0.00     0.049 A 
ATOM     64  H   UNL A   1      46.271  28.985  27.788  1.00  0.00     0.167 HD
ATOM     65  C   UNL A   1      47.288  26.496  26.896  1.00  0.00     0.074 A 
ATOM     66  C   UNL A   1      47.357  25.100  26.514  1.00  0.00     0.031 C 
ATOM     67  C   UNL A   1      48.349  27.340  26.886  1.00  0.00     0.037 A 
BRANCH  54  68
ATOM     68  C   UNL A   1      46.983  33.101  28.670  1.00  0.00     0.058 A 
ATOM     69  C   UNL A   1      47.484  33.507  29.918  1.00  0.00     0.135 A 
ATOM     70  C   UNL A   1      46.943  34.051  27.638  1.00  0.00     0.135 A 
ATOM     71  F   UNL A   1      47.524  32.643  30.944  1.00  0.00    -0.206 F 
ATOM     72  C   UNL A   1      47.902  34.815  30.142  1.00  0.00     0.059 A 
ATOM     73  C   UNL A   1      47.378  35.359  27.834  1.00  0.00     0.059 A 
ATOM     74  F   UNL A   1      46.469  33.716  26.429  1.00  0.00    -0.206 F 
ATOM     75  C   UNL A   1      47.840  35.735  29.094  1.00  0.00     0.060 A 
BRANCH  75  76
ATOM     76  S   UNL A   1      48.379  37.431  29.400  1.00  0.00     0.124 S 
ATOM     77  O   UNL A   1      47.410  37.867  30.399  1.00  0.00    -0.237 OA
ATOM     78  O   UNL A   1      49.744  37.246  29.880  1.00  0.00    -0.237 OA
ATOM     79  O   UNL A   1      48.259  38.065  28.090  1.00  0.00    -0.744 OA
ENDBRANCH  75  76
ENDBRANCH  54  68
BRANCH  55  80
ATOM     80  C   UNL A   1      43.354  23.920  27.141  1.00  0.00     0.058 A 
ATOM     81  C   UNL A   1      43.203  22.996  28.185  1.00  0.00     0.135 A 
ATOM     82  C   UNL A   1      43.002  23.507  25.847  1.00  0.00     0.135 A 
ATOM     83  F   UNL A   1      43.538  23.340  29.439  1.00  0.00    -0.206 F 
ATOM     84  C   UNL A   1      42.738  21.705  27.955  1.00  0.00     0.059 A 
ATOM     85  C   UNL A   1      42.514  22.229  25.594  1.00  0.00     0.059 A 
ATOM     86  F   UNL A   1      43.121  24.357  24.814  1.00  0.00    -0.206 F 
ATOM     87  C   UNL A   1      42.397  21.331  26.654  1.00  0.00     0.060 A 
BRANCH  87  88
ATOM     88  S   UNL A   1      41.761  19.664  26.367  1.00  0.00     0.124 S 
ATOM     89  O   UNL A   1      42.092  19.005  27.625  1.00  0.00    -0.237 OA
ATOM     90  O   UNL A   1      40.343  19.911  26.130  1.00  0.00    -0.237 OA
ATOM     91  O   UNL A   1      42.515  19.215  25.200  1.00  0.00    -0.744 OA
ENDBRANCH  87  88
ENDBRANCH  55  80
BRANCH  67  92
ATOM     92  C   UNL A   1      49.688  26.771  26.506  1.00  0.00     0.058 A 
ATOM     93  C   UNL A   1      50.531  26.160  27.448  1.00  0.00     0.135 A 
ATOM     94  C   UNL A   1      50.113  26.801  25.167  1.00  0.00     0.135 A 
ATOM     95  F   UNL A   1      50.173  26.108  28.741  1.00  0.00    -0.206 F 
ATOM     96  C   UNL A   1      51.761  25.623  27.081  1.00  0.00     0.059 A 
ATOM     97  C   UNL A   1      51.328  26.247  24.774  1.00  0.00     0.059 A 
ATOM     98  F   UNL A   1      49.338  27.360  24.224  1.00  0.00    -0.206 F 
ATOM     99  C   UNL A   1      52.151  25.674  25.741  1.00  0.00     0.060 A 
BRANCH  99 100
ATOM    100  S   UNL A   1      53.740  24.956  25.270  1.00  0.00     0.124 S 
ATOM    101  O   UNL A   1      53.408  23.537  25.191  1.00  0.00    -0.237 OA
ATOM    102  O   UNL A   1      54.020  25.614  23.997  1.00  0.00    -0.237 OA
ATOM    103  O   UNL A   1      54.622  25.334  26.370  1.00  0.00    -0.744 OA
ENDBRANCH  99 100
ENDBRANCH  67  92
ENDBRANCH  41  42
ENDBRANCH  34  36
ENDBRANCH  33  34
ENDBRANCH  32  33
ENDBRANCH  31  32
ENDBRANCH  30  31
ENDBRANCH   1  30
TORSDOF 24
ENDMDL
MODEL 2
REMARK VINA RESULT:      -9.7      6.001     11.802
REMARK SMILES CCc1cc(OC(F)(F)F)cc2c1O[C@@H](C(F)(F)F)C(C(=O)OCCOCCOCCOC(=O)c1ccc(-c3c4nc(c(-c5c(F)cc(S(=O)(=O)[O-])cc5F)c5ccc([nH]5)c(-c5c(F)cc(S(=O)(=O)[O-])cc5F)c5nc(c(-c6c(F)cc(S(=O)(=O)[O-])cc6F)c6ccc3[nH]6)C=C5)C=C4)cc1)=C2
REMARK SMILES IDX 28 1 27 2 26 3 25 4 24 5 23 6 21 7 22 8 20 9 3 10 4 11 13 12
REMARK SMILES IDX 5 13 12 14 14 15 11 16 101 17 15 18 2 19 1 20 6 21 7 22 8 23
REMARK SMILES IDX 9 24 10 25 16 26 17 27 18 28 19 29 29 30 30 31 31 32 32 33
REMARK SMILES IDX 33 34 34 35 35 36 36 37 100 38 37 39 99 40 38 41 39 42 40 43
REMARK SMILES IDX 93 44 41 45 98 46 92 47 94 48 42 49 97 50 91 51 90 52 43 54
REMARK SMILES IDX 77 55 56 56 76 57 57 58 60 59 75 60 95 61 58 62 59 63 74 65
REMARK SMILES IDX 96 66 61 67 44 68 45 69 54 70 46 71 47 72 53 73 55 74 48 75
REMARK SMILES IDX 49 76 50 77 51 78 52 79 78 80 79 81 88 82 80 83 81 84 87 85
REMARK SMILES IDX 89 86 82 87 83 88 84 89 85 90 86 91 62 92 63 93 72 94 64 95
REMARK SMILES IDX 65 96 71 97 73 98 66 99 67 100 68 101 69 102 70 103
REMARK H PARENT 94 53 60 64
REMARK Flexibility Score: inf
ROOT
ATOM      1  C   UNL A   1      41.672  21.718  26.040  1.00  0.00     0.188 C 
ENDROOT
BRANCH   1   2
ATOM      2  C   UNL A   1      40.947  22.557  27.113  1.00  0.00     0.188 C 
BRANCH   2   3
ATOM      3  O   UNL A   1      39.534  22.558  26.977  1.00  0.00    -0.376 OA
BRANCH   3   4
ATOM      4  C   UNL A   1      38.948  23.775  26.544  1.00  0.00     0.202 C 
BRANCH   4   5
ATOM      5  C   UNL A   1      37.424  23.720  26.404  1.00  0.00     0.261 C 
BRANCH   5   6
ATOM      6  O   UNL A   1      36.961  22.855  25.354  1.00  0.00    -0.460 OA
BRANCH   6   7
ATOM      7  C   UNL A   1      35.788  22.213  25.554  1.00  0.00     0.338 C 
ATOM      8  O   UNL A   1      35.657  21.033  25.828  1.00  0.00    -0.246 OA
BRANCH   7   9
ATOM      9  C   UNL A   1      34.678  23.183  25.470  1.00  0.00     0.087 C 
ATOM     10  C   UNL A   1      31.599  25.892  24.605  1.00  0.00    -0.002 A 
ATOM     11  C   UNL A   1      31.753  27.236  24.989  1.00  0.00     0.054 A 
ATOM     12  C   UNL A   1      32.641  24.994  24.896  1.00  0.00     0.131 A 
ATOM     13  C   UNL A   1      32.927  27.680  25.608  1.00  0.00     0.130 A 
ATOM     14  C   UNL A   1      33.825  25.426  25.508  1.00  0.00     0.021 A 
ATOM     15  O   UNL A   1      32.486  23.690  24.492  1.00  0.00    -0.475 OA
ATOM     16  C   UNL A   1      33.954  26.767  25.875  1.00  0.00     0.058 A 
ATOM     17  C   UNL A   1      34.936  24.489  25.656  1.00  0.00     0.027 C 
ATOM     18  C   UNL A   1      33.263  22.710  25.230  1.00  0.00     0.316 C 
BRANCH  10  19
ATOM     19  C   UNL A   1      30.341  25.378  23.931  1.00  0.00     0.036 C 
ATOM     20  C   UNL A   1      29.150  26.329  23.879  1.00  0.00     0.009 C 
ENDBRANCH  10  19
BRANCH  13  21
ATOM     21  O   UNL A   1      33.194  28.963  25.998  1.00  0.00    -0.406 OA
BRANCH  21  22
ATOM     22  C   UNL A   1      32.172  29.661  26.693  1.00  0.00     0.573 C 
ATOM     23  F   UNL A   1      32.667  30.333  27.753  1.00  0.00    -0.132 F 
ATOM     24  F   UNL A   1      31.521  30.515  25.877  1.00  0.00    -0.132 F 
ATOM     25  F   UNL A   1      31.276  28.760  27.157  1.00  0.00    -0.132 F 
ENDBRANCH  21  22
ENDBRANCH  13  21
BRANCH  18  26
ATOM     26  C   UNL A   1      33.069  21.340  24.564  1.00  0.00     0.430 C 
ATOM     27  F   UNL A   1      31.859  21.264  23.958  1.00  0.00    -0.167 F 
ATOM     28  F   UNL A   1      33.989  21.158  23.585  1.00  0.00    -0.167 F 
ATOM     29  F   UNL A   1      33.188  20.314  25.430  1.00  0.00    -0.167 F 
ENDBRANCH  18  26
ENDBRANCH   7   9
ENDBRANCH   6   7
ENDBRANCH   5   6
ENDBRANCH   4   5
ENDBRANCH   3   4
ENDBRANCH   2   3
ENDBRANCH   1   2
BRANCH   1  30
ATOM     30  O   UNL A   1      42.517  22.342  25.081  1.00  0.00    -0.376 OA
BRANCH  30  31
ATOM     31  C   UNL A   1      43.543  23.221  25.515  1.00  0.00     0.202 C 
BRANCH  31  32
ATOM     32  C   UNL A   1      43.493  24.684  25.063  1.00  0.00     0.261 C 
BRANCH  32  33
ATOM     33  O   UNL A   1      42.315  25.400  25.467  1.00  0.00    -0.460 OA
BRANCH  33  34
ATOM     34  C   UNL A   1      42.452  26.749  25.484  1.00  0.00     0.338 C 
ATOM     35  O   UNL A   1      42.328  27.511  24.541  1.00  0.00    -0.246 OA
BRANCH  34  36
ATOM     36  C   UNL A   1      42.621  27.235  26.869  1.00  0.00     0.060 A 
ATOM     37  C   UNL A   1      41.811  26.660  27.858  1.00  0.00     0.016 A 
ATOM     38  C   UNL A   1      43.464  28.306  27.180  1.00  0.00     0.016 A 
ATOM     39  C   UNL A   1      41.788  27.194  29.144  1.00  0.00     0.010 A 
ATOM     40  C   UNL A   1      43.425  28.855  28.468  1.00  0.00     0.010 A 
ATOM     41  C   UNL A   1      42.549  28.333  29.438  1.00  0.00    -0.014 A 
BRANCH  41  42
ATOM     42  C   UNL A   1      42.231  29.102  30.666  1.00  0.00     0.031 A 
ATOM     43  C   UNL A   1      41.017  29.997  30.651  1.00  0.00     0.074 A 
ATOM     44  C   UNL A   1      42.957  28.966  31.789  1.00  0.00     0.049 A 
ATOM     45  N   UNL A   1      40.521  30.741  31.604  1.00  0.00    -0.248 NA
ATOM     46  C   UNL A   1      40.260  30.053  29.389  1.00  0.00     0.031 C 
ATOM     47  C   UNL A   1      44.126  28.103  31.945  1.00  0.00     0.029 A 
ATOM     48  N   UNL A   1      42.808  29.558  33.020  1.00  0.00    -0.354 N 
ATOM     49  C   UNL A   1      39.397  31.352  31.060  1.00  0.00     0.074 A 
ATOM     50  C   UNL A   1      39.300  30.916  29.685  1.00  0.00     0.031 C 
ATOM     51  C   UNL A   1      44.597  28.229  33.198  1.00  0.00     0.029 A 
ATOM     52  C   UNL A   1      43.773  29.193  33.928  1.00  0.00     0.049 A 
ATOM     53  H   UNL A   1      42.080  30.185  33.231  1.00  0.00     0.167 HD
ATOM     54  C   UNL A   1      38.516  32.192  31.654  1.00  0.00     0.037 A 
ATOM     55  C   UNL A   1      43.969  29.598  35.198  1.00  0.00     0.037 A 
ATOM     56  C   UNL A   1      38.613  32.633  33.019  1.00  0.00     0.049 A 
ATOM     57  C   UNL A   1      43.003  30.571  35.824  1.00  0.00     0.074 A 
ATOM     58  C   UNL A   1      37.776  33.490  33.710  1.00  0.00     0.029 A 
ATOM     59  N   UNL A   1      39.613  32.250  33.902  1.00  0.00    -0.354 N 
ATOM     60  N   UNL A   1      41.936  31.129  35.302  1.00  0.00    -0.248 NA
ATOM     61  C   UNL A   1      43.260  30.961  37.219  1.00  0.00     0.031 C 
ATOM     62  C   UNL A   1      38.288  33.652  35.003  1.00  0.00     0.029 A 
ATOM     63  C   UNL A   1      39.419  32.860  35.128  1.00  0.00     0.049 A 
ATOM     64  H   UNL A   1      40.351  31.635  33.686  1.00  0.00     0.167 HD
ATOM     65  C   UNL A   1      41.375  31.903  36.314  1.00  0.00     0.074 A 
ATOM     66  C   UNL A   1      42.220  31.741  37.480  1.00  0.00     0.031 C 
ATOM     67  C   UNL A   1      40.258  32.672  36.285  1.00  0.00     0.037 A 
BRANCH  54  68
ATOM     68  C   UNL A   1      37.382  32.707  30.811  1.00  0.00     0.058 A 
ATOM     69  C   UNL A   1      37.498  33.891  30.066  1.00  0.00     0.135 A 
ATOM     70  C   UNL A   1      36.170  32.002  30.741  1.00  0.00     0.135 A 
ATOM     71  F   UNL A   1      38.628  34.613  30.115  1.00  0.00    -0.206 F 
ATOM     72  C   UNL A   1      36.440  34.374  29.302  1.00  0.00     0.059 A 
ATOM     73  C   UNL A   1      35.108  32.455  29.965  1.00  0.00     0.059 A 
ATOM     74  F   UNL A   1      36.007  30.868  31.439  1.00  0.00    -0.206 F 
ATOM     75  C   UNL A   1      35.246  33.650  29.262  1.00  0.00     0.060 A 
BRANCH  75  76
ATOM     76  S   UNL A   1      33.879  34.292  28.272  1.00  0.00     0.124 S 
ATOM     77  O   UNL A   1      33.178  33.064  27.915  1.00  0.00    -0.237 OA
ATOM     78  O   UNL A   1      33.189  35.163  29.217  1.00  0.00    -0.237 OA
ATOM     79  O   UNL A   1      34.551  34.974  27.170  1.00  0.00    -0.744 OA
ENDBRANCH  75  76
ENDBRANCH  54  68
BRANCH  55  80
ATOM     80  C   UNL A   1      45.128  29.081  35.973  1.00  0.00     0.058 A 
ATOM     81  C   UNL A   1      45.010  27.947  36.790  1.00  0.00     0.135 A 
ATOM     82  C   UNL A   1      46.376  29.722  35.922  1.00  0.00     0.135 A 
ATOM     83  F   UNL A   1      43.834  27.307  36.882  1.00  0.00    -0.206 F 
ATOM     84  C   UNL A   1      46.080  27.476  37.544  1.00  0.00     0.059 A 
ATOM     85  C   UNL A   1      47.467  29.258  36.649  1.00  0.00     0.059 A 
ATOM     86  F   UNL A   1      46.543  30.807  35.149  1.00  0.00    -0.206 F 
ATOM     87  C   UNL A   1      47.307  28.140  37.467  1.00  0.00     0.060 A 
BRANCH  87  88
ATOM     88  S   UNL A   1      48.702  27.502  38.421  1.00  0.00     0.124 S 
ATOM     89  O   UNL A   1      48.071  26.431  39.181  1.00  0.00    -0.237 OA
ATOM     90  O   UNL A   1      49.626  27.083  37.373  1.00  0.00    -0.237 OA
ATOM     91  O   UNL A   1      49.132  28.661  39.198  1.00  0.00    -0.744 OA
ENDBRANCH  87  88
ENDBRANCH  55  80
BRANCH  67  92
ATOM     92  C   UNL A   1      39.848  33.353  37.561  1.00  0.00     0.058 A 
ATOM     93  C   UNL A   1      40.536  34.469  38.063  1.00  0.00     0.135 A 
ATOM     94  C   UNL A   1      38.720  32.905  38.268  1.00  0.00     0.135 A 
ATOM     95  F   UNL A   1      41.622  34.935  37.426  1.00  0.00    -0.206 F 
ATOM     96  C   UNL A   1      40.137  35.101  39.237  1.00  0.00     0.059 A 
ATOM     97  C   UNL A   1      38.288  33.537  39.431  1.00  0.00     0.059 A 
ATOM     98  F   UNL A   1      38.018  31.851  37.824  1.00  0.00    -0.206 F 
ATOM     99  C   UNL A   1      39.013  34.624  39.915  1.00  0.00     0.060 A 
BRANCH  99 100
ATOM    100  S   UNL A   1      38.489  35.463  41.427  1.00  0.00     0.124 S 
ATOM    101  O   UNL A   1      37.241  34.769  41.729  1.00  0.00    -0.237 OA
ATOM    102  O   UNL A   1      39.599  35.196  42.337  1.00  0.00    -0.237 OA
ATOM    103  O   UNL A   1      38.350  36.856  41.010  1.00  0.00    -0.744 OA
ENDBRANCH  99 100
ENDBRANCH  67  92
ENDBRANCH  41  42
ENDBRANCH  34  36
ENDBRANCH  33  34
ENDBRANCH  32  33
ENDBRANCH  31  32
ENDBRANCH  30  31
ENDBRANCH   1  30
TORSDOF 24
ENDMDL
MODEL 3
REMARK VINA RESULT:      -9.7      4.012     10.232
REMARK SMILES CCc1cc(OC(F)(F)F)cc2c1O[C@@H](C(F)(F)F)C(C(=O)OCCOCCOCCOC(=O)c1ccc(-c3c4nc(c(-c5c(F)cc(S(=O)(=O)[O-])cc5F)c5ccc([nH]5)c(-c5c(F)cc(S(=O)(=O)[O-])cc5F)c5nc(c(-c6c(F)cc(S(=O)(=O)[O-])cc6F)c6ccc3[nH]6)C=C5)C=C4)cc1)=C2
REMARK SMILES IDX 28 1 27 2 26 3 25 4 24 5 23 6 21 7 22 8 20 9 3 10 4 11 13 12
REMARK SMILES IDX 5 13 12 14 14 15 11 16 101 17 15 18 2 19 1 20 6 21 7 22 8 23
REMARK SMILES IDX 9 24 10 25 16 26 17 27 18 28 19 29 29 30 30 31 31 32 32 33
REMARK SMILES IDX 33 34 34 35 35 36 36 37 100 38 37 39 99 40 38 41 39 42 40 43
REMARK SMILES IDX 93 44 41 45 98 46 92 47 94 48 42 49 97 50 91 51 90 52 43 54
REMARK SMILES IDX 77 55 56 56 76 57 57 58 60 59 75 60 95 61 58 62 59 63 74 65
REMARK SMILES IDX 96 66 61 67 44 68 45 69 54 70 46 71 47 72 53 73 55 74 48 75
REMARK SMILES IDX 49 76 50 77 51 78 52 79 78 80 79 81 88 82 80 83 81 84 87 85
REMARK SMILES IDX 89 86 82 87 83 88 84 89 85 90 86 91 62 92 63 93 72 94 64 95
REMARK SMILES IDX 65 96 71 97 73 98 66 99 67 100 68 101 69 102 70 103
REMARK H PARENT 94 53 60 64
REMARK Flexibility Score: inf
ROOT
ATOM      1  C   UNL A   1      45.826  21.797  24.922  1.00  0.00     0.188 C 
ENDROOT
BRANCH   1   2
ATOM      2  C   UNL A   1      45.116  22.724  23.915  1.00  0.00     0.188 C 
BRANCH   2   3
ATOM      3  O   UNL A   1      43.705  22.566  23.889  1.00  0.00    -0.376 OA
BRANCH   3   4
ATOM      4  C   UNL A   1      42.995  23.112  24.989  1.00  0.00     0.202 C 
BRANCH   4   5
ATOM      5  C   UNL A   1      42.383  22.062  25.921  1.00  0.00     0.261 C 
BRANCH   5   6
ATOM      6  O   UNL A   1      41.025  21.714  25.602  1.00  0.00    -0.460 OA
BRANCH   6   7
ATOM      7  C   UNL A   1      40.140  21.679  26.624  1.00  0.00     0.338 C 
ATOM      8  O   UNL A   1      40.388  21.360  27.773  1.00  0.00    -0.246 OA
BRANCH   7   9
ATOM      9  C   UNL A   1      38.829  22.168  26.152  1.00  0.00     0.087 C 
ATOM     10  C   UNL A   1      34.967  23.625  25.427  1.00  0.00    -0.002 A 
ATOM     11  C   UNL A   1      34.022  22.769  24.832  1.00  0.00     0.054 A 
ATOM     12  C   UNL A   1      36.257  23.123  25.670  1.00  0.00     0.131 A 
ATOM     13  C   UNL A   1      34.342  21.442  24.525  1.00  0.00     0.130 A 
ATOM     14  C   UNL A   1      36.589  21.794  25.376  1.00  0.00     0.021 A 
ATOM     15  O   UNL A   1      37.161  23.962  26.275  1.00  0.00    -0.475 OA
ATOM     16  C   UNL A   1      35.631  20.965  24.789  1.00  0.00     0.058 A 
ATOM     17  C   UNL A   1      37.894  21.276  25.781  1.00  0.00     0.027 C 
ATOM     18  C   UNL A   1      38.560  23.650  26.039  1.00  0.00     0.316 C 
BRANCH  10  19
ATOM     19  C   UNL A   1      34.653  25.068  25.773  1.00  0.00     0.036 C 
ATOM     20  C   UNL A   1      33.200  25.397  26.101  1.00  0.00     0.009 C 
ENDBRANCH  10  19
BRANCH  13  21
ATOM     21  O   UNL A   1      33.497  20.519  23.972  1.00  0.00    -0.406 OA
BRANCH  21  22
ATOM     22  C   UNL A   1      32.548  19.906  24.830  1.00  0.00     0.573 C 
ATOM     23  F   UNL A   1      32.008  18.807  24.262  1.00  0.00    -0.132 F 
ATOM     24  F   UNL A   1      33.101  19.579  26.016  1.00  0.00    -0.132 F 
ATOM     25  F   UNL A   1      31.548  20.786  25.063  1.00  0.00    -0.132 F 
ENDBRANCH  21  22
ENDBRANCH  13  21
BRANCH  18  26
ATOM     26  C   UNL A   1      39.416  24.601  26.889  1.00  0.00     0.430 C 
ATOM     27  F   UNL A   1      38.850  25.831  26.956  1.00  0.00    -0.167 F 
ATOM     28  F   UNL A   1      39.488  24.153  28.167  1.00  0.00    -0.167 F 
ATOM     29  F   UNL A   1      40.676  24.725  26.428  1.00  0.00    -0.167 F 
ENDBRANCH  18  26
ENDBRANCH   7   9
ENDBRANCH   6   7
ENDBRANCH   5   6
ENDBRANCH   4   5
ENDBRANCH   3   4
ENDBRANCH   2   3
ENDBRANCH   1   2
BRANCH   1  30
ATOM     30  O   UNL A   1      46.133  22.251  26.235  1.00  0.00    -0.376 OA
BRANCH  30  31
ATOM     31  C   UNL A   1      45.965  23.623  26.560  1.00  0.00     0.202 C 
BRANCH  31  32
ATOM     32  C   UNL A   1      47.124  24.361  27.237  1.00  0.00     0.261 C 
BRANCH  32  33
ATOM     33  O   UNL A   1      48.296  24.521  26.420  1.00  0.00    -0.460 OA
BRANCH  33  34
ATOM     34  C   UNL A   1      49.343  25.112  27.046  1.00  0.00     0.338 C 
ATOM     35  O   UNL A   1      50.392  24.586  27.376  1.00  0.00    -0.246 OA
BRANCH  34  36
ATOM     36  C   UNL A   1      49.130  26.571  27.149  1.00  0.00     0.060 A 
ATOM     37  C   UNL A   1      49.573  27.206  28.316  1.00  0.00     0.016 A 
ATOM     38  C   UNL A   1      48.412  27.282  26.184  1.00  0.00     0.016 A 
ATOM     39  C   UNL A   1      49.244  28.538  28.557  1.00  0.00     0.010 A 
ATOM     40  C   UNL A   1      48.064  28.616  26.437  1.00  0.00     0.010 A 
ATOM     41  C   UNL A   1      48.436  29.230  27.647  1.00  0.00    -0.014 A 
BRANCH  41  42
ATOM     42  C   UNL A   1      47.789  30.491  28.088  1.00  0.00     0.031 A 
ATOM     43  C   UNL A   1      48.463  31.795  27.740  1.00  0.00     0.074 A 
ATOM     44  C   UNL A   1      46.604  30.491  28.722  1.00  0.00     0.049 A 
ATOM     45  N   UNL A   1      48.081  33.021  27.988  1.00  0.00    -0.248 NA
ATOM     46  C   UNL A   1      49.738  31.700  27.010  1.00  0.00     0.031 C 
ATOM     47  C   UNL A   1      45.833  29.302  29.078  1.00  0.00     0.029 A 
ATOM     48  N   UNL A   1      45.840  31.538  29.178  1.00  0.00    -0.354 N 
ATOM     49  C   UNL A   1      49.064  33.840  27.445  1.00  0.00     0.074 A 
ATOM     50  C   UNL A   1      50.075  32.974  26.882  1.00  0.00     0.031 C 
ATOM     51  C   UNL A   1      44.708  29.684  29.707  1.00  0.00     0.029 A 
ATOM     52  C   UNL A   1      44.687  31.144  29.813  1.00  0.00     0.049 A 
ATOM     53  H   UNL A   1      46.095  32.481  29.061  1.00  0.00     0.167 HD
ATOM     54  C   UNL A   1      49.117  35.193  27.408  1.00  0.00     0.037 A 
ATOM     55  C   UNL A   1      43.731  31.878  30.415  1.00  0.00     0.037 A 
ATOM     56  C   UNL A   1      48.116  36.056  27.974  1.00  0.00     0.049 A 
ATOM     57  C   UNL A   1      43.834  33.382  30.404  1.00  0.00     0.074 A 
ATOM     58  C   UNL A   1      48.082  37.439  27.995  1.00  0.00     0.029 A 
ATOM     59  N   UNL A   1      46.969  35.618  28.620  1.00  0.00    -0.354 N 
ATOM     60  N   UNL A   1      44.763  34.144  29.874  1.00  0.00    -0.248 NA
ATOM     61  C   UNL A   1      42.752  34.129  31.061  1.00  0.00     0.031 C 
ATOM     62  C   UNL A   1      46.931  37.838  28.685  1.00  0.00     0.029 A 
ATOM     63  C   UNL A   1      46.227  36.702  29.053  1.00  0.00     0.049 A 
ATOM     64  H   UNL A   1      46.722  34.674  28.752  1.00  0.00     0.167 HD
ATOM     65  C   UNL A   1      44.357  35.456  30.101  1.00  0.00     0.074 A 
ATOM     66  C   UNL A   1      43.098  35.385  30.815  1.00  0.00     0.031 C 
ATOM     67  C   UNL A   1      44.965  36.614  29.744  1.00  0.00     0.037 A 
BRANCH  54  68
ATOM     68  C   UNL A   1      50.317  35.816  26.751  1.00  0.00     0.058 A 
ATOM     69  C   UNL A   1      50.315  36.159  25.390  1.00  0.00     0.135 A 
ATOM     70  C   UNL A   1      51.477  36.082  27.494  1.00  0.00     0.135 A 
ATOM     71  F   UNL A   1      49.238  35.905  24.630  1.00  0.00    -0.206 F 
ATOM     72  C   UNL A   1      51.434  36.718  24.780  1.00  0.00     0.059 A 
ATOM     73  C   UNL A   1      52.599  36.662  26.910  1.00  0.00     0.059 A 
ATOM     74  F   UNL A   1      51.532  35.769  28.797  1.00  0.00    -0.206 F 
ATOM     75  C   UNL A   1      52.574  36.962  25.549  1.00  0.00     0.060 A 
BRANCH  75  76
ATOM     76  S   UNL A   1      54.021  37.682  24.745  1.00  0.00     0.124 S 
ATOM     77  O   UNL A   1      53.645  39.089  24.677  1.00  0.00    -0.237 OA
ATOM     78  O   UNL A   1      55.094  37.357  25.679  1.00  0.00    -0.237 OA
ATOM     79  O   UNL A   1      54.078  36.984  23.464  1.00  0.00    -0.744 OA
ENDBRANCH  75  76
ENDBRANCH  54  68
BRANCH  55  80
ATOM     80  C   UNL A   1      42.584  31.205  31.080  1.00  0.00     0.058 A 
ATOM     81  C   UNL A   1      42.580  30.968  32.462  1.00  0.00     0.135 A 
ATOM     82  C   UNL A   1      41.472  30.771  30.339  1.00  0.00     0.135 A 
ATOM     83  F   UNL A   1      43.625  31.354  33.211  1.00  0.00    -0.206 F 
ATOM     84  C   UNL A   1      41.525  30.310  33.086  1.00  0.00     0.059 A 
ATOM     85  C   UNL A   1      40.396  30.131  30.943  1.00  0.00     0.059 A 
ATOM     86  F   UNL A   1      41.424  30.981  29.014  1.00  0.00    -0.206 F 
ATOM     87  C   UNL A   1      40.436  29.894  32.317  1.00  0.00     0.060 A 
BRANCH  87  88
ATOM     88  S   UNL A   1      39.054  29.071  33.139  1.00  0.00     0.124 S 
ATOM     89  O   UNL A   1      39.593  27.731  33.346  1.00  0.00    -0.237 OA
ATOM     90  O   UNL A   1      38.883  29.881  34.340  1.00  0.00    -0.237 OA
ATOM     91  O   UNL A   1      37.975  29.174  32.162  1.00  0.00    -0.744 OA
ENDBRANCH  87  88
ENDBRANCH  55  80
BRANCH  67  92
ATOM     92  C   UNL A   1      44.256  37.901  30.066  1.00  0.00     0.058 A 
ATOM     93  C   UNL A   1      43.453  38.562  29.124  1.00  0.00     0.135 A 
ATOM     94  C   UNL A   1      44.349  38.455  31.354  1.00  0.00     0.135 A 
ATOM     95  F   UNL A   1      43.332  38.075  27.879  1.00  0.00    -0.206 F 
ATOM     96  C   UNL A   1      42.788  39.744  29.439  1.00  0.00     0.059 A 
ATOM     97  C   UNL A   1      43.674  39.622  31.698  1.00  0.00     0.059 A 
ATOM     98  F   UNL A   1      45.093  37.854  32.296  1.00  0.00    -0.206 F 
ATOM     99  C   UNL A   1      42.908  40.267  30.728  1.00  0.00     0.060 A 
BRANCH  99 100
ATOM    100  S   UNL A   1      42.025  41.790  31.134  1.00  0.00     0.124 S 
ATOM    101  O   UNL A   1      40.806  41.640  30.347  1.00  0.00    -0.237 OA
ATOM    102  O   UNL A   1      41.863  41.685  32.581  1.00  0.00    -0.237 OA
ATOM    103  O   UNL A   1      42.938  42.839  30.687  1.00  0.00    -0.744 OA
ENDBRANCH  99 100
ENDBRANCH  67  92
ENDBRANCH  41  42
ENDBRANCH  34  36
ENDBRANCH  33  34
ENDBRANCH  32  33
ENDBRANCH  31  32
ENDBRANCH  30  31
ENDBRANCH   1  30
TORSDOF 24
ENDMDL
