MODEL 1
REMARK VINA RESULT:     -11.7      0.000      0.000
REMARK SMILES Cc1ccccc1NC(=O)C[NH+]1CCC(CC(=O)OCCOCCOCCOC(=O)c2ccc(-c3c4nc(c(-c5c(F)cc(S(=O)(=O)[O-])cc5F)c5ccc([nH]5)c(-c5c(F)cc(S(=O)(=O)[O-])cc5F)c5nc(c(-c6c(F)cc(S(=O)(=O)[O-])cc6F)c6ccc3[nH]6)C=C5)C=C4)cc2)CC1
REMARK SMILES IDX 23 1 22 2 21 3 20 4 19 5 17 6 18 7 16 8 15 9 12 10 13 11
REMARK SMILES IDX 98 12 14 14 97 15 11 16 9 17 8 18 10 20 7 21 1 22 2 23 3 24
REMARK SMILES IDX 4 25 6 26 5 27 24 28 25 29 26 30 27 31 28 32 29 33 30 34
REMARK SMILES IDX 31 35 32 36 96 37 33 38 95 39 34 40 35 41 36 42 89 43 37 44
REMARK SMILES IDX 94 45 88 46 90 47 38 48 93 49 87 50 86 51 39 53 73 54 52 55
REMARK SMILES IDX 72 56 53 57 56 58 71 59 91 60 54 61 55 62 70 64 92 65 57 66
REMARK SMILES IDX 40 67 41 68 50 69 42 70 43 71 49 72 51 73 44 74 45 75 46 76
REMARK SMILES IDX 47 77 48 78 74 79 75 80 84 81 76 82 77 83 83 84 85 85 78 86
REMARK SMILES IDX 79 87 80 88 81 89 82 90 58 91 59 92 68 93 60 94 61 95 67 96
REMARK SMILES IDX 69 97 62 98 63 99 64 100 65 101 66 102
REMARK H PARENT 12 13 8 19 90 52 56 63
REMARK Flexibility Score: inf
ROOT
ATOM      1  C   UNL A   1      41.492  21.774  26.795  1.00  0.00     0.188 C 
ENDROOT
BRANCH   1   2
ATOM      2  O   UNL A   1      40.517  22.513  26.081  1.00  0.00    -0.376 OA
BRANCH   2   3
ATOM      3  C   UNL A   1      39.279  21.867  26.064  1.00  0.00     0.202 C 
BRANCH   3   4
ATOM      4  C   UNL A   1      37.959  22.673  26.116  1.00  0.00     0.261 C 
BRANCH   4   5
ATOM      5  O   UNL A   1      36.450  22.363  25.335  1.00  0.00    -0.463 OA
BRANCH   5   6
ATOM      6  C   UNL A   1      35.162  21.643  25.139  1.00  0.00     0.306 C 
ATOM      7  O   UNL A   1      35.304  20.426  24.972  1.00  0.00    -0.252 OA
BRANCH   6   8
ATOM      8  C   UNL A   1      33.433  22.117  25.288  1.00  0.00     0.126 C 
BRANCH   8   9
ATOM      9  C   UNL A   1      32.803  23.563  24.619  1.00  0.00     0.011 C 
ATOM     10  N   UNL A   1      31.513  26.218  23.937  1.00  0.00    -0.327 N 
ATOM     11  C   UNL A   1      31.228  25.485  25.155  1.00  0.00     0.262 C 
ATOM     12  C   UNL A   1      32.286  25.409  22.971  1.00  0.00     0.262 C 
ATOM     13  H   UNL A   1      32.160  26.982  24.137  1.00  0.00     0.348 HD
ATOM     14  C   UNL A   1      32.497  24.749  25.583  1.00  0.00     0.066 C 
ATOM     15  C   UNL A   1      33.417  24.400  23.471  1.00  0.00     0.066 C 
BRANCH  10  16
ATOM     16  C   UNL A   1      30.299  26.934  23.437  1.00  0.00     0.363 C 
BRANCH  16  17
ATOM     17  C   UNL A   1      30.443  28.383  22.901  1.00  0.00     0.279 C 
ATOM     18  N   UNL A   1      31.247  29.344  23.456  1.00  0.00    -0.321 N 
ATOM     19  H   UNL A   1      31.218  30.221  23.009  1.00  0.00     0.170 HD
ATOM     20  O   UNL A   1      29.782  28.726  21.907  1.00  0.00    -0.268 OA
BRANCH  18  21
ATOM     21  C   UNL A   1      32.108  29.274  24.565  1.00  0.00     0.044 A 
ATOM     22  C   UNL A   1      34.142  28.670  23.094  1.00  0.00     0.046 C 
ATOM     23  C   UNL A   1      33.402  28.749  24.402  1.00  0.00    -0.027 A 
ATOM     24  C   UNL A   1      34.052  28.225  25.534  1.00  0.00     0.005 A 
ATOM     25  C   UNL A   1      33.479  28.318  26.803  1.00  0.00     0.000 A 
ATOM     26  C   UNL A   1      31.641  29.548  25.856  1.00  0.00     0.026 A 
ATOM     27  C   UNL A   1      32.309  29.044  26.973  1.00  0.00     0.002 A 
ENDBRANCH  18  21
ENDBRANCH  16  17
ENDBRANCH  10  16
ENDBRANCH   8   9
ENDBRANCH   6   8
ENDBRANCH   5   6
ENDBRANCH   4   5
ENDBRANCH   3   4
ENDBRANCH   2   3
ENDBRANCH   1   2
BRANCH   1  28
ATOM     28  C   UNL A   1      42.790  21.452  26.022  1.00  0.00     0.188 C 
BRANCH  28  29
ATOM     29  O   UNL A   1      42.987  22.184  24.807  1.00  0.00    -0.376 OA
BRANCH  29  30
ATOM     30  C   UNL A   1      44.303  22.604  24.480  1.00  0.00     0.202 C 
BRANCH  30  31
ATOM     31  C   UNL A   1      45.405  21.927  25.277  1.00  0.00     0.261 C 
BRANCH  31  32
ATOM     32  O   UNL A   1      46.403  22.699  25.993  1.00  0.00    -0.460 OA
BRANCH  32  33
ATOM     33  C   UNL A   1      46.390  23.987  26.380  1.00  0.00     0.338 C 
ATOM     34  O   UNL A   1      47.013  24.843  25.759  1.00  0.00    -0.246 OA
BRANCH  33  35
ATOM     35  C   UNL A   1      45.650  24.358  27.596  1.00  0.00     0.060 A 
ATOM     36  C   UNL A   1      46.440  24.998  28.474  1.00  0.00     0.016 A 
ATOM     37  C   UNL A   1      44.306  24.176  27.977  1.00  0.00     0.016 A 
ATOM     38  C   UNL A   1      45.873  25.308  29.693  1.00  0.00     0.010 A 
ATOM     39  C   UNL A   1      43.842  24.417  29.340  1.00  0.00     0.010 A 
ATOM     40  C   UNL A   1      44.682  24.943  30.328  1.00  0.00    -0.014 A 
BRANCH  40  41
ATOM     41  C   UNL A   1      44.372  25.072  31.958  1.00  0.00     0.031 A 
ATOM     42  C   UNL A   1      43.970  26.449  32.388  1.00  0.00     0.074 A 
ATOM     43  C   UNL A   1      44.698  24.356  33.151  1.00  0.00     0.049 A 
ATOM     44  N   UNL A   1      44.316  26.997  33.517  1.00  0.00    -0.248 NA
ATOM     45  C   UNL A   1      43.373  27.411  31.444  1.00  0.00     0.031 C 
ATOM     46  C   UNL A   1      43.708  24.089  34.238  1.00  0.00     0.029 A 
ATOM     47  N   UNL A   1      45.650  23.372  33.537  1.00  0.00    -0.354 N 
ATOM     48  C   UNL A   1      43.594  28.163  33.545  1.00  0.00     0.074 A 
ATOM     49  C   UNL A   1      43.483  28.524  32.168  1.00  0.00     0.031 C 
ATOM     50  C   UNL A   1      44.142  23.116  35.085  1.00  0.00     0.029 A 
ATOM     51  C   UNL A   1      45.491  22.706  34.726  1.00  0.00     0.049 A 
ATOM     52  H   UNL A   1      46.418  23.171  32.955  1.00  0.00     0.167 HD
ATOM     53  C   UNL A   1      42.697  28.378  34.553  1.00  0.00     0.037 A 
ATOM     54  C   UNL A   1      46.563  22.285  35.471  1.00  0.00     0.037 A 
ATOM     55  C   UNL A   1      42.805  27.342  35.583  1.00  0.00     0.049 A 
ATOM     56  C   UNL A   1      46.602  23.236  36.636  1.00  0.00     0.074 A 
ATOM     57  C   UNL A   1      41.997  26.288  35.981  1.00  0.00     0.029 A 
ATOM     58  N   UNL A   1      44.021  27.126  36.207  1.00  0.00    -0.354 N 
ATOM     59  N   UNL A   1      45.776  24.240  36.675  1.00  0.00    -0.248 NA
ATOM     60  C   UNL A   1      47.499  23.230  37.782  1.00  0.00     0.031 C 
ATOM     61  C   UNL A   1      42.696  25.537  36.970  1.00  0.00     0.029 A 
ATOM     62  C   UNL A   1      43.932  26.128  37.152  1.00  0.00     0.049 A 
ATOM     63  H   UNL A   1      44.846  27.623  36.001  1.00  0.00     0.167 HD
ATOM     64  C   UNL A   1      45.924  24.947  37.809  1.00  0.00     0.074 A 
ATOM     65  C   UNL A   1      47.086  24.337  38.436  1.00  0.00     0.031 C 
ATOM     66  C   UNL A   1      45.042  25.948  38.077  1.00  0.00     0.037 A 
BRANCH  53  67
ATOM     67  C   UNL A   1      41.497  29.314  34.425  1.00  0.00     0.058 A 
ATOM     68  C   UNL A   1      41.474  30.539  35.125  1.00  0.00     0.135 A 
ATOM     69  C   UNL A   1      40.336  29.080  33.648  1.00  0.00     0.135 A 
ATOM     70  F   UNL A   1      42.520  30.958  35.847  1.00  0.00    -0.206 F 
ATOM     71  C   UNL A   1      40.386  31.413  35.109  1.00  0.00     0.059 A 
ATOM     72  C   UNL A   1      39.219  29.918  33.648  1.00  0.00     0.059 A 
ATOM     73  F   UNL A   1      40.234  28.060  32.791  1.00  0.00    -0.206 F 
ATOM     74  C   UNL A   1      39.258  31.093  34.371  1.00  0.00     0.060 A 
BRANCH  74  75
ATOM     75  S   UNL A   1      37.900  32.267  34.296  1.00  0.00     0.124 S 
ATOM     76  O   UNL A   1      37.137  31.778  33.153  1.00  0.00    -0.237 OA
ATOM     77  O   UNL A   1      37.276  32.090  35.603  1.00  0.00    -0.237 OA
ATOM     78  O   UNL A   1      38.569  33.550  34.093  1.00  0.00    -0.744 OA
ENDBRANCH  74  75
ENDBRANCH  53  67
BRANCH  54  79
ATOM     79  C   UNL A   1      47.768  21.709  34.748  1.00  0.00     0.058 A 
ATOM     80  C   UNL A   1      48.856  22.563  34.454  1.00  0.00     0.135 A 
ATOM     81  C   UNL A   1      48.027  20.338  34.588  1.00  0.00     0.135 A 
ATOM     82  F   UNL A   1      48.677  23.895  34.453  1.00  0.00    -0.206 F 
ATOM     83  C   UNL A   1      50.163  22.090  34.246  1.00  0.00     0.059 A 
ATOM     84  C   UNL A   1      49.332  19.836  34.359  1.00  0.00     0.059 A 
ATOM     85  F   UNL A   1      47.042  19.450  34.782  1.00  0.00    -0.206 F 
ATOM     86  C   UNL A   1      50.413  20.720  34.300  1.00  0.00     0.060 A 
BRANCH  86  87
ATOM     87  S   UNL A   1      52.137  20.158  34.658  1.00  0.00     0.124 S 
ATOM     88  O   UNL A   1      51.920  18.795  35.130  1.00  0.00    -0.237 OA
ATOM     89  O   UNL A   1      52.787  20.257  33.349  1.00  0.00    -0.237 OA
ATOM     90  O   UNL A   1      52.654  21.070  35.673  1.00  0.00    -0.744 OA
ENDBRANCH  86  87
ENDBRANCH  54  79
BRANCH  66  91
ATOM     91  C   UNL A   1      45.163  26.893  39.218  1.00  0.00     0.058 A 
ATOM     92  C   UNL A   1      45.627  28.202  39.077  1.00  0.00     0.135 A 
ATOM     93  C   UNL A   1      44.824  26.483  40.530  1.00  0.00     0.135 A 
ATOM     94  F   UNL A   1      46.159  28.632  37.924  1.00  0.00    -0.206 F 
ATOM     95  C   UNL A   1      45.588  29.099  40.134  1.00  0.00     0.059 A 
ATOM     96  C   UNL A   1      44.838  27.340  41.609  1.00  0.00     0.059 A 
ATOM     97  F   UNL A   1      44.441  25.236  40.829  1.00  0.00    -0.206 F 
ATOM     98  C   UNL A   1      45.172  28.660  41.390  1.00  0.00     0.060 A 
BRANCH  98  99
ATOM     99  S   UNL A   1      45.106  29.825  42.747  1.00  0.00     0.124 S 
ATOM    100  O   UNL A   1      46.473  29.769  43.258  1.00  0.00    -0.237 OA
ATOM    101  O   UNL A   1      44.734  31.054  42.054  1.00  0.00    -0.237 OA
ATOM    102  O   UNL A   1      44.087  29.266  43.629  1.00  0.00    -0.744 OA
ENDBRANCH  98  99
ENDBRANCH  66  91
ENDBRANCH  40  41
ENDBRANCH  33  35
ENDBRANCH  32  33
ENDBRANCH  31  32
ENDBRANCH  30  31
ENDBRANCH  29  30
ENDBRANCH  28  29
ENDBRANCH   1  28
TORSDOF 24
ENDMDL
MODEL 2
REMARK VINA RESULT:     -11.2     10.691     16.435
REMARK SMILES Cc1ccccc1NC(=O)C[NH+]1CCC(CC(=O)OCCOCCOCCOC(=O)c2ccc(-c3c4nc(c(-c5c(F)cc(S(=O)(=O)[O-])cc5F)c5ccc([nH]5)c(-c5c(F)cc(S(=O)(=O)[O-])cc5F)c5nc(c(-c6c(F)cc(S(=O)(=O)[O-])cc6F)c6ccc3[nH]6)C=C5)C=C4)cc2)CC1
REMARK SMILES IDX 23 1 22 2 21 3 20 4 19 5 17 6 18 7 16 8 15 9 12 10 13 11
REMARK SMILES IDX 98 12 14 14 97 15 11 16 9 17 8 18 10 20 7 21 1 22 2 23 3 24
REMARK SMILES IDX 4 25 6 26 5 27 24 28 25 29 26 30 27 31 28 32 29 33 30 34
REMARK SMILES IDX 31 35 32 36 96 37 33 38 95 39 34 40 35 41 36 42 89 43 37 44
REMARK SMILES IDX 94 45 88 46 90 47 38 48 93 49 87 50 86 51 39 53 73 54 52 55
REMARK SMILES IDX 72 56 53 57 56 58 71 59 91 60 54 61 55 62 70 64 92 65 57 66
REMARK SMILES IDX 40 67 41 68 50 69 42 70 43 71 49 72 51 73 44 74 45 75 46 76
REMARK SMILES IDX 47 77 48 78 74 79 75 80 84 81 76 82 77 83 83 84 85 85 78 86
REMARK SMILES IDX 79 87 80 88 81 89 82 90 58 91 59 92 68 93 60 94 61 95 67 96
REMARK SMILES IDX 69 97 62 98 63 99 64 100 65 101 66 102
REMARK H PARENT 12 13 8 19 90 52 56 63
REMARK Flexibility Score: inf
ROOT
ATOM      1  C   UNL A   1      48.878  41.242  28.497  1.00  0.00     0.188 C 
ENDROOT
BRANCH   1   2
ATOM      2  O   UNL A   1      48.194  42.479  28.403  1.00  0.00    -0.376 OA
BRANCH   2   3
ATOM      3  C   UNL A   1      46.963  42.448  29.064  1.00  0.00     0.202 C 
BRANCH   3   4
ATOM      4  C   UNL A   1      45.661  42.865  28.339  1.00  0.00     0.261 C 
BRANCH   4   5
ATOM      5  O   UNL A   1      44.736  42.005  27.161  1.00  0.00    -0.463 OA
BRANCH   5   6
ATOM      6  C   UNL A   1      44.341  41.632  25.775  1.00  0.00     0.306 C 
ATOM      7  O   UNL A   1      44.855  40.576  25.388  1.00  0.00    -0.252 OA
BRANCH   6   8
ATOM      8  C   UNL A   1      43.127  42.269  24.609  1.00  0.00     0.126 C 
BRANCH   8   9
ATOM      9  C   UNL A   1      43.560  42.984  23.114  1.00  0.00     0.011 C 
ATOM     10  N   UNL A   1      44.827  44.251  20.671  1.00  0.00    -0.327 N 
ATOM     11  C   UNL A   1      45.485  44.179  21.961  1.00  0.00     0.262 C 
ATOM     12  C   UNL A   1      43.398  43.882  20.755  1.00  0.00     0.262 C 
ATOM     13  H   UNL A   1      45.195  43.527  20.053  1.00  0.00     0.348 HD
ATOM     14  C   UNL A   1      45.046  42.890  22.654  1.00  0.00     0.066 C 
ATOM     15  C   UNL A   1      42.912  42.717  21.734  1.00  0.00     0.066 C 
BRANCH  10  16
ATOM     16  C   UNL A   1      45.181  45.513  19.950  1.00  0.00     0.363 C 
BRANCH  16  17
ATOM     17  C   UNL A   1      45.780  45.424  18.521  1.00  0.00     0.279 C 
ATOM     18  N   UNL A   1      45.213  45.975  17.401  1.00  0.00    -0.321 N 
ATOM     19  H   UNL A   1      45.708  45.818  16.565  1.00  0.00     0.170 HD
ATOM     20  O   UNL A   1      46.842  44.802  18.352  1.00  0.00    -0.268 OA
BRANCH  18  21
ATOM     21  C   UNL A   1      44.035  46.728  17.260  1.00  0.00     0.044 A 
ATOM     22  C   UNL A   1      42.555  44.613  17.178  1.00  0.00     0.046 C 
ATOM     23  C   UNL A   1      42.832  46.073  16.943  1.00  0.00    -0.027 A 
ATOM     24  C   UNL A   1      41.812  46.823  16.327  1.00  0.00     0.005 A 
ATOM     25  C   UNL A   1      41.944  48.198  16.134  1.00  0.00     0.000 A 
ATOM     26  C   UNL A   1      44.072  48.127  17.254  1.00  0.00     0.026 A 
ATOM     27  C   UNL A   1      43.043  48.861  16.663  1.00  0.00     0.002 A 
ENDBRANCH  18  21
ENDBRANCH  16  17
ENDBRANCH  10  16
ENDBRANCH   8   9
ENDBRANCH   6   8
ENDBRANCH   5   6
ENDBRANCH   4   5
ENDBRANCH   3   4
ENDBRANCH   2   3
ENDBRANCH   1   2
BRANCH   1  28
ATOM     28  C   UNL A   1      48.361  40.117  27.575  1.00  0.00     0.188 C 
BRANCH  28  29
ATOM     29  O   UNL A   1      47.404  39.226  28.158  1.00  0.00    -0.376 OA
BRANCH  29  30
ATOM     30  C   UNL A   1      47.791  37.880  28.389  1.00  0.00     0.202 C 
BRANCH  30  31
ATOM     31  C   UNL A   1      47.177  36.867  27.438  1.00  0.00     0.261 C 
BRANCH  31  32
ATOM     32  O   UNL A   1      45.757  36.875  27.140  1.00  0.00    -0.460 OA
BRANCH  32  33
ATOM     33  C   UNL A   1      44.719  36.406  27.854  1.00  0.00     0.338 C 
ATOM     34  O   UNL A   1      44.131  37.119  28.663  1.00  0.00    -0.246 OA
BRANCH  33  35
ATOM     35  C   UNL A   1      44.315  35.002  27.690  1.00  0.00     0.060 A 
ATOM     36  C   UNL A   1      44.196  34.384  28.875  1.00  0.00     0.016 A 
ATOM     37  C   UNL A   1      44.032  34.228  26.546  1.00  0.00     0.016 A 
ATOM     38  C   UNL A   1      43.916  33.033  28.835  1.00  0.00     0.010 A 
ATOM     39  C   UNL A   1      43.879  32.777  26.605  1.00  0.00     0.010 A 
ATOM     40  C   UNL A   1      43.902  32.076  27.816  1.00  0.00    -0.014 A 
BRANCH  40  41
ATOM     41  C   UNL A   1      43.957  30.427  28.031  1.00  0.00     0.031 A 
ATOM     42  C   UNL A   1      44.994  29.744  27.196  1.00  0.00     0.074 A 
ATOM     43  C   UNL A   1      43.089  29.400  28.516  1.00  0.00     0.049 A 
ATOM     44  N   UNL A   1      44.842  28.573  26.646  1.00  0.00    -0.248 NA
ATOM     45  C   UNL A   1      46.180  30.462  26.693  1.00  0.00     0.031 C 
ATOM     46  C   UNL A   1      43.554  28.292  29.404  1.00  0.00     0.029 A 
ATOM     47  N   UNL A   1      41.698  29.264  28.780  1.00  0.00    -0.354 N 
ATOM     48  C   UNL A   1      46.084  28.293  26.135  1.00  0.00     0.074 A 
ATOM     49  C   UNL A   1      46.607  29.578  25.794  1.00  0.00     0.031 C 
ATOM     50  C   UNL A   1      42.510  27.657  30.003  1.00  0.00     0.029 A 
ATOM     51  C   UNL A   1      41.250  28.191  29.509  1.00  0.00     0.049 A 
ATOM     52  H   UNL A   1      41.061  29.935  28.442  1.00  0.00     0.167 HD
ATOM     53  C   UNL A   1      46.762  27.191  26.573  1.00  0.00     0.037 A 
ATOM     54  C   UNL A   1      40.024  27.619  29.280  1.00  0.00     0.037 A 
ATOM     55  C   UNL A   1      45.914  26.358  27.430  1.00  0.00     0.049 A 
ATOM     56  C   UNL A   1      40.343  26.322  28.591  1.00  0.00     0.074 A 
ATOM     57  C   UNL A   1      45.897  26.072  28.787  1.00  0.00     0.029 A 
ATOM     58  N   UNL A   1      44.709  25.884  26.941  1.00  0.00    -0.354 N 
ATOM     59  N   UNL A   1      41.573  26.048  28.271  1.00  0.00    -0.248 NA
ATOM     60  C   UNL A   1      39.428  25.273  28.164  1.00  0.00     0.031 C 
ATOM     61  C   UNL A   1      44.743  25.283  29.063  1.00  0.00     0.029 A 
ATOM     62  C   UNL A   1      44.056  25.112  27.876  1.00  0.00     0.049 A 
ATOM     63  H   UNL A   1      44.363  26.075  26.039  1.00  0.00     0.167 HD
ATOM     64  C   UNL A   1      41.670  24.829  27.710  1.00  0.00     0.074 A 
ATOM     65  C   UNL A   1      40.284  24.412  27.571  1.00  0.00     0.031 C 
ATOM     66  C   UNL A   1      42.907  24.327  27.445  1.00  0.00     0.037 A 
BRANCH  53  67
ATOM     67  C   UNL A   1      48.282  27.061  26.515  1.00  0.00     0.058 A 
ATOM     68  C   UNL A   1      49.091  27.766  27.431  1.00  0.00     0.135 A 
ATOM     69  C   UNL A   1      49.018  26.277  25.592  1.00  0.00     0.135 A 
ATOM     70  F   UNL A   1      48.563  28.495  28.422  1.00  0.00    -0.206 F 
ATOM     71  C   UNL A   1      50.487  27.749  27.397  1.00  0.00     0.059 A 
ATOM     72  C   UNL A   1      50.412  26.275  25.511  1.00  0.00     0.059 A 
ATOM     73  F   UNL A   1      48.437  25.415  24.752  1.00  0.00    -0.206 F 
ATOM     74  C   UNL A   1      51.141  27.004  26.429  1.00  0.00     0.060 A 
BRANCH  74  75
ATOM     75  S   UNL A   1      52.936  26.927  26.451  1.00  0.00     0.124 S 
ATOM     76  O   UNL A   1      53.254  26.828  25.031  1.00  0.00    -0.237 OA
ATOM     77  O   UNL A   1      53.283  28.189  27.096  1.00  0.00    -0.237 OA
ATOM     78  O   UNL A   1      53.217  25.728  27.236  1.00  0.00    -0.744 OA
ENDBRANCH  74  75
ENDBRANCH  53  67
BRANCH  54  79
ATOM     79  C   UNL A   1      38.845  28.528  28.975  1.00  0.00     0.058 A 
ATOM     80  C   UNL A   1      37.970  28.881  30.027  1.00  0.00     0.135 A 
ATOM     81  C   UNL A   1      38.697  29.280  27.799  1.00  0.00     0.135 A 
ATOM     82  F   UNL A   1      37.944  28.141  31.149  1.00  0.00    -0.206 F 
ATOM     83  C   UNL A   1      37.174  30.039  30.002  1.00  0.00     0.059 A 
ATOM     84  C   UNL A   1      37.886  30.441  27.740  1.00  0.00     0.059 A 
ATOM     85  F   UNL A   1      39.438  28.982  26.722  1.00  0.00    -0.206 F 
ATOM     86  C   UNL A   1      37.213  30.873  28.887  1.00  0.00     0.060 A 
BRANCH  86  87
ATOM     87  S   UNL A   1      36.701  32.638  29.095  1.00  0.00     0.124 S 
ATOM     88  O   UNL A   1      35.568  32.733  28.182  1.00  0.00    -0.237 OA
ATOM     89  O   UNL A   1      36.351  32.706  30.516  1.00  0.00    -0.237 OA
ATOM     90  O   UNL A   1      37.856  33.439  28.706  1.00  0.00    -0.744 OA
ENDBRANCH  86  87
ENDBRANCH  54  79
BRANCH  66  91
ATOM     91  C   UNL A   1      43.161  23.060  26.710  1.00  0.00     0.058 A 
ATOM     92  C   UNL A   1      43.689  23.022  25.418  1.00  0.00     0.135 A 
ATOM     93  C   UNL A   1      42.846  21.812  27.298  1.00  0.00     0.135 A 
ATOM     94  F   UNL A   1      43.839  24.141  24.693  1.00  0.00    -0.206 F 
ATOM     95  C   UNL A   1      44.048  21.824  24.820  1.00  0.00     0.059 A 
ATOM     96  C   UNL A   1      43.136  20.607  26.696  1.00  0.00     0.059 A 
ATOM     97  F   UNL A   1      42.261  21.696  28.497  1.00  0.00    -0.206 F 
ATOM     98  C   UNL A   1      43.785  20.624  25.479  1.00  0.00     0.060 A 
BRANCH  98  99
ATOM     99  S   UNL A   1      44.266  19.080  24.713  1.00  0.00     0.124 S 
ATOM    100  O   UNL A   1      45.478  18.742  25.453  1.00  0.00    -0.237 OA
ATOM    101  O   UNL A   1      43.099  18.247  24.987  1.00  0.00    -0.237 OA
ATOM    102  O   UNL A   1      44.469  19.440  23.314  1.00  0.00    -0.744 OA
ENDBRANCH  98  99
ENDBRANCH  66  91
ENDBRANCH  40  41
ENDBRANCH  33  35
ENDBRANCH  32  33
ENDBRANCH  31  32
ENDBRANCH  30  31
ENDBRANCH  29  30
ENDBRANCH  28  29
ENDBRANCH   1  28
TORSDOF 24
ENDMDL
MODEL 3
REMARK VINA RESULT:     -10.7      6.472      9.454
REMARK SMILES Cc1ccccc1NC(=O)C[NH+]1CCC(CC(=O)OCCOCCOCCOC(=O)c2ccc(-c3c4nc(c(-c5c(F)cc(S(=O)(=O)[O-])cc5F)c5ccc([nH]5)c(-c5c(F)cc(S(=O)(=O)[O-])cc5F)c5nc(c(-c6c(F)cc(S(=O)(=O)[O-])cc6F)c6ccc3[nH]6)C=C5)C=C4)cc2)CC1
REMARK SMILES IDX 23 1 22 2 21 3 20 4 19 5 17 6 18 7 16 8 15 9 12 10 13 11
REMARK SMILES IDX 98 12 14 14 97 15 11 16 9 17 8 18 10 20 7 21 1 22 2 23 3 24
REMARK SMILES IDX 4 25 6 26 5 27 24 28 25 29 26 30 27 31 28 32 29 33 30 34
REMARK SMILES IDX 31 35 32 36 96 37 33 38 95 39 34 40 35 41 36 42 89 43 37 44
REMARK SMILES IDX 94 45 88 46 90 47 38 48 93 49 87 50 86 51 39 53 73 54 52 55
REMARK SMILES IDX 72 56 53 57 56 58 71 59 91 60 54 61 55 62 70 64 92 65 57 66
REMARK SMILES IDX 40 67 41 68 50 69 42 70 43 71 49 72 51 73 44 74 45 75 46 76
REMARK SMILES IDX 47 77 48 78 74 79 75 80 84 81 76 82 77 83 83 84 85 85 78 86
REMARK SMILES IDX 79 87 80 88 81 89 82 90 58 91 59 92 68 93 60 94 61 95 67 96
REMARK SMILES IDX 69 97 62 98 63 99 64 100 65 101 66 102
REMARK H PARENT 12 13 8 19 90 52 56 63
REMARK Flexibility Score: inf
ROOT
ATOM      1  C   UNL A   1      33.970  24.484  24.741  1.00  0.00     0.188 C 
ENDROOT
BRANCH   1   2
ATOM      2  O   UNL A   1      33.070  24.163  23.696  1.00  0.00    -0.376 OA
BRANCH   2   3
ATOM      3  C   UNL A   1      33.379  24.838  22.512  1.00  0.00     0.202 C 
BRANCH   3   4
ATOM      4  C   UNL A   1      33.242  26.376  22.414  1.00  0.00     0.261 C 
BRANCH   4   5
ATOM      5  O   UNL A   1      32.352  27.466  23.415  1.00  0.00    -0.463 OA
BRANCH   5   6
ATOM      6  C   UNL A   1      31.466  27.821  24.558  1.00  0.00     0.306 C 
ATOM      7  O   UNL A   1      30.264  27.782  24.274  1.00  0.00    -0.252 OA
BRANCH   6   8
ATOM      8  C   UNL A   1      31.746  28.102  26.313  1.00  0.00     0.126 C 
BRANCH   8   9
ATOM      9  C   UNL A   1      32.780  29.334  26.905  1.00  0.00     0.011 C 
ATOM     10  N   UNL A   1      35.004  31.160  27.852  1.00  0.00    -0.327 N 
ATOM     11  C   UNL A   1      35.173  29.732  27.662  1.00  0.00     0.262 C 
ATOM     12  C   UNL A   1      33.584  31.563  27.786  1.00  0.00     0.262 C 
ATOM     13  H   UNL A   1      35.403  31.664  27.059  1.00  0.00     0.348 HD
ATOM     14  C   UNL A   1      34.284  29.292  26.500  1.00  0.00     0.066 C 
ATOM     15  C   UNL A   1      32.582  30.862  26.759  1.00  0.00     0.066 C 
BRANCH  10  16
ATOM     16  C   UNL A   1      35.819  31.655  29.005  1.00  0.00     0.363 C 
BRANCH  16  17
ATOM     17  C   UNL A   1      36.597  32.990  28.861  1.00  0.00     0.279 C 
ATOM     18  N   UNL A   1      36.080  34.229  29.135  1.00  0.00    -0.321 N 
ATOM     19  H   UNL A   1      36.696  34.981  28.980  1.00  0.00     0.170 HD
ATOM     20  O   UNL A   1      37.771  32.961  28.456  1.00  0.00    -0.268 OA
BRANCH  18  21
ATOM     21  C   UNL A   1      34.806  34.594  29.605  1.00  0.00     0.044 A 
ATOM     22  C   UNL A   1      34.028  35.338  27.257  1.00  0.00     0.046 C 
ATOM     23  C   UNL A   1      33.938  35.307  28.760  1.00  0.00    -0.027 A 
ATOM     24  C   UNL A   1      32.924  36.082  29.353  1.00  0.00     0.005 A 
ATOM     25  C   UNL A   1      32.714  36.062  30.731  1.00  0.00     0.000 A 
ATOM     26  C   UNL A   1      34.458  34.419  30.949  1.00  0.00     0.026 A 
ATOM     27  C   UNL A   1      33.433  35.174  31.520  1.00  0.00     0.002 A 
ENDBRANCH  18  21
ENDBRANCH  16  17
ENDBRANCH  10  16
ENDBRANCH   8   9
ENDBRANCH   6   8
ENDBRANCH   5   6
ENDBRANCH   4   5
ENDBRANCH   3   4
ENDBRANCH   2   3
ENDBRANCH   1   2
BRANCH   1  28
ATOM     28  C   UNL A   1      34.663  23.285  25.423  1.00  0.00     0.188 C 
BRANCH  28  29
ATOM     29  O   UNL A   1      36.083  23.209  25.253  1.00  0.00    -0.376 OA
BRANCH  29  30
ATOM     30  C   UNL A   1      36.784  22.159  25.902  1.00  0.00     0.202 C 
BRANCH  30  31
ATOM     31  C   UNL A   1      38.297  22.249  25.808  1.00  0.00     0.261 C 
BRANCH  31  32
ATOM     32  O   UNL A   1      39.061  23.102  26.698  1.00  0.00    -0.460 OA
BRANCH  32  33
ATOM     33  C   UNL A   1      40.388  23.172  26.906  1.00  0.00     0.338 C 
ATOM     34  O   UNL A   1      41.153  22.351  26.407  1.00  0.00    -0.246 OA
BRANCH  33  35
ATOM     35  C   UNL A   1      40.919  24.226  27.783  1.00  0.00     0.060 A 
ATOM     36  C   UNL A   1      40.217  25.364  27.661  1.00  0.00     0.016 A 
ATOM     37  C   UNL A   1      41.987  24.242  28.701  1.00  0.00     0.016 A 
ATOM     38  C   UNL A   1      40.688  26.451  28.368  1.00  0.00     0.010 A 
ATOM     39  C   UNL A   1      42.488  25.478  29.294  1.00  0.00     0.010 A 
ATOM     40  C   UNL A   1      41.870  26.714  29.067  1.00  0.00    -0.014 A 
BRANCH  40  41
ATOM     41  C   UNL A   1      42.435  28.221  29.488  1.00  0.00     0.031 A 
ATOM     42  C   UNL A   1      41.359  29.255  29.613  1.00  0.00     0.074 A 
ATOM     43  C   UNL A   1      43.674  28.932  29.438  1.00  0.00     0.049 A 
ATOM     44  N   UNL A   1      41.492  30.501  29.259  1.00  0.00    -0.248 NA
ATOM     45  C   UNL A   1      39.960  28.887  29.894  1.00  0.00     0.031 C 
ATOM     46  C   UNL A   1      44.167  29.791  30.558  1.00  0.00     0.029 A 
ATOM     47  N   UNL A   1      44.919  28.790  28.766  1.00  0.00    -0.354 N 
ATOM     48  C   UNL A   1      40.336  31.089  29.705  1.00  0.00     0.074 A 
ATOM     49  C   UNL A   1      39.367  30.044  29.607  1.00  0.00     0.031 C 
ATOM     50  C   UNL A   1      45.492  30.073  30.428  1.00  0.00     0.029 A 
ATOM     51  C   UNL A   1      45.998  29.532  29.176  1.00  0.00     0.049 A 
ATOM     52  H   UNL A   1      45.007  28.163  28.012  1.00  0.00     0.167 HD
ATOM     53  C   UNL A   1      40.402  32.102  30.620  1.00  0.00     0.037 A 
ATOM     54  C   UNL A   1      46.956  29.968  28.296  1.00  0.00     0.037 A 
ATOM     55  C   UNL A   1      41.788  32.523  30.838  1.00  0.00     0.049 A 
ATOM     56  C   UNL A   1      46.688  31.440  28.155  1.00  0.00     0.074 A 
ATOM     57  C   UNL A   1      42.681  32.401  31.892  1.00  0.00     0.029 A 
ATOM     58  N   UNL A   1      42.549  32.944  29.762  1.00  0.00    -0.354 N 
ATOM     59  N   UNL A   1      45.651  31.965  28.738  1.00  0.00    -0.248 NA
ATOM     60  C   UNL A   1      47.434  32.429  27.389  1.00  0.00     0.031 C 
ATOM     61  C   UNL A   1      43.944  32.905  31.470  1.00  0.00     0.029 A 
ATOM     62  C   UNL A   1      43.816  33.314  30.155  1.00  0.00     0.049 A 
ATOM     63  H   UNL A   1      42.225  32.975  28.832  1.00  0.00     0.167 HD
ATOM     64  C   UNL A   1      45.603  33.294  28.541  1.00  0.00     0.074 A 
ATOM     65  C   UNL A   1      46.689  33.535  27.605  1.00  0.00     0.031 C 
ATOM     66  C   UNL A   1      44.660  34.021  29.201  1.00  0.00     0.037 A 
BRANCH  53  67
ATOM     67  C   UNL A   1      39.257  32.455  31.567  1.00  0.00     0.058 A 
ATOM     68  C   UNL A   1      38.737  33.767  31.593  1.00  0.00     0.135 A 
ATOM     69  C   UNL A   1      38.625  31.573  32.478  1.00  0.00     0.135 A 
ATOM     70  F   UNL A   1      39.161  34.711  30.745  1.00  0.00    -0.206 F 
ATOM     71  C   UNL A   1      37.738  34.180  32.476  1.00  0.00     0.059 A 
ATOM     72  C   UNL A   1      37.654  31.971  33.399  1.00  0.00     0.059 A 
ATOM     73  F   UNL A   1      38.862  30.258  32.491  1.00  0.00    -0.206 F 
ATOM     74  C   UNL A   1      37.204  33.276  33.381  1.00  0.00     0.060 A 
BRANCH  74  75
ATOM     75  S   UNL A   1      35.862  33.803  34.454  1.00  0.00     0.124 S 
ATOM     76  O   UNL A   1      34.750  32.990  33.973  1.00  0.00    -0.237 OA
ATOM     77  O   UNL A   1      36.380  33.460  35.774  1.00  0.00    -0.237 OA
ATOM     78  O   UNL A   1      35.749  35.234  34.181  1.00  0.00    -0.744 OA
ENDBRANCH  74  75
ENDBRANCH  53  67
BRANCH  54  79
ATOM     79  C   UNL A   1      47.403  29.030  27.187  1.00  0.00     0.058 A 
ATOM     80  C   UNL A   1      48.192  27.907  27.525  1.00  0.00     0.135 A 
ATOM     81  C   UNL A   1      46.873  29.017  25.887  1.00  0.00     0.135 A 
ATOM     82  F   UNL A   1      48.847  27.881  28.698  1.00  0.00    -0.206 F 
ATOM     83  C   UNL A   1      48.258  26.753  26.725  1.00  0.00     0.059 A 
ATOM     84  C   UNL A   1      46.943  27.874  25.053  1.00  0.00     0.059 A 
ATOM     85  F   UNL A   1      46.163  30.066  25.449  1.00  0.00    -0.206 F 
ATOM     86  C   UNL A   1      47.545  26.706  25.530  1.00  0.00     0.060 A 
BRANCH  86  87
ATOM     87  S   UNL A   1      47.122  25.049  24.827  1.00  0.00     0.124 S 
ATOM     88  O   UNL A   1      45.682  25.165  24.624  1.00  0.00    -0.237 OA
ATOM     89  O   UNL A   1      47.914  25.009  23.595  1.00  0.00    -0.237 OA
ATOM     90  O   UNL A   1      47.509  24.073  25.840  1.00  0.00    -0.744 OA
ENDBRANCH  86  87
ENDBRANCH  54  79
BRANCH  66  91
ATOM     91  C   UNL A   1      44.405  35.468  28.979  1.00  0.00     0.058 A 
ATOM     92  C   UNL A   1      44.770  36.455  29.897  1.00  0.00     0.135 A 
ATOM     93  C   UNL A   1      43.743  35.910  27.809  1.00  0.00     0.135 A 
ATOM     94  F   UNL A   1      45.221  36.137  31.119  1.00  0.00    -0.206 F 
ATOM     95  C   UNL A   1      44.649  37.803  29.593  1.00  0.00     0.059 A 
ATOM     96  C   UNL A   1      43.555  37.243  27.514  1.00  0.00     0.059 A 
ATOM     97  F   UNL A   1      43.266  35.074  26.879  1.00  0.00    -0.206 F 
ATOM     98  C   UNL A   1      44.059  38.183  28.389  1.00  0.00     0.060 A 
BRANCH  98  99
ATOM     99  S   UNL A   1      43.921  39.923  27.993  1.00  0.00     0.124 S 
ATOM    100  O   UNL A   1      43.978  39.904  26.534  1.00  0.00    -0.237 OA
ATOM    101  O   UNL A   1      42.623  40.249  28.576  1.00  0.00    -0.237 OA
ATOM    102  O   UNL A   1      45.076  40.518  28.655  1.00  0.00    -0.744 OA
ENDBRANCH  98  99
ENDBRANCH  66  91
ENDBRANCH  40  41
ENDBRANCH  33  35
ENDBRANCH  32  33
ENDBRANCH  31  32
ENDBRANCH  30  31
ENDBRANCH  29  30
ENDBRANCH  28  29
ENDBRANCH   1  28
TORSDOF 24
ENDMDL
