MODEL 1
REMARK VINA RESULT:      -9.4      0.000      0.000
REMARK SMILES COc1ccc(/C=C2\SC(=O)N(CC(=O)N[C@H](C)C(=O)OCCOCCOCCOC(=O)c3ccc(-c4c5nc(c(-c6c(F)cc(S(=O)(=O)[O-])cc6F)c6ccc([nH]6)c(-c6c(F)cc(S(=O)(=O)[O-])cc6F)c6nc(c(-c7c(F)cc(S(=O)(=O)[O-])cc7F)c7ccc4[nH]7)C=C6)C=C5)cc3)C2=O)cc1OC
REMARK SMILES IDX 25 1 24 2 23 3 22 4 21 5 19 6 20 7 17 8 18 9 16 10 14 11
REMARK SMILES IDX 15 12 13 14 12 15 7 16 8 17 9 18 99 19 10 20 100 21 11 22
REMARK SMILES IDX 6 23 3 24 4 25 102 26 5 27 101 28 2 29 1 30 103 31 104 32
REMARK SMILES IDX 26 33 27 34 28 35 29 36 30 37 31 38 32 39 33 40 34 41 98 42
REMARK SMILES IDX 35 43 97 44 36 45 37 46 38 47 91 48 39 49 96 50 90 51 92 52
REMARK SMILES IDX 40 53 95 54 89 55 88 56 41 58 75 59 54 60 74 61 55 62 58 63
REMARK SMILES IDX 73 64 93 65 56 66 57 67 72 69 94 70 59 71 42 72 43 73 52 74
REMARK SMILES IDX 44 75 45 76 51 77 53 78 46 79 47 80 48 81 49 82 50 83 76 84
REMARK SMILES IDX 77 85 86 86 78 87 79 88 85 89 87 90 80 91 81 92 82 93 83 94
REMARK SMILES IDX 84 95 60 96 61 97 70 98 62 99 63 100 69 101 71 102 64 103
REMARK SMILES IDX 65 104 66 105 67 106 68 107
REMARK H PARENT 16 13 92 57 58 68
REMARK Flexibility Score: inf
ROOT
ATOM      1  C   UNL A   1      37.314  33.051  29.485  1.00  0.00     0.188 C 
ENDROOT
BRANCH   1   2
ATOM      2  O   UNL A   1      36.604  32.218  30.393  1.00  0.00    -0.376 OA
BRANCH   2   3
ATOM      3  C   UNL A   1      35.196  32.338  30.489  1.00  0.00     0.202 C 
BRANCH   3   4
ATOM      4  C   UNL A   1      34.431  32.825  29.251  1.00  0.00     0.261 C 
BRANCH   4   5
ATOM      5  O   UNL A   1      33.561  31.857  28.621  1.00  0.00    -0.462 OA
BRANCH   5   6
ATOM      6  C   UNL A   1      34.101  31.160  27.585  1.00  0.00     0.328 C 
ATOM      7  O   UNL A   1      35.283  31.202  27.265  1.00  0.00    -0.250 OA
BRANCH   6   8
ATOM      8  C   UNL A   1      33.050  30.424  26.727  1.00  0.00     0.189 C 
ATOM      9  C   UNL A   1      31.685  31.057  26.557  1.00  0.00     0.043 C 
BRANCH   8  10
ATOM     10  N   UNL A   1      33.640  29.848  25.516  1.00  0.00    -0.341 N 
ATOM     11  C   UNL A   1      33.265  28.910  24.614  1.00  0.00     0.240 C 
ATOM     12  O   UNL A   1      33.900  28.897  23.552  1.00  0.00    -0.273 OA
ATOM     13  H   UNL A   1      34.520  30.237  25.308  1.00  0.00     0.164 HD
BRANCH  11  14
ATOM     14  C   UNL A   1      32.069  27.971  24.779  1.00  0.00     0.229 C 
BRANCH  14  15
ATOM     15  N   UNL A   1      32.338  26.555  24.949  1.00  0.00    -0.259 N 
ATOM     16  C   UNL A   1      33.090  23.288  23.577  1.00  0.00     0.029 C 
ATOM     17  C   UNL A   1      32.736  24.301  24.386  1.00  0.00     0.083 C 
ATOM     18  S   UNL A   1      32.466  24.265  26.086  1.00  0.00    -0.022 SA
ATOM     19  C   UNL A   1      32.556  25.703  23.890  1.00  0.00     0.268 C 
ATOM     20  C   UNL A   1      32.023  25.950  26.132  1.00  0.00     0.294 C 
ATOM     21  O   UNL A   1      32.588  26.013  22.710  1.00  0.00    -0.268 OA
ATOM     22  O   UNL A   1      31.474  26.466  27.100  1.00  0.00    -0.261 OA
BRANCH  16  23
ATOM     23  C   UNL A   1      33.349  21.883  23.954  1.00  0.00    -0.020 A 
ATOM     24  C   UNL A   1      33.850  19.168  24.552  1.00  0.00     0.160 A 
ATOM     25  C   UNL A   1      32.599  19.574  24.065  1.00  0.00     0.051 A 
ATOM     26  C   UNL A   1      34.851  20.116  24.768  1.00  0.00     0.161 A 
ATOM     27  C   UNL A   1      32.349  20.922  23.773  1.00  0.00     0.012 A 
ATOM     28  C   UNL A   1      34.570  21.467  24.501  1.00  0.00     0.058 A 
BRANCH  24  29
ATOM     29  O   UNL A   1      34.068  17.823  24.672  1.00  0.00    -0.493 OA
ATOM     30  C   UNL A   1      33.384  17.071  23.672  1.00  0.00     0.278 C 
ENDBRANCH  24  29
BRANCH  26  31
ATOM     31  O   UNL A   1      36.138  19.939  25.196  1.00  0.00    -0.493 OA
ATOM     32  C   UNL A   1      37.119  20.911  24.881  1.00  0.00     0.278 C 
ENDBRANCH  26  31
ENDBRANCH  16  23
ENDBRANCH  14  15
ENDBRANCH  11  14
ENDBRANCH   8  10
ENDBRANCH   6   8
ENDBRANCH   5   6
ENDBRANCH   4   5
ENDBRANCH   3   4
ENDBRANCH   2   3
ENDBRANCH   1   2
BRANCH   1  33
ATOM     33  C   UNL A   1      38.138  34.245  30.003  1.00  0.00     0.188 C 
BRANCH  33  34
ATOM     34  O   UNL A   1      39.102  34.713  29.081  1.00  0.00    -0.376 OA
BRANCH  34  35
ATOM     35  C   UNL A   1      40.438  34.711  29.551  1.00  0.00     0.202 C 
BRANCH  35  36
ATOM     36  C   UNL A   1      41.270  35.789  28.848  1.00  0.00     0.261 C 
BRANCH  36  37
ATOM     37  O   UNL A   1      41.255  35.721  27.406  1.00  0.00    -0.460 OA
BRANCH  37  38
ATOM     38  C   UNL A   1      42.389  36.093  26.766  1.00  0.00     0.338 C 
ATOM     39  O   UNL A   1      42.680  37.220  26.406  1.00  0.00    -0.246 OA
BRANCH  38  40
ATOM     40  C   UNL A   1      43.332  34.946  26.778  1.00  0.00     0.060 A 
ATOM     41  C   UNL A   1      43.735  34.408  28.010  1.00  0.00     0.016 A 
ATOM     42  C   UNL A   1      43.817  34.402  25.588  1.00  0.00     0.016 A 
ATOM     43  C   UNL A   1      44.641  33.341  28.054  1.00  0.00     0.010 A 
ATOM     44  C   UNL A   1      44.742  33.350  25.635  1.00  0.00     0.010 A 
ATOM     45  C   UNL A   1      45.183  32.829  26.867  1.00  0.00    -0.014 A 
BRANCH  45  46
ATOM     46  C   UNL A   1      46.345  31.897  26.900  1.00  0.00     0.031 A 
ATOM     47  C   UNL A   1      47.732  32.489  26.932  1.00  0.00     0.074 A 
ATOM     48  C   UNL A   1      46.194  30.559  26.891  1.00  0.00     0.049 A 
ATOM     49  N   UNL A   1      48.894  31.895  26.840  1.00  0.00    -0.248 NA
ATOM     50  C   UNL A   1      47.815  33.952  27.083  1.00  0.00     0.031 C 
ATOM     51  C   UNL A   1      44.917  29.849  26.904  1.00  0.00     0.029 A 
ATOM     52  N   UNL A   1      47.134  29.554  26.846  1.00  0.00    -0.354 N 
ATOM     53  C   UNL A   1      49.844  32.910  26.911  1.00  0.00     0.074 A 
ATOM     54  C   UNL A   1      49.121  34.158  27.022  1.00  0.00     0.031 C 
ATOM     55  C   UNL A   1      45.152  28.525  26.840  1.00  0.00     0.029 A 
ATOM     56  C   UNL A   1      46.594  28.293  26.742  1.00  0.00     0.049 A 
ATOM     57  H   UNL A   1      48.103  29.723  26.884  1.00  0.00     0.167 HD
ATOM     58  C   UNL A   1      51.195  32.812  26.893  1.00  0.00     0.037 A 
ATOM     59  C   UNL A   1      47.189  27.096  26.552  1.00  0.00     0.037 A 
ATOM     60  C   UNL A   1      51.916  31.571  26.780  1.00  0.00     0.049 A 
ATOM     61  C   UNL A   1      48.696  27.018  26.454  1.00  0.00     0.074 A 
ATOM     62  C   UNL A   1      53.286  31.373  26.758  1.00  0.00     0.029 A 
ATOM     63  N   UNL A   1      51.331  30.318  26.666  1.00  0.00    -0.354 N 
ATOM     64  N   UNL A   1      49.582  27.983  26.534  1.00  0.00    -0.248 NA
ATOM     65  C   UNL A   1      49.286  25.687  26.240  1.00  0.00     0.031 C 
ATOM     66  C   UNL A   1      53.530  30.009  26.577  1.00  0.00     0.029 A 
ATOM     67  C   UNL A   1      52.312  29.347  26.554  1.00  0.00     0.049 A 
ATOM     68  H   UNL A   1      50.362  30.146  26.667  1.00  0.00     0.167 HD
ATOM     69  C   UNL A   1      50.828  27.370  26.419  1.00  0.00     0.074 A 
ATOM     70  C   UNL A   1      50.584  25.952  26.274  1.00  0.00     0.031 C 
ATOM     71  C   UNL A   1      52.063  27.933  26.433  1.00  0.00     0.037 A 
BRANCH  58  72
ATOM     72  C   UNL A   1      51.990  34.086  26.981  1.00  0.00     0.058 A 
ATOM     73  C   UNL A   1      52.176  34.919  25.867  1.00  0.00     0.135 A 
ATOM     74  C   UNL A   1      52.522  34.510  28.211  1.00  0.00     0.135 A 
ATOM     75  F   UNL A   1      51.706  34.554  24.663  1.00  0.00    -0.206 F 
ATOM     76  C   UNL A   1      52.875  36.118  25.963  1.00  0.00     0.059 A 
ATOM     77  C   UNL A   1      53.199  35.720  28.337  1.00  0.00     0.059 A 
ATOM     78  F   UNL A   1      52.377  33.751  29.308  1.00  0.00    -0.206 F 
ATOM     79  C   UNL A   1      53.377  36.513  27.205  1.00  0.00     0.060 A 
BRANCH  79  80
ATOM     80  S   UNL A   1      54.255  38.087  27.315  1.00  0.00     0.124 S 
ATOM     81  O   UNL A   1      55.578  37.719  26.819  1.00  0.00    -0.237 OA
ATOM     82  O   UNL A   1      53.465  38.944  26.438  1.00  0.00    -0.237 OA
ATOM     83  O   UNL A   1      54.189  38.415  28.736  1.00  0.00    -0.744 OA
ENDBRANCH  79  80
ENDBRANCH  58  72
BRANCH  59  84
ATOM     84  C   UNL A   1      46.368  25.858  26.405  1.00  0.00     0.058 A 
ATOM     85  C   UNL A   1      46.078  25.040  27.508  1.00  0.00     0.135 A 
ATOM     86  C   UNL A   1      45.897  25.445  25.148  1.00  0.00     0.135 A 
ATOM     87  F   UNL A   1      46.520  25.378  28.729  1.00  0.00    -0.206 F 
ATOM     88  C   UNL A   1      45.376  23.845  27.368  1.00  0.00     0.059 A 
ATOM     89  C   UNL A   1      45.164  24.273  24.988  1.00  0.00     0.059 A 
ATOM     90  F   UNL A   1      46.141  26.191  24.060  1.00  0.00    -0.206 F 
ATOM     91  C   UNL A   1      44.923  23.471  26.102  1.00  0.00     0.060 A 
BRANCH  91  92
ATOM     92  S   UNL A   1      43.990  21.932  25.937  1.00  0.00     0.124 S 
ATOM     93  O   UNL A   1      43.366  21.824  27.250  1.00  0.00    -0.237 OA
ATOM     94  O   UNL A   1      43.094  22.236  24.826  1.00  0.00    -0.237 OA
ATOM     95  O   UNL A   1      45.024  20.943  25.646  1.00  0.00    -0.744 OA
ENDBRANCH  91  92
ENDBRANCH  59  84
BRANCH  71  96
ATOM     96  C   UNL A   1      53.258  27.016  26.351  1.00  0.00     0.058 A 
ATOM     97  C   UNL A   1      53.769  26.352  27.477  1.00  0.00     0.135 A 
ATOM     98  C   UNL A   1      53.860  26.751  25.108  1.00  0.00     0.135 A 
ATOM     99  F   UNL A   1      53.235  26.568  28.689  1.00  0.00    -0.206 F 
ATOM    100  C   UNL A   1      54.849  25.478  27.379  1.00  0.00     0.059 A 
ATOM    101  C   UNL A   1      54.920  25.857  24.983  1.00  0.00     0.059 A 
ATOM    102  F   UNL A   1      53.406  27.348  23.995  1.00  0.00    -0.206 F 
ATOM    103  C   UNL A   1      55.415  25.234  26.126  1.00  0.00     0.060 A 
BRANCH 103 104
ATOM    104  S   UNL A   1      56.791  24.070  26.010  1.00  0.00     0.124 S 
ATOM    105  O   UNL A   1      57.128  24.154  24.592  1.00  0.00    -0.237 OA
ATOM    106  O   UNL A   1      57.766  24.648  26.929  1.00  0.00    -0.237 OA
ATOM    107  O   UNL A   1      56.205  22.804  26.441  1.00  0.00    -0.744 OA
ENDBRANCH 103 104
ENDBRANCH  71  96
ENDBRANCH  45  46
ENDBRANCH  38  40
ENDBRANCH  37  38
ENDBRANCH  36  37
ENDBRANCH  35  36
ENDBRANCH  34  35
ENDBRANCH  33  34
ENDBRANCH   1  33
TORSDOF 26
ENDMDL
MODEL 2
REMARK VINA RESULT:      -9.3      5.983      9.462
REMARK SMILES COc1ccc(/C=C2\SC(=O)N(CC(=O)N[C@H](C)C(=O)OCCOCCOCCOC(=O)c3ccc(-c4c5nc(c(-c6c(F)cc(S(=O)(=O)[O-])cc6F)c6ccc([nH]6)c(-c6c(F)cc(S(=O)(=O)[O-])cc6F)c6nc(c(-c7c(F)cc(S(=O)(=O)[O-])cc7F)c7ccc4[nH]7)C=C6)C=C5)cc3)C2=O)cc1OC
REMARK SMILES IDX 25 1 24 2 23 3 22 4 21 5 19 6 20 7 17 8 18 9 16 10 14 11
REMARK SMILES IDX 15 12 13 14 12 15 7 16 8 17 9 18 99 19 10 20 100 21 11 22
REMARK SMILES IDX 6 23 3 24 4 25 102 26 5 27 101 28 2 29 1 30 103 31 104 32
REMARK SMILES IDX 26 33 27 34 28 35 29 36 30 37 31 38 32 39 33 40 34 41 98 42
REMARK SMILES IDX 35 43 97 44 36 45 37 46 38 47 91 48 39 49 96 50 90 51 92 52
REMARK SMILES IDX 40 53 95 54 89 55 88 56 41 58 75 59 54 60 74 61 55 62 58 63
REMARK SMILES IDX 73 64 93 65 56 66 57 67 72 69 94 70 59 71 42 72 43 73 52 74
REMARK SMILES IDX 44 75 45 76 51 77 53 78 46 79 47 80 48 81 49 82 50 83 76 84
REMARK SMILES IDX 77 85 86 86 78 87 79 88 85 89 87 90 80 91 81 92 82 93 83 94
REMARK SMILES IDX 84 95 60 96 61 97 70 98 62 99 63 100 69 101 71 102 64 103
REMARK SMILES IDX 65 104 66 105 67 106 68 107
REMARK H PARENT 16 13 92 57 58 68
REMARK Flexibility Score: inf
ROOT
ATOM      1  C   UNL A   1      32.397  28.545  23.665  1.00  0.00     0.188 C 
ENDROOT
BRANCH   1   2
ATOM      2  O   UNL A   1      31.822  27.270  23.926  1.00  0.00    -0.376 OA
BRANCH   2   3
ATOM      3  C   UNL A   1      32.216  26.554  25.083  1.00  0.00     0.202 C 
BRANCH   3   4
ATOM      4  C   UNL A   1      31.137  26.227  26.126  1.00  0.00     0.261 C 
BRANCH   4   5
ATOM      5  O   UNL A   1      30.394  25.006  25.909  1.00  0.00    -0.462 OA
BRANCH   5   6
ATOM      6  C   UNL A   1      30.966  23.870  26.393  1.00  0.00     0.328 C 
ATOM      7  O   UNL A   1      31.444  23.761  27.516  1.00  0.00    -0.250 OA
BRANCH   6   8
ATOM      8  C   UNL A   1      31.113  22.758  25.333  1.00  0.00     0.189 C 
ATOM      9  C   UNL A   1      31.357  23.160  23.893  1.00  0.00     0.043 C 
BRANCH   8  10
ATOM     10  N   UNL A   1      31.919  21.638  25.826  1.00  0.00    -0.341 N 
ATOM     11  C   UNL A   1      33.193  21.214  25.643  1.00  0.00     0.240 C 
ATOM     12  O   UNL A   1      33.607  20.383  26.460  1.00  0.00    -0.273 OA
ATOM     13  H   UNL A   1      31.413  21.054  26.435  1.00  0.00     0.164 HD
BRANCH  11  14
ATOM     14  C   UNL A   1      34.154  21.769  24.592  1.00  0.00     0.229 C 
BRANCH  14  15
ATOM     15  N   UNL A   1      35.455  22.231  25.041  1.00  0.00    -0.259 N 
ATOM     16  C   UNL A   1      38.906  21.591  25.936  1.00  0.00     0.029 C 
ATOM     17  C   UNL A   1      37.695  22.149  25.770  1.00  0.00     0.083 C 
ATOM     18  S   UNL A   1      37.224  23.782  26.050  1.00  0.00    -0.022 SA
ATOM     19  C   UNL A   1      36.520  21.383  25.245  1.00  0.00     0.268 C 
ATOM     20  C   UNL A   1      35.564  23.460  25.626  1.00  0.00     0.294 C 
ATOM     21  O   UNL A   1      36.531  20.179  25.049  1.00  0.00    -0.268 OA
ATOM     22  O   UNL A   1      34.653  24.242  25.874  1.00  0.00    -0.261 OA
BRANCH  16  23
ATOM     23  C   UNL A   1      40.147  22.252  26.392  1.00  0.00    -0.020 A 
ATOM     24  C   UNL A   1      42.517  23.442  27.365  1.00  0.00     0.160 A 
ATOM     25  C   UNL A   1      41.279  23.725  27.959  1.00  0.00     0.051 A 
ATOM     26  C   UNL A   1      42.579  22.583  26.266  1.00  0.00     0.161 A 
ATOM     27  C   UNL A   1      40.103  23.139  27.473  1.00  0.00     0.012 A 
ATOM     28  C   UNL A   1      41.384  22.032  25.773  1.00  0.00     0.058 A 
BRANCH  24  29
ATOM     29  O   UNL A   1      43.634  23.931  27.983  1.00  0.00    -0.493 OA
ATOM     30  C   UNL A   1      43.507  25.310  28.324  1.00  0.00     0.278 C 
ENDBRANCH  24  29
BRANCH  26  31
ATOM     31  O   UNL A   1      43.669  22.146  25.565  1.00  0.00    -0.493 OA
ATOM     32  C   UNL A   1      44.319  23.025  24.665  1.00  0.00     0.278 C 
ENDBRANCH  26  31
ENDBRANCH  16  23
ENDBRANCH  14  15
ENDBRANCH  11  14
ENDBRANCH   8  10
ENDBRANCH   6   8
ENDBRANCH   5   6
ENDBRANCH   4   5
ENDBRANCH   3   4
ENDBRANCH   2   3
ENDBRANCH   1   2
BRANCH   1  33
ATOM     33  C   UNL A   1      32.939  29.406  24.822  1.00  0.00     0.188 C 
BRANCH  33  34
ATOM     34  O   UNL A   1      31.932  30.082  25.547  1.00  0.00    -0.376 OA
BRANCH  34  35
ATOM     35  C   UNL A   1      32.255  30.379  26.894  1.00  0.00     0.202 C 
BRANCH  35  36
ATOM     36  C   UNL A   1      33.766  30.574  27.067  1.00  0.00     0.261 C 
BRANCH  36  37
ATOM     37  O   UNL A   1      34.163  31.123  28.341  1.00  0.00    -0.460 OA
BRANCH  37  38
ATOM     38  C   UNL A   1      34.384  32.459  28.388  1.00  0.00     0.338 C 
ATOM     39  O   UNL A   1      33.543  33.335  28.289  1.00  0.00    -0.246 OA
BRANCH  38  40
ATOM     40  C   UNL A   1      35.787  32.687  28.816  1.00  0.00     0.060 A 
ATOM     41  C   UNL A   1      36.786  31.803  28.378  1.00  0.00     0.016 A 
ATOM     42  C   UNL A   1      36.122  33.762  29.640  1.00  0.00     0.016 A 
ATOM     43  C   UNL A   1      38.115  31.980  28.783  1.00  0.00     0.010 A 
ATOM     44  C   UNL A   1      37.448  33.923  30.063  1.00  0.00     0.010 A 
ATOM     45  C   UNL A   1      38.450  33.018  29.662  1.00  0.00    -0.014 A 
BRANCH  45  46
ATOM     46  C   UNL A   1      39.786  33.056  30.321  1.00  0.00     0.031 A 
ATOM     47  C   UNL A   1      40.762  34.123  29.892  1.00  0.00     0.074 A 
ATOM     48  C   UNL A   1      40.145  32.169  31.269  1.00  0.00     0.049 A 
ATOM     49  N   UNL A   1      42.017  34.287  30.223  1.00  0.00    -0.248 NA
ATOM     50  C   UNL A   1      40.249  35.140  28.958  1.00  0.00     0.031 C 
ATOM     51  C   UNL A   1      39.293  31.113  31.810  1.00  0.00     0.029 A 
ATOM     52  N   UNL A   1      41.342  32.004  31.929  1.00  0.00    -0.354 N 
ATOM     53  C   UNL A   1      42.446  35.415  29.531  1.00  0.00     0.074 A 
ATOM     54  C   UNL A   1      41.328  35.877  28.740  1.00  0.00     0.031 C 
ATOM     55  C   UNL A   1      40.001  30.393  32.700  1.00  0.00     0.029 A 
ATOM     56  C   UNL A   1      41.369  30.910  32.764  1.00  0.00     0.049 A 
ATOM     57  H   UNL A   1      42.107  32.612  31.814  1.00  0.00     0.167 HD
ATOM     58  C   UNL A   1      43.659  36.018  29.558  1.00  0.00     0.037 A 
ATOM     59  C   UNL A   1      42.385  30.366  33.467  1.00  0.00     0.037 A 
ATOM     60  C   UNL A   1      44.775  35.559  30.344  1.00  0.00     0.049 A 
ATOM     61  C   UNL A   1      43.753  31.009  33.420  1.00  0.00     0.074 A 
ATOM     62  C   UNL A   1      46.043  36.107  30.438  1.00  0.00     0.029 A 
ATOM     63  N   UNL A   1      44.763  34.442  31.166  1.00  0.00    -0.354 N 
ATOM     64  N   UNL A   1      44.143  32.082  32.771  1.00  0.00    -0.248 NA
ATOM     65  C   UNL A   1      44.823  30.367  34.202  1.00  0.00     0.031 C 
ATOM     66  C   UNL A   1      46.812  35.294  31.274  1.00  0.00     0.029 A 
ATOM     67  C   UNL A   1      46.006  34.274  31.755  1.00  0.00     0.049 A 
ATOM     68  H   UNL A   1      43.985  33.856  31.310  1.00  0.00     0.167 HD
ATOM     69  C   UNL A   1      45.485  32.261  33.098  1.00  0.00     0.074 A 
ATOM     70  C   UNL A   1      45.839  31.194  34.008  1.00  0.00     0.031 C 
ATOM     71  C   UNL A   1      46.346  33.223  32.680  1.00  0.00     0.037 A 
BRANCH  58  72
ATOM     72  C   UNL A   1      43.855  37.236  28.698  1.00  0.00     0.058 A 
ATOM     73  C   UNL A   1      44.147  37.134  27.329  1.00  0.00     0.135 A 
ATOM     74  C   UNL A   1      43.687  38.523  29.237  1.00  0.00     0.135 A 
ATOM     75  F   UNL A   1      44.337  35.930  26.765  1.00  0.00    -0.206 F 
ATOM     76  C   UNL A   1      44.284  38.263  26.528  1.00  0.00     0.059 A 
ATOM     77  C   UNL A   1      43.789  39.665  28.448  1.00  0.00     0.059 A 
ATOM     78  F   UNL A   1      43.410  38.679  30.540  1.00  0.00    -0.206 F 
ATOM     79  C   UNL A   1      44.096  39.525  27.096  1.00  0.00     0.060 A 
BRANCH  79  80
ATOM     80  S   UNL A   1      44.247  40.977  26.033  1.00  0.00     0.124 S 
ATOM     81  O   UNL A   1      42.986  40.934  25.298  1.00  0.00    -0.237 OA
ATOM     82  O   UNL A   1      44.379  42.058  27.003  1.00  0.00    -0.237 OA
ATOM     83  O   UNL A   1      45.442  40.697  25.242  1.00  0.00    -0.744 OA
ENDBRANCH  79  80
ENDBRANCH  58  72
BRANCH  59  84
ATOM     84  C   UNL A   1      42.175  29.120  34.261  1.00  0.00     0.058 A 
ATOM     85  C   UNL A   1      41.679  29.166  35.573  1.00  0.00     0.135 A 
ATOM     86  C   UNL A   1      42.509  27.861  33.737  1.00  0.00     0.135 A 
ATOM     87  F   UNL A   1      41.361  30.345  36.130  1.00  0.00    -0.206 F 
ATOM     88  C   UNL A   1      41.549  28.016  36.347  1.00  0.00     0.059 A 
ATOM     89  C   UNL A   1      42.356  26.693  34.478  1.00  0.00     0.059 A 
ATOM     90  F   UNL A   1      42.982  27.757  32.486  1.00  0.00    -0.206 F 
ATOM     91  C   UNL A   1      41.891  26.783  35.789  1.00  0.00     0.060 A 
BRANCH  91  92
ATOM     92  S   UNL A   1      41.693  25.293  36.793  1.00  0.00     0.124 S 
ATOM     93  O   UNL A   1      43.054  25.079  37.271  1.00  0.00    -0.237 OA
ATOM     94  O   UNL A   1      40.725  25.727  37.795  1.00  0.00    -0.237 OA
ATOM     95  O   UNL A   1      41.197  24.308  35.838  1.00  0.00    -0.744 OA
ENDBRANCH  91  92
ENDBRANCH  59  84
BRANCH  71  96
ATOM     96  C   UNL A   1      47.744  33.215  33.246  1.00  0.00     0.058 A 
ATOM     97  C   UNL A   1      48.804  32.550  32.610  1.00  0.00     0.135 A 
ATOM     98  C   UNL A   1      48.037  33.942  34.414  1.00  0.00     0.135 A 
ATOM     99  F   UNL A   1      48.582  31.838  31.494  1.00  0.00    -0.206 F 
ATOM    100  C   UNL A   1      50.097  32.583  33.124  1.00  0.00     0.059 A 
ATOM    101  C   UNL A   1      49.330  34.015  34.926  1.00  0.00     0.059 A 
ATOM    102  F   UNL A   1      47.067  34.609  35.057  1.00  0.00    -0.206 F 
ATOM    103  C   UNL A   1      50.352  33.323  34.280  1.00  0.00     0.060 A 
BRANCH 103 104
ATOM    104  S   UNL A   1      52.041  33.387  34.914  1.00  0.00     0.124 S 
ATOM    105  O   UNL A   1      51.880  32.804  36.242  1.00  0.00    -0.237 OA
ATOM    106  O   UNL A   1      52.768  32.571  33.947  1.00  0.00    -0.237 OA
ATOM    107  O   UNL A   1      52.361  34.812  34.890  1.00  0.00    -0.744 OA
ENDBRANCH 103 104
ENDBRANCH  71  96
ENDBRANCH  45  46
ENDBRANCH  38  40
ENDBRANCH  37  38
ENDBRANCH  36  37
ENDBRANCH  35  36
ENDBRANCH  34  35
ENDBRANCH  33  34
ENDBRANCH   1  33
TORSDOF 26
ENDMDL
MODEL 3
REMARK VINA RESULT:      -9.2      6.066     11.456
REMARK SMILES COc1ccc(/C=C2\SC(=O)N(CC(=O)N[C@H](C)C(=O)OCCOCCOCCOC(=O)c3ccc(-c4c5nc(c(-c6c(F)cc(S(=O)(=O)[O-])cc6F)c6ccc([nH]6)c(-c6c(F)cc(S(=O)(=O)[O-])cc6F)c6nc(c(-c7c(F)cc(S(=O)(=O)[O-])cc7F)c7ccc4[nH]7)C=C6)C=C5)cc3)C2=O)cc1OC
REMARK SMILES IDX 25 1 24 2 23 3 22 4 21 5 19 6 20 7 17 8 18 9 16 10 14 11
REMARK SMILES IDX 15 12 13 14 12 15 7 16 8 17 9 18 99 19 10 20 100 21 11 22
REMARK SMILES IDX 6 23 3 24 4 25 102 26 5 27 101 28 2 29 1 30 103 31 104 32
REMARK SMILES IDX 26 33 27 34 28 35 29 36 30 37 31 38 32 39 33 40 34 41 98 42
REMARK SMILES IDX 35 43 97 44 36 45 37 46 38 47 91 48 39 49 96 50 90 51 92 52
REMARK SMILES IDX 40 53 95 54 89 55 88 56 41 58 75 59 54 60 74 61 55 62 58 63
REMARK SMILES IDX 73 64 93 65 56 66 57 67 72 69 94 70 59 71 42 72 43 73 52 74
REMARK SMILES IDX 44 75 45 76 51 77 53 78 46 79 47 80 48 81 49 82 50 83 76 84
REMARK SMILES IDX 77 85 86 86 78 87 79 88 85 89 87 90 80 91 81 92 82 93 83 94
REMARK SMILES IDX 84 95 60 96 61 97 70 98 62 99 63 100 69 101 71 102 64 103
REMARK SMILES IDX 65 104 66 105 67 106 68 107
REMARK H PARENT 16 13 92 57 58 68
REMARK Flexibility Score: inf
ROOT
ATOM      1  C   UNL A   1      32.719  28.840  24.051  1.00  0.00     0.188 C 
ENDROOT
BRANCH   1   2
ATOM      2  O   UNL A   1      31.569  28.070  23.721  1.00  0.00    -0.376 OA
BRANCH   2   3
ATOM      3  C   UNL A   1      31.522  26.702  24.086  1.00  0.00     0.202 C 
BRANCH   3   4
ATOM      4  C   UNL A   1      31.072  26.355  25.512  1.00  0.00     0.261 C 
BRANCH   4   5
ATOM      5  O   UNL A   1      30.277  25.155  25.652  1.00  0.00    -0.462 OA
BRANCH   5   6
ATOM      6  C   UNL A   1      30.914  24.082  26.194  1.00  0.00     0.328 C 
ATOM      7  O   UNL A   1      31.447  24.079  27.298  1.00  0.00    -0.250 OA
BRANCH   6   8
ATOM      8  C   UNL A   1      31.055  22.895  25.218  1.00  0.00     0.189 C 
ATOM      9  C   UNL A   1      31.323  23.189  23.757  1.00  0.00     0.043 C 
BRANCH   8  10
ATOM     10  N   UNL A   1      31.835  21.800  25.799  1.00  0.00    -0.341 N 
ATOM     11  C   UNL A   1      33.107  21.350  25.672  1.00  0.00     0.240 C 
ATOM     12  O   UNL A   1      33.493  20.568  26.550  1.00  0.00    -0.273 OA
ATOM     13  H   UNL A   1      31.309  21.263  26.435  1.00  0.00     0.164 HD
BRANCH  11  14
ATOM     14  C   UNL A   1      34.097  21.823  24.608  1.00  0.00     0.229 C 
BRANCH  14  15
ATOM     15  N   UNL A   1      35.405  22.271  25.051  1.00  0.00    -0.259 N 
ATOM     16  C   UNL A   1      38.839  21.587  25.977  1.00  0.00     0.029 C 
ATOM     17  C   UNL A   1      37.639  22.164  25.792  1.00  0.00     0.083 C 
ATOM     18  S   UNL A   1      37.199  23.811  26.031  1.00  0.00    -0.022 SA
ATOM     19  C   UNL A   1      36.453  21.408  25.280  1.00  0.00     0.268 C 
ATOM     20  C   UNL A   1      35.535  23.512  25.608  1.00  0.00     0.294 C 
ATOM     21  O   UNL A   1      36.440  20.199  25.113  1.00  0.00    -0.268 OA
ATOM     22  O   UNL A   1      34.638  24.317  25.833  1.00  0.00    -0.261 OA
BRANCH  16  23
ATOM     23  C   UNL A   1      40.091  22.235  26.422  1.00  0.00    -0.020 A 
ATOM     24  C   UNL A   1      42.474  23.408  27.381  1.00  0.00     0.160 A 
ATOM     25  C   UNL A   1      41.230  23.791  27.901  1.00  0.00     0.051 A 
ATOM     26  C   UNL A   1      42.538  22.456  26.362  1.00  0.00     0.161 A 
ATOM     27  C   UNL A   1      40.047  23.212  27.421  1.00  0.00     0.012 A 
ATOM     28  C   UNL A   1      41.338  21.913  25.872  1.00  0.00     0.058 A 
BRANCH  24  29
ATOM     29  O   UNL A   1      43.590  23.904  27.998  1.00  0.00    -0.493 OA
ATOM     30  C   UNL A   1      43.932  23.170  29.173  1.00  0.00     0.278 C 
ENDBRANCH  24  29
BRANCH  26  31
ATOM     31  O   UNL A   1      43.632  21.917  25.743  1.00  0.00    -0.493 OA
ATOM     32  C   UNL A   1      43.716  20.513  25.572  1.00  0.00     0.278 C 
ENDBRANCH  26  31
ENDBRANCH  16  23
ENDBRANCH  14  15
ENDBRANCH  11  14
ENDBRANCH   8  10
ENDBRANCH   6   8
ENDBRANCH   5   6
ENDBRANCH   4   5
ENDBRANCH   3   4
ENDBRANCH   2   3
ENDBRANCH   1   2
BRANCH   1  33
ATOM     33  C   UNL A   1      32.869  29.454  25.456  1.00  0.00     0.188 C 
BRANCH  33  34
ATOM     34  O   UNL A   1      31.981  30.525  25.706  1.00  0.00    -0.376 OA
BRANCH  34  35
ATOM     35  C   UNL A   1      32.190  31.209  26.928  1.00  0.00     0.202 C 
BRANCH  35  36
ATOM     36  C   UNL A   1      33.674  31.206  27.313  1.00  0.00     0.261 C 
BRANCH  36  37
ATOM     37  O   UNL A   1      33.969  31.809  28.590  1.00  0.00    -0.460 OA
BRANCH  37  38
ATOM     38  C   UNL A   1      34.517  33.048  28.568  1.00  0.00     0.338 C 
ATOM     39  O   UNL A   1      33.935  34.093  28.337  1.00  0.00    -0.246 OA
BRANCH  38  40
ATOM     40  C   UNL A   1      35.900  32.958  29.101  1.00  0.00     0.060 A 
ATOM     41  C   UNL A   1      36.299  33.844  30.115  1.00  0.00     0.016 A 
ATOM     42  C   UNL A   1      36.800  32.012  28.611  1.00  0.00     0.016 A 
ATOM     43  C   UNL A   1      37.603  33.799  30.622  1.00  0.00     0.010 A 
ATOM     44  C   UNL A   1      38.112  31.984  29.103  1.00  0.00     0.010 A 
ATOM     45  C   UNL A   1      38.533  32.895  30.091  1.00  0.00    -0.014 A 
BRANCH  45  46
ATOM     46  C   UNL A   1      39.983  33.017  30.412  1.00  0.00     0.031 A 
ATOM     47  C   UNL A   1      40.584  32.032  31.383  1.00  0.00     0.074 A 
ATOM     48  C   UNL A   1      40.759  33.978  29.874  1.00  0.00     0.049 A 
ATOM     49  N   UNL A   1      41.780  32.007  31.913  1.00  0.00    -0.248 NA
ATOM     50  C   UNL A   1      39.711  30.929  31.817  1.00  0.00     0.031 C 
ATOM     51  C   UNL A   1      40.326  34.969  28.893  1.00  0.00     0.029 A 
ATOM     52  N   UNL A   1      42.081  34.290  30.102  1.00  0.00    -0.354 N 
ATOM     53  C   UNL A   1      41.799  30.895  32.749  1.00  0.00     0.074 A 
ATOM     54  C   UNL A   1      40.488  30.291  32.680  1.00  0.00     0.031 C 
ATOM     55  C   UNL A   1      41.353  35.796  28.623  1.00  0.00     0.029 A 
ATOM     56  C   UNL A   1      42.507  35.418  29.440  1.00  0.00     0.049 A 
ATOM     57  H   UNL A   1      42.666  33.754  30.685  1.00  0.00     0.167 HD
ATOM     58  C   UNL A   1      42.819  30.416  33.501  1.00  0.00     0.037 A 
ATOM     59  C   UNL A   1      43.677  36.090  29.512  1.00  0.00     0.037 A 
ATOM     60  C   UNL A   1      44.125  31.017  33.573  1.00  0.00     0.049 A 
ATOM     61  C   UNL A   1      44.774  35.582  30.420  1.00  0.00     0.074 A 
ATOM     62  C   UNL A   1      45.224  30.599  34.305  1.00  0.00     0.029 A 
ATOM     63  N   UNL A   1      44.512  32.164  32.896  1.00  0.00    -0.354 N 
ATOM     64  N   UNL A   1      44.784  34.524  31.197  1.00  0.00    -0.248 NA
ATOM     65  C   UNL A   1      46.023  36.360  30.462  1.00  0.00     0.031 C 
ATOM     66  C   UNL A   1      46.256  31.522  34.113  1.00  0.00     0.029 A 
ATOM     67  C   UNL A   1      45.824  32.478  33.208  1.00  0.00     0.049 A 
ATOM     68  H   UNL A   1      43.938  32.678  32.283  1.00  0.00     0.167 HD
ATOM     69  C   UNL A   1      46.047  34.491  31.784  1.00  0.00     0.074 A 
ATOM     70  C   UNL A   1      46.777  35.628  31.268  1.00  0.00     0.031 C 
ATOM     71  C   UNL A   1      46.555  33.599  32.673  1.00  0.00     0.037 A 
BRANCH  58  72
ATOM     72  C   UNL A   1      42.562  29.184  34.325  1.00  0.00     0.058 A 
ATOM     73  C   UNL A   1      41.939  29.252  35.581  1.00  0.00     0.135 A 
ATOM     74  C   UNL A   1      42.889  27.911  33.826  1.00  0.00     0.135 A 
ATOM     75  F   UNL A   1      41.623  30.443  36.116  1.00  0.00    -0.206 F 
ATOM     76  C   UNL A   1      41.663  28.107  36.320  1.00  0.00     0.059 A 
ATOM     77  C   UNL A   1      42.595  26.750  34.534  1.00  0.00     0.059 A 
ATOM     78  F   UNL A   1      43.489  27.788  32.632  1.00  0.00    -0.206 F 
ATOM     79  C   UNL A   1      41.989  26.859  35.785  1.00  0.00     0.060 A 
BRANCH  79  80
ATOM     80  S   UNL A   1      41.596  25.382  36.746  1.00  0.00     0.124 S 
ATOM     81  O   UNL A   1      41.205  24.446  35.697  1.00  0.00    -0.237 OA
ATOM     82  O   UNL A   1      42.864  25.097  37.409  1.00  0.00    -0.237 OA
ATOM     83  O   UNL A   1      40.517  25.824  37.624  1.00  0.00    -0.744 OA
ENDBRANCH  79  80
ENDBRANCH  58  72
BRANCH  59  84
ATOM     84  C   UNL A   1      43.878  37.344  28.730  1.00  0.00     0.058 A 
ATOM     85  C   UNL A   1      44.254  37.310  27.378  1.00  0.00     0.135 A 
ATOM     86  C   UNL A   1      43.741  38.605  29.333  1.00  0.00     0.135 A 
ATOM     87  F   UNL A   1      44.416  36.131  26.757  1.00  0.00    -0.206 F 
ATOM     88  C   UNL A   1      44.516  38.474  26.661  1.00  0.00     0.059 A 
ATOM     89  C   UNL A   1      43.964  39.785  28.628  1.00  0.00     0.059 A 
ATOM     90  F   UNL A   1      43.379  38.699  30.621  1.00  0.00    -0.206 F 
ATOM     91  C   UNL A   1      44.367  39.708  27.296  1.00  0.00     0.060 A 
BRANCH  91  92
ATOM     92  S   UNL A   1      44.684  41.213  26.348  1.00  0.00     0.124 S 
ATOM     93  O   UNL A   1      46.101  41.071  26.036  1.00  0.00    -0.237 OA
ATOM     94  O   UNL A   1      43.764  41.065  25.225  1.00  0.00    -0.237 OA
ATOM     95  O   UNL A   1      44.349  42.278  27.288  1.00  0.00    -0.744 OA
ENDBRANCH  91  92
ENDBRANCH  59  84
BRANCH  71  96
ATOM     96  C   UNL A   1      47.990  33.770  33.104  1.00  0.00     0.058 A 
ATOM     97  C   UNL A   1      48.345  34.513  34.240  1.00  0.00     0.135 A 
ATOM     98  C   UNL A   1      49.020  33.122  32.399  1.00  0.00     0.135 A 
ATOM     99  F   UNL A   1      47.404  35.154  34.950  1.00  0.00    -0.206 F 
ATOM    100  C   UNL A   1      49.671  34.629  34.648  1.00  0.00     0.059 A 
ATOM    101  C   UNL A   1      50.349  33.199  32.809  1.00  0.00     0.059 A 
ATOM    102  F   UNL A   1      48.739  32.387  31.312  1.00  0.00    -0.206 F 
ATOM    103  C   UNL A   1      50.666  33.965  33.929  1.00  0.00     0.060 A 
BRANCH 103 104
ATOM    104  S   UNL A   1      52.377  34.095  34.492  1.00  0.00     0.124 S 
ATOM    105  O   UNL A   1      53.077  33.292  33.494  1.00  0.00    -0.237 OA
ATOM    106  O   UNL A   1      52.616  35.533  34.431  1.00  0.00    -0.237 OA
ATOM    107  O   UNL A   1      52.338  33.528  35.837  1.00  0.00    -0.744 OA
ENDBRANCH 103 104
ENDBRANCH  71  96
ENDBRANCH  45  46
ENDBRANCH  38  40
ENDBRANCH  37  38
ENDBRANCH  36  37
ENDBRANCH  35  36
ENDBRANCH  34  35
ENDBRANCH  33  34
ENDBRANCH   1  33
TORSDOF 26
ENDMDL
