MODEL 1
REMARK VINA RESULT:     -10.6      0.000      0.000
REMARK SMILES Cc1cc(NC(=O)Nc2sc(C)c(C)c2C(=O)OCCOCCOCCOC(=O)c2ccc(-c3c4nc(c(-c5c(F)cc(S(=O)(=O)[O-])cc5F)c5ccc([nH]5)c(-c5c(F)cc(S(=O)(=O)[O-])cc5F)c5nc(c(-c6c(F)cc(S(=O)(=O)[O-])cc6F)c6ccc3[nH]6)C=C5)C=C4)cc2)ccn1
REMARK SMILES IDX 23 1 22 2 21 3 20 4 19 5 18 6 16 7 17 8 15 9 9 10 10 11
REMARK SMILES IDX 11 12 13 13 12 14 14 15 8 16 5 17 6 18 7 20 4 22 1 23 2 24
REMARK SMILES IDX 3 25 98 26 97 27 96 28 24 29 25 30 26 31 27 32 28 33 29 34
REMARK SMILES IDX 30 35 31 36 95 37 32 38 94 39 33 40 34 41 35 42 88 43 36 44
REMARK SMILES IDX 93 45 87 46 89 47 37 48 92 49 86 50 85 51 38 53 72 54 51 55
REMARK SMILES IDX 71 56 52 57 55 58 70 59 90 60 53 61 54 62 69 64 91 65 56 66
REMARK SMILES IDX 39 67 40 68 49 69 41 70 42 71 48 72 50 73 43 74 44 75 45 76
REMARK SMILES IDX 46 77 47 78 73 79 74 80 83 81 75 82 76 83 82 84 84 85 77 86
REMARK SMILES IDX 78 87 79 88 80 89 81 90 57 91 58 92 67 93 59 94 60 95 66 96
REMARK SMILES IDX 68 97 61 98 62 99 63 100 64 101 65 102
REMARK H PARENT 5 19 8 21 89 52 55 63
REMARK Flexibility Score: inf
ROOT
ATOM      1  C   UNL A   1      33.161  29.758  26.101  1.00  0.00     0.188 C 
ENDROOT
BRANCH   1   2
ATOM      2  C   UNL A   1      32.021  29.984  25.095  1.00  0.00     0.188 C 
BRANCH   2   3
ATOM      3  O   UNL A   1      31.650  28.974  24.160  1.00  0.00    -0.376 OA
BRANCH   3   4
ATOM      4  C   UNL A   1      32.236  28.929  22.871  1.00  0.00     0.202 C 
BRANCH   4   5
ATOM      5  C   UNL A   1      33.194  27.761  22.630  1.00  0.00     0.261 C 
BRANCH   5   6
ATOM      6  O   UNL A   1      32.541  26.557  22.191  1.00  0.00    -0.460 OA
BRANCH   6   7
ATOM      7  C   UNL A   1      32.261  25.667  23.193  1.00  0.00     0.341 C 
ATOM      8  O   UNL A   1      31.181  25.618  23.769  1.00  0.00    -0.246 OA
BRANCH   7   9
ATOM      9  C   UNL A   1      33.367  24.762  23.530  1.00  0.00     0.098 A 
ATOM     10  C   UNL A   1      33.564  23.466  23.072  1.00  0.00     0.112 A 
ATOM     11  S   UNL A   1      35.192  22.999  23.286  1.00  0.00    -0.122 S 
ATOM     12  C   UNL A   1      35.391  24.123  24.550  1.00  0.00     0.007 A 
ATOM     13  C   UNL A   1      34.368  25.058  24.553  1.00  0.00    -0.021 A 
ATOM     14  C   UNL A   1      36.565  24.012  25.465  1.00  0.00     0.057 C 
ATOM     15  C   UNL A   1      34.262  26.194  25.529  1.00  0.00     0.046 C 
BRANCH  10  16
ATOM     16  N   UNL A   1      32.695  22.626  22.401  1.00  0.00    -0.298 N 
ATOM     17  N   UNL A   1      32.004  20.997  24.028  1.00  0.00    -0.308 N 
ATOM     18  C   UNL A   1      32.202  21.410  22.749  1.00  0.00     0.324 C 
ATOM     19  H   UNL A   1      32.018  20.018  24.126  1.00  0.00     0.171 HD
ATOM     20  O   UNL A   1      31.884  20.628  21.844  1.00  0.00    -0.248 OA
ATOM     21  H   UNL A   1      32.385  22.964  21.530  1.00  0.00     0.172 HD
BRANCH  17  22
ATOM     22  C   UNL A   1      31.784  21.673  25.248  1.00  0.00     0.046 A 
ATOM     23  C   UNL A   1      33.821  22.656  28.295  1.00  0.00     0.067 C 
ATOM     24  C   UNL A   1      32.690  22.495  27.324  1.00  0.00     0.039 A 
ATOM     25  C   UNL A   1      32.849  21.757  26.152  1.00  0.00     0.049 A 
ATOM     26  N   UNL A   1      31.548  23.152  27.617  1.00  0.00    -0.261 NA
ATOM     27  C   UNL A   1      30.525  23.023  26.752  1.00  0.00     0.113 A 
ATOM     28  C   UNL A   1      30.579  22.265  25.596  1.00  0.00     0.046 A 
ENDBRANCH  17  22
ENDBRANCH  10  16
ENDBRANCH   7   9
ENDBRANCH   6   7
ENDBRANCH   5   6
ENDBRANCH   4   5
ENDBRANCH   3   4
ENDBRANCH   2   3
ENDBRANCH   1   2
BRANCH   1  29
ATOM     29  O   UNL A   1      32.880  30.261  27.403  1.00  0.00    -0.376 OA
BRANCH  29  30
ATOM     30  C   UNL A   1      33.485  31.508  27.722  1.00  0.00     0.202 C 
BRANCH  30  31
ATOM     31  C   UNL A   1      35.014  31.411  27.687  1.00  0.00     0.261 C 
BRANCH  31  32
ATOM     32  O   UNL A   1      35.562  30.550  28.697  1.00  0.00    -0.460 OA
BRANCH  32  33
ATOM     33  C   UNL A   1      36.531  31.090  29.469  1.00  0.00     0.338 C 
ATOM     34  O   UNL A   1      36.385  31.911  30.356  1.00  0.00    -0.246 OA
BRANCH  33  35
ATOM     35  C   UNL A   1      37.795  30.384  29.189  1.00  0.00     0.060 A 
ATOM     36  C   UNL A   1      38.653  30.120  30.261  1.00  0.00     0.016 A 
ATOM     37  C   UNL A   1      38.146  30.010  27.890  1.00  0.00     0.016 A 
ATOM     38  C   UNL A   1      39.877  29.488  30.038  1.00  0.00     0.010 A 
ATOM     39  C   UNL A   1      39.382  29.401  27.664  1.00  0.00     0.010 A 
ATOM     40  C   UNL A   1      40.262  29.156  28.732  1.00  0.00    -0.014 A 
BRANCH  40  41
ATOM     41  C   UNL A   1      41.647  28.710  28.457  1.00  0.00     0.031 A 
ATOM     42  C   UNL A   1      42.751  29.729  28.476  1.00  0.00     0.074 A 
ATOM     43  C   UNL A   1      41.920  27.421  28.185  1.00  0.00     0.049 A 
ATOM     44  N   UNL A   1      44.024  29.577  28.221  1.00  0.00    -0.248 NA
ATOM     45  C   UNL A   1      42.365  31.104  28.831  1.00  0.00     0.031 C 
ATOM     46  C   UNL A   1      40.943  26.334  28.166  1.00  0.00     0.029 A 
ATOM     47  N   UNL A   1      43.107  26.816  27.861  1.00  0.00    -0.354 N 
ATOM     48  C   UNL A   1      44.594  30.833  28.390  1.00  0.00     0.074 A 
ATOM     49  C   UNL A   1      43.523  31.741  28.743  1.00  0.00     0.031 C 
ATOM     50  C   UNL A   1      41.571  25.192  27.831  1.00  0.00     0.029 A 
ATOM     51  C   UNL A   1      42.986  25.474  27.590  1.00  0.00     0.049 A 
ATOM     52  H   UNL A   1      43.965  27.296  27.827  1.00  0.00     0.167 HD
ATOM     53  C   UNL A   1      45.892  31.198  28.268  1.00  0.00     0.037 A 
ATOM     54  C   UNL A   1      43.909  24.584  27.177  1.00  0.00     0.037 A 
ATOM     55  C   UNL A   1      46.954  30.304  27.893  1.00  0.00     0.049 A 
ATOM     56  C   UNL A   1      45.333  25.030  26.966  1.00  0.00     0.074 A 
ATOM     57  C   UNL A   1      48.302  30.581  27.745  1.00  0.00     0.029 A 
ATOM     58  N   UNL A   1      46.786  28.960  27.593  1.00  0.00    -0.354 N 
ATOM     59  N   UNL A   1      45.863  26.214  27.151  1.00  0.00    -0.248 NA
ATOM     60  C   UNL A   1      46.284  24.016  26.484  1.00  0.00     0.031 C 
ATOM     61  C   UNL A   1      48.943  29.411  27.321  1.00  0.00     0.029 A 
ATOM     62  C   UNL A   1      48.001  28.398  27.241  1.00  0.00     0.049 A 
ATOM     63  H   UNL A   1      45.929  28.477  27.627  1.00  0.00     0.167 HD
ATOM     64  C   UNL A   1      47.212  26.083  26.832  1.00  0.00     0.074 A 
ATOM     65  C   UNL A   1      47.417  24.702  26.447  1.00  0.00     0.031 C 
ATOM     66  C   UNL A   1      48.192  27.020  26.862  1.00  0.00     0.037 A 
BRANCH  53  67
ATOM     67  C   UNL A   1      46.219  32.640  28.522  1.00  0.00     0.058 A 
ATOM     68  C   UNL A   1      46.548  33.098  29.808  1.00  0.00     0.135 A 
ATOM     69  C   UNL A   1      46.197  33.573  27.476  1.00  0.00     0.135 A 
ATOM     70  F   UNL A   1      46.563  32.248  30.846  1.00  0.00    -0.206 F 
ATOM     71  C   UNL A   1      46.813  34.442  30.052  1.00  0.00     0.059 A 
ATOM     72  C   UNL A   1      46.478  34.918  27.694  1.00  0.00     0.059 A 
ATOM     73  F   UNL A   1      45.884  33.183  26.230  1.00  0.00    -0.206 F 
ATOM     74  C   UNL A   1      46.766  35.345  28.989  1.00  0.00     0.060 A 
BRANCH  74  75
ATOM     75  S   UNL A   1      47.085  37.091  29.321  1.00  0.00     0.124 S 
ATOM     76  O   UNL A   1      45.753  37.563  29.688  1.00  0.00    -0.237 OA
ATOM     77  O   UNL A   1      48.058  37.034  30.407  1.00  0.00    -0.237 OA
ATOM     78  O   UNL A   1      47.600  37.588  28.049  1.00  0.00    -0.744 OA
ENDBRANCH  74  75
ENDBRANCH  53  67
BRANCH  54  79
ATOM     79  C   UNL A   1      43.517  23.173  26.925  1.00  0.00     0.058 A 
ATOM     80  C   UNL A   1      43.416  22.677  25.618  1.00  0.00     0.135 A 
ATOM     81  C   UNL A   1      43.237  22.296  27.985  1.00  0.00     0.135 A 
ATOM     82  F   UNL A   1      43.662  23.482  24.574  1.00  0.00    -0.206 F 
ATOM     83  C   UNL A   1      43.039  21.362  25.367  1.00  0.00     0.059 A 
ATOM     84  C   UNL A   1      42.878  20.972  27.759  1.00  0.00     0.059 A 
ATOM     85  F   UNL A   1      43.328  22.724  29.253  1.00  0.00    -0.206 F 
ATOM     86  C   UNL A   1      42.774  20.515  26.445  1.00  0.00     0.060 A 
BRANCH  86  87
ATOM     87  S   UNL A   1      42.338  18.794  26.112  1.00  0.00     0.124 S 
ATOM     88  O   UNL A   1      40.951  18.922  25.681  1.00  0.00    -0.237 OA
ATOM     89  O   UNL A   1      43.299  18.429  25.074  1.00  0.00    -0.237 OA
ATOM     90  O   UNL A   1      42.543  18.143  27.402  1.00  0.00    -0.744 OA
ENDBRANCH  86  87
ENDBRANCH  54  79
BRANCH  66  91
ATOM     91  C   UNL A   1      49.582  26.583  26.495  1.00  0.00     0.058 A 
ATOM     92  C   UNL A   1      50.418  25.942  27.421  1.00  0.00     0.135 A 
ATOM     93  C   UNL A   1      50.059  26.755  25.185  1.00  0.00     0.135 A 
ATOM     94  F   UNL A   1      50.011  25.759  28.687  1.00  0.00    -0.206 F 
ATOM     95  C   UNL A   1      51.690  25.499  27.065  1.00  0.00     0.059 A 
ATOM     96  C   UNL A   1      51.318  26.302  24.803  1.00  0.00     0.059 A 
ATOM     97  F   UNL A   1      49.293  27.354  24.260  1.00  0.00    -0.206 F 
ATOM     98  C   UNL A   1      52.130  25.683  25.752  1.00  0.00     0.060 A 
BRANCH  98  99
ATOM     99  S   UNL A   1      53.764  25.069  25.287  1.00  0.00     0.124 S 
ATOM    100  O   UNL A   1      53.563  23.625  25.349  1.00  0.00    -0.237 OA
ATOM    101  O   UNL A   1      53.942  25.628  23.951  1.00  0.00    -0.237 OA
ATOM    102  O   UNL A   1      54.638  25.626  26.315  1.00  0.00    -0.744 OA
ENDBRANCH  98  99
ENDBRANCH  66  91
ENDBRANCH  40  41
ENDBRANCH  33  35
ENDBRANCH  32  33
ENDBRANCH  31  32
ENDBRANCH  30  31
ENDBRANCH  29  30
ENDBRANCH   1  29
TORSDOF 22
ENDMDL
MODEL 2
REMARK VINA RESULT:     -10.4      4.586      5.818
REMARK SMILES Cc1cc(NC(=O)Nc2sc(C)c(C)c2C(=O)OCCOCCOCCOC(=O)c2ccc(-c3c4nc(c(-c5c(F)cc(S(=O)(=O)[O-])cc5F)c5ccc([nH]5)c(-c5c(F)cc(S(=O)(=O)[O-])cc5F)c5nc(c(-c6c(F)cc(S(=O)(=O)[O-])cc6F)c6ccc3[nH]6)C=C5)C=C4)cc2)ccn1
REMARK SMILES IDX 23 1 22 2 21 3 20 4 19 5 18 6 16 7 17 8 15 9 9 10 10 11
REMARK SMILES IDX 11 12 13 13 12 14 14 15 8 16 5 17 6 18 7 20 4 22 1 23 2 24
REMARK SMILES IDX 3 25 98 26 97 27 96 28 24 29 25 30 26 31 27 32 28 33 29 34
REMARK SMILES IDX 30 35 31 36 95 37 32 38 94 39 33 40 34 41 35 42 88 43 36 44
REMARK SMILES IDX 93 45 87 46 89 47 37 48 92 49 86 50 85 51 38 53 72 54 51 55
REMARK SMILES IDX 71 56 52 57 55 58 70 59 90 60 53 61 54 62 69 64 91 65 56 66
REMARK SMILES IDX 39 67 40 68 49 69 41 70 42 71 48 72 50 73 43 74 44 75 45 76
REMARK SMILES IDX 46 77 47 78 73 79 74 80 83 81 75 82 76 83 82 84 84 85 77 86
REMARK SMILES IDX 78 87 79 88 80 89 81 90 57 91 58 92 67 93 59 94 60 95 66 96
REMARK SMILES IDX 68 97 61 98 62 99 63 100 64 101 65 102
REMARK H PARENT 5 19 8 21 89 52 55 63
REMARK Flexibility Score: inf
ROOT
ATOM      1  C   UNL A   1      29.855  30.096  24.075  1.00  0.00     0.188 C 
ENDROOT
BRANCH   1   2
ATOM      2  C   UNL A   1      29.888  29.499  22.660  1.00  0.00     0.188 C 
BRANCH   2   3
ATOM      3  O   UNL A   1      29.910  28.088  22.452  1.00  0.00    -0.376 OA
BRANCH   3   4
ATOM      4  C   UNL A   1      29.427  27.203  23.447  1.00  0.00     0.202 C 
BRANCH   4   5
ATOM      5  C   UNL A   1      30.467  26.239  24.023  1.00  0.00     0.261 C 
BRANCH   5   6
ATOM      6  O   UNL A   1      31.183  25.494  23.022  1.00  0.00    -0.460 OA
BRANCH   6   7
ATOM      7  C   UNL A   1      32.489  25.873  22.861  1.00  0.00     0.341 C 
ATOM      8  O   UNL A   1      32.825  26.928  22.334  1.00  0.00    -0.246 OA
BRANCH   7   9
ATOM      9  C   UNL A   1      33.471  24.910  23.373  1.00  0.00     0.098 A 
ATOM     10  C   UNL A   1      33.591  23.569  23.032  1.00  0.00     0.112 A 
ATOM     11  S   UNL A   1      35.142  22.986  23.444  1.00  0.00    -0.122 S 
ATOM     12  C   UNL A   1      35.322  24.189  24.638  1.00  0.00     0.007 A 
ATOM     13  C   UNL A   1      34.393  25.203  24.469  1.00  0.00    -0.021 A 
ATOM     14  C   UNL A   1      36.388  24.054  25.673  1.00  0.00     0.057 C 
ATOM     15  C   UNL A   1      34.298  26.419  25.344  1.00  0.00     0.046 C 
BRANCH  10  16
ATOM     16  N   UNL A   1      32.717  22.753  22.338  1.00  0.00    -0.298 N 
ATOM     17  N   UNL A   1      32.004  21.094  23.925  1.00  0.00    -0.308 N 
ATOM     18  C   UNL A   1      32.211  21.534  22.656  1.00  0.00     0.324 C 
ATOM     19  H   UNL A   1      32.008  20.113  24.000  1.00  0.00     0.171 HD
ATOM     20  O   UNL A   1      31.890  20.777  21.732  1.00  0.00    -0.248 OA
ATOM     21  H   UNL A   1      32.414  23.114  21.474  1.00  0.00     0.172 HD
BRANCH  17  22
ATOM     22  C   UNL A   1      31.785  21.744  25.159  1.00  0.00     0.046 A 
ATOM     23  C   UNL A   1      33.816  22.632  28.238  1.00  0.00     0.067 C 
ATOM     24  C   UNL A   1      32.689  22.507  27.258  1.00  0.00     0.039 A 
ATOM     25  C   UNL A   1      32.845  21.794  26.070  1.00  0.00     0.049 A 
ATOM     26  N   UNL A   1      31.553  23.169  27.560  1.00  0.00    -0.261 NA
ATOM     27  C   UNL A   1      30.534  23.073  26.687  1.00  0.00     0.113 A 
ATOM     28  C   UNL A   1      30.585  22.341  25.515  1.00  0.00     0.046 A 
ENDBRANCH  17  22
ENDBRANCH  10  16
ENDBRANCH   7   9
ENDBRANCH   6   7
ENDBRANCH   5   6
ENDBRANCH   4   5
ENDBRANCH   3   4
ENDBRANCH   2   3
ENDBRANCH   1   2
BRANCH   1  29
ATOM     29  O   UNL A   1      31.136  30.479  24.561  1.00  0.00    -0.376 OA
BRANCH  29  30
ATOM     30  C   UNL A   1      31.700  29.621  25.546  1.00  0.00     0.202 C 
BRANCH  30  31
ATOM     31  C   UNL A   1      32.269  30.420  26.723  1.00  0.00     0.261 C 
BRANCH  31  32
ATOM     32  O   UNL A   1      33.698  30.333  26.843  1.00  0.00    -0.460 OA
BRANCH  32  33
ATOM     33  C   UNL A   1      34.288  31.315  27.561  1.00  0.00     0.338 C 
ATOM     34  O   UNL A   1      33.783  32.364  27.918  1.00  0.00    -0.246 OA
BRANCH  33  35
ATOM     35  C   UNL A   1      35.608  30.833  28.009  1.00  0.00     0.060 A 
ATOM     36  C   UNL A   1      35.758  29.465  28.260  1.00  0.00     0.016 A 
ATOM     37  C   UNL A   1      36.674  31.712  28.207  1.00  0.00     0.016 A 
ATOM     38  C   UNL A   1      36.978  28.969  28.722  1.00  0.00     0.010 A 
ATOM     39  C   UNL A   1      37.886  31.219  28.695  1.00  0.00     0.010 A 
ATOM     40  C   UNL A   1      38.038  29.850  28.974  1.00  0.00    -0.014 A 
BRANCH  40  41
ATOM     41  C   UNL A   1      39.246  29.374  29.686  1.00  0.00     0.031 A 
ATOM     42  C   UNL A   1      39.652  30.064  30.958  1.00  0.00     0.074 A 
ATOM     43  C   UNL A   1      39.977  28.352  29.207  1.00  0.00     0.049 A 
ATOM     44  N   UNL A   1      40.691  29.850  31.722  1.00  0.00    -0.248 NA
ATOM     45  C   UNL A   1      38.764  31.139  31.431  1.00  0.00     0.031 C 
ATOM     46  C   UNL A   1      39.671  27.584  28.002  1.00  0.00     0.029 A 
ATOM     47  N   UNL A   1      41.138  27.795  29.679  1.00  0.00    -0.354 N 
ATOM     48  C   UNL A   1      40.582  30.757  32.768  1.00  0.00     0.074 A 
ATOM     49  C   UNL A   1      39.390  31.541  32.528  1.00  0.00     0.031 C 
ATOM     50  C   UNL A   1      40.633  26.661  27.820  1.00  0.00     0.029 A 
ATOM     51  C   UNL A   1      41.631  26.791  28.881  1.00  0.00     0.049 A 
ATOM     52  H   UNL A   1      41.576  28.086  30.511  1.00  0.00     0.167 HD
ATOM     53  C   UNL A   1      41.397  30.920  33.838  1.00  0.00     0.037 A 
ATOM     54  C   UNL A   1      42.767  26.074  28.989  1.00  0.00     0.037 A 
ATOM     55  C   UNL A   1      42.595  30.159  34.067  1.00  0.00     0.049 A 
ATOM     56  C   UNL A   1      43.703  26.329  30.142  1.00  0.00     0.074 A 
ATOM     57  C   UNL A   1      43.485  30.251  35.123  1.00  0.00     0.029 A 
ATOM     58  N   UNL A   1      43.080  29.174  33.219  1.00  0.00    -0.354 N 
ATOM     59  N   UNL A   1      43.577  27.174  31.136  1.00  0.00    -0.248 NA
ATOM     60  C   UNL A   1      44.941  25.535  30.183  1.00  0.00     0.031 C 
ATOM     61  C   UNL A   1      44.527  29.344  34.894  1.00  0.00     0.029 A 
ATOM     62  C   UNL A   1      44.267  28.664  33.716  1.00  0.00     0.049 A 
ATOM     63  H   UNL A   1      42.643  28.881  32.387  1.00  0.00     0.167 HD
ATOM     64  C   UNL A   1      44.705  26.996  31.934  1.00  0.00     0.074 A 
ATOM     65  C   UNL A   1      45.499  25.960  31.308  1.00  0.00     0.031 C 
ATOM     66  C   UNL A   1      45.047  27.630  33.083  1.00  0.00     0.037 A 
BRANCH  53  67
ATOM     67  C   UNL A   1      41.019  31.985  34.824  1.00  0.00     0.058 A 
ATOM     68  C   UNL A   1      40.085  31.739  35.843  1.00  0.00     0.135 A 
ATOM     69  C   UNL A   1      41.588  33.264  34.747  1.00  0.00     0.135 A 
ATOM     70  F   UNL A   1      39.498  30.537  35.946  1.00  0.00    -0.206 F 
ATOM     71  C   UNL A   1      39.704  32.737  36.734  1.00  0.00     0.059 A 
ATOM     72  C   UNL A   1      41.236  34.272  35.639  1.00  0.00     0.059 A 
ATOM     73  F   UNL A   1      42.482  33.550  33.787  1.00  0.00    -0.206 F 
ATOM     74  C   UNL A   1      40.280  34.004  36.617  1.00  0.00     0.060 A 
BRANCH  74  75
ATOM     75  S   UNL A   1      39.760  35.300  37.761  1.00  0.00     0.124 S 
ATOM     76  O   UNL A   1      39.585  36.432  36.855  1.00  0.00    -0.237 OA
ATOM     77  O   UNL A   1      38.534  34.748  38.329  1.00  0.00    -0.237 OA
ATOM     78  O   UNL A   1      40.883  35.405  38.687  1.00  0.00    -0.744 OA
ENDBRANCH  74  75
ENDBRANCH  53  67
BRANCH  54  79
ATOM     79  C   UNL A   1      43.093  25.044  27.969  1.00  0.00     0.058 A 
ATOM     80  C   UNL A   1      43.832  25.375  26.824  1.00  0.00     0.135 A 
ATOM     81  C   UNL A   1      42.672  23.714  28.118  1.00  0.00     0.135 A 
ATOM     82  F   UNL A   1      44.244  26.637  26.633  1.00  0.00    -0.206 F 
ATOM     83  C   UNL A   1      44.135  24.424  25.855  1.00  0.00     0.059 A 
ATOM     84  C   UNL A   1      42.980  22.742  27.173  1.00  0.00     0.059 A 
ATOM     85  F   UNL A   1      41.968  23.350  29.201  1.00  0.00    -0.206 F 
ATOM     86  C   UNL A   1      43.705  23.108  26.039  1.00  0.00     0.060 A 
BRANCH  86  87
ATOM     87  S   UNL A   1      44.149  21.868  24.803  1.00  0.00     0.124 S 
ATOM     88  O   UNL A   1      43.808  22.556  23.564  1.00  0.00    -0.237 OA
ATOM     89  O   UNL A   1      45.575  21.678  25.056  1.00  0.00    -0.237 OA
ATOM     90  O   UNL A   1      43.301  20.732  25.151  1.00  0.00    -0.744 OA
ENDBRANCH  86  87
ENDBRANCH  54  79
BRANCH  66  91
ATOM     91  C   UNL A   1      46.321  27.206  33.757  1.00  0.00     0.058 A 
ATOM     92  C   UNL A   1      46.346  26.153  34.685  1.00  0.00     0.135 A 
ATOM     93  C   UNL A   1      47.540  27.820  33.425  1.00  0.00     0.135 A 
ATOM     94  F   UNL A   1      45.208  25.538  35.040  1.00  0.00    -0.206 F 
ATOM     95  C   UNL A   1      47.536  25.734  35.275  1.00  0.00     0.059 A 
ATOM     96  C   UNL A   1      48.742  27.403  33.987  1.00  0.00     0.059 A 
ATOM     97  F   UNL A   1      47.570  28.824  32.535  1.00  0.00    -0.206 F 
ATOM     98  C   UNL A   1      48.729  26.365  34.918  1.00  0.00     0.060 A 
BRANCH  98  99
ATOM     99  S   UNL A   1      50.274  25.788  35.656  1.00  0.00     0.124 S 
ATOM    100  O   UNL A   1      50.948  25.199  34.504  1.00  0.00    -0.237 OA
ATOM    101  O   UNL A   1      50.858  27.023  36.170  1.00  0.00    -0.237 OA
ATOM    102  O   UNL A   1      49.828  24.843  36.675  1.00  0.00    -0.744 OA
ENDBRANCH  98  99
ENDBRANCH  66  91
ENDBRANCH  40  41
ENDBRANCH  33  35
ENDBRANCH  32  33
ENDBRANCH  31  32
ENDBRANCH  30  31
ENDBRANCH  29  30
ENDBRANCH   1  29
TORSDOF 22
ENDMDL
MODEL 3
REMARK VINA RESULT:     -10.4      2.086      8.577
REMARK SMILES Cc1cc(NC(=O)Nc2sc(C)c(C)c2C(=O)OCCOCCOCCOC(=O)c2ccc(-c3c4nc(c(-c5c(F)cc(S(=O)(=O)[O-])cc5F)c5ccc([nH]5)c(-c5c(F)cc(S(=O)(=O)[O-])cc5F)c5nc(c(-c6c(F)cc(S(=O)(=O)[O-])cc6F)c6ccc3[nH]6)C=C5)C=C4)cc2)ccn1
REMARK SMILES IDX 23 1 22 2 21 3 20 4 19 5 18 6 16 7 17 8 15 9 9 10 10 11
REMARK SMILES IDX 11 12 13 13 12 14 14 15 8 16 5 17 6 18 7 20 4 22 1 23 2 24
REMARK SMILES IDX 3 25 98 26 97 27 96 28 24 29 25 30 26 31 27 32 28 33 29 34
REMARK SMILES IDX 30 35 31 36 95 37 32 38 94 39 33 40 34 41 35 42 88 43 36 44
REMARK SMILES IDX 93 45 87 46 89 47 37 48 92 49 86 50 85 51 38 53 72 54 51 55
REMARK SMILES IDX 71 56 52 57 55 58 70 59 90 60 53 61 54 62 69 64 91 65 56 66
REMARK SMILES IDX 39 67 40 68 49 69 41 70 42 71 48 72 50 73 43 74 44 75 45 76
REMARK SMILES IDX 46 77 47 78 73 79 74 80 83 81 75 82 76 83 82 84 84 85 77 86
REMARK SMILES IDX 78 87 79 88 80 89 81 90 57 91 58 92 67 93 59 94 60 95 66 96
REMARK SMILES IDX 68 97 61 98 62 99 63 100 64 101 65 102
REMARK H PARENT 5 19 8 21 89 52 55 63
REMARK Flexibility Score: inf
ROOT
ATOM      1  C   UNL A   1      34.396  33.742  28.626  1.00  0.00     0.188 C 
ENDROOT
BRANCH   1   2
ATOM      2  C   UNL A   1      33.522  32.699  27.912  1.00  0.00     0.188 C 
BRANCH   2   3
ATOM      3  O   UNL A   1      33.834  31.309  27.968  1.00  0.00    -0.376 OA
BRANCH   3   4
ATOM      4  C   UNL A   1      33.387  30.425  26.955  1.00  0.00     0.202 C 
BRANCH   4   5
ATOM      5  C   UNL A   1      31.869  30.331  26.795  1.00  0.00     0.261 C 
BRANCH   5   6
ATOM      6  O   UNL A   1      31.434  29.161  26.078  1.00  0.00    -0.460 OA
BRANCH   6   7
ATOM      7  C   UNL A   1      31.630  27.982  26.747  1.00  0.00     0.341 C 
ATOM      8  O   UNL A   1      31.541  27.875  27.965  1.00  0.00    -0.246 OA
BRANCH   7   9
ATOM      9  C   UNL A   1      31.958  26.841  25.885  1.00  0.00     0.098 A 
ATOM     10  C   UNL A   1      32.941  26.779  24.907  1.00  0.00     0.112 A 
ATOM     11  S   UNL A   1      33.317  25.156  24.538  1.00  0.00    -0.122 S 
ATOM     12  C   UNL A   1      31.783  24.638  25.070  1.00  0.00     0.007 A 
ATOM     13  C   UNL A   1      31.162  25.616  25.830  1.00  0.00    -0.021 A 
ATOM     14  C   UNL A   1      31.289  23.278  24.703  1.00  0.00     0.057 C 
ATOM     15  C   UNL A   1      29.808  25.465  26.462  1.00  0.00     0.046 C 
BRANCH  10  16
ATOM     16  N   UNL A   1      33.682  27.798  24.335  1.00  0.00    -0.298 N 
ATOM     17  N   UNL A   1      32.453  28.454  22.377  1.00  0.00    -0.308 N 
ATOM     18  C   UNL A   1      33.597  28.365  23.105  1.00  0.00     0.324 C 
ATOM     19  H   UNL A   1      32.615  28.526  21.409  1.00  0.00     0.171 HD
ATOM     20  O   UNL A   1      34.621  28.859  22.618  1.00  0.00    -0.248 OA
ATOM     21  H   UNL A   1      34.386  28.171  24.915  1.00  0.00     0.172 HD
BRANCH  17  22
ATOM     22  C   UNL A   1      31.081  28.466  22.713  1.00  0.00     0.046 A 
ATOM     23  C   UNL A   1      28.363  31.061  23.233  1.00  0.00     0.067 C 
ATOM     24  C   UNL A   1      29.083  29.752  23.111  1.00  0.00     0.039 A 
ATOM     25  C   UNL A   1      30.456  29.707  22.869  1.00  0.00     0.049 A 
ATOM     26  N   UNL A   1      28.324  28.638  23.185  1.00  0.00    -0.261 NA
ATOM     27  C   UNL A   1      28.956  27.456  23.070  1.00  0.00     0.113 A 
ATOM     28  C   UNL A   1      30.320  27.320  22.887  1.00  0.00     0.046 A 
ENDBRANCH  17  22
ENDBRANCH  10  16
ENDBRANCH   7   9
ENDBRANCH   6   7
ENDBRANCH   5   6
ENDBRANCH   4   5
ENDBRANCH   3   4
ENDBRANCH   2   3
ENDBRANCH   1   2
BRANCH   1  29
ATOM     29  O   UNL A   1      34.189  33.790  30.034  1.00  0.00    -0.376 OA
BRANCH  29  30
ATOM     30  C   UNL A   1      35.339  33.532  30.831  1.00  0.00     0.202 C 
BRANCH  30  31
ATOM     31  C   UNL A   1      35.417  32.057  31.235  1.00  0.00     0.261 C 
BRANCH  31  32
ATOM     32  O   UNL A   1      36.275  31.271  30.393  1.00  0.00    -0.460 OA
BRANCH  32  33
ATOM     33  C   UNL A   1      36.876  30.215  30.985  1.00  0.00     0.338 C 
ATOM     34  O   UNL A   1      36.346  29.375  31.690  1.00  0.00    -0.246 OA
BRANCH  33  35
ATOM     35  C   UNL A   1      38.262  30.130  30.489  1.00  0.00     0.060 A 
ATOM     36  C   UNL A   1      38.470  30.178  29.107  1.00  0.00     0.016 A 
ATOM     37  C   UNL A   1      39.339  29.980  31.365  1.00  0.00     0.016 A 
ATOM     38  C   UNL A   1      39.761  30.064  28.590  1.00  0.00     0.010 A 
ATOM     39  C   UNL A   1      40.628  29.839  30.846  1.00  0.00     0.010 A 
ATOM     40  C   UNL A   1      40.843  29.859  29.457  1.00  0.00    -0.014 A 
BRANCH  40  41
ATOM     41  C   UNL A   1      42.172  29.498  28.914  1.00  0.00     0.031 A 
ATOM     42  C   UNL A   1      42.424  28.072  28.510  1.00  0.00     0.074 A 
ATOM     43  C   UNL A   1      43.145  30.418  28.789  1.00  0.00     0.049 A 
ATOM     44  N   UNL A   1      43.517  27.520  28.056  1.00  0.00    -0.248 NA
ATOM     45  C   UNL A   1      41.286  27.147  28.636  1.00  0.00     0.031 C 
ATOM     46  C   UNL A   1      43.017  31.837  29.118  1.00  0.00     0.029 A 
ATOM     47  N   UNL A   1      44.441  30.286  28.360  1.00  0.00    -0.354 N 
ATOM     48  C   UNL A   1      43.202  26.185  27.835  1.00  0.00     0.074 A 
ATOM     49  C   UNL A   1      41.821  26.005  28.230  1.00  0.00     0.031 C 
ATOM     50  C   UNL A   1      44.195  32.443  28.891  1.00  0.00     0.029 A 
ATOM     51  C   UNL A   1      45.165  31.452  28.426  1.00  0.00     0.049 A 
ATOM     52  H   UNL A   1      44.817  29.436  28.036  1.00  0.00     0.167 HD
ATOM     53  C   UNL A   1      43.988  25.199  27.342  1.00  0.00     0.037 A 
ATOM     54  C   UNL A   1      46.465  31.684  28.159  1.00  0.00     0.037 A 
ATOM     55  C   UNL A   1      45.366  25.369  26.971  1.00  0.00     0.049 A 
ATOM     56  C   UNL A   1      47.344  30.553  27.691  1.00  0.00     0.074 A 
ATOM     57  C   UNL A   1      46.243  24.428  26.460  1.00  0.00     0.029 A 
ATOM     58  N   UNL A   1      46.073  26.556  27.084  1.00  0.00    -0.354 N 
ATOM     59  N   UNL A   1      47.027  29.301  27.465  1.00  0.00    -0.248 NA
ATOM     60  C   UNL A   1      48.760  30.867  27.446  1.00  0.00     0.031 C 
ATOM     61  C   UNL A   1      47.492  25.040  26.297  1.00  0.00     0.029 A 
ATOM     62  C   UNL A   1      47.382  26.369  26.672  1.00  0.00     0.049 A 
ATOM     63  H   UNL A   1      45.700  27.407  27.409  1.00  0.00     0.167 HD
ATOM     64  C   UNL A   1      48.197  28.684  27.029  1.00  0.00     0.074 A 
ATOM     65  C   UNL A   1      49.227  29.702  27.019  1.00  0.00     0.031 C 
ATOM     66  C   UNL A   1      48.397  27.392  26.665  1.00  0.00     0.037 A 
BRANCH  53  67
ATOM     67  C   UNL A   1      43.365  23.840  27.203  1.00  0.00     0.058 A 
ATOM     68  C   UNL A   1      43.170  23.009  28.317  1.00  0.00     0.135 A 
ATOM     69  C   UNL A   1      42.969  23.362  25.946  1.00  0.00     0.135 A 
ATOM     70  F   UNL A   1      43.552  23.414  29.538  1.00  0.00    -0.206 F 
ATOM     71  C   UNL A   1      42.630  21.734  28.184  1.00  0.00     0.059 A 
ATOM     72  C   UNL A   1      42.408  22.098  25.792  1.00  0.00     0.059 A 
ATOM     73  F   UNL A   1      43.140  24.118  24.850  1.00  0.00    -0.206 F 
ATOM     74  C   UNL A   1      42.260  21.285  26.915  1.00  0.00     0.060 A 
BRANCH  74  75
ATOM     75  S   UNL A   1      41.585  19.618  26.749  1.00  0.00     0.124 S 
ATOM     76  O   UNL A   1      40.422  19.689  27.628  1.00  0.00    -0.237 OA
ATOM     77  O   UNL A   1      41.296  19.535  25.321  1.00  0.00    -0.237 OA
ATOM     78  O   UNL A   1      42.674  18.765  27.215  1.00  0.00    -0.744 OA
ENDBRANCH  74  75
ENDBRANCH  53  67
BRANCH  54  79
ATOM     79  C   UNL A   1      47.026  33.049  28.333  1.00  0.00     0.058 A 
ATOM     80  C   UNL A   1      47.018  33.969  27.276  1.00  0.00     0.135 A 
ATOM     81  C   UNL A   1      47.579  33.456  29.556  1.00  0.00     0.135 A 
ATOM     82  F   UNL A   1      46.511  33.619  26.084  1.00  0.00    -0.206 F 
ATOM     83  C   UNL A   1      47.550  35.247  27.421  1.00  0.00     0.059 A 
ATOM     84  C   UNL A   1      48.098  34.735  29.732  1.00  0.00     0.059 A 
ATOM     85  F   UNL A   1      47.602  32.612  30.598  1.00  0.00    -0.206 F 
ATOM     86  C   UNL A   1      48.087  35.621  28.655  1.00  0.00     0.060 A 
BRANCH  86  87
ATOM     87  S   UNL A   1      48.726  37.300  28.850  1.00  0.00     0.124 S 
ATOM     88  O   UNL A   1      47.550  38.098  28.527  1.00  0.00    -0.237 OA
ATOM     89  O   UNL A   1      49.140  37.310  30.251  1.00  0.00    -0.237 OA
ATOM     90  O   UNL A   1      49.816  37.356  27.882  1.00  0.00    -0.744 OA
ENDBRANCH  86  87
ENDBRANCH  54  79
BRANCH  66  91
ATOM     91  C   UNL A   1      49.773  27.008  26.198  1.00  0.00     0.058 A 
ATOM     92  C   UNL A   1      50.753  26.556  27.095  1.00  0.00     0.135 A 
ATOM     93  C   UNL A   1      50.093  27.035  24.831  1.00  0.00     0.135 A 
ATOM     94  F   UNL A   1      50.498  26.517  28.412  1.00  0.00    -0.206 F 
ATOM     95  C   UNL A   1      52.012  26.160  26.653  1.00  0.00     0.059 A 
ATOM     96  C   UNL A   1      51.339  26.625  24.367  1.00  0.00     0.059 A 
ATOM     97  F   UNL A   1      49.187  27.450  23.932  1.00  0.00    -0.206 F 
ATOM     98  C   UNL A   1      52.295  26.196  25.287  1.00  0.00     0.060 A 
BRANCH  98  99
ATOM     99  S   UNL A   1      53.917  25.641  24.718  1.00  0.00     0.124 S 
ATOM    100  O   UNL A   1      54.790  26.162  25.764  1.00  0.00    -0.237 OA
ATOM    101  O   UNL A   1      53.761  24.190  24.687  1.00  0.00    -0.237 OA
ATOM    102  O   UNL A   1      54.052  26.277  23.411  1.00  0.00    -0.744 OA
ENDBRANCH  98  99
ENDBRANCH  66  91
ENDBRANCH  40  41
ENDBRANCH  33  35
ENDBRANCH  32  33
ENDBRANCH  31  32
ENDBRANCH  30  31
ENDBRANCH  29  30
ENDBRANCH   1  29
TORSDOF 22
ENDMDL
