MODEL 1
REMARK VINA RESULT:      -6.9      0.000      0.000
REMARK SMILES CS(=O)(=O)c1ccc(/C=C(/C(=O)OCCOCCOCCOC(=O)c2ccc(-c3c4nc(c(-c5c(F)cc(S(=O)(=O)[O-])cc5F)c5ccc([nH]5)c(-c5c(F)cc(S(=O)(=O)[O-])cc5F)c5nc(c(-c6c(F)cc(S(=O)(=O)[O-])cc6F)c6ccc3[nH]6)C=C5)C=C4)cc2)c2ccc(-c3ccc(F)cc3F)cc2)cc1
REMARK SMILES IDX 18 1 17 2 16 3 15 4 14 5 13 6 11 7 12 8 10 9 9 10 8 11 5 12
REMARK SMILES IDX 6 13 106 14 7 15 105 16 2 17 1 18 3 19 4 20 91 21 92 22
REMARK SMILES IDX 104 23 93 24 103 25 94 26 95 27 96 28 101 29 97 30 100 31
REMARK SMILES IDX 102 32 98 33 99 34 19 35 20 36 21 37 22 38 23 39 24 40 25 41
REMARK SMILES IDX 26 42 90 43 27 44 89 45 28 46 29 47 30 48 83 49 31 50 88 51
REMARK SMILES IDX 82 52 84 53 32 54 87 55 81 56 80 57 33 59 67 60 46 61 66 62
REMARK SMILES IDX 47 63 50 64 65 65 85 66 48 67 49 68 64 70 86 71 51 72 34 73
REMARK SMILES IDX 35 74 44 75 36 76 37 77 43 78 45 79 38 80 39 81 40 82 41 83
REMARK SMILES IDX 42 84 68 85 69 86 78 87 70 88 71 89 77 90 79 91 72 92 73 93
REMARK SMILES IDX 74 94 75 95 76 96 52 97 53 98 62 99 54 100 55 101 61 102
REMARK SMILES IDX 63 103 56 104 57 105 58 106 59 107 60 108
REMARK H PARENT 84 58 50 69
REMARK Flexibility Score: inf
ROOT
ATOM      1  C   UNL A   1      53.182  27.311  29.332  1.00  0.00     0.188 C 
ENDROOT
BRANCH   1   2
ATOM      2  C   UNL A   1      52.003  28.303  29.233  1.00  0.00     0.188 C 
BRANCH   2   3
ATOM      3  O   UNL A   1      51.724  28.944  30.458  1.00  0.00    -0.376 OA
BRANCH   3   4
ATOM      4  C   UNL A   1      50.536  28.577  31.136  1.00  0.00     0.202 C 
BRANCH   4   5
ATOM      5  C   UNL A   1      49.657  27.399  30.660  1.00  0.00     0.261 C 
BRANCH   5   6
ATOM      6  O   UNL A   1      48.311  27.692  30.250  1.00  0.00    -0.460 OA
BRANCH   6   7
ATOM      7  C   UNL A   1      47.410  26.676  30.275  1.00  0.00     0.338 C 
ATOM      8  O   UNL A   1      47.491  25.653  29.613  1.00  0.00    -0.246 OA
BRANCH   7   9
ATOM      9  C   UNL A   1      46.348  26.917  31.316  1.00  0.00     0.067 C 
ATOM     10  C   UNL A   1      45.414  25.965  31.560  1.00  0.00     0.024 C 
BRANCH  10  11
ATOM     11  C   UNL A   1      44.377  25.934  32.627  1.00  0.00    -0.025 A 
ATOM     12  C   UNL A   1      42.759  25.827  34.930  1.00  0.00     0.067 A 
ATOM     13  C   UNL A   1      42.856  27.012  34.210  1.00  0.00     0.021 A 
ATOM     14  C   UNL A   1      43.366  24.666  34.450  1.00  0.00     0.021 A 
ATOM     15  C   UNL A   1      43.633  27.048  33.045  1.00  0.00     0.009 A 
ATOM     16  C   UNL A   1      44.166  24.722  33.302  1.00  0.00     0.009 A 
BRANCH  12  17
ATOM     17  S   UNL A   1      41.925  25.784  36.500  1.00  0.00     0.175 S 
ATOM     18  C   UNL A   1      43.180  26.038  37.729  1.00  0.00     0.163 C 
ATOM     19  O   UNL A   1      41.432  24.430  36.681  1.00  0.00    -0.224 OA
ATOM     20  O   UNL A   1      41.018  26.915  36.525  1.00  0.00    -0.224 OA
ENDBRANCH  12  17
ENDBRANCH  10  11
BRANCH   9  21
ATOM     21  C   UNL A   1      46.375  28.207  32.034  1.00  0.00    -0.011 A 
ATOM     22  C   UNL A   1      47.173  28.334  33.177  1.00  0.00     0.009 A 
ATOM     23  C   UNL A   1      45.729  29.341  31.536  1.00  0.00     0.009 A 
ATOM     24  C   UNL A   1      47.349  29.573  33.792  1.00  0.00     0.009 A 
ATOM     25  C   UNL A   1      45.921  30.586  32.150  1.00  0.00     0.009 A 
ATOM     26  C   UNL A   1      46.739  30.728  33.285  1.00  0.00    -0.015 A 
BRANCH  26  27
ATOM     27  C   UNL A   1      46.956  32.031  33.938  1.00  0.00     0.018 A 
ATOM     28  C   UNL A   1      47.647  33.069  33.280  1.00  0.00     0.015 A 
ATOM     29  C   UNL A   1      46.508  32.279  35.247  1.00  0.00     0.133 A 
ATOM     30  C   UNL A   1      47.877  34.294  33.913  1.00  0.00     0.040 A 
ATOM     31  C   UNL A   1      46.732  33.495  35.884  1.00  0.00     0.079 A 
ATOM     32  F   UNL A   1      45.846  31.327  35.923  1.00  0.00    -0.206 F 
ATOM     33  C   UNL A   1      47.411  34.495  35.206  1.00  0.00     0.126 A 
ATOM     34  F   UNL A   1      47.610  35.678  35.799  1.00  0.00    -0.207 F 
ENDBRANCH  26  27
ENDBRANCH   9  21
ENDBRANCH   7   9
ENDBRANCH   6   7
ENDBRANCH   5   6
ENDBRANCH   4   5
ENDBRANCH   3   4
ENDBRANCH   2   3
ENDBRANCH   1   2
BRANCH   1  35
ATOM     35  O   UNL A   1      54.475  27.684  28.872  1.00  0.00    -0.376 OA
BRANCH  35  36
ATOM     36  C   UNL A   1      54.625  28.177  27.549  1.00  0.00     0.202 C 
BRANCH  36  37
ATOM     37  C   UNL A   1      55.142  27.266  26.421  1.00  0.00     0.261 C 
BRANCH  37  38
ATOM     38  O   UNL A   1      54.390  27.258  25.197  1.00  0.00    -0.460 OA
BRANCH  38  39
ATOM     39  C   UNL A   1      53.786  26.086  24.892  1.00  0.00     0.338 C 
ATOM     40  O   UNL A   1      54.333  25.052  24.518  1.00  0.00    -0.246 OA
BRANCH  39  41
ATOM     41  C   UNL A   1      52.355  26.145  25.251  1.00  0.00     0.060 A 
ATOM     42  C   UNL A   1      51.471  26.786  24.369  1.00  0.00     0.016 A 
ATOM     43  C   UNL A   1      51.891  25.638  26.467  1.00  0.00     0.016 A 
ATOM     44  C   UNL A   1      50.129  26.944  24.711  1.00  0.00     0.010 A 
ATOM     45  C   UNL A   1      50.548  25.822  26.819  1.00  0.00     0.010 A 
ATOM     46  C   UNL A   1      49.668  26.501  25.957  1.00  0.00    -0.014 A 
BRANCH  46  47
ATOM     47  C   UNL A   1      48.326  26.926  26.430  1.00  0.00     0.031 A 
ATOM     48  C   UNL A   1      48.142  28.353  26.875  1.00  0.00     0.074 A 
ATOM     49  C   UNL A   1      47.282  26.078  26.435  1.00  0.00     0.049 A 
ATOM     50  N   UNL A   1      47.076  28.944  27.346  1.00  0.00    -0.248 NA
ATOM     51  C   UNL A   1      49.323  29.227  26.774  1.00  0.00     0.031 C 
ATOM     52  C   UNL A   1      47.326  24.684  26.003  1.00  0.00     0.029 A 
ATOM     53  N   UNL A   1      45.980  26.267  26.828  1.00  0.00    -0.354 N 
ATOM     54  C   UNL A   1      47.456  30.256  27.607  1.00  0.00     0.074 A 
ATOM     55  C   UNL A   1      48.857  30.368  27.263  1.00  0.00     0.031 C 
ATOM     56  C   UNL A   1      46.105  24.141  26.154  1.00  0.00     0.029 A 
ATOM     57  C   UNL A   1      45.206  25.133  26.741  1.00  0.00     0.049 A 
ATOM     58  H   UNL A   1      45.633  27.134  27.142  1.00  0.00     0.167 HD
ATOM     59  C   UNL A   1      46.706  31.276  28.089  1.00  0.00     0.037 A 
ATOM     60  C   UNL A   1      43.931  24.915  27.124  1.00  0.00     0.037 A 
ATOM     61  C   UNL A   1      45.317  31.156  28.449  1.00  0.00     0.049 A 
ATOM     62  C   UNL A   1      43.136  26.048  27.729  1.00  0.00     0.074 A 
ATOM     63  C   UNL A   1      44.469  32.133  28.938  1.00  0.00     0.029 A 
ATOM     64  N   UNL A   1      44.577  29.985  28.374  1.00  0.00    -0.354 N 
ATOM     65  N   UNL A   1      43.499  27.291  27.944  1.00  0.00    -0.248 NA
ATOM     66  C   UNL A   1      41.758  25.749  28.145  1.00  0.00     0.031 C 
ATOM     67  C   UNL A   1      43.232  31.541  29.212  1.00  0.00     0.029 A 
ATOM     68  C   UNL A   1      43.289  30.210  28.831  1.00  0.00     0.049 A 
ATOM     69  H   UNL A   1      44.917  29.121  28.046  1.00  0.00     0.167 HD
ATOM     70  C   UNL A   1      42.385  27.928  28.486  1.00  0.00     0.074 A 
ATOM     71  C   UNL A   1      41.333  26.935  28.558  1.00  0.00     0.031 C 
ATOM     72  C   UNL A   1      42.243  29.217  28.883  1.00  0.00     0.037 A 
BRANCH  59  73
ATOM     73  C   UNL A   1      47.382  32.604  28.287  1.00  0.00     0.058 A 
ATOM     74  C   UNL A   1      48.139  32.886  29.436  1.00  0.00     0.135 A 
ATOM     75  C   UNL A   1      47.296  33.600  27.300  1.00  0.00     0.135 A 
ATOM     76  F   UNL A   1      48.238  31.978  30.420  1.00  0.00    -0.206 F 
ATOM     77  C   UNL A   1      48.764  34.116  29.610  1.00  0.00     0.059 A 
ATOM     78  C   UNL A   1      47.938  34.826  27.440  1.00  0.00     0.059 A 
ATOM     79  F   UNL A   1      46.582  33.384  26.184  1.00  0.00    -0.206 F 
ATOM     80  C   UNL A   1      48.659  35.080  28.605  1.00  0.00     0.060 A 
BRANCH  80  81
ATOM     81  S   UNL A   1      49.479  36.669  28.847  1.00  0.00     0.124 S 
ATOM     82  O   UNL A   1      50.433  36.347  29.904  1.00  0.00    -0.237 OA
ATOM     83  O   UNL A   1      50.054  36.925  27.530  1.00  0.00    -0.237 OA
ATOM     84  O   UNL A   1      48.390  37.559  29.236  1.00  0.00    -0.744 OA
ENDBRANCH  80  81
ENDBRANCH  59  73
BRANCH  60  85
ATOM     85  C   UNL A   1      43.323  23.563  26.971  1.00  0.00     0.058 A 
ATOM     86  C   UNL A   1      43.184  22.701  28.069  1.00  0.00     0.135 A 
ATOM     87  C   UNL A   1      42.885  23.098  25.722  1.00  0.00     0.135 A 
ATOM     88  F   UNL A   1      43.618  23.081  29.279  1.00  0.00    -0.206 F 
ATOM     89  C   UNL A   1      42.639  21.427  27.936  1.00  0.00     0.059 A 
ATOM     90  C   UNL A   1      42.314  21.837  25.566  1.00  0.00     0.059 A 
ATOM     91  F   UNL A   1      42.997  23.878  24.635  1.00  0.00    -0.206 F 
ATOM     92  C   UNL A   1      42.204  21.006  26.679  1.00  0.00     0.060 A 
BRANCH  92  93
ATOM     93  S   UNL A   1      41.466  19.365  26.528  1.00  0.00     0.124 S 
ATOM     94  O   UNL A   1      42.311  18.755  25.509  1.00  0.00    -0.237 OA
ATOM     95  O   UNL A   1      41.616  18.839  27.881  1.00  0.00    -0.237 OA
ATOM     96  O   UNL A   1      40.093  19.651  26.121  1.00  0.00    -0.744 OA
ENDBRANCH  92  93
ENDBRANCH  60  85
BRANCH  72  97
ATOM     97  C   UNL A   1      40.890  29.656  29.379  1.00  0.00     0.058 A 
ATOM     98  C   UNL A   1      39.803  29.849  28.511  1.00  0.00     0.135 A 
ATOM     99  C   UNL A   1      40.662  29.822  30.756  1.00  0.00     0.135 A 
ATOM    100  F   UNL A   1      39.963  29.707  27.186  1.00  0.00    -0.206 F 
ATOM    101  C   UNL A   1      38.547  30.215  28.988  1.00  0.00     0.059 A 
ATOM    102  C   UNL A   1      39.408  30.157  31.257  1.00  0.00     0.059 A 
ATOM    103  F   UNL A   1      41.662  29.637  31.634  1.00  0.00    -0.206 F 
ATOM    104  C   UNL A   1      38.359  30.363  30.365  1.00  0.00     0.060 A 
BRANCH 104 105
ATOM    105  S   UNL A   1      36.716  30.801  30.972  1.00  0.00     0.124 S 
ATOM    106  O   UNL A   1      36.955  32.124  31.540  1.00  0.00    -0.237 OA
ATOM    107  O   UNL A   1      35.914  30.769  29.754  1.00  0.00    -0.237 OA
ATOM    108  O   UNL A   1      36.419  29.748  31.940  1.00  0.00    -0.744 OA
ENDBRANCH 104 105
ENDBRANCH  72  97
ENDBRANCH  46  47
ENDBRANCH  39  41
ENDBRANCH  38  39
ENDBRANCH  37  38
ENDBRANCH  36  37
ENDBRANCH  35  36
ENDBRANCH   1  35
TORSDOF 24
ENDMDL
MODEL 2
REMARK VINA RESULT:      -6.9      4.968     12.128
REMARK SMILES CS(=O)(=O)c1ccc(/C=C(/C(=O)OCCOCCOCCOC(=O)c2ccc(-c3c4nc(c(-c5c(F)cc(S(=O)(=O)[O-])cc5F)c5ccc([nH]5)c(-c5c(F)cc(S(=O)(=O)[O-])cc5F)c5nc(c(-c6c(F)cc(S(=O)(=O)[O-])cc6F)c6ccc3[nH]6)C=C5)C=C4)cc2)c2ccc(-c3ccc(F)cc3F)cc2)cc1
REMARK SMILES IDX 18 1 17 2 16 3 15 4 14 5 13 6 11 7 12 8 10 9 9 10 8 11 5 12
REMARK SMILES IDX 6 13 106 14 7 15 105 16 2 17 1 18 3 19 4 20 91 21 92 22
REMARK SMILES IDX 104 23 93 24 103 25 94 26 95 27 96 28 101 29 97 30 100 31
REMARK SMILES IDX 102 32 98 33 99 34 19 35 20 36 21 37 22 38 23 39 24 40 25 41
REMARK SMILES IDX 26 42 90 43 27 44 89 45 28 46 29 47 30 48 83 49 31 50 88 51
REMARK SMILES IDX 82 52 84 53 32 54 87 55 81 56 80 57 33 59 67 60 46 61 66 62
REMARK SMILES IDX 47 63 50 64 65 65 85 66 48 67 49 68 64 70 86 71 51 72 34 73
REMARK SMILES IDX 35 74 44 75 36 76 37 77 43 78 45 79 38 80 39 81 40 82 41 83
REMARK SMILES IDX 42 84 68 85 69 86 78 87 70 88 71 89 77 90 79 91 72 92 73 93
REMARK SMILES IDX 74 94 75 95 76 96 52 97 53 98 62 99 54 100 55 101 61 102
REMARK SMILES IDX 63 103 56 104 57 105 58 106 59 107 60 108
REMARK H PARENT 84 58 50 69
REMARK Flexibility Score: inf
ROOT
ATOM      1  C   UNL A   1      38.380  30.985  36.222  1.00  0.00     0.188 C 
ENDROOT
BRANCH   1   2
ATOM      2  C   UNL A   1      38.125  30.607  34.747  1.00  0.00     0.188 C 
BRANCH   2   3
ATOM      3  O   UNL A   1      38.531  31.614  33.847  1.00  0.00    -0.376 OA
BRANCH   3   4
ATOM      4  C   UNL A   1      37.559  32.130  32.956  1.00  0.00     0.202 C 
BRANCH   4   5
ATOM      5  C   UNL A   1      37.940  32.681  31.564  1.00  0.00     0.261 C 
BRANCH   5   6
ATOM      6  O   UNL A   1      38.773  31.863  30.725  1.00  0.00    -0.460 OA
BRANCH   6   7
ATOM      7  C   UNL A   1      38.158  30.969  29.908  1.00  0.00     0.338 C 
ATOM      8  O   UNL A   1      37.121  31.177  29.299  1.00  0.00    -0.246 OA
BRANCH   7   9
ATOM      9  C   UNL A   1      38.983  29.718  29.751  1.00  0.00     0.067 C 
ATOM     10  C   UNL A   1      38.944  29.025  28.586  1.00  0.00     0.024 C 
BRANCH  10  11
ATOM     11  C   UNL A   1      39.774  27.862  28.171  1.00  0.00    -0.025 A 
ATOM     12  C   UNL A   1      41.537  25.699  27.787  1.00  0.00     0.067 A 
ATOM     13  C   UNL A   1      40.171  25.464  27.895  1.00  0.00     0.021 A 
ATOM     14  C   UNL A   1      42.020  27.008  27.752  1.00  0.00     0.021 A 
ATOM     15  C   UNL A   1      39.296  26.548  28.048  1.00  0.00     0.009 A 
ATOM     16  C   UNL A   1      41.140  28.081  27.938  1.00  0.00     0.009 A 
BRANCH  12  17
ATOM     17  S   UNL A   1      42.691  24.347  27.762  1.00  0.00     0.175 S 
ATOM     18  C   UNL A   1      41.960  23.099  26.733  1.00  0.00     0.163 C 
ATOM     19  O   UNL A   1      42.736  23.804  29.108  1.00  0.00    -0.224 OA
ATOM     20  O   UNL A   1      43.894  24.833  27.116  1.00  0.00    -0.224 OA
ENDBRANCH  12  17
ENDBRANCH  10  11
BRANCH   9  21
ATOM     21  C   UNL A   1      39.810  29.297  30.899  1.00  0.00    -0.011 A 
ATOM     22  C   UNL A   1      39.206  28.608  31.958  1.00  0.00     0.009 A 
ATOM     23  C   UNL A   1      41.198  29.453  30.905  1.00  0.00     0.009 A 
ATOM     24  C   UNL A   1      39.974  28.057  32.983  1.00  0.00     0.009 A 
ATOM     25  C   UNL A   1      41.965  28.886  31.931  1.00  0.00     0.009 A 
ATOM     26  C   UNL A   1      41.370  28.172  32.985  1.00  0.00    -0.015 A 
BRANCH  26  27
ATOM     27  C   UNL A   1      42.165  27.564  34.068  1.00  0.00     0.018 A 
ATOM     28  C   UNL A   1      41.910  27.873  35.420  1.00  0.00     0.015 A 
ATOM     29  C   UNL A   1      43.221  26.678  33.795  1.00  0.00     0.133 A 
ATOM     30  C   UNL A   1      42.684  27.318  36.443  1.00  0.00     0.040 A 
ATOM     31  C   UNL A   1      43.996  26.121  34.806  1.00  0.00     0.079 A 
ATOM     32  F   UNL A   1      43.511  26.349  32.526  1.00  0.00    -0.206 F 
ATOM     33  C   UNL A   1      43.714  26.443  36.124  1.00  0.00     0.126 A 
ATOM     34  F   UNL A   1      44.436  25.892  37.108  1.00  0.00    -0.207 F 
ENDBRANCH  26  27
ENDBRANCH   9  21
ENDBRANCH   7   9
ENDBRANCH   6   7
ENDBRANCH   5   6
ENDBRANCH   4   5
ENDBRANCH   3   4
ENDBRANCH   2   3
ENDBRANCH   1   2
BRANCH   1  35
ATOM     35  O   UNL A   1      37.713  32.097  36.805  1.00  0.00    -0.376 OA
BRANCH  35  36
ATOM     36  C   UNL A   1      38.350  32.822  37.846  1.00  0.00     0.202 C 
BRANCH  36  37
ATOM     37  C   UNL A   1      39.364  33.936  37.526  1.00  0.00     0.261 C 
BRANCH  37  38
ATOM     38  O   UNL A   1      39.654  34.170  36.139  1.00  0.00    -0.460 OA
BRANCH  38  39
ATOM     39  C   UNL A   1      40.837  34.777  35.885  1.00  0.00     0.338 C 
ATOM     40  O   UNL A   1      41.126  35.949  36.113  1.00  0.00    -0.246 OA
BRANCH  39  41
ATOM     41  C   UNL A   1      41.836  33.779  35.455  1.00  0.00     0.060 A 
ATOM     42  C   UNL A   1      41.381  32.527  35.014  1.00  0.00     0.016 A 
ATOM     43  C   UNL A   1      43.205  34.040  35.541  1.00  0.00     0.016 A 
ATOM     44  C   UNL A   1      42.292  31.524  34.685  1.00  0.00     0.010 A 
ATOM     45  C   UNL A   1      44.118  33.023  35.235  1.00  0.00     0.010 A 
ATOM     46  C   UNL A   1      43.665  31.752  34.834  1.00  0.00    -0.014 A 
BRANCH  46  47
ATOM     47  C   UNL A   1      44.606  30.605  34.763  1.00  0.00     0.031 A 
ATOM     48  C   UNL A   1      45.087  29.991  36.051  1.00  0.00     0.074 A 
ATOM     49  C   UNL A   1      45.000  30.093  33.583  1.00  0.00     0.049 A 
ATOM     50  N   UNL A   1      45.922  29.004  36.238  1.00  0.00    -0.248 NA
ATOM     51  C   UNL A   1      44.553  30.574  37.293  1.00  0.00     0.031 C 
ATOM     52  C   UNL A   1      44.583  30.579  32.270  1.00  0.00     0.029 A 
ATOM     53  N   UNL A   1      45.851  29.052  33.301  1.00  0.00    -0.354 N 
ATOM     54  C   UNL A   1      46.022  28.850  37.617  1.00  0.00     0.074 A 
ATOM     55  C   UNL A   1      45.179  29.861  38.218  1.00  0.00     0.031 C 
ATOM     56  C   UNL A   1      45.180  29.838  31.320  1.00  0.00     0.029 A 
ATOM     57  C   UNL A   1      46.060  28.858  31.955  1.00  0.00     0.049 A 
ATOM     58  H   UNL A   1      46.272  28.497  33.997  1.00  0.00     0.167 HD
ATOM     59  C   UNL A   1      46.749  27.949  38.318  1.00  0.00     0.037 A 
ATOM     60  C   UNL A   1      46.891  28.011  31.314  1.00  0.00     0.037 A 
ATOM     61  C   UNL A   1      47.602  26.957  37.717  1.00  0.00     0.049 A 
ATOM     62  C   UNL A   1      47.750  27.064  32.120  1.00  0.00     0.074 A 
ATOM     63  C   UNL A   1      48.373  25.993  38.343  1.00  0.00     0.029 A 
ATOM     64  N   UNL A   1      47.809  26.810  36.353  1.00  0.00    -0.354 N 
ATOM     65  N   UNL A   1      47.813  26.911  33.423  1.00  0.00    -0.248 NA
ATOM     66  C   UNL A   1      48.650  26.177  31.370  1.00  0.00     0.031 C 
ATOM     67  C   UNL A   1      49.089  25.301  37.362  1.00  0.00     0.029 A 
ATOM     68  C   UNL A   1      48.714  25.787  36.120  1.00  0.00     0.049 A 
ATOM     69  H   UNL A   1      47.378  27.353  35.655  1.00  0.00     0.167 HD
ATOM     70  C   UNL A   1      48.731  25.888  33.643  1.00  0.00     0.074 A 
ATOM     71  C   UNL A   1      49.192  25.453  32.341  1.00  0.00     0.031 C 
ATOM     72  C   UNL A   1      49.153  25.352  34.816  1.00  0.00     0.037 A 
BRANCH  59  73
ATOM     73  C   UNL A   1      46.680  28.016  39.819  1.00  0.00     0.058 A 
ATOM     74  C   UNL A   1      47.621  28.737  40.572  1.00  0.00     0.135 A 
ATOM     75  C   UNL A   1      45.641  27.374  40.512  1.00  0.00     0.135 A 
ATOM     76  F   UNL A   1      48.647  29.352  39.963  1.00  0.00    -0.206 F 
ATOM     77  C   UNL A   1      47.548  28.796  41.960  1.00  0.00     0.059 A 
ATOM     78  C   UNL A   1      45.532  27.445  41.898  1.00  0.00     0.059 A 
ATOM     79  F   UNL A   1      44.717  26.667  39.842  1.00  0.00    -0.206 F 
ATOM     80  C   UNL A   1      46.498  28.148  42.614  1.00  0.00     0.060 A 
BRANCH  80  81
ATOM     81  S   UNL A   1      46.418  28.239  44.414  1.00  0.00     0.124 S 
ATOM     82  O   UNL A   1      47.104  29.502  44.673  1.00  0.00    -0.237 OA
ATOM     83  O   UNL A   1      44.980  28.236  44.662  1.00  0.00    -0.237 OA
ATOM     84  O   UNL A   1      47.128  27.040  44.848  1.00  0.00    -0.744 OA
ENDBRANCH  80  81
ENDBRANCH  59  73
BRANCH  60  85
ATOM     85  C   UNL A   1      46.977  28.026  29.826  1.00  0.00     0.058 A 
ATOM     86  C   UNL A   1      46.184  27.174  29.044  1.00  0.00     0.135 A 
ATOM     87  C   UNL A   1      47.867  28.881  29.156  1.00  0.00     0.135 A 
ATOM     88  F   UNL A   1      45.343  26.313  29.633  1.00  0.00    -0.206 F 
ATOM     89  C   UNL A   1      46.271  27.162  27.655  1.00  0.00     0.059 A 
ATOM     90  C   UNL A   1      47.955  28.906  27.767  1.00  0.00     0.059 A 
ATOM     91  F   UNL A   1      48.653  29.715  29.854  1.00  0.00    -0.206 F 
ATOM     92  C   UNL A   1      47.158  28.036  27.026  1.00  0.00     0.060 A 
BRANCH  92  93
ATOM     93  S   UNL A   1      47.234  28.035  25.222  1.00  0.00     0.124 S 
ATOM     94  O   UNL A   1      48.648  28.299  24.987  1.00  0.00    -0.237 OA
ATOM     95  O   UNL A   1      46.774  26.689  24.898  1.00  0.00    -0.237 OA
ATOM     96  O   UNL A   1      46.321  29.112  24.848  1.00  0.00    -0.744 OA
ENDBRANCH  92  93
ENDBRANCH  60  85
BRANCH  72  97
ATOM     97  C   UNL A   1      50.119  24.197  34.757  1.00  0.00     0.058 A 
ATOM     98  C   UNL A   1      49.691  22.877  34.542  1.00  0.00     0.135 A 
ATOM     99  C   UNL A   1      51.502  24.428  34.851  1.00  0.00     0.135 A 
ATOM    100  F   UNL A   1      48.381  22.597  34.447  1.00  0.00    -0.206 F 
ATOM    101  C   UNL A   1      50.598  21.825  34.448  1.00  0.00     0.059 A 
ATOM    102  C   UNL A   1      52.427  23.396  34.729  1.00  0.00     0.059 A 
ATOM    103  F   UNL A   1      51.968  25.672  35.043  1.00  0.00    -0.206 F 
ATOM    104  C   UNL A   1      51.966  22.095  34.539  1.00  0.00     0.060 A 
BRANCH 104 105
ATOM    105  S   UNL A   1      53.132  20.727  34.377  1.00  0.00     0.124 S 
ATOM    106  O   UNL A   1      53.810  21.063  33.129  1.00  0.00    -0.237 OA
ATOM    107  O   UNL A   1      53.935  20.856  35.589  1.00  0.00    -0.237 OA
ATOM    108  O   UNL A   1      52.271  19.549  34.326  1.00  0.00    -0.744 OA
ENDBRANCH 104 105
ENDBRANCH  72  97
ENDBRANCH  46  47
ENDBRANCH  39  41
ENDBRANCH  38  39
ENDBRANCH  37  38
ENDBRANCH  36  37
ENDBRANCH  35  36
ENDBRANCH   1  35
TORSDOF 24
ENDMDL
MODEL 3
REMARK VINA RESULT:      -6.9      3.582     10.619
REMARK SMILES CS(=O)(=O)c1ccc(/C=C(/C(=O)OCCOCCOCCOC(=O)c2ccc(-c3c4nc(c(-c5c(F)cc(S(=O)(=O)[O-])cc5F)c5ccc([nH]5)c(-c5c(F)cc(S(=O)(=O)[O-])cc5F)c5nc(c(-c6c(F)cc(S(=O)(=O)[O-])cc6F)c6ccc3[nH]6)C=C5)C=C4)cc2)c2ccc(-c3ccc(F)cc3F)cc2)cc1
REMARK SMILES IDX 18 1 17 2 16 3 15 4 14 5 13 6 11 7 12 8 10 9 9 10 8 11 5 12
REMARK SMILES IDX 6 13 106 14 7 15 105 16 2 17 1 18 3 19 4 20 91 21 92 22
REMARK SMILES IDX 104 23 93 24 103 25 94 26 95 27 96 28 101 29 97 30 100 31
REMARK SMILES IDX 102 32 98 33 99 34 19 35 20 36 21 37 22 38 23 39 24 40 25 41
REMARK SMILES IDX 26 42 90 43 27 44 89 45 28 46 29 47 30 48 83 49 31 50 88 51
REMARK SMILES IDX 82 52 84 53 32 54 87 55 81 56 80 57 33 59 67 60 46 61 66 62
REMARK SMILES IDX 47 63 50 64 65 65 85 66 48 67 49 68 64 70 86 71 51 72 34 73
REMARK SMILES IDX 35 74 44 75 36 76 37 77 43 78 45 79 38 80 39 81 40 82 41 83
REMARK SMILES IDX 42 84 68 85 69 86 78 87 70 88 71 89 77 90 79 91 72 92 73 93
REMARK SMILES IDX 74 94 75 95 76 96 52 97 53 98 62 99 54 100 55 101 61 102
REMARK SMILES IDX 63 103 56 104 57 105 58 106 59 107 60 108
REMARK H PARENT 84 58 50 69
REMARK Flexibility Score: inf
ROOT
ATOM      1  C   UNL A   1      38.105  31.424  35.932  1.00  0.00     0.188 C 
ENDROOT
BRANCH   1   2
ATOM      2  C   UNL A   1      37.912  30.760  34.552  1.00  0.00     0.188 C 
BRANCH   2   3
ATOM      3  O   UNL A   1      37.826  31.697  33.502  1.00  0.00    -0.376 OA
BRANCH   3   4
ATOM      4  C   UNL A   1      36.599  31.789  32.803  1.00  0.00     0.202 C 
BRANCH   4   5
ATOM      5  C   UNL A   1      36.500  32.465  31.416  1.00  0.00     0.261 C 
BRANCH   5   6
ATOM      6  O   UNL A   1      37.431  32.052  30.403  1.00  0.00    -0.460 OA
BRANCH   6   7
ATOM      7  C   UNL A   1      37.046  31.057  29.562  1.00  0.00     0.338 C 
ATOM      8  O   UNL A   1      36.011  31.052  28.913  1.00  0.00    -0.246 OA
BRANCH   7   9
ATOM      9  C   UNL A   1      38.116  30.005  29.437  1.00  0.00     0.067 C 
ATOM     10  C   UNL A   1      38.388  29.458  28.227  1.00  0.00     0.024 C 
BRANCH  10  11
ATOM     11  C   UNL A   1      39.484  28.522  27.857  1.00  0.00    -0.025 A 
ATOM     12  C   UNL A   1      41.831  27.047  27.354  1.00  0.00     0.067 A 
ATOM     13  C   UNL A   1      40.881  26.551  28.240  1.00  0.00     0.021 A 
ATOM     14  C   UNL A   1      41.570  28.211  26.630  1.00  0.00     0.021 A 
ATOM     15  C   UNL A   1      39.699  27.272  28.456  1.00  0.00     0.009 A 
ATOM     16  C   UNL A   1      40.400  28.939  26.878  1.00  0.00     0.009 A 
BRANCH  12  17
ATOM     17  S   UNL A   1      43.412  26.252  27.181  1.00  0.00     0.175 S 
ATOM     18  C   UNL A   1      44.623  27.468  27.634  1.00  0.00     0.163 C 
ATOM     19  O   UNL A   1      43.598  25.985  25.765  1.00  0.00    -0.224 OA
ATOM     20  O   UNL A   1      43.451  25.177  28.152  1.00  0.00    -0.224 OA
ENDBRANCH  12  17
ENDBRANCH  10  11
BRANCH   9  21
ATOM     21  C   UNL A   1      38.831  29.609  30.667  1.00  0.00    -0.011 A 
ATOM     22  C   UNL A   1      38.284  28.609  31.482  1.00  0.00     0.009 A 
ATOM     23  C   UNL A   1      40.097  30.109  30.978  1.00  0.00     0.009 A 
ATOM     24  C   UNL A   1      39.000  28.097  32.564  1.00  0.00     0.009 A 
ATOM     25  C   UNL A   1      40.817  29.581  32.057  1.00  0.00     0.009 A 
ATOM     26  C   UNL A   1      40.286  28.561  32.867  1.00  0.00    -0.015 A 
BRANCH  26  27
ATOM     27  C   UNL A   1      41.033  27.991  34.002  1.00  0.00     0.018 A 
ATOM     28  C   UNL A   1      41.583  26.694  33.934  1.00  0.00     0.015 A 
ATOM     29  C   UNL A   1      41.203  28.704  35.201  1.00  0.00     0.133 A 
ATOM     30  C   UNL A   1      42.265  26.145  35.024  1.00  0.00     0.040 A 
ATOM     31  C   UNL A   1      41.881  28.166  36.290  1.00  0.00     0.079 A 
ATOM     32  F   UNL A   1      40.699  29.943  35.324  1.00  0.00    -0.206 F 
ATOM     33  C   UNL A   1      42.412  26.890  36.187  1.00  0.00     0.126 A 
ATOM     34  F   UNL A   1      43.090  26.371  37.218  1.00  0.00    -0.207 F 
ENDBRANCH  26  27
ENDBRANCH   9  21
ENDBRANCH   7   9
ENDBRANCH   6   7
ENDBRANCH   5   6
ENDBRANCH   4   5
ENDBRANCH   3   4
ENDBRANCH   2   3
ENDBRANCH   1   2
BRANCH   1  35
ATOM     35  O   UNL A   1      37.247  32.478  36.349  1.00  0.00    -0.376 OA
BRANCH  35  36
ATOM     36  C   UNL A   1      37.640  33.306  37.434  1.00  0.00     0.202 C 
BRANCH  36  37
ATOM     37  C   UNL A   1      38.450  34.593  37.190  1.00  0.00     0.261 C 
BRANCH  37  38
ATOM     38  O   UNL A   1      38.587  35.025  35.828  1.00  0.00    -0.460 OA
BRANCH  38  39
ATOM     39  C   UNL A   1      39.734  35.683  35.537  1.00  0.00     0.338 C 
ATOM     40  O   UNL A   1      40.033  36.826  35.874  1.00  0.00    -0.246 OA
BRANCH  39  41
ATOM     41  C   UNL A   1      40.697  34.763  34.898  1.00  0.00     0.060 A 
ATOM     42  C   UNL A   1      42.056  34.890  35.221  1.00  0.00     0.016 A 
ATOM     43  C   UNL A   1      40.284  33.830  33.945  1.00  0.00     0.016 A 
ATOM     44  C   UNL A   1      43.009  34.104  34.574  1.00  0.00     0.010 A 
ATOM     45  C   UNL A   1      41.245  33.059  33.278  1.00  0.00     0.010 A 
ATOM     46  C   UNL A   1      42.613  33.214  33.568  1.00  0.00    -0.014 A 
BRANCH  46  47
ATOM     47  C   UNL A   1      43.644  32.601  32.692  1.00  0.00     0.031 A 
ATOM     48  C   UNL A   1      44.201  33.420  31.558  1.00  0.00     0.074 A 
ATOM     49  C   UNL A   1      44.104  31.356  32.914  1.00  0.00     0.049 A 
ATOM     50  N   UNL A   1      45.086  33.092  30.654  1.00  0.00    -0.248 NA
ATOM     51  C   UNL A   1      43.687  34.794  31.430  1.00  0.00     0.031 C 
ATOM     52  C   UNL A   1      43.666  30.475  33.994  1.00  0.00     0.029 A 
ATOM     53  N   UNL A   1      45.038  30.615  32.233  1.00  0.00    -0.354 N 
ATOM     54  C   UNL A   1      45.230  34.213  29.843  1.00  0.00     0.074 A 
ATOM     55  C   UNL A   1      44.325  35.221  30.350  1.00  0.00     0.031 C 
ATOM     56  C   UNL A   1      44.331  29.310  33.903  1.00  0.00     0.029 A 
ATOM     57  C   UNL A   1      45.204  29.343  32.731  1.00  0.00     0.049 A 
ATOM     58  H   UNL A   1      45.543  30.961  31.462  1.00  0.00     0.167 HD
ATOM     59  C   UNL A   1      46.043  34.386  28.774  1.00  0.00     0.037 A 
ATOM     60  C   UNL A   1      45.948  28.316  32.270  1.00  0.00     0.037 A 
ATOM     61  C   UNL A   1      46.928  33.373  28.261  1.00  0.00     0.049 A 
ATOM     62  C   UNL A   1      46.790  28.509  31.031  1.00  0.00     0.074 A 
ATOM     63  C   UNL A   1      47.798  33.456  27.188  1.00  0.00     0.029 A 
ATOM     64  N   UNL A   1      47.046  32.089  28.773  1.00  0.00    -0.354 N 
ATOM     65  N   UNL A   1      46.938  29.583  30.291  1.00  0.00    -0.248 NA
ATOM     66  C   UNL A   1      47.566  27.350  30.565  1.00  0.00     0.031 C 
ATOM     67  C   UNL A   1      48.400  32.205  27.017  1.00  0.00     0.029 A 
ATOM     68  C   UNL A   1      47.957  31.363  28.023  1.00  0.00     0.049 A 
ATOM     69  H   UNL A   1      46.555  31.745  29.554  1.00  0.00     0.167 HD
ATOM     70  C   UNL A   1      47.849  29.238  29.296  1.00  0.00     0.074 A 
ATOM     71  C   UNL A   1      48.224  27.860  29.532  1.00  0.00     0.031 C 
ATOM     72  C   UNL A   1      48.335  29.994  28.279  1.00  0.00     0.037 A 
BRANCH  59  73
ATOM     73  C   UNL A   1      45.988  35.711  28.066  1.00  0.00     0.058 A 
ATOM     74  C   UNL A   1      44.962  36.025  27.159  1.00  0.00     0.135 A 
ATOM     75  C   UNL A   1      46.959  36.694  28.320  1.00  0.00     0.135 A 
ATOM     76  F   UNL A   1      44.020  35.116  26.863  1.00  0.00    -0.206 F 
ATOM     77  C   UNL A   1      44.917  37.254  26.510  1.00  0.00     0.059 A 
ATOM     78  C   UNL A   1      46.916  37.942  27.705  1.00  0.00     0.059 A 
ATOM     79  F   UNL A   1      47.964  36.446  29.175  1.00  0.00    -0.206 F 
ATOM     80  C   UNL A   1      45.898  38.207  26.791  1.00  0.00     0.060 A 
BRANCH  80  81
ATOM     81  S   UNL A   1      45.822  39.798  25.943  1.00  0.00     0.124 S 
ATOM     82  O   UNL A   1      46.594  39.522  24.735  1.00  0.00    -0.237 OA
ATOM     83  O   UNL A   1      44.387  39.978  25.750  1.00  0.00    -0.237 OA
ATOM     84  O   UNL A   1      46.445  40.719  26.889  1.00  0.00    -0.744 OA
ENDBRANCH  80  81
ENDBRANCH  59  73
BRANCH  60  85
ATOM     85  C   UNL A   1      45.918  26.998  32.966  1.00  0.00     0.058 A 
ATOM     86  C   UNL A   1      45.030  25.987  32.571  1.00  0.00     0.135 A 
ATOM     87  C   UNL A   1      46.766  26.728  34.052  1.00  0.00     0.135 A 
ATOM     88  F   UNL A   1      44.173  26.204  31.563  1.00  0.00    -0.206 F 
ATOM     89  C   UNL A   1      44.976  24.761  33.227  1.00  0.00     0.059 A 
ATOM     90  C   UNL A   1      46.749  25.501  34.710  1.00  0.00     0.059 A 
ATOM     91  F   UNL A   1      47.634  27.659  34.477  1.00  0.00    -0.206 F 
ATOM     92  C   UNL A   1      45.843  24.526  34.294  1.00  0.00     0.060 A 
BRANCH  92  93
ATOM     93  S   UNL A   1      45.788  22.918  35.112  1.00  0.00     0.124 S 
ATOM     94  O   UNL A   1      44.527  23.000  35.837  1.00  0.00    -0.237 OA
ATOM     95  O   UNL A   1      45.814  21.999  33.979  1.00  0.00    -0.237 OA
ATOM     96  O   UNL A   1      46.992  22.920  35.938  1.00  0.00    -0.744 OA
ENDBRANCH  92  93
ENDBRANCH  60  85
BRANCH  72  97
ATOM     97  C   UNL A   1      49.370  29.378  27.375  1.00  0.00     0.058 A 
ATOM     98  C   UNL A   1      50.747  29.551  27.589  1.00  0.00     0.135 A 
ATOM     99  C   UNL A   1      48.975  28.545  26.314  1.00  0.00     0.135 A 
ATOM    100  F   UNL A   1      51.182  30.339  28.586  1.00  0.00    -0.206 F 
ATOM    101  C   UNL A   1      51.693  28.941  26.770  1.00  0.00     0.059 A 
ATOM    102  C   UNL A   1      49.904  27.901  25.503  1.00  0.00     0.059 A 
ATOM    103  F   UNL A   1      47.671  28.332  26.072  1.00  0.00    -0.206 F 
ATOM    104  C   UNL A   1      51.261  28.114  25.730  1.00  0.00     0.060 A 
BRANCH 104 105
ATOM    105  S   UNL A   1      52.499  27.300  24.699  1.00  0.00     0.124 S 
ATOM    106  O   UNL A   1      52.543  28.183  23.538  1.00  0.00    -0.237 OA
ATOM    107  O   UNL A   1      53.681  27.320  25.555  1.00  0.00    -0.237 OA
ATOM    108  O   UNL A   1      51.928  25.978  24.460  1.00  0.00    -0.744 OA
ENDBRANCH 104 105
ENDBRANCH  72  97
ENDBRANCH  46  47
ENDBRANCH  39  41
ENDBRANCH  38  39
ENDBRANCH  37  38
ENDBRANCH  36  37
ENDBRANCH  35  36
ENDBRANCH   1  35
TORSDOF 24
ENDMDL
