MODEL 1
REMARK VINA RESULT:     -10.1      0.000      0.000
REMARK SMILES Cc1c(Cl)cccc1S(=O)(=O)N[C@H]1C=C[C@@H](C(=O)OCCOCCOCCOC(=O)c2ccc(-c3c4nc(c(-c5c(F)cc(S(=O)(=O)[O-])cc5F)c5ccc([nH]5)c(-c5c(F)cc(S(=O)(=O)[O-])cc5F)c5nc(c(-c6c(F)cc(S(=O)(=O)[O-])cc6F)c6ccc3[nH]6)C=C5)C=C4)cc2)C1
REMARK SMILES IDX 23 1 22 2 21 3 20 4 19 5 17 6 18 7 16 8 13 9 14 10 97 11
REMARK SMILES IDX 15 12 12 13 9 15 10 16 11 17 8 18 1 19 2 20 3 21 4 22 5 23
REMARK SMILES IDX 7 24 6 25 24 26 25 27 26 28 27 29 28 30 29 31 30 32 31 33
REMARK SMILES IDX 32 34 96 35 33 36 95 37 34 38 35 39 36 40 89 41 37 42 94 43
REMARK SMILES IDX 88 44 90 45 38 46 93 47 87 48 86 49 39 51 73 52 52 53 72 54
REMARK SMILES IDX 53 55 56 56 71 57 91 58 54 59 55 60 70 62 92 63 57 64 40 65
REMARK SMILES IDX 41 66 50 67 42 68 43 69 49 70 51 71 44 72 45 73 46 74 47 75
REMARK SMILES IDX 48 76 74 77 75 78 84 79 76 80 77 81 83 82 85 83 78 84 79 85
REMARK SMILES IDX 80 86 81 87 82 88 58 89 59 90 68 91 60 92 61 93 67 94 69 95
REMARK SMILES IDX 62 96 63 97 64 98 65 99 66 100
REMARK H PARENT 12 14 90 50 56 61
REMARK Flexibility Score: inf
ROOT
ATOM      1  C   UNL A   1      34.960  32.427  29.672  1.00  0.00     0.188 C 
ENDROOT
BRANCH   1   2
ATOM      2  O   UNL A   1      34.916  32.474  28.255  1.00  0.00    -0.376 OA
BRANCH   2   3
ATOM      3  C   UNL A   1      33.764  31.952  27.601  1.00  0.00     0.202 C 
BRANCH   3   4
ATOM      4  C   UNL A   1      33.799  30.472  27.219  1.00  0.00     0.261 C 
BRANCH   4   5
ATOM      5  O   UNL A   1      32.492  29.868  27.076  1.00  0.00    -0.463 OA
BRANCH   5   6
ATOM      6  C   UNL A   1      32.316  29.184  25.914  1.00  0.00     0.312 C 
ATOM      7  O   UNL A   1      31.284  29.238  25.248  1.00  0.00    -0.252 OA
BRANCH   6   8
ATOM      8  C   UNL A   1      33.477  28.281  25.483  1.00  0.00     0.123 C 
ATOM      9  C   UNL A   1      33.783  26.038  24.434  1.00  0.00     0.093 C 
ATOM     10  C   UNL A   1      33.742  27.147  23.430  1.00  0.00    -0.011 C 
ATOM     11  C   UNL A   1      33.484  26.768  25.760  1.00  0.00     0.043 C 
ATOM     12  C   UNL A   1      33.578  28.349  23.989  1.00  0.00    -0.015 C 
BRANCH   9  13
ATOM     13  N   UNL A   1      32.723  25.092  24.069  1.00  0.00    -0.204 NA
ATOM     14  H   UNL A   1      32.370  24.702  24.943  1.00  0.00     0.142 HD
BRANCH  13  15
ATOM     15  S   UNL A   1      33.032  23.782  23.052  1.00  0.00     0.241 S 
ATOM     16  O   UNL A   1      33.500  24.296  21.776  1.00  0.00    -0.207 OA
ATOM     17  O   UNL A   1      31.879  22.927  23.150  1.00  0.00    -0.207 OA
BRANCH  15  18
ATOM     18  C   UNL A   1      34.379  22.876  23.775  1.00  0.00     0.086 A 
ATOM     19  C   UNL A   1      33.068  20.717  24.280  1.00  0.00     0.047 C 
ATOM     20  C   UNL A   1      34.195  21.688  24.466  1.00  0.00    -0.012 A 
ATOM     21  C   UNL A   1      35.162  21.424  25.434  1.00  0.00     0.045 A 
ATOM     22  Cl  UNL A   1      34.571  21.573  27.049  1.00  0.00    -0.084 Cl
ATOM     23  C   UNL A   1      36.472  21.880  25.331  1.00  0.00     0.021 A 
ATOM     24  C   UNL A   1      35.653  23.484  23.761  1.00  0.00     0.022 A 
ATOM     25  C   UNL A   1      36.726  22.920  24.457  1.00  0.00     0.003 A 
ENDBRANCH  15  18
ENDBRANCH  13  15
ENDBRANCH   9  13
ENDBRANCH   6   8
ENDBRANCH   5   6
ENDBRANCH   4   5
ENDBRANCH   3   4
ENDBRANCH   2   3
ENDBRANCH   1   2
BRANCH   1  26
ATOM     26  C   UNL A   1      34.779  33.735  30.440  1.00  0.00     0.188 C 
BRANCH  26  27
ATOM     27  O   UNL A   1      35.118  33.758  31.823  1.00  0.00    -0.376 OA
BRANCH  27  28
ATOM     28  C   UNL A   1      35.091  32.512  32.517  1.00  0.00     0.202 C 
BRANCH  28  29
ATOM     29  C   UNL A   1      36.420  32.098  33.158  1.00  0.00     0.261 C 
BRANCH  29  30
ATOM     30  O   UNL A   1      37.371  31.786  32.130  1.00  0.00    -0.460 OA
BRANCH  30  31
ATOM     31  C   UNL A   1      37.542  30.469  31.868  1.00  0.00     0.338 C 
ATOM     32  O   UNL A   1      36.794  29.547  32.138  1.00  0.00    -0.246 OA
BRANCH  31  33
ATOM     33  C   UNL A   1      38.791  30.333  31.101  1.00  0.00     0.060 A 
ATOM     34  C   UNL A   1      38.786  30.496  29.709  1.00  0.00     0.016 A 
ATOM     35  C   UNL A   1      39.966  30.017  31.779  1.00  0.00     0.016 A 
ATOM     36  C   UNL A   1      39.962  30.338  28.982  1.00  0.00     0.010 A 
ATOM     37  C   UNL A   1      41.140  29.846  31.049  1.00  0.00     0.010 A 
ATOM     38  C   UNL A   1      41.138  29.987  29.649  1.00  0.00    -0.014 A 
BRANCH  38  39
ATOM     39  C   UNL A   1      42.352  29.616  28.896  1.00  0.00     0.031 A 
ATOM     40  C   UNL A   1      42.473  28.203  28.407  1.00  0.00     0.074 A 
ATOM     41  C   UNL A   1      43.338  30.508  28.705  1.00  0.00     0.049 A 
ATOM     42  N   UNL A   1      43.522  27.567  27.965  1.00  0.00    -0.248 NA
ATOM     43  C   UNL A   1      41.241  27.396  28.436  1.00  0.00     0.031 C 
ATOM     44  C   UNL A   1      43.280  31.924  29.068  1.00  0.00     0.029 A 
ATOM     45  N   UNL A   1      44.596  30.342  28.188  1.00  0.00    -0.354 N 
ATOM     46  C   UNL A   1      43.088  26.276  27.695  1.00  0.00     0.074 A 
ATOM     47  C   UNL A   1      41.680  26.218  28.021  1.00  0.00     0.031 C 
ATOM     48  C   UNL A   1      44.468  32.491  28.798  1.00  0.00     0.029 A 
ATOM     49  C   UNL A   1      45.383  31.465  28.303  1.00  0.00     0.049 A 
ATOM     50  H   UNL A   1      44.907  29.503  27.776  1.00  0.00     0.167 HD
ATOM     51  C   UNL A   1      43.814  25.233  27.228  1.00  0.00     0.037 A 
ATOM     52  C   UNL A   1      46.704  31.620  28.091  1.00  0.00     0.037 A 
ATOM     53  C   UNL A   1      45.214  25.322  26.914  1.00  0.00     0.049 A 
ATOM     54  C   UNL A   1      47.511  30.427  27.655  1.00  0.00     0.074 A 
ATOM     55  C   UNL A   1      46.056  24.333  26.436  1.00  0.00     0.029 A 
ATOM     56  N   UNL A   1      45.979  26.472  27.052  1.00  0.00    -0.354 N 
ATOM     57  N   UNL A   1      47.108  29.197  27.429  1.00  0.00    -0.248 NA
ATOM     58  C   UNL A   1      48.953  30.631  27.462  1.00  0.00     0.031 C 
ATOM     59  C   UNL A   1      47.341  24.877  26.325  1.00  0.00     0.029 A 
ATOM     60  C   UNL A   1      47.289  26.215  26.690  1.00  0.00     0.049 A 
ATOM     61  H   UNL A   1      45.640  27.341  27.363  1.00  0.00     0.167 HD
ATOM     62  C   UNL A   1      48.241  28.487  27.048  1.00  0.00     0.074 A 
ATOM     63  C   UNL A   1      49.345  29.427  27.065  1.00  0.00     0.031 C 
ATOM     64  C   UNL A   1      48.363  27.179  26.711  1.00  0.00     0.037 A 
BRANCH  51  65
ATOM     65  C   UNL A   1      43.115  23.911  27.081  1.00  0.00     0.058 A 
ATOM     66  C   UNL A   1      42.888  23.065  28.178  1.00  0.00     0.135 A 
ATOM     67  C   UNL A   1      42.658  23.487  25.823  1.00  0.00     0.135 A 
ATOM     68  F   UNL A   1      43.326  23.409  29.399  1.00  0.00    -0.206 F 
ATOM     69  C   UNL A   1      42.252  21.836  28.029  1.00  0.00     0.059 A 
ATOM     70  C   UNL A   1      41.998  22.274  25.654  1.00  0.00     0.059 A 
ATOM     71  F   UNL A   1      42.859  24.253  24.738  1.00  0.00    -0.206 F 
ATOM     72  C   UNL A   1      41.811  21.449  26.762  1.00  0.00     0.060 A 
BRANCH  72  73
ATOM     73  S   UNL A   1      40.986  19.852  26.583  1.00  0.00     0.124 S 
ATOM     74  O   UNL A   1      39.724  20.245  25.964  1.00  0.00    -0.237 OA
ATOM     75  O   UNL A   1      41.911  19.118  25.724  1.00  0.00    -0.237 OA
ATOM     76  O   UNL A   1      40.888  19.365  27.955  1.00  0.00    -0.744 OA
ENDBRANCH  72  73
ENDBRANCH  51  65
BRANCH  52  77
ATOM     77  C   UNL A   1      47.347  32.938  28.339  1.00  0.00     0.058 A 
ATOM     78  C   UNL A   1      47.883  33.256  29.594  1.00  0.00     0.135 A 
ATOM     79  C   UNL A   1      47.454  33.900  27.321  1.00  0.00     0.135 A 
ATOM     80  F   UNL A   1      47.795  32.375  30.602  1.00  0.00    -0.206 F 
ATOM     81  C   UNL A   1      48.497  34.481  29.835  1.00  0.00     0.059 A 
ATOM     82  C   UNL A   1      48.085  35.121  27.530  1.00  0.00     0.059 A 
ATOM     83  F   UNL A   1      46.965  33.642  26.097  1.00  0.00    -0.206 F 
ATOM     84  C   UNL A   1      48.597  35.407  28.795  1.00  0.00     0.060 A 
BRANCH  84  85
ATOM     85  S   UNL A   1      49.445  36.971  29.104  1.00  0.00     0.124 S 
ATOM     86  O   UNL A   1      50.404  36.586  30.133  1.00  0.00    -0.237 OA
ATOM     87  O   UNL A   1      50.006  37.280  27.793  1.00  0.00    -0.237 OA
ATOM     88  O   UNL A   1      48.370  37.855  29.541  1.00  0.00    -0.744 OA
ENDBRANCH  84  85
ENDBRANCH  52  77
BRANCH  64  89
ATOM     89  C   UNL A   1      49.724  26.695  26.304  1.00  0.00     0.058 A 
ATOM     90  C   UNL A   1      50.248  26.964  25.031  1.00  0.00     0.135 A 
ATOM     91  C   UNL A   1      50.542  26.025  27.228  1.00  0.00     0.135 A 
ATOM     92  F   UNL A   1      49.501  27.595  24.112  1.00  0.00    -0.206 F 
ATOM     93  C   UNL A   1      51.536  26.573  24.683  1.00  0.00     0.059 A 
ATOM     94  C   UNL A   1      51.842  25.647  26.909  1.00  0.00     0.059 A 
ATOM     95  F   UNL A   1      50.088  25.755  28.462  1.00  0.00    -0.206 F 
ATOM     96  C   UNL A   1      52.328  25.920  25.631  1.00  0.00     0.060 A 
BRANCH  96  97
ATOM     97  S   UNL A   1      54.017  25.469  25.185  1.00  0.00     0.124 S 
ATOM     98  O   UNL A   1      54.021  24.036  25.462  1.00  0.00    -0.237 OA
ATOM     99  O   UNL A   1      54.080  25.842  23.775  1.00  0.00    -0.237 OA
ATOM    100  O   UNL A   1      54.833  26.284  26.080  1.00  0.00    -0.744 OA
ENDBRANCH  96  97
ENDBRANCH  64  89
ENDBRANCH  38  39
ENDBRANCH  31  33
ENDBRANCH  30  31
ENDBRANCH  29  30
ENDBRANCH  28  29
ENDBRANCH  27  28
ENDBRANCH  26  27
ENDBRANCH   1  26
TORSDOF 23
ENDMDL
MODEL 2
REMARK VINA RESULT:      -9.8      1.367      2.337
REMARK SMILES Cc1c(Cl)cccc1S(=O)(=O)N[C@H]1C=C[C@@H](C(=O)OCCOCCOCCOC(=O)c2ccc(-c3c4nc(c(-c5c(F)cc(S(=O)(=O)[O-])cc5F)c5ccc([nH]5)c(-c5c(F)cc(S(=O)(=O)[O-])cc5F)c5nc(c(-c6c(F)cc(S(=O)(=O)[O-])cc6F)c6ccc3[nH]6)C=C5)C=C4)cc2)C1
REMARK SMILES IDX 23 1 22 2 21 3 20 4 19 5 17 6 18 7 16 8 13 9 14 10 97 11
REMARK SMILES IDX 15 12 12 13 9 15 10 16 11 17 8 18 1 19 2 20 3 21 4 22 5 23
REMARK SMILES IDX 7 24 6 25 24 26 25 27 26 28 27 29 28 30 29 31 30 32 31 33
REMARK SMILES IDX 32 34 96 35 33 36 95 37 34 38 35 39 36 40 89 41 37 42 94 43
REMARK SMILES IDX 88 44 90 45 38 46 93 47 87 48 86 49 39 51 73 52 52 53 72 54
REMARK SMILES IDX 53 55 56 56 71 57 91 58 54 59 55 60 70 62 92 63 57 64 40 65
REMARK SMILES IDX 41 66 50 67 42 68 43 69 49 70 51 71 44 72 45 73 46 74 47 75
REMARK SMILES IDX 48 76 74 77 75 78 84 79 76 80 77 81 83 82 85 83 78 84 79 85
REMARK SMILES IDX 80 86 81 87 82 88 58 89 59 90 68 91 60 92 61 93 67 94 69 95
REMARK SMILES IDX 62 96 63 97 64 98 65 99 66 100
REMARK H PARENT 12 14 90 50 56 61
REMARK Flexibility Score: inf
ROOT
ATOM      1  C   UNL A   1      33.353  30.408  27.552  1.00  0.00     0.188 C 
ENDROOT
BRANCH   1   2
ATOM      2  O   UNL A   1      32.586  30.590  26.373  1.00  0.00    -0.376 OA
BRANCH   2   3
ATOM      3  C   UNL A   1      32.331  29.453  25.556  1.00  0.00     0.202 C 
BRANCH   3   4
ATOM      4  C   UNL A   1      31.115  29.528  24.632  1.00  0.00     0.261 C 
BRANCH   4   5
ATOM      5  O   UNL A   1      31.210  28.682  23.461  1.00  0.00    -0.463 OA
BRANCH   5   6
ATOM      6  C   UNL A   1      31.744  27.455  23.699  1.00  0.00     0.312 C 
ATOM      7  O   UNL A   1      32.955  27.243  23.746  1.00  0.00    -0.252 OA
BRANCH   6   8
ATOM      8  C   UNL A   1      30.744  26.306  23.865  1.00  0.00     0.123 C 
ATOM      9  C   UNL A   1      30.747  23.958  24.709  1.00  0.00     0.093 C 
ATOM     10  C   UNL A   1      30.396  24.955  25.768  1.00  0.00    -0.011 C 
ATOM     11  C   UNL A   1      31.096  24.854  23.501  1.00  0.00     0.043 C 
ATOM     12  C   UNL A   1      30.393  26.213  25.320  1.00  0.00    -0.015 C 
BRANCH   9  13
ATOM     13  N   UNL A   1      31.909  23.207  25.197  1.00  0.00    -0.204 NA
ATOM     14  H   UNL A   1      32.700  23.851  25.174  1.00  0.00     0.142 HD
BRANCH  13  15
ATOM     15  S   UNL A   1      32.422  21.794  24.431  1.00  0.00     0.241 S 
ATOM     16  O   UNL A   1      32.277  21.975  22.996  1.00  0.00    -0.207 OA
ATOM     17  O   UNL A   1      31.780  20.713  25.129  1.00  0.00    -0.207 OA
BRANCH  15  18
ATOM     18  C   UNL A   1      34.160  21.631  24.763  1.00  0.00     0.086 A 
ATOM     19  C   UNL A   1      34.681  24.147  24.945  1.00  0.00     0.047 C 
ATOM     20  C   UNL A   1      35.033  22.707  24.721  1.00  0.00    -0.012 A 
ATOM     21  C   UNL A   1      36.351  22.374  24.413  1.00  0.00     0.045 A 
ATOM     22  Cl  UNL A   1      36.837  22.892  22.839  1.00  0.00    -0.084 Cl
ATOM     23  C   UNL A   1      36.908  21.140  24.734  1.00  0.00     0.021 A 
ATOM     24  C   UNL A   1      34.671  20.325  24.927  1.00  0.00     0.022 A 
ATOM     25  C   UNL A   1      36.048  20.098  25.019  1.00  0.00     0.003 A 
ENDBRANCH  15  18
ENDBRANCH  13  15
ENDBRANCH   9  13
ENDBRANCH   6   8
ENDBRANCH   5   6
ENDBRANCH   4   5
ENDBRANCH   3   4
ENDBRANCH   2   3
ENDBRANCH   1   2
BRANCH   1  26
ATOM     26  C   UNL A   1      34.767  30.984  27.586  1.00  0.00     0.188 C 
BRANCH  26  27
ATOM     27  O   UNL A   1      35.426  31.084  28.844  1.00  0.00    -0.376 OA
BRANCH  27  28
ATOM     28  C   UNL A   1      35.042  32.166  29.691  1.00  0.00     0.202 C 
BRANCH  28  29
ATOM     29  C   UNL A   1      35.531  32.060  31.140  1.00  0.00     0.261 C 
BRANCH  29  30
ATOM     30  O   UNL A   1      36.929  31.738  31.151  1.00  0.00    -0.460 OA
BRANCH  30  31
ATOM     31  C   UNL A   1      37.244  30.503  31.607  1.00  0.00     0.338 C 
ATOM     32  O   UNL A   1      36.636  29.823  32.413  1.00  0.00    -0.246 OA
BRANCH  31  33
ATOM     33  C   UNL A   1      38.447  30.062  30.882  1.00  0.00     0.060 A 
ATOM     34  C   UNL A   1      39.542  29.538  31.585  1.00  0.00     0.016 A 
ATOM     35  C   UNL A   1      38.485  30.196  29.497  1.00  0.00     0.016 A 
ATOM     36  C   UNL A   1      40.690  29.148  30.901  1.00  0.00     0.010 A 
ATOM     37  C   UNL A   1      39.640  29.818  28.814  1.00  0.00     0.010 A 
ATOM     38  C   UNL A   1      40.750  29.311  29.515  1.00  0.00    -0.014 A 
BRANCH  38  39
ATOM     39  C   UNL A   1      42.015  29.099  28.784  1.00  0.00     0.031 A 
ATOM     40  C   UNL A   1      42.311  27.720  28.275  1.00  0.00     0.074 A 
ATOM     41  C   UNL A   1      42.893  30.104  28.633  1.00  0.00     0.049 A 
ATOM     42  N   UNL A   1      43.437  27.220  27.847  1.00  0.00    -0.248 NA
ATOM     43  C   UNL A   1      41.182  26.775  28.260  1.00  0.00     0.031 C 
ATOM     44  C   UNL A   1      42.662  31.496  29.019  1.00  0.00     0.029 A 
ATOM     45  N   UNL A   1      44.174  30.097  28.143  1.00  0.00    -0.354 N 
ATOM     46  C   UNL A   1      43.164  25.893  27.544  1.00  0.00     0.074 A 
ATOM     47  C   UNL A   1      41.766  25.664  27.835  1.00  0.00     0.031 C 
ATOM     48  C   UNL A   1      43.780  32.203  28.787  1.00  0.00     0.029 A 
ATOM     49  C   UNL A   1      44.820  31.301  28.297  1.00  0.00     0.049 A 
ATOM     50  H   UNL A   1      44.589  29.309  27.724  1.00  0.00     0.167 HD
ATOM     51  C   UNL A   1      44.017  24.951  27.077  1.00  0.00     0.037 A 
ATOM     52  C   UNL A   1      46.118  31.614  28.119  1.00  0.00     0.037 A 
ATOM     53  C   UNL A   1      45.404  25.210  26.798  1.00  0.00     0.049 A 
ATOM     54  C   UNL A   1      47.069  30.533  27.682  1.00  0.00     0.074 A 
ATOM     55  C   UNL A   1      46.366  24.336  26.323  1.00  0.00     0.029 A 
ATOM     56  N   UNL A   1      46.026  26.438  26.974  1.00  0.00    -0.354 N 
ATOM     57  N   UNL A   1      46.818  29.269  27.425  1.00  0.00    -0.248 NA
ATOM     58  C   UNL A   1      48.480  30.908  27.527  1.00  0.00     0.031 C 
ATOM     59  C   UNL A   1      47.580  25.029  26.252  1.00  0.00     0.029 A 
ATOM     60  C   UNL A   1      47.364  26.344  26.638  1.00  0.00     0.049 A 
ATOM     61  H   UNL A   1      45.580  27.256  27.292  1.00  0.00     0.167 HD
ATOM     62  C   UNL A   1      48.034  28.705  27.059  1.00  0.00     0.074 A 
ATOM     63  C   UNL A   1      49.019  29.766  27.118  1.00  0.00     0.031 C 
ATOM     64  C   UNL A   1      48.316  27.426  26.703  1.00  0.00     0.037 A 
BRANCH  51  65
ATOM     65  C   UNL A   1      43.482  23.560  26.890  1.00  0.00     0.058 A 
ATOM     66  C   UNL A   1      43.158  23.053  25.621  1.00  0.00     0.135 A 
ATOM     67  C   UNL A   1      43.299  22.717  27.997  1.00  0.00     0.135 A 
ATOM     68  F   UNL A   1      43.290  23.824  24.531  1.00  0.00    -0.206 F 
ATOM     69  C   UNL A   1      42.651  21.767  25.461  1.00  0.00     0.059 A 
ATOM     70  C   UNL A   1      42.816  21.419  27.858  1.00  0.00     0.059 A 
ATOM     71  F   UNL A   1      43.582  23.155  29.235  1.00  0.00    -0.206 F 
ATOM     72  C   UNL A   1      42.482  20.958  26.586  1.00  0.00     0.060 A 
BRANCH  72  73
ATOM     73  S   UNL A   1      41.824  19.291  26.362  1.00  0.00     0.124 S 
ATOM     74  O   UNL A   1      40.478  19.572  25.874  1.00  0.00    -0.237 OA
ATOM     75  O   UNL A   1      42.747  18.720  25.385  1.00  0.00    -0.237 OA
ATOM     76  O   UNL A   1      41.898  18.714  27.701  1.00  0.00    -0.744 OA
ENDBRANCH  72  73
ENDBRANCH  51  65
BRANCH  52  77
ATOM     77  C   UNL A   1      46.596  32.993  28.405  1.00  0.00     0.058 A 
ATOM     78  C   UNL A   1      46.608  33.975  27.405  1.00  0.00     0.135 A 
ATOM     79  C   UNL A   1      47.035  33.362  29.688  1.00  0.00     0.135 A 
ATOM     80  F   UNL A   1      46.210  33.669  26.161  1.00  0.00    -0.206 F 
ATOM     81  C   UNL A   1      47.043  35.273  27.662  1.00  0.00     0.059 A 
ATOM     82  C   UNL A   1      47.450  34.658  29.975  1.00  0.00     0.059 A 
ATOM     83  F   UNL A   1      47.035  32.462  30.683  1.00  0.00    -0.206 F 
ATOM     84  C   UNL A   1      47.459  35.605  28.952  1.00  0.00     0.060 A 
BRANCH  84  85
ATOM     85  S   UNL A   1      47.967  37.305  29.288  1.00  0.00     0.124 S 
ATOM     86  O   UNL A   1      46.707  37.913  29.699  1.00  0.00    -0.237 OA
ATOM     87  O   UNL A   1      48.962  37.126  30.340  1.00  0.00    -0.237 OA
ATOM     88  O   UNL A   1      48.498  37.756  28.005  1.00  0.00    -0.744 OA
ENDBRANCH  84  85
ENDBRANCH  52  77
BRANCH  64  89
ATOM     89  C   UNL A   1      49.734  27.114  26.320  1.00  0.00     0.058 A 
ATOM     90  C   UNL A   1      50.177  27.224  24.993  1.00  0.00     0.135 A 
ATOM     91  C   UNL A   1      50.675  26.776  27.306  1.00  0.00     0.135 A 
ATOM     92  F   UNL A   1      49.313  27.536  24.016  1.00  0.00    -0.206 F 
ATOM     93  C   UNL A   1      51.507  27.000  24.656  1.00  0.00     0.059 A 
ATOM     94  C   UNL A   1      52.014  26.572  26.994  1.00  0.00     0.059 A 
ATOM     95  F   UNL A   1      50.299  26.669  28.591  1.00  0.00    -0.206 F 
ATOM     96  C   UNL A   1      52.420  26.680  25.665  1.00  0.00     0.060 A 
BRANCH  96  97
ATOM     97  S   UNL A   1      54.153  26.447  25.221  1.00  0.00     0.124 S 
ATOM     98  O   UNL A   1      54.533  25.340  26.092  1.00  0.00    -0.237 OA
ATOM     99  O   UNL A   1      54.074  26.135  23.797  1.00  0.00    -0.237 OA
ATOM    100  O   UNL A   1      54.761  27.735  25.541  1.00  0.00    -0.744 OA
ENDBRANCH  96  97
ENDBRANCH  64  89
ENDBRANCH  38  39
ENDBRANCH  31  33
ENDBRANCH  30  31
ENDBRANCH  29  30
ENDBRANCH  28  29
ENDBRANCH  27  28
ENDBRANCH  26  27
ENDBRANCH   1  26
TORSDOF 23
ENDMDL
MODEL 3
REMARK VINA RESULT:      -9.8      2.763      9.186
REMARK SMILES Cc1c(Cl)cccc1S(=O)(=O)N[C@H]1C=C[C@@H](C(=O)OCCOCCOCCOC(=O)c2ccc(-c3c4nc(c(-c5c(F)cc(S(=O)(=O)[O-])cc5F)c5ccc([nH]5)c(-c5c(F)cc(S(=O)(=O)[O-])cc5F)c5nc(c(-c6c(F)cc(S(=O)(=O)[O-])cc6F)c6ccc3[nH]6)C=C5)C=C4)cc2)C1
REMARK SMILES IDX 23 1 22 2 21 3 20 4 19 5 17 6 18 7 16 8 13 9 14 10 97 11
REMARK SMILES IDX 15 12 12 13 9 15 10 16 11 17 8 18 1 19 2 20 3 21 4 22 5 23
REMARK SMILES IDX 7 24 6 25 24 26 25 27 26 28 27 29 28 30 29 31 30 32 31 33
REMARK SMILES IDX 32 34 96 35 33 36 95 37 34 38 35 39 36 40 89 41 37 42 94 43
REMARK SMILES IDX 88 44 90 45 38 46 93 47 87 48 86 49 39 51 73 52 52 53 72 54
REMARK SMILES IDX 53 55 56 56 71 57 91 58 54 59 55 60 70 62 92 63 57 64 40 65
REMARK SMILES IDX 41 66 50 67 42 68 43 69 49 70 51 71 44 72 45 73 46 74 47 75
REMARK SMILES IDX 48 76 74 77 75 78 84 79 76 80 77 81 83 82 85 83 78 84 79 85
REMARK SMILES IDX 80 86 81 87 82 88 58 89 59 90 68 91 60 92 61 93 67 94 69 95
REMARK SMILES IDX 62 96 63 97 64 98 65 99 66 100
REMARK H PARENT 12 14 90 50 56 61
REMARK Flexibility Score: inf
ROOT
ATOM      1  C   UNL A   1      40.137  21.653  26.341  1.00  0.00     0.188 C 
ENDROOT
BRANCH   1   2
ATOM      2  O   UNL A   1      38.870  22.009  25.813  1.00  0.00    -0.376 OA
BRANCH   2   3
ATOM      3  C   UNL A   1      37.981  20.964  25.435  1.00  0.00     0.202 C 
BRANCH   3   4
ATOM      4  C   UNL A   1      36.756  21.364  24.612  1.00  0.00     0.261 C 
BRANCH   4   5
ATOM      5  O   UNL A   1      35.506  21.287  25.338  1.00  0.00    -0.463 OA
BRANCH   5   6
ATOM      6  C   UNL A   1      34.634  20.364  24.851  1.00  0.00     0.312 C 
ATOM      7  O   UNL A   1      34.943  19.195  24.628  1.00  0.00    -0.252 OA
BRANCH   6   8
ATOM      8  C   UNL A   1      33.222  20.872  24.540  1.00  0.00     0.123 C 
ATOM      9  C   UNL A   1      31.865  22.927  24.942  1.00  0.00     0.093 C 
ATOM     10  C   UNL A   1      32.603  22.964  23.641  1.00  0.00    -0.011 C 
ATOM     11  C   UNL A   1      32.370  21.616  25.582  1.00  0.00     0.043 C 
ATOM     12  C   UNL A   1      33.331  21.866  23.423  1.00  0.00    -0.015 C 
BRANCH   9  13
ATOM     13  N   UNL A   1      32.278  24.111  25.703  1.00  0.00    -0.204 NA
ATOM     14  H   UNL A   1      32.783  23.768  26.520  1.00  0.00     0.142 HD
BRANCH  13  15
ATOM     15  S   UNL A   1      31.144  25.222  26.275  1.00  0.00     0.241 S 
ATOM     16  O   UNL A   1      31.804  26.096  27.230  1.00  0.00    -0.207 OA
ATOM     17  O   UNL A   1      29.981  24.452  26.626  1.00  0.00    -0.207 OA
BRANCH  15  18
ATOM     18  C   UNL A   1      30.667  26.228  24.890  1.00  0.00     0.086 A 
ATOM     19  C   UNL A   1      33.015  27.128  24.333  1.00  0.00     0.047 C 
ATOM     20  C   UNL A   1      31.517  27.162  24.316  1.00  0.00    -0.012 A 
ATOM     21  C   UNL A   1      30.871  28.230  23.695  1.00  0.00     0.045 A 
ATOM     22  Cl  UNL A   1      31.043  29.721  24.549  1.00  0.00    -0.084 Cl
ATOM     23  C   UNL A   1      29.607  28.115  23.126  1.00  0.00     0.021 A 
ATOM     24  C   UNL A   1      29.320  26.162  24.472  1.00  0.00     0.022 A 
ATOM     25  C   UNL A   1      28.823  27.044  23.507  1.00  0.00     0.003 A 
ENDBRANCH  15  18
ENDBRANCH  13  15
ENDBRANCH   9  13
ENDBRANCH   6   8
ENDBRANCH   5   6
ENDBRANCH   4   5
ENDBRANCH   3   4
ENDBRANCH   2   3
ENDBRANCH   1   2
BRANCH   1  26
ATOM     26  C   UNL A   1      40.634  20.226  26.115  1.00  0.00     0.188 C 
BRANCH  26  27
ATOM     27  O   UNL A   1      41.773  19.784  26.846  1.00  0.00    -0.376 OA
BRANCH  27  28
ATOM     28  C   UNL A   1      42.289  18.495  26.521  1.00  0.00     0.202 C 
BRANCH  28  29
ATOM     29  C   UNL A   1      43.315  18.476  25.382  1.00  0.00     0.261 C 
BRANCH  29  30
ATOM     30  O   UNL A   1      44.305  19.489  25.613  1.00  0.00    -0.460 OA
BRANCH  30  31
ATOM     31  C   UNL A   1      44.540  20.327  24.576  1.00  0.00     0.338 C 
ATOM     32  O   UNL A   1      44.549  20.065  23.386  1.00  0.00    -0.246 OA
BRANCH  31  33
ATOM     33  C   UNL A   1      44.709  21.678  25.134  1.00  0.00     0.060 A 
ATOM     34  C   UNL A   1      44.565  22.805  24.312  1.00  0.00     0.016 A 
ATOM     35  C   UNL A   1      45.038  21.814  26.480  1.00  0.00     0.016 A 
ATOM     36  C   UNL A   1      44.754  24.081  24.834  1.00  0.00     0.010 A 
ATOM     37  C   UNL A   1      45.240  23.091  26.999  1.00  0.00     0.010 A 
ATOM     38  C   UNL A   1      45.118  24.225  26.175  1.00  0.00    -0.014 A 
BRANCH  38  39
ATOM     39  C   UNL A   1      45.522  25.540  26.710  1.00  0.00     0.031 A 
ATOM     40  C   UNL A   1      44.447  26.453  27.219  1.00  0.00     0.074 A 
ATOM     41  C   UNL A   1      46.810  25.921  26.688  1.00  0.00     0.049 A 
ATOM     42  N   UNL A   1      44.503  27.728  27.488  1.00  0.00    -0.248 NA
ATOM     43  C   UNL A   1      43.125  25.843  27.442  1.00  0.00     0.031 C 
ATOM     44  C   UNL A   1      47.935  25.075  26.291  1.00  0.00     0.029 A 
ATOM     45  N   UNL A   1      47.381  27.133  26.976  1.00  0.00    -0.354 N 
ATOM     46  C   UNL A   1      43.218  28.083  27.878  1.00  0.00     0.074 A 
ATOM     47  C   UNL A   1      42.404  26.890  27.813  1.00  0.00     0.031 C 
ATOM     48  C   UNL A   1      49.062  25.808  26.322  1.00  0.00     0.029 A 
ATOM     49  C   UNL A   1      48.724  27.184  26.680  1.00  0.00     0.049 A 
ATOM     50  H   UNL A   1      46.881  27.891  27.355  1.00  0.00     0.167 HD
ATOM     51  C   UNL A   1      42.765  29.305  28.244  1.00  0.00     0.037 A 
ATOM     52  C   UNL A   1      49.562  28.237  26.645  1.00  0.00     0.037 A 
ATOM     53  C   UNL A   1      43.600  30.474  28.298  1.00  0.00     0.049 A 
ATOM     54  C   UNL A   1      49.020  29.603  26.971  1.00  0.00     0.074 A 
ATOM     55  C   UNL A   1      43.255  31.766  28.652  1.00  0.00     0.029 A 
ATOM     56  N   UNL A   1      44.952  30.490  27.983  1.00  0.00    -0.354 N 
ATOM     57  N   UNL A   1      47.798  29.945  27.311  1.00  0.00    -0.248 NA
ATOM     58  C   UNL A   1      49.959  30.729  26.895  1.00  0.00     0.031 C 
ATOM     59  C   UNL A   1      44.391  32.571  28.509  1.00  0.00     0.029 A 
ATOM     60  C   UNL A   1      45.454  31.772  28.112  1.00  0.00     0.049 A 
ATOM     61  H   UNL A   1      45.477  29.704  27.707  1.00  0.00     0.167 HD
ATOM     62  C   UNL A   1      47.826  31.321  27.507  1.00  0.00     0.074 A 
ATOM     63  C   UNL A   1      49.189  31.748  27.258  1.00  0.00     0.031 C 
ATOM     64  C   UNL A   1      46.821  32.160  27.863  1.00  0.00     0.037 A 
BRANCH  51  65
ATOM     65  C   UNL A   1      41.303  29.438  28.562  1.00  0.00     0.058 A 
ATOM     66  C   UNL A   1      40.839  29.583  29.880  1.00  0.00     0.135 A 
ATOM     67  C   UNL A   1      40.350  29.429  27.531  1.00  0.00     0.135 A 
ATOM     68  F   UNL A   1      41.705  29.572  30.906  1.00  0.00    -0.206 F 
ATOM     69  C   UNL A   1      39.482  29.692  30.165  1.00  0.00     0.059 A 
ATOM     70  C   UNL A   1      38.989  29.561  27.791  1.00  0.00     0.059 A 
ATOM     71  F   UNL A   1      40.737  29.283  26.254  1.00  0.00    -0.206 F 
ATOM     72  C   UNL A   1      38.564  29.679  29.113  1.00  0.00     0.060 A 
BRANCH  72  73
ATOM     73  S   UNL A   1      36.805  29.823  29.497  1.00  0.00     0.124 S 
ATOM     74  O   UNL A   1      36.196  29.330  28.265  1.00  0.00    -0.237 OA
ATOM     75  O   UNL A   1      36.668  28.954  30.662  1.00  0.00    -0.237 OA
ATOM     76  O   UNL A   1      36.629  31.248  29.758  1.00  0.00    -0.744 OA
ENDBRANCH  72  73
ENDBRANCH  51  65
BRANCH  52  77
ATOM     77  C   UNL A   1      50.980  28.047  26.238  1.00  0.00     0.058 A 
ATOM     78  C   UNL A   1      51.350  28.053  24.887  1.00  0.00     0.135 A 
ATOM     79  C   UNL A   1      51.995  27.872  27.193  1.00  0.00     0.135 A 
ATOM     80  F   UNL A   1      50.416  28.204  23.936  1.00  0.00    -0.206 F 
ATOM     81  C   UNL A   1      52.676  27.887  24.494  1.00  0.00     0.059 A 
ATOM     82  C   UNL A   1      53.329  27.729  26.826  1.00  0.00     0.059 A 
ATOM     83  F   UNL A   1      51.695  27.868  28.502  1.00  0.00    -0.206 F 
ATOM     84  C   UNL A   1      53.659  27.729  25.472  1.00  0.00     0.060 A 
BRANCH  84  85
ATOM     85  S   UNL A   1      55.381  27.571  24.952  1.00  0.00     0.124 S 
ATOM     86  O   UNL A   1      55.355  26.305  24.229  1.00  0.00    -0.237 OA
ATOM     87  O   UNL A   1      55.568  28.767  24.138  1.00  0.00    -0.237 OA
ATOM     88  O   UNL A   1      56.113  27.562  26.216  1.00  0.00    -0.744 OA
ENDBRANCH  84  85
ENDBRANCH  52  77
BRANCH  64  89
ATOM     89  C   UNL A   1      47.163  33.611  28.036  1.00  0.00     0.058 A 
ATOM     90  C   UNL A   1      47.033  34.527  26.981  1.00  0.00     0.135 A 
ATOM     91  C   UNL A   1      47.549  34.102  29.293  1.00  0.00     0.135 A 
ATOM     92  F   UNL A   1      46.675  34.103  25.759  1.00  0.00    -0.206 F 
ATOM     93  C   UNL A   1      47.286  35.881  27.165  1.00  0.00     0.059 A 
ATOM     94  C   UNL A   1      47.783  35.456  29.505  1.00  0.00     0.059 A 
ATOM     95  F   UNL A   1      47.677  33.265  30.336  1.00  0.00    -0.206 F 
ATOM     96  C   UNL A   1      47.655  36.338  28.433  1.00  0.00     0.060 A 
BRANCH  96  97
ATOM     97  S   UNL A   1      47.925  38.106  28.672  1.00  0.00     0.124 S 
ATOM     98  O   UNL A   1      49.305  38.131  29.144  1.00  0.00    -0.237 OA
ATOM     99  O   UNL A   1      47.703  38.641  27.332  1.00  0.00    -0.237 OA
ATOM    100  O   UNL A   1      46.915  38.472  29.661  1.00  0.00    -0.744 OA
ENDBRANCH  96  97
ENDBRANCH  64  89
ENDBRANCH  38  39
ENDBRANCH  31  33
ENDBRANCH  30  31
ENDBRANCH  29  30
ENDBRANCH  28  29
ENDBRANCH  27  28
ENDBRANCH  26  27
ENDBRANCH   1  26
TORSDOF 23
ENDMDL
