MODEL 1
REMARK VINA RESULT:     -10.5      0.000      0.000
REMARK SMILES CC(C)N1C[C@@H](C(=O)N2CCC(C(=O)OCCOCCOCCOC(=O)c3ccc(-c4c5nc(c(-c6c(F)cc(S(=O)(=O)[O-])cc6F)c6ccc([nH]6)c(-c6c(F)cc(S(=O)(=O)[O-])cc6F)c6nc(c(-c7c(F)cc(S(=O)(=O)[O-])cc7F)c7ccc4[nH]7)C=C6)C=C5)cc3)CC2)CC1=O
REMARK SMILES IDX 20 1 19 2 18 3 17 4 16 5 15 6 13 7 14 8 12 9 7 10 8 11 9 12
REMARK SMILES IDX 10 13 94 14 11 15 93 16 6 17 4 18 5 19 96 20 95 21 97 22
REMARK SMILES IDX 2 23 1 24 3 25 21 26 22 27 23 28 24 29 25 30 26 31 27 32
REMARK SMILES IDX 28 33 92 34 29 35 91 36 30 37 31 38 32 39 85 40 33 41 90 42
REMARK SMILES IDX 84 43 86 44 34 45 89 46 83 47 82 48 35 50 69 51 48 52 68 53
REMARK SMILES IDX 49 54 52 55 67 56 87 57 50 58 51 59 66 61 88 62 53 63 36 64
REMARK SMILES IDX 37 65 46 66 38 67 39 68 45 69 47 70 40 71 41 72 42 73 43 74
REMARK SMILES IDX 44 75 70 76 71 77 80 78 72 79 73 80 79 81 81 82 74 83 75 84
REMARK SMILES IDX 76 85 77 86 78 87 54 88 55 89 64 90 56 91 57 92 63 93 65 94
REMARK SMILES IDX 58 95 59 96 60 97 61 98 62 99
REMARK H PARENT 86 49 52 60
REMARK Flexibility Score: inf
ROOT
ATOM      1  C   UNL A   1      33.681  34.807  29.259  1.00  0.00     0.188 C 
ENDROOT
BRANCH   1   2
ATOM      2  C   UNL A   1      33.739  33.877  28.048  1.00  0.00     0.188 C 
BRANCH   2   3
ATOM      3  O   UNL A   1      35.036  33.454  27.646  1.00  0.00    -0.376 OA
BRANCH   3   4
ATOM      4  C   UNL A   1      35.327  32.062  27.743  1.00  0.00     0.202 C 
BRANCH   4   5
ATOM      5  C   UNL A   1      34.137  31.106  27.917  1.00  0.00     0.261 C 
BRANCH   5   6
ATOM      6  O   UNL A   1      33.934  30.176  26.830  1.00  0.00    -0.463 OA
BRANCH   6   7
ATOM      7  C   UNL A   1      32.644  30.012  26.441  1.00  0.00     0.309 C 
ATOM      8  O   UNL A   1      31.857  30.933  26.245  1.00  0.00    -0.252 OA
BRANCH   7   9
ATOM      9  C   UNL A   1      32.240  28.567  26.192  1.00  0.00     0.103 C 
ATOM     10  C   UNL A   1      33.222  25.546  23.721  1.00  0.00     0.227 C 
ATOM     11  O   UNL A   1      33.029  26.075  22.621  1.00  0.00    -0.274 OA
ATOM     12  N   UNL A   1      32.589  26.026  24.854  1.00  0.00    -0.342 N 
ATOM     13  C   UNL A   1      31.325  26.741  24.700  1.00  0.00     0.120 C 
ATOM     14  C   UNL A   1      33.233  26.249  26.138  1.00  0.00     0.120 C 
ATOM     15  C   UNL A   1      31.494  28.251  24.888  1.00  0.00     0.037 C 
ATOM     16  C   UNL A   1      33.522  27.733  26.304  1.00  0.00     0.037 C 
BRANCH  10  17
ATOM     17  C   UNL A   1      33.957  24.209  23.756  1.00  0.00     0.107 C 
ATOM     18  N   UNL A   1      34.226  22.312  25.106  1.00  0.00    -0.339 N 
ATOM     19  C   UNL A   1      33.226  23.266  24.699  1.00  0.00     0.133 C 
ATOM     20  C   UNL A   1      35.510  22.746  24.829  1.00  0.00     0.223 C 
ATOM     21  C   UNL A   1      35.430  24.074  24.115  1.00  0.00     0.115 C 
ATOM     22  O   UNL A   1      36.552  22.182  25.127  1.00  0.00    -0.275 OA
BRANCH  18  23
ATOM     23  C   UNL A   1      33.917  21.119  25.897  1.00  0.00     0.078 C 
ATOM     24  C   UNL A   1      33.711  21.471  27.370  1.00  0.00     0.031 C 
ATOM     25  C   UNL A   1      32.710  20.369  25.338  1.00  0.00     0.031 C 
ENDBRANCH  18  23
ENDBRANCH  10  17
ENDBRANCH   7   9
ENDBRANCH   6   7
ENDBRANCH   5   6
ENDBRANCH   4   5
ENDBRANCH   3   4
ENDBRANCH   2   3
ENDBRANCH   1   2
BRANCH   1  26
ATOM     26  O   UNL A   1      33.553  34.176  30.520  1.00  0.00    -0.376 OA
BRANCH  26  27
ATOM     27  C   UNL A   1      34.754  33.852  31.222  1.00  0.00     0.202 C 
BRANCH  27  28
ATOM     28  C   UNL A   1      35.104  32.364  31.474  1.00  0.00     0.261 C 
BRANCH  28  29
ATOM     29  O   UNL A   1      36.434  31.914  31.131  1.00  0.00    -0.460 OA
BRANCH  29  30
ATOM     30  C   UNL A   1      36.649  30.578  31.020  1.00  0.00     0.338 C 
ATOM     31  O   UNL A   1      35.793  29.718  31.046  1.00  0.00    -0.246 OA
BRANCH  30  32
ATOM     32  C   UNL A   1      38.060  30.349  30.567  1.00  0.00     0.060 A 
ATOM     33  C   UNL A   1      38.279  30.135  29.197  1.00  0.00     0.016 A 
ATOM     34  C   UNL A   1      39.158  30.413  31.430  1.00  0.00     0.016 A 
ATOM     35  C   UNL A   1      39.573  29.941  28.696  1.00  0.00     0.010 A 
ATOM     36  C   UNL A   1      40.455  30.197  30.930  1.00  0.00     0.010 A 
ATOM     37  C   UNL A   1      40.670  29.923  29.567  1.00  0.00    -0.014 A 
BRANCH  37  38
ATOM     38  C   UNL A   1      41.989  29.404  29.098  1.00  0.00     0.031 A 
ATOM     39  C   UNL A   1      43.145  30.373  29.023  1.00  0.00     0.074 A 
ATOM     40  C   UNL A   1      42.192  28.112  28.773  1.00  0.00     0.049 A 
ATOM     41  N   UNL A   1      44.363  30.190  28.582  1.00  0.00    -0.248 NA
ATOM     42  C   UNL A   1      42.883  31.736  29.514  1.00  0.00     0.031 C 
ATOM     43  C   UNL A   1      41.192  27.048  28.851  1.00  0.00     0.029 A 
ATOM     44  N   UNL A   1      43.318  27.477  28.299  1.00  0.00    -0.354 N 
ATOM     45  C   UNL A   1      45.010  31.412  28.738  1.00  0.00     0.074 A 
ATOM     46  C   UNL A   1      44.039  32.337  29.280  1.00  0.00     0.031 C 
ATOM     47  C   UNL A   1      41.745  25.898  28.421  1.00  0.00     0.029 A 
ATOM     48  C   UNL A   1      43.126  26.146  28.003  1.00  0.00     0.049 A 
ATOM     49  H   UNL A   1      44.182  27.933  28.181  1.00  0.00     0.167 HD
ATOM     50  C   UNL A   1      46.298  31.735  28.469  1.00  0.00     0.037 A 
ATOM     51  C   UNL A   1      43.954  25.241  27.436  1.00  0.00     0.037 A 
ATOM     52  C   UNL A   1      47.268  30.823  27.922  1.00  0.00     0.049 A 
ATOM     53  C   UNL A   1      45.356  25.652  27.047  1.00  0.00     0.074 A 
ATOM     54  C   UNL A   1      48.594  31.064  27.608  1.00  0.00     0.029 A 
ATOM     55  N   UNL A   1      47.019  29.496  27.604  1.00  0.00    -0.354 N 
ATOM     56  N   UNL A   1      45.956  26.809  27.206  1.00  0.00    -0.248 NA
ATOM     57  C   UNL A   1      46.198  24.631  26.401  1.00  0.00     0.031 C 
ATOM     58  C   UNL A   1      49.133  29.901  27.050  1.00  0.00     0.029 A 
ATOM     59  C   UNL A   1      48.161  28.914  27.078  1.00  0.00     0.049 A 
ATOM     60  H   UNL A   1      46.158  29.036  27.733  1.00  0.00     0.167 HD
ATOM     61  C   UNL A   1      47.250  26.641  26.716  1.00  0.00     0.074 A 
ATOM     62  C   UNL A   1      47.351  25.270  26.265  1.00  0.00     0.031 C 
ATOM     63  C   UNL A   1      48.263  27.541  26.649  1.00  0.00     0.037 A 
BRANCH  50  64
ATOM     64  C   UNL A   1      46.731  33.151  28.744  1.00  0.00     0.058 A 
ATOM     65  C   UNL A   1      46.625  34.157  27.771  1.00  0.00     0.135 A 
ATOM     66  C   UNL A   1      47.223  33.515  30.008  1.00  0.00     0.135 A 
ATOM     67  F   UNL A   1      46.180  33.863  26.538  1.00  0.00    -0.206 F 
ATOM     68  C   UNL A   1      47.016  35.466  28.031  1.00  0.00     0.059 A 
ATOM     69  C   UNL A   1      47.590  34.824  30.302  1.00  0.00     0.059 A 
ATOM     70  F   UNL A   1      47.347  32.592  30.976  1.00  0.00    -0.206 F 
ATOM     71  C   UNL A   1      47.496  35.790  29.301  1.00  0.00     0.060 A 
BRANCH  71  72
ATOM     72  S   UNL A   1      47.992  37.496  29.624  1.00  0.00     0.124 S 
ATOM     73  O   UNL A   1      46.702  38.128  29.885  1.00  0.00    -0.237 OA
ATOM     74  O   UNL A   1      48.871  37.350  30.778  1.00  0.00    -0.237 OA
ATOM     75  O   UNL A   1      48.648  37.901  28.384  1.00  0.00    -0.744 OA
ENDBRANCH  71  72
ENDBRANCH  50  64
BRANCH  51  76
ATOM     76  C   UNL A   1      43.486  23.849  27.168  1.00  0.00     0.058 A 
ATOM     77  C   UNL A   1      43.115  23.441  25.876  1.00  0.00     0.135 A 
ATOM     78  C   UNL A   1      43.351  22.914  28.207  1.00  0.00     0.135 A 
ATOM     79  F   UNL A   1      43.204  24.302  24.851  1.00  0.00    -0.206 F 
ATOM     80  C   UNL A   1      42.607  22.170  25.629  1.00  0.00     0.059 A 
ATOM     81  C   UNL A   1      42.876  21.626  27.977  1.00  0.00     0.059 A 
ATOM     82  F   UNL A   1      43.691  23.249  29.461  1.00  0.00    -0.206 F 
ATOM     83  C   UNL A   1      42.493  21.267  26.687  1.00  0.00     0.060 A 
BRANCH  83  84
ATOM     84  S   UNL A   1      41.860  19.609  26.349  1.00  0.00     0.124 S 
ATOM     85  O   UNL A   1      42.523  19.293  25.089  1.00  0.00    -0.237 OA
ATOM     86  O   UNL A   1      42.319  18.864  27.517  1.00  0.00    -0.237 OA
ATOM     87  O   UNL A   1      40.416  19.810  26.269  1.00  0.00    -0.744 OA
ENDBRANCH  83  84
ENDBRANCH  51  76
BRANCH  63  88
ATOM     88  C   UNL A   1      49.595  27.068  26.122  1.00  0.00     0.058 A 
ATOM     89  C   UNL A   1      50.571  26.505  26.958  1.00  0.00     0.135 A 
ATOM     90  C   UNL A   1      49.872  27.127  24.745  1.00  0.00     0.135 A 
ATOM     91  F   UNL A   1      50.363  26.425  28.282  1.00  0.00    -0.206 F 
ATOM     92  C   UNL A   1      51.785  26.042  26.454  1.00  0.00     0.059 A 
ATOM     93  C   UNL A   1      51.064  26.641  24.215  1.00  0.00     0.059 A 
ATOM     94  F   UNL A   1      48.971  27.643  23.895  1.00  0.00    -0.206 F 
ATOM     95  C   UNL A   1      52.020  26.110  25.079  1.00  0.00     0.060 A 
BRANCH  95  96
ATOM     96  S   UNL A   1      53.583  25.474  24.435  1.00  0.00     0.124 S 
ATOM     97  O   UNL A   1      54.553  26.186  25.259  1.00  0.00    -0.237 OA
ATOM     98  O   UNL A   1      53.463  24.041  24.688  1.00  0.00    -0.237 OA
ATOM     99  O   UNL A   1      53.553  25.859  23.027  1.00  0.00    -0.744 OA
ENDBRANCH  95  96
ENDBRANCH  63  88
ENDBRANCH  37  38
ENDBRANCH  30  32
ENDBRANCH  29  30
ENDBRANCH  28  29
ENDBRANCH  27  28
ENDBRANCH  26  27
ENDBRANCH   1  26
TORSDOF 22
ENDMDL
MODEL 2
REMARK VINA RESULT:     -10.3      0.788      8.066
REMARK SMILES CC(C)N1C[C@@H](C(=O)N2CCC(C(=O)OCCOCCOCCOC(=O)c3ccc(-c4c5nc(c(-c6c(F)cc(S(=O)(=O)[O-])cc6F)c6ccc([nH]6)c(-c6c(F)cc(S(=O)(=O)[O-])cc6F)c6nc(c(-c7c(F)cc(S(=O)(=O)[O-])cc7F)c7ccc4[nH]7)C=C6)C=C5)cc3)CC2)CC1=O
REMARK SMILES IDX 20 1 19 2 18 3 17 4 16 5 15 6 13 7 14 8 12 9 7 10 8 11 9 12
REMARK SMILES IDX 10 13 94 14 11 15 93 16 6 17 4 18 5 19 96 20 95 21 97 22
REMARK SMILES IDX 2 23 1 24 3 25 21 26 22 27 23 28 24 29 25 30 26 31 27 32
REMARK SMILES IDX 28 33 92 34 29 35 91 36 30 37 31 38 32 39 85 40 33 41 90 42
REMARK SMILES IDX 84 43 86 44 34 45 89 46 83 47 82 48 35 50 69 51 48 52 68 53
REMARK SMILES IDX 49 54 52 55 67 56 87 57 50 58 51 59 66 61 88 62 53 63 36 64
REMARK SMILES IDX 37 65 46 66 38 67 39 68 45 69 47 70 40 71 41 72 42 73 43 74
REMARK SMILES IDX 44 75 70 76 71 77 80 78 72 79 73 80 79 81 81 82 74 83 75 84
REMARK SMILES IDX 76 85 77 86 78 87 54 88 55 89 64 90 56 91 57 92 63 93 65 94
REMARK SMILES IDX 58 95 59 96 60 97 61 98 62 99
REMARK H PARENT 86 49 52 60
REMARK Flexibility Score: inf
ROOT
ATOM      1  C   UNL A   1      33.960  35.022  30.502  1.00  0.00     0.188 C 
ENDROOT
BRANCH   1   2
ATOM      2  C   UNL A   1      33.949  34.465  29.079  1.00  0.00     0.188 C 
BRANCH   2   3
ATOM      3  O   UNL A   1      35.184  33.949  28.600  1.00  0.00    -0.376 OA
BRANCH   3   4
ATOM      4  C   UNL A   1      35.166  32.648  28.017  1.00  0.00     0.202 C 
BRANCH   4   5
ATOM      5  C   UNL A   1      33.869  31.836  28.152  1.00  0.00     0.261 C 
BRANCH   5   6
ATOM      6  O   UNL A   1      33.589  30.942  27.053  1.00  0.00    -0.463 OA
BRANCH   6   7
ATOM      7  C   UNL A   1      32.286  30.873  26.679  1.00  0.00     0.309 C 
ATOM      8  O   UNL A   1      31.515  31.828  26.676  1.00  0.00    -0.252 OA
BRANCH   7   9
ATOM      9  C   UNL A   1      31.842  29.505  26.186  1.00  0.00     0.103 C 
ATOM     10  C   UNL A   1      33.350  26.430  24.070  1.00  0.00     0.227 C 
ATOM     11  O   UNL A   1      33.669  27.005  23.024  1.00  0.00    -0.274 OA
ATOM     12  N   UNL A   1      32.384  26.970  24.902  1.00  0.00    -0.342 N 
ATOM     13  C   UNL A   1      31.377  27.857  24.325  1.00  0.00     0.120 C 
ATOM     14  C   UNL A   1      32.493  27.073  26.349  1.00  0.00     0.120 C 
ATOM     15  C   UNL A   1      31.638  29.324  24.675  1.00  0.00     0.037 C 
ATOM     16  C   UNL A   1      32.868  28.499  26.723  1.00  0.00     0.037 C 
BRANCH  10  17
ATOM     17  C   UNL A   1      33.846  25.004  24.287  1.00  0.00     0.107 C 
ATOM     18  N   UNL A   1      33.237  23.003  25.346  1.00  0.00    -0.339 N 
ATOM     19  C   UNL A   1      32.662  24.113  24.631  1.00  0.00     0.133 C 
ATOM     20  C   UNL A   1      34.523  23.269  25.782  1.00  0.00     0.223 C 
ATOM     21  C   UNL A   1      34.928  24.640  25.294  1.00  0.00     0.115 C 
ATOM     22  O   UNL A   1      35.224  22.546  26.473  1.00  0.00    -0.275 OA
BRANCH  18  23
ATOM     23  C   UNL A   1      32.470  21.817  25.730  1.00  0.00     0.078 C 
ATOM     24  C   UNL A   1      30.986  22.145  25.888  1.00  0.00     0.031 C 
ATOM     25  C   UNL A   1      32.677  20.669  24.745  1.00  0.00     0.031 C 
ENDBRANCH  18  23
ENDBRANCH  10  17
ENDBRANCH   7   9
ENDBRANCH   6   7
ENDBRANCH   5   6
ENDBRANCH   4   5
ENDBRANCH   3   4
ENDBRANCH   2   3
ENDBRANCH   1   2
BRANCH   1  26
ATOM     26  O   UNL A   1      33.826  34.071  31.542  1.00  0.00    -0.376 OA
BRANCH  26  27
ATOM     27  C   UNL A   1      35.017  33.446  32.023  1.00  0.00     0.202 C 
BRANCH  27  28
ATOM     28  C   UNL A   1      35.275  31.955  31.687  1.00  0.00     0.261 C 
BRANCH  28  29
ATOM     29  O   UNL A   1      36.647  31.499  31.648  1.00  0.00    -0.460 OA
BRANCH  29  30
ATOM     30  C   UNL A   1      36.887  30.227  31.237  1.00  0.00     0.338 C 
ATOM     31  O   UNL A   1      36.050  29.361  31.089  1.00  0.00    -0.246 OA
BRANCH  30  32
ATOM     32  C   UNL A   1      38.289  30.142  30.714  1.00  0.00     0.060 A 
ATOM     33  C   UNL A   1      38.464  30.100  29.321  1.00  0.00     0.016 A 
ATOM     34  C   UNL A   1      39.416  30.179  31.541  1.00  0.00     0.016 A 
ATOM     35  C   UNL A   1      39.746  30.048  28.758  1.00  0.00     0.010 A 
ATOM     36  C   UNL A   1      40.701  30.105  30.976  1.00  0.00     0.010 A 
ATOM     37  C   UNL A   1      40.877  30.002  29.583  1.00  0.00    -0.014 A 
BRANCH  37  38
ATOM     38  C   UNL A   1      42.205  29.625  29.013  1.00  0.00     0.031 A 
ATOM     39  C   UNL A   1      42.400  28.199  28.559  1.00  0.00     0.074 A 
ATOM     40  C   UNL A   1      43.212  30.507  28.863  1.00  0.00     0.049 A 
ATOM     41  N   UNL A   1      43.472  27.605  28.102  1.00  0.00    -0.248 NA
ATOM     42  C   UNL A   1      41.217  27.325  28.635  1.00  0.00     0.031 C 
ATOM     43  C   UNL A   1      43.156  31.929  29.199  1.00  0.00     0.029 A 
ATOM     44  N   UNL A   1      44.493  30.326  28.393  1.00  0.00    -0.354 N 
ATOM     45  C   UNL A   1      43.097  26.292  27.839  1.00  0.00     0.074 A 
ATOM     46  C   UNL A   1      41.707  26.166  28.224  1.00  0.00     0.031 C 
ATOM     47  C   UNL A   1      44.354  32.486  28.941  1.00  0.00     0.029 A 
ATOM     48  C   UNL A   1      45.276  31.458  28.456  1.00  0.00     0.049 A 
ATOM     49  H   UNL A   1      44.821  29.466  28.043  1.00  0.00     0.167 HD
ATOM     50  C   UNL A   1      43.832  25.282  27.314  1.00  0.00     0.037 A 
ATOM     51  C   UNL A   1      46.587  31.637  28.184  1.00  0.00     0.037 A 
ATOM     52  C   UNL A   1      45.217  25.397  26.937  1.00  0.00     0.049 A 
ATOM     53  C   UNL A   1      47.417  30.470  27.697  1.00  0.00     0.074 A 
ATOM     54  C   UNL A   1      46.047  24.425  26.406  1.00  0.00     0.029 A 
ATOM     55  N   UNL A   1      45.979  26.550  27.054  1.00  0.00    -0.354 N 
ATOM     56  N   UNL A   1      47.047  29.235  27.449  1.00  0.00    -0.248 NA
ATOM     57  C   UNL A   1      48.847  30.722  27.452  1.00  0.00     0.031 C 
ATOM     58  C   UNL A   1      47.323  24.974  26.251  1.00  0.00     0.029 A 
ATOM     59  C   UNL A   1      47.273  26.307  26.624  1.00  0.00     0.049 A 
ATOM     60  H   UNL A   1      45.649  27.414  27.392  1.00  0.00     0.167 HD
ATOM     61  C   UNL A   1      48.185  28.580  26.984  1.00  0.00     0.074 A 
ATOM     62  C   UNL A   1      49.254  29.554  26.976  1.00  0.00     0.031 C 
ATOM     63  C   UNL A   1      48.331  27.287  26.597  1.00  0.00     0.037 A 
BRANCH  50  64
ATOM     64  C   UNL A   1      43.156  23.949  27.135  1.00  0.00     0.058 A 
ATOM     65  C   UNL A   1      42.589  23.568  25.909  1.00  0.00     0.135 A 
ATOM     66  C   UNL A   1      43.106  23.025  28.192  1.00  0.00     0.135 A 
ATOM     67  F   UNL A   1      42.590  24.419  24.869  1.00  0.00    -0.206 F 
ATOM     68  C   UNL A   1      41.974  22.331  25.744  1.00  0.00     0.059 A 
ATOM     69  C   UNL A   1      42.524  21.770  28.042  1.00  0.00     0.059 A 
ATOM     70  F   UNL A   1      43.631  23.338  29.388  1.00  0.00    -0.206 F 
ATOM     71  C   UNL A   1      41.948  21.439  26.817  1.00  0.00     0.060 A 
BRANCH  71  72
ATOM     72  S   UNL A   1      41.152  19.836  26.582  1.00  0.00     0.124 S 
ATOM     73  O   UNL A   1      40.990  19.388  27.962  1.00  0.00    -0.237 OA
ATOM     74  O   UNL A   1      39.924  20.199  25.884  1.00  0.00    -0.237 OA
ATOM     75  O   UNL A   1      42.123  19.085  25.791  1.00  0.00    -0.744 OA
ENDBRANCH  71  72
ENDBRANCH  50  64
BRANCH  51  76
ATOM     76  C   UNL A   1      47.227  32.971  28.384  1.00  0.00     0.058 A 
ATOM     77  C   UNL A   1      47.781  33.335  29.622  1.00  0.00     0.135 A 
ATOM     78  C   UNL A   1      47.250  33.928  27.357  1.00  0.00     0.135 A 
ATOM     79  F   UNL A   1      47.766  32.466  30.644  1.00  0.00    -0.206 F 
ATOM     80  C   UNL A   1      48.312  34.603  29.841  1.00  0.00     0.059 A 
ATOM     81  C   UNL A   1      47.807  35.191  27.543  1.00  0.00     0.059 A 
ATOM     82  F   UNL A   1      46.736  33.635  26.152  1.00  0.00    -0.206 F 
ATOM     83  C   UNL A   1      48.322  35.524  28.794  1.00  0.00     0.060 A 
BRANCH  83  84
ATOM     84  S   UNL A   1      49.041  37.157  29.081  1.00  0.00     0.124 S 
ATOM     85  O   UNL A   1      48.604  37.435  30.444  1.00  0.00    -0.237 OA
ATOM     86  O   UNL A   1      50.466  36.896  28.908  1.00  0.00    -0.237 OA
ATOM     87  O   UNL A   1      48.431  37.981  28.042  1.00  0.00    -0.744 OA
ENDBRANCH  83  84
ENDBRANCH  51  76
BRANCH  63  88
ATOM     88  C   UNL A   1      49.677  26.853  26.074  1.00  0.00     0.058 A 
ATOM     89  C   UNL A   1      50.025  26.975  24.720  1.00  0.00     0.135 A 
ATOM     90  C   UNL A   1      50.654  26.361  26.957  1.00  0.00     0.135 A 
ATOM     91  F   UNL A   1      49.132  27.436  23.831  1.00  0.00    -0.206 F 
ATOM     92  C   UNL A   1      51.284  26.600  24.255  1.00  0.00     0.059 A 
ATOM     93  C   UNL A   1      51.928  26.011  26.519  1.00  0.00     0.059 A 
ATOM     94  F   UNL A   1      50.382  26.234  28.265  1.00  0.00    -0.206 F 
ATOM     95  C   UNL A   1      52.231  26.123  25.163  1.00  0.00     0.060 A 
BRANCH  95  96
ATOM     96  S   UNL A   1      53.870  25.674  24.552  1.00  0.00     0.124 S 
ATOM     97  O   UNL A   1      53.861  24.225  24.719  1.00  0.00    -0.237 OA
ATOM     98  O   UNL A   1      53.830  26.155  23.174  1.00  0.00    -0.237 OA
ATOM     99  O   UNL A   1      54.774  26.402  25.437  1.00  0.00    -0.744 OA
ENDBRANCH  95  96
ENDBRANCH  63  88
ENDBRANCH  37  38
ENDBRANCH  30  32
ENDBRANCH  29  30
ENDBRANCH  28  29
ENDBRANCH  27  28
ENDBRANCH  26  27
ENDBRANCH   1  26
TORSDOF 22
ENDMDL
MODEL 3
REMARK VINA RESULT:      -9.8      4.027      8.019
REMARK SMILES CC(C)N1C[C@@H](C(=O)N2CCC(C(=O)OCCOCCOCCOC(=O)c3ccc(-c4c5nc(c(-c6c(F)cc(S(=O)(=O)[O-])cc6F)c6ccc([nH]6)c(-c6c(F)cc(S(=O)(=O)[O-])cc6F)c6nc(c(-c7c(F)cc(S(=O)(=O)[O-])cc7F)c7ccc4[nH]7)C=C6)C=C5)cc3)CC2)CC1=O
REMARK SMILES IDX 20 1 19 2 18 3 17 4 16 5 15 6 13 7 14 8 12 9 7 10 8 11 9 12
REMARK SMILES IDX 10 13 94 14 11 15 93 16 6 17 4 18 5 19 96 20 95 21 97 22
REMARK SMILES IDX 2 23 1 24 3 25 21 26 22 27 23 28 24 29 25 30 26 31 27 32
REMARK SMILES IDX 28 33 92 34 29 35 91 36 30 37 31 38 32 39 85 40 33 41 90 42
REMARK SMILES IDX 84 43 86 44 34 45 89 46 83 47 82 48 35 50 69 51 48 52 68 53
REMARK SMILES IDX 49 54 52 55 67 56 87 57 50 58 51 59 66 61 88 62 53 63 36 64
REMARK SMILES IDX 37 65 46 66 38 67 39 68 45 69 47 70 40 71 41 72 42 73 43 74
REMARK SMILES IDX 44 75 70 76 71 77 80 78 72 79 73 80 79 81 81 82 74 83 75 84
REMARK SMILES IDX 76 85 77 86 78 87 54 88 55 89 64 90 56 91 57 92 63 93 65 94
REMARK SMILES IDX 58 95 59 96 60 97 61 98 62 99
REMARK H PARENT 86 49 52 60
REMARK Flexibility Score: inf
ROOT
ATOM      1  C   UNL A   1      33.250  36.476  29.873  1.00  0.00     0.188 C 
ENDROOT
BRANCH   1   2
ATOM      2  C   UNL A   1      32.847  36.973  31.260  1.00  0.00     0.188 C 
BRANCH   2   3
ATOM      3  O   UNL A   1      33.907  37.165  32.188  1.00  0.00    -0.376 OA
BRANCH   3   4
ATOM      4  C   UNL A   1      34.078  36.172  33.197  1.00  0.00     0.202 C 
BRANCH   4   5
ATOM      5  C   UNL A   1      35.168  35.114  32.964  1.00  0.00     0.261 C 
BRANCH   5   6
ATOM      6  O   UNL A   1      34.930  33.839  33.600  1.00  0.00    -0.463 OA
BRANCH   6   7
ATOM      7  C   UNL A   1      35.445  32.764  32.952  1.00  0.00     0.309 C 
ATOM      8  O   UNL A   1      34.913  32.211  31.993  1.00  0.00    -0.252 OA
BRANCH   7   9
ATOM      9  C   UNL A   1      36.802  32.308  33.465  1.00  0.00     0.103 C 
ATOM     10  C   UNL A   1      40.096  33.928  35.117  1.00  0.00     0.227 C 
ATOM     11  O   UNL A   1      40.397  34.764  34.259  1.00  0.00    -0.274 OA
ATOM     12  N   UNL A   1      39.322  32.829  34.787  1.00  0.00    -0.342 N 
ATOM     13  C   UNL A   1      39.330  32.355  33.406  1.00  0.00     0.120 C 
ATOM     14  C   UNL A   1      38.198  32.337  35.567  1.00  0.00     0.120 C 
ATOM     15  C   UNL A   1      38.044  32.727  32.665  1.00  0.00     0.037 C 
ATOM     16  C   UNL A   1      36.900  32.792  34.917  1.00  0.00     0.037 C 
BRANCH  10  17
ATOM     17  C   UNL A   1      40.805  33.996  36.466  1.00  0.00     0.107 C 
ATOM     18  N   UNL A   1      41.040  35.394  38.333  1.00  0.00    -0.339 N 
ATOM     19  C   UNL A   1      40.058  34.965  37.371  1.00  0.00     0.133 C 
ATOM     20  C   UNL A   1      42.332  35.102  37.932  1.00  0.00     0.223 C 
ATOM     21  C   UNL A   1      42.276  34.355  36.621  1.00  0.00     0.115 C 
ATOM     22  O   UNL A   1      43.363  35.413  38.508  1.00  0.00    -0.275 OA
BRANCH  18  23
ATOM     23  C   UNL A   1      40.710  36.216  39.499  1.00  0.00     0.078 C 
ATOM     24  C   UNL A   1      39.583  37.198  39.182  1.00  0.00     0.031 C 
ATOM     25  C   UNL A   1      40.365  35.358  40.714  1.00  0.00     0.031 C 
ENDBRANCH  18  23
ENDBRANCH  10  17
ENDBRANCH   7   9
ENDBRANCH   6   7
ENDBRANCH   5   6
ENDBRANCH   4   5
ENDBRANCH   3   4
ENDBRANCH   2   3
ENDBRANCH   1   2
BRANCH   1  26
ATOM     26  O   UNL A   1      33.485  35.084  29.756  1.00  0.00    -0.376 OA
BRANCH  26  27
ATOM     27  C   UNL A   1      34.226  34.632  28.623  1.00  0.00     0.202 C 
BRANCH  27  28
ATOM     28  C   UNL A   1      33.988  33.197  28.088  1.00  0.00     0.261 C 
BRANCH  28  29
ATOM     29  O   UNL A   1      34.557  32.095  28.832  1.00  0.00    -0.460 OA
BRANCH  29  30
ATOM     30  C   UNL A   1      34.525  30.860  28.269  1.00  0.00     0.338 C 
ATOM     31  O   UNL A   1      33.623  30.413  27.591  1.00  0.00    -0.246 OA
BRANCH  30  32
ATOM     32  C   UNL A   1      35.890  30.248  28.364  1.00  0.00     0.060 A 
ATOM     33  C   UNL A   1      36.287  29.724  29.604  1.00  0.00     0.016 A 
ATOM     34  C   UNL A   1      36.743  30.113  27.264  1.00  0.00     0.016 A 
ATOM     35  C   UNL A   1      37.538  29.113  29.761  1.00  0.00     0.010 A 
ATOM     36  C   UNL A   1      38.007  29.519  27.426  1.00  0.00     0.010 A 
ATOM     37  C   UNL A   1      38.430  29.047  28.683  1.00  0.00    -0.014 A 
BRANCH  37  38
ATOM     38  C   UNL A   1      39.863  28.697  28.918  1.00  0.00     0.031 A 
ATOM     39  C   UNL A   1      40.763  29.760  29.501  1.00  0.00     0.074 A 
ATOM     40  C   UNL A   1      40.368  27.475  28.660  1.00  0.00     0.049 A 
ATOM     41  N   UNL A   1      42.051  29.732  29.729  1.00  0.00    -0.248 NA
ATOM     42  C   UNL A   1      40.114  31.028  29.876  1.00  0.00     0.031 C 
ATOM     43  C   UNL A   1      39.613  26.332  28.153  1.00  0.00     0.029 A 
ATOM     44  N   UNL A   1      41.653  26.997  28.785  1.00  0.00    -0.354 N 
ATOM     45  C   UNL A   1      42.368  30.975  30.269  1.00  0.00     0.074 A 
ATOM     46  C   UNL A   1      41.144  31.745  30.300  1.00  0.00     0.031 C 
ATOM     47  C   UNL A   1      40.452  25.291  27.992  1.00  0.00     0.029 A 
ATOM     48  C   UNL A   1      41.811  25.700  28.349  1.00  0.00     0.049 A 
ATOM     49  H   UNL A   1      42.393  27.534  29.151  1.00  0.00     0.167 HD
ATOM     50  C   UNL A   1      43.563  31.433  30.712  1.00  0.00     0.037 A 
ATOM     51  C   UNL A   1      42.922  24.942  28.226  1.00  0.00     0.037 A 
ATOM     52  C   UNL A   1      44.787  30.676  30.678  1.00  0.00     0.049 A 
ATOM     53  C   UNL A   1      44.265  25.511  28.629  1.00  0.00     0.074 A 
ATOM     54  C   UNL A   1      46.049  31.062  31.096  1.00  0.00     0.029 A 
ATOM     55  N   UNL A   1      44.907  29.382  30.194  1.00  0.00    -0.354 N 
ATOM     56  N   UNL A   1      44.547  26.685  29.143  1.00  0.00    -0.248 NA
ATOM     57  C   UNL A   1      45.442  24.647  28.437  1.00  0.00     0.031 C 
ATOM     58  C   UNL A   1      46.941  30.023  30.818  1.00  0.00     0.029 A 
ATOM     59  C   UNL A   1      46.224  28.964  30.285  1.00  0.00     0.049 A 
ATOM     60  H   UNL A   1      44.165  28.840  29.839  1.00  0.00     0.167 HD
ATOM     61  C   UNL A   1      45.923  26.684  29.369  1.00  0.00     0.074 A 
ATOM     62  C   UNL A   1      46.414  25.391  28.947  1.00  0.00     0.031 C 
ATOM     63  C   UNL A   1      46.706  27.665  29.883  1.00  0.00     0.037 A 
BRANCH  50  64
ATOM     64  C   UNL A   1      43.611  32.836  31.258  1.00  0.00     0.058 A 
ATOM     65  C   UNL A   1      43.512  33.097  32.634  1.00  0.00     0.135 A 
ATOM     66  C   UNL A   1      43.795  33.931  30.398  1.00  0.00     0.135 A 
ATOM     67  F   UNL A   1      43.316  32.090  33.501  1.00  0.00    -0.206 F 
ATOM     68  C   UNL A   1      43.567  34.393  33.135  1.00  0.00     0.059 A 
ATOM     69  C   UNL A   1      43.884  35.234  30.879  1.00  0.00     0.059 A 
ATOM     70  F   UNL A   1      43.893  33.740  29.072  1.00  0.00    -0.206 F 
ATOM     71  C   UNL A   1      43.755  35.455  32.249  1.00  0.00     0.060 A 
BRANCH  71  72
ATOM     72  S   UNL A   1      43.832  37.129  32.919  1.00  0.00     0.124 S 
ATOM     73  O   UNL A   1      43.775  37.931  31.700  1.00  0.00    -0.237 OA
ATOM     74  O   UNL A   1      42.645  37.179  33.765  1.00  0.00    -0.237 OA
ATOM     75  O   UNL A   1      45.108  37.156  33.627  1.00  0.00    -0.744 OA
ENDBRANCH  71  72
ENDBRANCH  50  64
BRANCH  51  76
ATOM     76  C   UNL A   1      42.839  23.559  27.670  1.00  0.00     0.058 A 
ATOM     77  C   UNL A   1      42.988  23.316  26.295  1.00  0.00     0.135 A 
ATOM     78  C   UNL A   1      42.555  22.459  28.496  1.00  0.00     0.135 A 
ATOM     79  F   UNL A   1      43.238  24.334  25.458  1.00  0.00    -0.206 F 
ATOM     80  C   UNL A   1      42.837  22.041  25.757  1.00  0.00     0.059 A 
ATOM     81  C   UNL A   1      42.433  21.170  27.985  1.00  0.00     0.059 A 
ATOM     82  F   UNL A   1      42.403  22.633  29.818  1.00  0.00    -0.206 F 
ATOM     83  C   UNL A   1      42.560  20.973  26.611  1.00  0.00     0.060 A 
BRANCH  83  84
ATOM     84  S   UNL A   1      42.396  19.318  25.906  1.00  0.00     0.124 S 
ATOM     85  O   UNL A   1      42.991  18.493  26.951  1.00  0.00    -0.237 OA
ATOM     86  O   UNL A   1      40.951  19.198  25.744  1.00  0.00    -0.237 OA
ATOM     87  O   UNL A   1      43.154  19.405  24.662  1.00  0.00    -0.744 OA
ENDBRANCH  83  84
ENDBRANCH  51  76
BRANCH  63  88
ATOM     88  C   UNL A   1      48.173  27.371  30.076  1.00  0.00     0.058 A 
ATOM     89  C   UNL A   1      48.664  26.765  31.243  1.00  0.00     0.135 A 
ATOM     90  C   UNL A   1      49.091  27.647  29.049  1.00  0.00     0.135 A 
ATOM     91  F   UNL A   1      47.834  26.480  32.258  1.00  0.00    -0.206 F 
ATOM     92  C   UNL A   1      50.017  26.468  31.396  1.00  0.00     0.059 A 
ATOM     93  C   UNL A   1      50.442  27.329  29.167  1.00  0.00     0.059 A 
ATOM     94  F   UNL A   1      48.677  28.213  27.905  1.00  0.00    -0.206 F 
ATOM     95  C   UNL A   1      50.898  26.750  30.350  1.00  0.00     0.060 A 
BRANCH  95  96
ATOM     96  S   UNL A   1      52.642  26.328  30.548  1.00  0.00     0.124 S 
ATOM     97  O   UNL A   1      53.060  26.142  29.162  1.00  0.00    -0.237 OA
ATOM     98  O   UNL A   1      53.175  27.510  31.218  1.00  0.00    -0.237 OA
ATOM     99  O   UNL A   1      52.610  25.116  31.361  1.00  0.00    -0.744 OA
ENDBRANCH  95  96
ENDBRANCH  63  88
ENDBRANCH  37  38
ENDBRANCH  30  32
ENDBRANCH  29  30
ENDBRANCH  28  29
ENDBRANCH  27  28
ENDBRANCH  26  27
ENDBRANCH   1  26
TORSDOF 22
ENDMDL
