MODEL 1
REMARK VINA RESULT:     -11.0      0.000      0.000
REMARK SMILES O=C(OCCOCCOCCOC(=O)[C@@H]1CCCN1C(=O)[C@@H]1CCCN1C(=O)OCC1c2ccccc2-c2ccccc21)c1ccc(-c2c3nc(c(-c4c(F)cc(S(=O)(=O)[O-])cc4F)c4ccc([nH]4)c(-c4c(F)cc(S(=O)(=O)[O-])cc4F)c4nc(c(-c5c(F)cc(S(=O)(=O)[O-])cc5F)c5ccc2[nH]5)C=C4)C=C3)cc1
REMARK SMILES IDX 9 1 8 2 7 3 6 4 5 5 4 6 3 7 2 8 1 9 44 10 45 11 109 12 46 13
REMARK SMILES IDX 108 14 47 15 48 16 49 17 102 18 50 19 107 20 101 21 103 22
REMARK SMILES IDX 51 23 106 24 100 25 99 26 52 28 86 29 65 30 85 31 66 32
REMARK SMILES IDX 69 33 84 34 104 35 67 36 68 37 83 39 105 40 70 41 53 42
REMARK SMILES IDX 54 43 63 44 55 45 56 46 62 47 64 48 57 49 58 50 59 51 60 52
REMARK SMILES IDX 61 53 87 54 88 55 97 56 89 57 90 58 96 59 98 60 91 61 92 62
REMARK SMILES IDX 93 63 94 64 95 65 71 66 72 67 81 68 73 69 74 70 80 71 82 72
REMARK SMILES IDX 75 73 76 74 77 75 78 76 79 77 10 78 11 79 12 80 13 81 14 82
REMARK SMILES IDX 15 83 16 84 19 85 17 86 18 87 20 88 21 89 22 90 23 91 26 92
REMARK SMILES IDX 24 93 25 94 27 95 28 96 29 97 30 98 31 99 32 100 43 101
REMARK SMILES IDX 33 102 37 103 38 104 42 105 34 106 36 107 39 108 41 109
REMARK SMILES IDX 35 110 40 111
REMARK H PARENT 103 27 69 38
REMARK Flexibility Score: inf
ROOT
ATOM      1  O   UNL A   1      40.276  22.491  26.491  1.00  0.00    -0.376 OA
ENDROOT
BRANCH   1   2
ATOM      2  C   UNL A   1      40.508  21.158  26.934  1.00  0.00     0.188 C 
BRANCH   2   3
ATOM      3  C   UNL A   1      40.854  19.728  26.058  1.00  0.00     0.188 C 
BRANCH   3   4
ATOM      4  O   UNL A   1      42.550  18.764  25.523  1.00  0.00    -0.376 OA
BRANCH   4   5
ATOM      5  C   UNL A   1      44.083  18.930  25.336  1.00  0.00     0.202 C 
BRANCH   5   6
ATOM      6  C   UNL A   1      44.522  20.088  24.428  1.00  0.00     0.261 C 
BRANCH   6   7
ATOM      7  O   UNL A   1      44.766  21.382  24.993  1.00  0.00    -0.460 OA
BRANCH   7   8
ATOM      8  C   UNL A   1      43.921  22.373  25.338  1.00  0.00     0.338 C 
ATOM      9  O   UNL A   1      43.013  22.688  24.573  1.00  0.00    -0.246 OA
BRANCH   8  10
ATOM     10  C   UNL A   1      44.097  23.131  26.599  1.00  0.00     0.060 A 
ATOM     11  C   UNL A   1      43.070  23.823  27.252  1.00  0.00     0.016 A 
ATOM     12  C   UNL A   1      45.384  23.147  27.147  1.00  0.00     0.016 A 
ATOM     13  C   UNL A   1      43.272  24.354  28.532  1.00  0.00     0.010 A 
ATOM     14  C   UNL A   1      45.615  23.771  28.374  1.00  0.00     0.010 A 
ATOM     15  C   UNL A   1      44.551  24.342  29.096  1.00  0.00    -0.014 A 
BRANCH  15  16
ATOM     16  C   UNL A   1      44.852  25.286  30.196  1.00  0.00     0.031 A 
ATOM     17  C   UNL A   1      45.142  26.680  29.737  1.00  0.00     0.074 A 
ATOM     18  C   UNL A   1      44.811  24.993  31.511  1.00  0.00     0.049 A 
ATOM     19  N   UNL A   1      45.308  27.757  30.448  1.00  0.00    -0.248 NA
ATOM     20  C   UNL A   1      45.147  26.908  28.276  1.00  0.00     0.031 C 
ATOM     21  C   UNL A   1      44.369  23.734  32.097  1.00  0.00     0.029 A 
ATOM     22  N   UNL A   1      45.180  25.736  32.607  1.00  0.00    -0.354 N 
ATOM     23  C   UNL A   1      45.321  28.791  29.528  1.00  0.00     0.074 A 
ATOM     24  C   UNL A   1      45.247  28.221  28.207  1.00  0.00     0.031 C 
ATOM     25  C   UNL A   1      44.628  23.735  33.420  1.00  0.00     0.029 A 
ATOM     26  C   UNL A   1      45.216  25.016  33.782  1.00  0.00     0.049 A 
ATOM     27  H   UNL A   1      45.399  26.696  32.558  1.00  0.00     0.167 HD
ATOM     28  C   UNL A   1      45.340  30.115  29.775  1.00  0.00     0.037 A 
ATOM     29  C   UNL A   1      45.678  25.361  35.001  1.00  0.00     0.037 A 
ATOM     30  C   UNL A   1      45.537  30.655  31.085  1.00  0.00     0.049 A 
ATOM     31  C   UNL A   1      46.012  26.814  35.219  1.00  0.00     0.074 A 
ATOM     32  C   UNL A   1      45.661  31.975  31.461  1.00  0.00     0.029 A 
ATOM     33  N   UNL A   1      45.695  29.883  32.230  1.00  0.00    -0.354 N 
ATOM     34  N   UNL A   1      45.955  27.801  34.355  1.00  0.00    -0.248 NA
ATOM     35  C   UNL A   1      46.382  27.223  36.580  1.00  0.00     0.031 C 
ATOM     36  C   UNL A   1      45.976  31.999  32.821  1.00  0.00     0.029 A 
ATOM     37  C   UNL A   1      45.966  30.698  33.309  1.00  0.00     0.049 A 
ATOM     38  H   UNL A   1      45.625  28.901  32.265  1.00  0.00     0.167 HD
ATOM     39  C   UNL A   1      46.198  28.958  35.082  1.00  0.00     0.074 A 
ATOM     40  C   UNL A   1      46.432  28.543  36.452  1.00  0.00     0.031 C 
ATOM     41  C   UNL A   1      46.189  30.248  34.662  1.00  0.00     0.037 A 
BRANCH  28  42
ATOM     42  C   UNL A   1      45.202  31.007  28.585  1.00  0.00     0.058 A 
ATOM     43  C   UNL A   1      46.331  31.537  27.936  1.00  0.00     0.135 A 
ATOM     44  C   UNL A   1      43.935  31.409  28.144  1.00  0.00     0.135 A 
ATOM     45  F   UNL A   1      47.568  31.228  28.362  1.00  0.00    -0.206 F 
ATOM     46  C   UNL A   1      46.206  32.451  26.897  1.00  0.00     0.059 A 
ATOM     47  C   UNL A   1      43.787  32.302  27.090  1.00  0.00     0.059 A 
ATOM     48  F   UNL A   1      42.831  30.962  28.762  1.00  0.00    -0.206 F 
ATOM     49  C   UNL A   1      44.927  32.824  26.480  1.00  0.00     0.060 A 
BRANCH  49  50
ATOM     50  S   UNL A   1      44.779  34.000  25.122  1.00  0.00     0.124 S 
ATOM     51  O   UNL A   1      43.754  34.906  25.628  1.00  0.00    -0.237 OA
ATOM     52  O   UNL A   1      46.129  34.551  25.043  1.00  0.00    -0.237 OA
ATOM     53  O   UNL A   1      44.378  33.167  23.992  1.00  0.00    -0.744 OA
ENDBRANCH  49  50
ENDBRANCH  28  42
BRANCH  29  54
ATOM     54  C   UNL A   1      45.820  24.365  36.105  1.00  0.00     0.058 A 
ATOM     55  C   UNL A   1      44.906  24.295  37.168  1.00  0.00     0.135 A 
ATOM     56  C   UNL A   1      46.923  23.494  36.151  1.00  0.00     0.135 A 
ATOM     57  F   UNL A   1      43.843  25.112  37.189  1.00  0.00    -0.206 F 
ATOM     58  C   UNL A   1      45.087  23.419  38.240  1.00  0.00     0.059 A 
ATOM     59  C   UNL A   1      47.117  22.597  37.203  1.00  0.00     0.059 A 
ATOM     60  F   UNL A   1      47.830  23.506  35.162  1.00  0.00    -0.206 F 
ATOM     61  C   UNL A   1      46.197  22.573  38.249  1.00  0.00     0.060 A 
BRANCH  61  62
ATOM     62  S   UNL A   1      46.400  21.423  39.630  1.00  0.00     0.124 S 
ATOM     63  O   UNL A   1      45.360  21.872  40.549  1.00  0.00    -0.237 OA
ATOM     64  O   UNL A   1      46.171  20.134  38.985  1.00  0.00    -0.237 OA
ATOM     65  O   UNL A   1      47.773  21.660  40.068  1.00  0.00    -0.744 OA
ENDBRANCH  61  62
ENDBRANCH  29  54
BRANCH  41  66
ATOM     66  C   UNL A   1      46.381  31.311  35.702  1.00  0.00     0.058 A 
ATOM     67  C   UNL A   1      47.654  31.756  36.082  1.00  0.00     0.135 A 
ATOM     68  C   UNL A   1      45.260  31.952  36.256  1.00  0.00     0.135 A 
ATOM     69  F   UNL A   1      48.754  31.168  35.583  1.00  0.00    -0.206 F 
ATOM     70  C   UNL A   1      47.812  32.789  36.996  1.00  0.00     0.059 A 
ATOM     71  C   UNL A   1      45.395  33.014  37.139  1.00  0.00     0.059 A 
ATOM     72  F   UNL A   1      44.020  31.570  35.912  1.00  0.00    -0.206 F 
ATOM     73  C   UNL A   1      46.675  33.417  37.511  1.00  0.00     0.060 A 
BRANCH  73  74
ATOM     74  S   UNL A   1      46.896  34.793  38.654  1.00  0.00     0.124 S 
ATOM     75  O   UNL A   1      45.631  35.504  38.505  1.00  0.00    -0.237 OA
ATOM     76  O   UNL A   1      47.093  34.109  39.929  1.00  0.00    -0.237 OA
ATOM     77  O   UNL A   1      48.071  35.484  38.133  1.00  0.00    -0.744 OA
ENDBRANCH  73  74
ENDBRANCH  41  66
ENDBRANCH  15  16
ENDBRANCH   8  10
ENDBRANCH   7   8
ENDBRANCH   6   7
ENDBRANCH   5   6
ENDBRANCH   4   5
ENDBRANCH   3   4
ENDBRANCH   2   3
ENDBRANCH   1   2
BRANCH   1  78
ATOM     78  C   UNL A   1      39.093  23.272  26.626  1.00  0.00     0.202 C 
BRANCH  78  79
ATOM     79  C   UNL A   1      37.846  23.018  25.746  1.00  0.00     0.261 C 
BRANCH  79  80
ATOM     80  O   UNL A   1      36.637  23.665  26.207  1.00  0.00    -0.462 OA
BRANCH  80  81
ATOM     81  C   UNL A   1      35.648  23.702  25.291  1.00  0.00     0.328 C 
ATOM     82  O   UNL A   1      35.813  23.419  24.104  1.00  0.00    -0.250 OA
BRANCH  81  83
ATOM     83  C   UNL A   1      34.265  24.123  25.799  1.00  0.00     0.195 C 
ATOM     84  C   UNL A   1      33.978  23.004  26.829  1.00  0.00     0.039 C 
ATOM     85  N   UNL A   1      32.936  24.347  25.206  1.00  0.00    -0.327 N 
ATOM     86  C   UNL A   1      32.550  23.163  27.282  1.00  0.00     0.024 C 
ATOM     87  C   UNL A   1      31.935  24.081  26.264  1.00  0.00     0.120 C 
BRANCH  85  88
ATOM     88  C   UNL A   1      32.441  25.226  24.265  1.00  0.00     0.246 C 
ATOM     89  O   UNL A   1      32.863  25.066  23.103  1.00  0.00    -0.272 OA
BRANCH  88  90
ATOM     90  C   UNL A   1      31.418  26.394  24.404  1.00  0.00     0.178 C 
ATOM     91  C   UNL A   1      29.493  26.302  23.846  1.00  0.00     0.037 C 
ATOM     92  N   UNL A   1      32.018  28.145  23.970  1.00  0.00    -0.296 N 
ATOM     93  C   UNL A   1      28.932  28.227  23.322  1.00  0.00     0.024 C 
ATOM     94  C   UNL A   1      30.606  29.346  23.527  1.00  0.00     0.124 C 
BRANCH  92  95
ATOM     95  C   UNL A   1      33.334  28.441  23.725  1.00  0.00     0.410 C 
ATOM     96  O   UNL A   1      33.992  28.021  22.783  1.00  0.00    -0.224 OA
BRANCH  95  97
ATOM     97  O   UNL A   1      33.850  29.128  24.765  1.00  0.00    -0.448 OA
BRANCH  97  98
ATOM     98  C   UNL A   1      34.281  28.437  25.943  1.00  0.00     0.248 C 
BRANCH  98  99
ATOM     99  C   UNL A   1      33.962  29.181  27.251  1.00  0.00     0.088 C 
ATOM    100  C   UNL A   1      35.255  29.772  27.814  1.00  0.00    -0.029 A 
ATOM    101  C   UNL A   1      33.106  30.442  27.117  1.00  0.00    -0.029 A 
ATOM    102  C   UNL A   1      36.402  29.102  28.207  1.00  0.00     0.005 A 
ATOM    103  C   UNL A   1      35.173  31.181  27.872  1.00  0.00    -0.014 A 
ATOM    104  C   UNL A   1      33.858  31.593  27.441  1.00  0.00    -0.014 A 
ATOM    105  C   UNL A   1      31.755  30.548  26.832  1.00  0.00     0.005 A 
ATOM    106  C   UNL A   1      37.479  29.859  28.671  1.00  0.00     0.000 A 
ATOM    107  C   UNL A   1      36.240  31.931  28.336  1.00  0.00     0.009 A 
ATOM    108  C   UNL A   1      33.294  32.859  27.381  1.00  0.00     0.009 A 
ATOM    109  C   UNL A   1      31.174  31.822  26.807  1.00  0.00     0.000 A 
ATOM    110  C   UNL A   1      37.399  31.261  28.737  1.00  0.00     0.001 A 
ATOM    111  C   UNL A   1      31.942  32.971  27.055  1.00  0.00     0.001 A 
ENDBRANCH  98  99
ENDBRANCH  97  98
ENDBRANCH  95  97
ENDBRANCH  92  95
ENDBRANCH  88  90
ENDBRANCH  85  88
ENDBRANCH  81  83
ENDBRANCH  80  81
ENDBRANCH  79  80
ENDBRANCH  78  79
ENDBRANCH   1  78
TORSDOF 26
ENDMDL
MODEL 2
REMARK VINA RESULT:     -11.0      4.183      9.601
REMARK SMILES O=C(OCCOCCOCCOC(=O)[C@@H]1CCCN1C(=O)[C@@H]1CCCN1C(=O)OCC1c2ccccc2-c2ccccc21)c1ccc(-c2c3nc(c(-c4c(F)cc(S(=O)(=O)[O-])cc4F)c4ccc([nH]4)c(-c4c(F)cc(S(=O)(=O)[O-])cc4F)c4nc(c(-c5c(F)cc(S(=O)(=O)[O-])cc5F)c5ccc2[nH]5)C=C4)C=C3)cc1
REMARK SMILES IDX 9 1 8 2 7 3 6 4 5 5 4 6 3 7 2 8 1 9 44 10 45 11 109 12 46 13
REMARK SMILES IDX 108 14 47 15 48 16 49 17 102 18 50 19 107 20 101 21 103 22
REMARK SMILES IDX 51 23 106 24 100 25 99 26 52 28 86 29 65 30 85 31 66 32
REMARK SMILES IDX 69 33 84 34 104 35 67 36 68 37 83 39 105 40 70 41 53 42
REMARK SMILES IDX 54 43 63 44 55 45 56 46 62 47 64 48 57 49 58 50 59 51 60 52
REMARK SMILES IDX 61 53 87 54 88 55 97 56 89 57 90 58 96 59 98 60 91 61 92 62
REMARK SMILES IDX 93 63 94 64 95 65 71 66 72 67 81 68 73 69 74 70 80 71 82 72
REMARK SMILES IDX 75 73 76 74 77 75 78 76 79 77 10 78 11 79 12 80 13 81 14 82
REMARK SMILES IDX 15 83 16 84 19 85 17 86 18 87 20 88 21 89 22 90 23 91 26 92
REMARK SMILES IDX 24 93 25 94 27 95 28 96 29 97 30 98 31 99 32 100 43 101
REMARK SMILES IDX 33 102 37 103 38 104 42 105 34 106 36 107 39 108 41 109
REMARK SMILES IDX 35 110 40 111
REMARK H PARENT 103 27 69 38
REMARK Flexibility Score: inf
ROOT
ATOM      1  O   UNL A   1      33.549  27.788  25.239  1.00  0.00    -0.376 OA
ENDROOT
BRANCH   1   2
ATOM      2  C   UNL A   1      32.450  28.517  25.776  1.00  0.00     0.188 C 
BRANCH   2   3
ATOM      3  C   UNL A   1      31.865  30.087  25.425  1.00  0.00     0.188 C 
BRANCH   3   4
ATOM      4  O   UNL A   1      31.384  31.706  26.538  1.00  0.00    -0.376 OA
BRANCH   4   5
ATOM      5  C   UNL A   1      31.846  33.132  26.946  1.00  0.00     0.202 C 
BRANCH   5   6
ATOM      6  C   UNL A   1      33.132  33.201  27.783  1.00  0.00     0.261 C 
BRANCH   6   7
ATOM      7  O   UNL A   1      33.385  34.350  28.603  1.00  0.00    -0.460 OA
BRANCH   7   8
ATOM      8  C   UNL A   1      33.572  34.467  29.932  1.00  0.00     0.338 C 
ATOM      9  O   UNL A   1      32.766  35.108  30.602  1.00  0.00    -0.246 OA
BRANCH   8  10
ATOM     10  C   UNL A   1      34.762  33.886  30.597  1.00  0.00     0.060 A 
ATOM     11  C   UNL A   1      34.707  32.895  31.585  1.00  0.00     0.016 A 
ATOM     12  C   UNL A   1      36.008  34.381  30.198  1.00  0.00     0.016 A 
ATOM     13  C   UNL A   1      35.877  32.266  32.027  1.00  0.00     0.010 A 
ATOM     14  C   UNL A   1      37.180  33.829  30.719  1.00  0.00     0.010 A 
ATOM     15  C   UNL A   1      37.123  32.738  31.604  1.00  0.00    -0.014 A 
BRANCH  15  16
ATOM     16  C   UNL A   1      38.321  32.397  32.404  1.00  0.00     0.031 A 
ATOM     17  C   UNL A   1      39.258  31.450  31.722  1.00  0.00     0.074 A 
ATOM     18  C   UNL A   1      38.631  32.917  33.609  1.00  0.00     0.049 A 
ATOM     19  N   UNL A   1      40.444  31.066  32.092  1.00  0.00    -0.248 NA
ATOM     20  C   UNL A   1      38.840  30.947  30.397  1.00  0.00     0.031 C 
ATOM     21  C   UNL A   1      37.907  33.977  34.298  1.00  0.00     0.029 A 
ATOM     22  N   UNL A   1      39.635  32.598  34.492  1.00  0.00    -0.354 N 
ATOM     23  C   UNL A   1      40.950  30.377  31.003  1.00  0.00     0.074 A 
ATOM     24  C   UNL A   1      39.921  30.307  29.997  1.00  0.00     0.031 C 
ATOM     25  C   UNL A   1      38.392  34.118  35.548  1.00  0.00     0.029 A 
ATOM     26  C   UNL A   1      39.495  33.187  35.731  1.00  0.00     0.049 A 
ATOM     27  H   UNL A   1      40.386  32.004  34.261  1.00  0.00     0.167 HD
ATOM     28  C   UNL A   1      42.195  29.892  30.840  1.00  0.00     0.037 A 
ATOM     29  C   UNL A   1      40.180  32.983  36.875  1.00  0.00     0.037 A 
ATOM     30  C   UNL A   1      43.160  29.864  31.896  1.00  0.00     0.049 A 
ATOM     31  C   UNL A   1      41.440  32.162  36.778  1.00  0.00     0.074 A 
ATOM     32  C   UNL A   1      44.427  29.324  31.889  1.00  0.00     0.029 A 
ATOM     33  N   UNL A   1      42.929  30.359  33.174  1.00  0.00    -0.354 N 
ATOM     34  N   UNL A   1      41.948  31.569  35.722  1.00  0.00    -0.248 NA
ATOM     35  C   UNL A   1      42.266  32.051  37.987  1.00  0.00     0.031 C 
ATOM     36  C   UNL A   1      44.934  29.418  33.187  1.00  0.00     0.029 A 
ATOM     37  C   UNL A   1      44.015  30.091  33.982  1.00  0.00     0.049 A 
ATOM     38  H   UNL A   1      42.112  30.829  33.461  1.00  0.00     0.167 HD
ATOM     39  C   UNL A   1      43.189  31.089  36.114  1.00  0.00     0.074 A 
ATOM     40  C   UNL A   1      43.342  31.435  37.514  1.00  0.00     0.031 C 
ATOM     41  C   UNL A   1      44.133  30.456  35.373  1.00  0.00     0.037 A 
BRANCH  28  42
ATOM     42  C   UNL A   1      42.506  29.318  29.496  1.00  0.00     0.058 A 
ATOM     43  C   UNL A   1      42.423  27.935  29.256  1.00  0.00     0.135 A 
ATOM     44  C   UNL A   1      42.977  30.142  28.466  1.00  0.00     0.135 A 
ATOM     45  F   UNL A   1      42.034  27.098  30.233  1.00  0.00    -0.206 F 
ATOM     46  C   UNL A   1      42.812  27.387  28.041  1.00  0.00     0.059 A 
ATOM     47  C   UNL A   1      43.348  29.618  27.234  1.00  0.00     0.059 A 
ATOM     48  F   UNL A   1      43.114  31.461  28.665  1.00  0.00    -0.206 F 
ATOM     49  C   UNL A   1      43.271  28.239  27.035  1.00  0.00     0.060 A 
BRANCH  49  50
ATOM     50  S   UNL A   1      43.761  27.515  25.458  1.00  0.00     0.124 S 
ATOM     51  O   UNL A   1      44.995  28.241  25.172  1.00  0.00    -0.237 OA
ATOM     52  O   UNL A   1      43.919  26.106  25.802  1.00  0.00    -0.237 OA
ATOM     53  O   UNL A   1      42.636  27.821  24.579  1.00  0.00    -0.744 OA
ENDBRANCH  49  50
ENDBRANCH  28  42
BRANCH  29  54
ATOM     54  C   UNL A   1      39.743  33.571  38.175  1.00  0.00     0.058 A 
ATOM     55  C   UNL A   1      40.367  34.699  38.731  1.00  0.00     0.135 A 
ATOM     56  C   UNL A   1      38.719  32.970  38.929  1.00  0.00     0.135 A 
ATOM     57  F   UNL A   1      41.362  35.306  38.067  1.00  0.00    -0.206 F 
ATOM     58  C   UNL A   1      40.010  35.196  39.985  1.00  0.00     0.059 A 
ATOM     59  C   UNL A   1      38.332  33.458  40.179  1.00  0.00     0.059 A 
ATOM     60  F   UNL A   1      38.078  31.892  38.451  1.00  0.00    -0.206 F 
ATOM     61  C   UNL A   1      38.990  34.568  40.702  1.00  0.00     0.060 A 
BRANCH  61  62
ATOM     62  S   UNL A   1      38.521  35.244  42.313  1.00  0.00     0.124 S 
ATOM     63  O   UNL A   1      38.970  36.626  42.202  1.00  0.00    -0.237 OA
ATOM     64  O   UNL A   1      37.075  35.040  42.315  1.00  0.00    -0.237 OA
ATOM     65  O   UNL A   1      39.263  34.414  43.258  1.00  0.00    -0.744 OA
ENDBRANCH  61  62
ENDBRANCH  29  54
BRANCH  41  66
ATOM     66  C   UNL A   1      45.439  30.145  36.042  1.00  0.00     0.058 A 
ATOM     67  C   UNL A   1      46.457  31.101  36.163  1.00  0.00     0.135 A 
ATOM     68  C   UNL A   1      45.629  28.891  36.647  1.00  0.00     0.135 A 
ATOM     69  F   UNL A   1      46.322  32.310  35.595  1.00  0.00    -0.206 F 
ATOM     70  C   UNL A   1      47.632  30.817  36.845  1.00  0.00     0.059 A 
ATOM     71  C   UNL A   1      46.778  28.601  37.368  1.00  0.00     0.059 A 
ATOM     72  F   UNL A   1      44.676  27.949  36.568  1.00  0.00    -0.206 F 
ATOM     73  C   UNL A   1      47.778  29.567  37.452  1.00  0.00     0.060 A 
BRANCH  73  74
ATOM     74  S   UNL A   1      49.286  29.233  38.381  1.00  0.00     0.124 S 
ATOM     75  O   UNL A   1      50.209  30.202  37.800  1.00  0.00    -0.237 OA
ATOM     76  O   UNL A   1      48.869  29.498  39.755  1.00  0.00    -0.237 OA
ATOM     77  O   UNL A   1      49.570  27.834  38.077  1.00  0.00    -0.744 OA
ENDBRANCH  73  74
ENDBRANCH  41  66
ENDBRANCH  15  16
ENDBRANCH   8  10
ENDBRANCH   7   8
ENDBRANCH   6   7
ENDBRANCH   5   6
ENDBRANCH   4   5
ENDBRANCH   3   4
ENDBRANCH   2   3
ENDBRANCH   1   2
BRANCH   1  78
ATOM     78  C   UNL A   1      33.864  26.411  25.416  1.00  0.00     0.202 C 
BRANCH  78  79
ATOM     79  C   UNL A   1      33.034  25.500  26.353  1.00  0.00     0.261 C 
BRANCH  79  80
ATOM     80  O   UNL A   1      31.639  25.374  25.994  1.00  0.00    -0.462 OA
BRANCH  80  81
ATOM     81  C   UNL A   1      31.261  24.116  25.688  1.00  0.00     0.328 C 
ATOM     82  O   UNL A   1      30.296  23.553  26.207  1.00  0.00    -0.250 OA
BRANCH  81  83
ATOM     83  C   UNL A   1      32.103  23.389  24.635  1.00  0.00     0.195 C 
ATOM     84  C   UNL A   1      31.821  24.255  23.385  1.00  0.00     0.039 C 
ATOM     85  N   UNL A   1      32.156  22.032  24.066  1.00  0.00    -0.327 N 
ATOM     86  C   UNL A   1      32.427  23.549  22.199  1.00  0.00     0.024 C 
ATOM     87  C   UNL A   1      32.693  22.155  22.692  1.00  0.00     0.120 C 
BRANCH  85  88
ATOM     88  C   UNL A   1      32.416  20.781  24.589  1.00  0.00     0.246 C 
ATOM     89  O   UNL A   1      31.667  20.420  25.519  1.00  0.00    -0.272 OA
BRANCH  88  90
ATOM     90  C   UNL A   1      33.491  19.721  24.203  1.00  0.00     0.178 C 
ATOM     91  C   UNL A   1      33.169  17.742  24.122  1.00  0.00     0.037 C 
ATOM     92  N   UNL A   1      35.244  19.949  24.902  1.00  0.00    -0.296 N 
ATOM     93  C   UNL A   1      34.977  16.826  24.552  1.00  0.00     0.024 C 
ATOM     94  C   UNL A   1      36.262  18.340  24.947  1.00  0.00     0.124 C 
BRANCH  92  95
ATOM     95  C   UNL A   1      35.638  21.083  25.565  1.00  0.00     0.410 C 
ATOM     96  O   UNL A   1      35.137  21.513  26.595  1.00  0.00    -0.224 OA
BRANCH  95  97
ATOM     97  O   UNL A   1      36.548  21.751  24.827  1.00  0.00    -0.448 OA
BRANCH  97  98
ATOM     98  C   UNL A   1      37.920  21.341  24.829  1.00  0.00     0.248 C 
BRANCH  98  99
ATOM     99  C   UNL A   1      38.639  21.584  26.166  1.00  0.00     0.088 C 
ATOM    100  C   UNL A   1      40.007  20.901  26.125  1.00  0.00    -0.029 A 
ATOM    101  C   UNL A   1      39.051  23.029  26.457  1.00  0.00    -0.029 A 
ATOM    102  C   UNL A   1      40.286  19.554  25.958  1.00  0.00     0.005 A 
ATOM    103  C   UNL A   1      41.042  21.853  26.255  1.00  0.00    -0.014 A 
ATOM    104  C   UNL A   1      40.458  23.158  26.453  1.00  0.00    -0.014 A 
ATOM    105  C   UNL A   1      38.251  24.108  26.793  1.00  0.00     0.005 A 
ATOM    106  C   UNL A   1      41.625  19.159  25.927  1.00  0.00     0.000 A 
ATOM    107  C   UNL A   1      42.370  21.460  26.228  1.00  0.00     0.009 A 
ATOM    108  C   UNL A   1      41.067  24.383  26.683  1.00  0.00     0.009 A 
ATOM    109  C   UNL A   1      38.866  25.338  27.062  1.00  0.00     0.000 A 
ATOM    110  C   UNL A   1      42.658  20.103  26.063  1.00  0.00     0.001 A 
ATOM    111  C   UNL A   1      40.260  25.481  26.983  1.00  0.00     0.001 A 
ENDBRANCH  98  99
ENDBRANCH  97  98
ENDBRANCH  95  97
ENDBRANCH  92  95
ENDBRANCH  88  90
ENDBRANCH  85  88
ENDBRANCH  81  83
ENDBRANCH  80  81
ENDBRANCH  79  80
ENDBRANCH  78  79
ENDBRANCH   1  78
TORSDOF 26
ENDMDL
MODEL 3
REMARK VINA RESULT:     -10.4      4.713     10.987
REMARK SMILES O=C(OCCOCCOCCOC(=O)[C@@H]1CCCN1C(=O)[C@@H]1CCCN1C(=O)OCC1c2ccccc2-c2ccccc21)c1ccc(-c2c3nc(c(-c4c(F)cc(S(=O)(=O)[O-])cc4F)c4ccc([nH]4)c(-c4c(F)cc(S(=O)(=O)[O-])cc4F)c4nc(c(-c5c(F)cc(S(=O)(=O)[O-])cc5F)c5ccc2[nH]5)C=C4)C=C3)cc1
REMARK SMILES IDX 9 1 8 2 7 3 6 4 5 5 4 6 3 7 2 8 1 9 44 10 45 11 109 12 46 13
REMARK SMILES IDX 108 14 47 15 48 16 49 17 102 18 50 19 107 20 101 21 103 22
REMARK SMILES IDX 51 23 106 24 100 25 99 26 52 28 86 29 65 30 85 31 66 32
REMARK SMILES IDX 69 33 84 34 104 35 67 36 68 37 83 39 105 40 70 41 53 42
REMARK SMILES IDX 54 43 63 44 55 45 56 46 62 47 64 48 57 49 58 50 59 51 60 52
REMARK SMILES IDX 61 53 87 54 88 55 97 56 89 57 90 58 96 59 98 60 91 61 92 62
REMARK SMILES IDX 93 63 94 64 95 65 71 66 72 67 81 68 73 69 74 70 80 71 82 72
REMARK SMILES IDX 75 73 76 74 77 75 78 76 79 77 10 78 11 79 12 80 13 81 14 82
REMARK SMILES IDX 15 83 16 84 19 85 17 86 18 87 20 88 21 89 22 90 23 91 26 92
REMARK SMILES IDX 24 93 25 94 27 95 28 96 29 97 30 98 31 99 32 100 43 101
REMARK SMILES IDX 33 102 37 103 38 104 42 105 34 106 36 107 39 108 41 109
REMARK SMILES IDX 35 110 40 111
REMARK H PARENT 103 27 69 38
REMARK Flexibility Score: inf
ROOT
ATOM      1  O   UNL A   1      46.292  22.139  25.157  1.00  0.00    -0.376 OA
ENDROOT
BRANCH   1   2
ATOM      2  C   UNL A   1      45.524  21.233  24.373  1.00  0.00     0.188 C 
BRANCH   2   3
ATOM      3  C   UNL A   1      44.623  19.847  24.818  1.00  0.00     0.188 C 
BRANCH   3   4
ATOM      4  O   UNL A   1      42.734  19.529  25.468  1.00  0.00    -0.376 OA
BRANCH   4   5
ATOM      5  C   UNL A   1      41.746  19.794  26.637  1.00  0.00     0.202 C 
BRANCH   5   6
ATOM      6  C   UNL A   1      40.574  20.734  26.318  1.00  0.00     0.261 C 
BRANCH   6   7
ATOM      7  O   UNL A   1      40.598  22.087  26.791  1.00  0.00    -0.460 OA
BRANCH   7   8
ATOM      8  C   UNL A   1      41.393  23.125  26.471  1.00  0.00     0.338 C 
ATOM      9  O   UNL A   1      42.188  23.014  25.541  1.00  0.00    -0.246 OA
BRANCH   8  10
ATOM     10  C   UNL A   1      41.368  24.385  27.251  1.00  0.00     0.060 A 
ATOM     11  C   UNL A   1      42.454  25.260  27.369  1.00  0.00     0.016 A 
ATOM     12  C   UNL A   1      40.171  24.691  27.907  1.00  0.00     0.016 A 
ATOM     13  C   UNL A   1      42.293  26.517  27.965  1.00  0.00     0.010 A 
ATOM     14  C   UNL A   1      40.041  25.898  28.597  1.00  0.00     0.010 A 
ATOM     15  C   UNL A   1      41.086  26.839  28.594  1.00  0.00    -0.014 A 
BRANCH  15  16
ATOM     16  C   UNL A   1      41.075  27.931  29.594  1.00  0.00     0.031 A 
ATOM     17  C   UNL A   1      42.073  27.757  30.694  1.00  0.00     0.074 A 
ATOM     18  C   UNL A   1      40.312  29.041  29.531  1.00  0.00     0.049 A 
ATOM     19  N   UNL A   1      42.403  28.590  31.638  1.00  0.00    -0.248 NA
ATOM     20  C   UNL A   1      42.876  26.516  30.669  1.00  0.00     0.031 C 
ATOM     21  C   UNL A   1      39.439  29.421  28.428  1.00  0.00     0.029 A 
ATOM     22  N   UNL A   1      40.125  30.054  30.442  1.00  0.00    -0.354 N 
ATOM     23  C   UNL A   1      43.517  28.025  32.237  1.00  0.00     0.074 A 
ATOM     24  C   UNL A   1      43.753  26.741  31.627  1.00  0.00     0.031 C 
ATOM     25  C   UNL A   1      38.703  30.493  28.783  1.00  0.00     0.029 A 
ATOM     26  C   UNL A   1      39.087  30.903  30.125  1.00  0.00     0.049 A 
ATOM     27  H   UNL A   1      40.682  30.162  31.247  1.00  0.00     0.167 HD
ATOM     28  C   UNL A   1      44.308  28.565  33.183  1.00  0.00     0.037 A 
ATOM     29  C   UNL A   1      38.517  31.889  30.848  1.00  0.00     0.037 A 
ATOM     30  C   UNL A   1      43.984  29.784  33.858  1.00  0.00     0.049 A 
ATOM     31  C   UNL A   1      39.230  32.313  32.106  1.00  0.00     0.074 A 
ATOM     32  C   UNL A   1      44.655  30.396  34.895  1.00  0.00     0.029 A 
ATOM     33  N   UNL A   1      42.853  30.546  33.591  1.00  0.00    -0.354 N 
ATOM     34  N   UNL A   1      40.326  31.814  32.629  1.00  0.00    -0.248 NA
ATOM     35  C   UNL A   1      38.695  33.476  32.824  1.00  0.00     0.031 C 
ATOM     36  C   UNL A   1      43.886  31.486  35.311  1.00  0.00     0.029 A 
ATOM     37  C   UNL A   1      42.779  31.600  34.479  1.00  0.00     0.049 A 
ATOM     38  H   UNL A   1      42.202  30.361  32.876  1.00  0.00     0.167 HD
ATOM     39  C   UNL A   1      40.660  32.650  33.684  1.00  0.00     0.074 A 
ATOM     40  C   UNL A   1      39.631  33.670  33.743  1.00  0.00     0.031 C 
ATOM     41  C   UNL A   1      41.740  32.601  34.503  1.00  0.00     0.037 A 
BRANCH  28  42
ATOM     42  C   UNL A   1      45.530  27.785  33.541  1.00  0.00     0.058 A 
ATOM     43  C   UNL A   1      45.569  26.978  34.692  1.00  0.00     0.135 A 
ATOM     44  C   UNL A   1      46.700  27.913  32.782  1.00  0.00     0.135 A 
ATOM     45  F   UNL A   1      44.489  26.872  35.485  1.00  0.00    -0.206 F 
ATOM     46  C   UNL A   1      46.736  26.336  35.086  1.00  0.00     0.059 A 
ATOM     47  C   UNL A   1      47.871  27.260  33.144  1.00  0.00     0.059 A 
ATOM     48  F   UNL A   1      46.720  28.707  31.701  1.00  0.00    -0.206 F 
ATOM     49  C   UNL A   1      47.881  26.481  34.302  1.00  0.00     0.060 A 
BRANCH  49  50
ATOM     50  S   UNL A   1      49.386  25.632  34.818  1.00  0.00     0.124 S 
ATOM     51  O   UNL A   1      48.970  24.234  34.758  1.00  0.00    -0.237 OA
ATOM     52  O   UNL A   1      50.342  26.053  33.799  1.00  0.00    -0.237 OA
ATOM     53  O   UNL A   1      49.630  26.157  36.158  1.00  0.00    -0.744 OA
ENDBRANCH  49  50
ENDBRANCH  28  42
BRANCH  29  54
ATOM     54  C   UNL A   1      37.260  32.566  30.411  1.00  0.00     0.058 A 
ATOM     55  C   UNL A   1      37.271  33.694  29.576  1.00  0.00     0.135 A 
ATOM     56  C   UNL A   1      36.008  32.129  30.877  1.00  0.00     0.135 A 
ATOM     57  F   UNL A   1      38.437  34.169  29.112  1.00  0.00    -0.206 F 
ATOM     58  C   UNL A   1      36.100  34.373  29.236  1.00  0.00     0.059 A 
ATOM     59  C   UNL A   1      34.820  32.780  30.539  1.00  0.00     0.059 A 
ATOM     60  F   UNL A   1      35.927  31.051  31.674  1.00  0.00    -0.206 F 
ATOM     61  C   UNL A   1      34.878  33.908  29.723  1.00  0.00     0.060 A 
BRANCH  61  62
ATOM     62  S   UNL A   1      33.366  34.782  29.250  1.00  0.00     0.124 S 
ATOM     63  O   UNL A   1      33.877  35.782  28.320  1.00  0.00    -0.237 OA
ATOM     64  O   UNL A   1      32.570  33.709  28.661  1.00  0.00    -0.237 OA
ATOM     65  O   UNL A   1      32.863  35.299  30.519  1.00  0.00    -0.744 OA
ENDBRANCH  61  62
ENDBRANCH  29  54
BRANCH  41  66
ATOM     66  C   UNL A   1      41.900  33.712  35.498  1.00  0.00     0.058 A 
ATOM     67  C   UNL A   1      41.570  33.551  36.850  1.00  0.00     0.135 A 
ATOM     68  C   UNL A   1      42.479  34.928  35.095  1.00  0.00     0.135 A 
ATOM     69  F   UNL A   1      41.009  32.408  37.279  1.00  0.00    -0.206 F 
ATOM     70  C   UNL A   1      41.789  34.567  37.770  1.00  0.00     0.059 A 
ATOM     71  C   UNL A   1      42.744  35.941  36.006  1.00  0.00     0.059 A 
ATOM     72  F   UNL A   1      42.824  35.124  33.812  1.00  0.00    -0.206 F 
ATOM     73  C   UNL A   1      42.385  35.755  37.339  1.00  0.00     0.060 A 
BRANCH  73  74
ATOM     74  S   UNL A   1      42.714  37.044  38.555  1.00  0.00     0.124 S 
ATOM     75  O   UNL A   1      43.666  37.886  37.839  1.00  0.00    -0.237 OA
ATOM     76  O   UNL A   1      41.388  37.620  38.762  1.00  0.00    -0.237 OA
ATOM     77  O   UNL A   1      43.256  36.308  39.693  1.00  0.00    -0.744 OA
ENDBRANCH  73  74
ENDBRANCH  41  66
ENDBRANCH  15  16
ENDBRANCH   8  10
ENDBRANCH   7   8
ENDBRANCH   6   7
ENDBRANCH   5   6
ENDBRANCH   4   5
ENDBRANCH   3   4
ENDBRANCH   2   3
ENDBRANCH   1   2
BRANCH   1  78
ATOM     78  C   UNL A   1      45.856  23.322  25.819  1.00  0.00     0.202 C 
BRANCH  78  79
ATOM     79  C   UNL A   1      45.290  24.530  25.035  1.00  0.00     0.261 C 
BRANCH  79  80
ATOM     80  O   UNL A   1      46.254  25.570  24.749  1.00  0.00    -0.462 OA
BRANCH  80  81
ATOM     81  C   UNL A   1      45.922  26.780  25.245  1.00  0.00     0.328 C 
ATOM     82  O   UNL A   1      44.760  27.140  25.431  1.00  0.00    -0.250 OA
BRANCH  81  83
ATOM     83  C   UNL A   1      47.085  27.720  25.582  1.00  0.00     0.195 C 
ATOM     84  C   UNL A   1      48.267  26.970  24.923  1.00  0.00     0.039 C 
ATOM     85  N   UNL A   1      47.701  28.254  26.807  1.00  0.00    -0.327 N 
ATOM     86  C   UNL A   1      49.535  27.672  25.338  1.00  0.00     0.024 C 
ATOM     87  C   UNL A   1      49.120  28.535  26.496  1.00  0.00     0.120 C 
BRANCH  85  88
ATOM     88  C   UNL A   1      47.251  29.057  27.836  1.00  0.00     0.246 C 
ATOM     89  O   UNL A   1      47.787  28.863  28.945  1.00  0.00    -0.272 OA
BRANCH  88  90
ATOM     90  C   UNL A   1      46.182  30.191  27.848  1.00  0.00     0.178 C 
ATOM     91  C   UNL A   1      44.740  30.420  26.471  1.00  0.00     0.037 C 
ATOM     92  N   UNL A   1      46.761  31.941  28.312  1.00  0.00    -0.296 N 
ATOM     93  C   UNL A   1      44.318  32.446  26.382  1.00  0.00     0.024 C 
ATOM     94  C   UNL A   1      45.611  33.318  27.672  1.00  0.00     0.124 C 
BRANCH  92  95
ATOM     95  C   UNL A   1      48.013  32.204  28.805  1.00  0.00     0.410 C 
ATOM     96  O   UNL A   1      49.067  31.963  28.231  1.00  0.00    -0.224 OA
BRANCH  95  97
ATOM     97  O   UNL A   1      47.923  32.611  30.088  1.00  0.00    -0.448 OA
BRANCH  97  98
ATOM     98  C   UNL A   1      47.639  31.668  31.127  1.00  0.00     0.248 C 
BRANCH  98  99
ATOM     99  C   UNL A   1      46.423  32.042  31.990  1.00  0.00     0.088 C 
ATOM    100  C   UNL A   1      46.637  33.440  32.571  1.00  0.00    -0.029 A 
ATOM    101  C   UNL A   1      45.102  32.243  31.243  1.00  0.00    -0.029 A 
ATOM    102  C   UNL A   1      47.653  33.871  33.410  1.00  0.00     0.005 A 
ATOM    103  C   UNL A   1      45.640  34.328  32.112  1.00  0.00    -0.014 A 
ATOM    104  C   UNL A   1      44.701  33.597  31.294  1.00  0.00    -0.014 A 
ATOM    105  C   UNL A   1      44.283  31.293  30.658  1.00  0.00     0.005 A 
ATOM    106  C   UNL A   1      47.661  35.213  33.796  1.00  0.00     0.000 A 
ATOM    107  C   UNL A   1      45.646  35.657  32.499  1.00  0.00     0.009 A 
ATOM    108  C   UNL A   1      43.536  34.023  30.675  1.00  0.00     0.009 A 
ATOM    109  C   UNL A   1      43.086  31.716  30.064  1.00  0.00     0.000 A 
ATOM    110  C   UNL A   1      46.665  36.098  33.346  1.00  0.00     0.001 A 
ATOM    111  C   UNL A   1      42.727  33.073  30.050  1.00  0.00     0.001 A 
ENDBRANCH  98  99
ENDBRANCH  97  98
ENDBRANCH  95  97
ENDBRANCH  92  95
ENDBRANCH  88  90
ENDBRANCH  85  88
ENDBRANCH  81  83
ENDBRANCH  80  81
ENDBRANCH  79  80
ENDBRANCH  78  79
ENDBRANCH   1  78
TORSDOF 26
ENDMDL
