MODEL 1
REMARK VINA RESULT:      -7.7      0.000      0.000
REMARK SMILES Cc1ccc(C(c2ccccc2)(c2ccccc2)n2cnc(C[C@H]([NH3+])C(=O)OCCOCCOCCOC(=O)c3ccc(-c4c5nc(c(-c6c(F)cc(S(=O)(=O)[O-])cc6F)c6ccc([nH]6)c(-c6c(F)cc(S(=O)(=O)[O-])cc6F)c6nc(c(-c7c(F)cc(S(=O)(=O)[O-])cc7F)c7ccc4[nH]7)C=C6)C=C5)cc3)c2)cc1
REMARK SMILES IDX 32 1 31 2 30 3 29 4 28 5 26 6 27 7 24 8 23 9 22 10 19 11
REMARK SMILES IDX 20 12 106 13 21 14 6 15 5 16 1 17 2 18 3 19 108 20 4 21
REMARK SMILES IDX 107 22 7 23 8 24 12 25 9 26 11 27 10 28 13 29 14 30 18 31
REMARK SMILES IDX 15 32 17 33 16 34 25 35 33 39 34 40 35 41 36 42 37 43 38 44
REMARK SMILES IDX 39 45 40 46 41 47 105 48 42 49 104 50 43 51 44 52 45 53
REMARK SMILES IDX 98 54 46 55 103 56 97 57 99 58 47 59 102 60 96 61 95 62
REMARK SMILES IDX 48 64 82 65 61 66 81 67 62 68 65 69 80 70 100 71 63 72 64 73
REMARK SMILES IDX 79 75 101 76 66 77 49 78 50 79 59 80 51 81 52 82 58 83 60 84
REMARK SMILES IDX 53 85 54 86 55 87 56 88 57 89 83 90 84 91 93 92 85 93 86 94
REMARK SMILES IDX 92 95 94 96 87 97 88 98 89 99 90 100 91 101 67 102 68 103
REMARK SMILES IDX 77 104 69 105 70 106 76 107 78 108 71 109 72 110 73 111
REMARK SMILES IDX 74 112 75 113
REMARK H PARENT 25 36 25 37 25 38 99 63 65 74
REMARK Flexibility Score: inf
ROOT
ATOM      1  C   UNL A   1      49.797  36.504  29.993  1.00  0.00     0.188 C 
ENDROOT
BRANCH   1   2
ATOM      2  O   UNL A   1      48.759  36.280  30.924  1.00  0.00    -0.376 OA
BRANCH   2   3
ATOM      3  C   UNL A   1      49.168  35.495  32.020  1.00  0.00     0.202 C 
BRANCH   3   4
ATOM      4  C   UNL A   1      48.159  35.105  33.123  1.00  0.00     0.261 C 
BRANCH   4   5
ATOM      5  O   UNL A   1      47.308  36.277  34.082  1.00  0.00    -0.459 OA
BRANCH   5   6
ATOM      6  C   UNL A   1      46.928  37.090  35.197  1.00  0.00     0.365 C 
ATOM      7  O   UNL A   1      47.891  37.787  35.544  1.00  0.00    -0.245 OA
BRANCH   6   8
ATOM      8  C   UNL A   1      45.669  37.257  36.358  1.00  0.00     0.297 C 
BRANCH   8   9
ATOM      9  C   UNL A   1      44.119  37.003  36.590  1.00  0.00     0.135 C 
BRANCH   9  10
ATOM     10  C   UNL A   1      43.373  36.571  35.354  1.00  0.00     0.065 A 
ATOM     11  N   UNL A   1      42.712  35.414  33.560  1.00  0.00    -0.319 N 
ATOM     12  C   UNL A   1      42.995  36.727  33.281  1.00  0.00     0.201 A 
ATOM     13  C   UNL A   1      42.863  35.338  34.948  1.00  0.00     0.112 A 
ATOM     14  N   UNL A   1      43.330  37.437  34.320  1.00  0.00    -0.241 NA
BRANCH  11  15
ATOM     15  C   UNL A   1      42.671  34.298  32.491  1.00  0.00     0.121 C 
BRANCH  15  16
ATOM     16  C   UNL A   1      42.990  34.960  31.025  1.00  0.00    -0.013 A 
ATOM     17  C   UNL A   1      43.510  38.272  26.958  1.00  0.00     0.044 C 
ATOM     18  C   UNL A   1      43.363  37.322  28.091  1.00  0.00    -0.051 A 
ATOM     19  C   UNL A   1      44.556  37.397  29.419  1.00  0.00     0.004 A 
ATOM     20  C   UNL A   1      42.073  36.106  28.230  1.00  0.00     0.004 A 
ATOM     21  C   UNL A   1      44.355  36.107  30.959  1.00  0.00     0.007 A 
ATOM     22  C   UNL A   1      41.944  34.948  29.600  1.00  0.00     0.007 A 
ENDBRANCH  15  16
BRANCH  15  23
ATOM     23  C   UNL A   1      43.858  33.270  32.872  1.00  0.00    -0.013 A 
ATOM     24  C   UNL A   1      44.680  33.448  34.022  1.00  0.00     0.007 A 
ATOM     25  C   UNL A   1      44.308  32.293  31.960  1.00  0.00     0.007 A 
ATOM     26  C   UNL A   1      45.856  32.714  34.236  1.00  0.00     0.000 A 
ATOM     27  C   UNL A   1      45.515  31.596  32.147  1.00  0.00     0.000 A 
ATOM     28  C   UNL A   1      46.284  31.798  33.288  1.00  0.00     0.000 A 
ENDBRANCH  15  23
BRANCH  15  29
ATOM     29  C   UNL A   1      41.210  33.694  32.637  1.00  0.00    -0.013 A 
ATOM     30  C   UNL A   1      40.155  34.475  33.156  1.00  0.00     0.007 A 
ATOM     31  C   UNL A   1      40.948  32.304  32.599  1.00  0.00     0.007 A 
ATOM     32  C   UNL A   1      38.910  33.943  33.513  1.00  0.00     0.000 A 
ATOM     33  C   UNL A   1      39.731  31.753  33.032  1.00  0.00     0.000 A 
ATOM     34  C   UNL A   1      38.702  32.575  33.466  1.00  0.00     0.000 A 
ENDBRANCH  15  29
ENDBRANCH  11  15
ENDBRANCH   9  10
ENDBRANCH   8   9
BRANCH   8  35
ATOM     35  N   UNL A   1      45.876  38.667  36.965  1.00  0.00    -0.346 N 
ATOM     36  H   UNL A   1      45.730  38.627  37.974  1.00  0.00     0.345 HD
ATOM     37  H   UNL A   1      45.207  39.317  36.550  1.00  0.00     0.345 HD
ATOM     38  H   UNL A   1      46.825  38.985  36.771  1.00  0.00     0.345 HD
ENDBRANCH   8  35
ENDBRANCH   6   8
ENDBRANCH   5   6
ENDBRANCH   4   5
ENDBRANCH   3   4
ENDBRANCH   2   3
ENDBRANCH   1   2
BRANCH   1  39
ATOM     39  C   UNL A   1      49.477  37.524  28.923  1.00  0.00     0.188 C 
BRANCH  39  40
ATOM     40  O   UNL A   1      48.123  37.931  28.916  1.00  0.00    -0.376 OA
BRANCH  40  41
ATOM     41  C   UNL A   1      47.567  38.784  27.959  1.00  0.00     0.202 C 
BRANCH  41  42
ATOM     42  C   UNL A   1      48.007  38.221  26.648  1.00  0.00     0.261 C 
BRANCH  42  43
ATOM     43  O   UNL A   1      47.022  37.241  26.132  1.00  0.00    -0.460 OA
BRANCH  43  44
ATOM     44  C   UNL A   1      47.160  35.868  26.120  1.00  0.00     0.338 C 
ATOM     45  O   UNL A   1      48.177  35.344  25.675  1.00  0.00    -0.246 OA
BRANCH  44  46
ATOM     46  C   UNL A   1      46.164  35.018  26.897  1.00  0.00     0.060 A 
ATOM     47  C   UNL A   1      46.441  34.606  28.193  1.00  0.00     0.016 A 
ATOM     48  C   UNL A   1      44.967  34.531  26.372  1.00  0.00     0.016 A 
ATOM     49  C   UNL A   1      45.666  33.577  28.783  1.00  0.00     0.010 A 
ATOM     50  C   UNL A   1      44.374  33.341  26.903  1.00  0.00     0.010 A 
ATOM     51  C   UNL A   1      44.906  32.685  28.031  1.00  0.00    -0.014 A 
BRANCH  51  52
ATOM     52  C   UNL A   1      44.612  31.083  28.336  1.00  0.00     0.031 A 
ATOM     53  C   UNL A   1      45.776  30.322  27.865  1.00  0.00     0.074 A 
ATOM     54  C   UNL A   1      43.506  30.251  28.816  1.00  0.00     0.049 A 
ATOM     55  N   UNL A   1      45.736  29.078  27.543  1.00  0.00    -0.248 NA
ATOM     56  C   UNL A   1      47.011  30.984  27.397  1.00  0.00     0.031 C 
ATOM     57  C   UNL A   1      43.615  29.393  30.069  1.00  0.00     0.029 A 
ATOM     58  N   UNL A   1      42.074  30.405  28.893  1.00  0.00    -0.354 N 
ATOM     59  C   UNL A   1      47.049  28.742  27.411  1.00  0.00     0.074 A 
ATOM     60  C   UNL A   1      47.666  29.933  26.907  1.00  0.00     0.031 C 
ATOM     61  C   UNL A   1      42.404  29.182  30.669  1.00  0.00     0.029 A 
ATOM     62  C   UNL A   1      41.325  29.768  29.863  1.00  0.00     0.049 A 
ATOM     63  H   UNL A   1      41.618  30.979  28.236  1.00  0.00     0.167 HD
ATOM     64  C   UNL A   1      47.524  27.764  28.231  1.00  0.00     0.037 A 
ATOM     65  C   UNL A   1      40.071  29.314  29.521  1.00  0.00     0.037 A 
ATOM     66  C   UNL A   1      46.430  27.204  29.090  1.00  0.00     0.049 A 
ATOM     67  C   UNL A   1      40.396  27.909  29.071  1.00  0.00     0.074 A 
ATOM     68  C   UNL A   1      46.216  27.081  30.454  1.00  0.00     0.029 A 
ATOM     69  N   UNL A   1      45.171  26.930  28.541  1.00  0.00    -0.354 N 
ATOM     70  N   UNL A   1      41.614  27.471  29.251  1.00  0.00    -0.248 NA
ATOM     71  C   UNL A   1      39.558  26.873  28.507  1.00  0.00     0.031 C 
ATOM     72  C   UNL A   1      44.902  26.531  30.666  1.00  0.00     0.029 A 
ATOM     73  C   UNL A   1      44.277  26.382  29.440  1.00  0.00     0.049 A 
ATOM     74  H   UNL A   1      44.945  27.111  27.601  1.00  0.00     0.167 HD
ATOM     75  C   UNL A   1      41.821  26.225  28.865  1.00  0.00     0.074 A 
ATOM     76  C   UNL A   1      40.462  25.871  28.394  1.00  0.00     0.031 C 
ATOM     77  C   UNL A   1      43.093  25.709  28.925  1.00  0.00     0.037 A 
BRANCH  64  78
ATOM     78  C   UNL A   1      49.008  27.487  28.437  1.00  0.00     0.058 A 
ATOM     79  C   UNL A   1      49.706  28.259  29.383  1.00  0.00     0.135 A 
ATOM     80  C   UNL A   1      49.808  26.502  27.797  1.00  0.00     0.135 A 
ATOM     81  F   UNL A   1      49.081  29.182  30.125  1.00  0.00    -0.206 F 
ATOM     82  C   UNL A   1      51.070  28.106  29.638  1.00  0.00     0.059 A 
ATOM     83  C   UNL A   1      51.172  26.327  28.040  1.00  0.00     0.059 A 
ATOM     84  F   UNL A   1      49.339  25.628  26.906  1.00  0.00    -0.206 F 
ATOM     85  C   UNL A   1      51.797  27.138  28.961  1.00  0.00     0.060 A 
BRANCH  85  86
ATOM     86  S   UNL A   1      53.543  26.936  29.333  1.00  0.00     0.124 S 
ATOM     87  O   UNL A   1      53.499  26.096  30.525  1.00  0.00    -0.237 OA
ATOM     88  O   UNL A   1      54.036  26.298  28.118  1.00  0.00    -0.237 OA
ATOM     89  O   UNL A   1      54.007  28.303  29.553  1.00  0.00    -0.744 OA
ENDBRANCH  85  86
ENDBRANCH  64  78
BRANCH  65  90
ATOM     90  C   UNL A   1      39.065  30.371  29.010  1.00  0.00     0.058 A 
ATOM     91  C   UNL A   1      37.851  29.888  28.452  1.00  0.00     0.135 A 
ATOM     92  C   UNL A   1      39.027  31.746  29.312  1.00  0.00     0.135 A 
ATOM     93  F   UNL A   1      37.796  28.624  27.997  1.00  0.00    -0.206 F 
ATOM     94  C   UNL A   1      36.634  30.612  28.450  1.00  0.00     0.059 A 
ATOM     95  C   UNL A   1      37.806  32.493  29.339  1.00  0.00     0.059 A 
ATOM     96  F   UNL A   1      40.142  32.376  29.709  1.00  0.00    -0.206 F 
ATOM     97  C   UNL A   1      36.591  31.869  29.042  1.00  0.00     0.060 A 
BRANCH  97  98
ATOM     98  S   UNL A   1      34.993  32.501  29.758  1.00  0.00     0.124 S 
ATOM     99  O   UNL A   1      35.122  33.946  29.609  1.00  0.00    -0.237 OA
ATOM    100  O   UNL A   1      33.972  31.891  28.904  1.00  0.00    -0.237 OA
ATOM    101  O   UNL A   1      34.967  32.014  31.130  1.00  0.00    -0.744 OA
ENDBRANCH  97  98
ENDBRANCH  65  90
BRANCH  77 102
ATOM    102  C   UNL A   1      43.353  24.485  28.163  1.00  0.00     0.058 A 
ATOM    103  C   UNL A   1      42.942  22.993  29.013  1.00  0.00     0.135 A 
ATOM    104  C   UNL A   1      43.335  24.633  26.394  1.00  0.00     0.135 A 
ATOM    105  F   UNL A   1      43.045  22.972  30.354  1.00  0.00    -0.206 F 
ATOM    106  C   UNL A   1      42.359  21.576  28.225  1.00  0.00     0.059 A 
ATOM    107  C   UNL A   1      42.781  23.246  25.440  1.00  0.00     0.059 A 
ATOM    108  F   UNL A   1      43.730  25.700  25.696  1.00  0.00    -0.206 F 
ATOM    109  C   UNL A   1      42.235  21.566  26.418  1.00  0.00     0.060 A 
BRANCH 109 110
ATOM    110  S   UNL A   1      41.989  19.600  26.092  1.00  0.00     0.124 S 
ATOM    111  O   UNL A   1      40.539  19.511  25.891  1.00  0.00    -0.237 OA
ATOM    112  O   UNL A   1      42.777  19.421  24.876  1.00  0.00    -0.237 OA
ATOM    113  O   UNL A   1      42.414  18.828  27.257  1.00  0.00    -0.744 OA
ENDBRANCH 109 110
ENDBRANCH  77 102
ENDBRANCH  51  52
ENDBRANCH  44  46
ENDBRANCH  43  44
ENDBRANCH  42  43
ENDBRANCH  41  42
ENDBRANCH  40  41
ENDBRANCH  39  40
ENDBRANCH   1  39
TORSDOF 27
ENDMDL
MODEL 2
REMARK VINA RESULT:      -7.7      6.054     13.280
REMARK SMILES Cc1ccc(C(c2ccccc2)(c2ccccc2)n2cnc(C[C@H]([NH3+])C(=O)OCCOCCOCCOC(=O)c3ccc(-c4c5nc(c(-c6c(F)cc(S(=O)(=O)[O-])cc6F)c6ccc([nH]6)c(-c6c(F)cc(S(=O)(=O)[O-])cc6F)c6nc(c(-c7c(F)cc(S(=O)(=O)[O-])cc7F)c7ccc4[nH]7)C=C6)C=C5)cc3)c2)cc1
REMARK SMILES IDX 32 1 31 2 30 3 29 4 28 5 26 6 27 7 24 8 23 9 22 10 19 11
REMARK SMILES IDX 20 12 106 13 21 14 6 15 5 16 1 17 2 18 3 19 108 20 4 21
REMARK SMILES IDX 107 22 7 23 8 24 12 25 9 26 11 27 10 28 13 29 14 30 18 31
REMARK SMILES IDX 15 32 17 33 16 34 25 35 33 39 34 40 35 41 36 42 37 43 38 44
REMARK SMILES IDX 39 45 40 46 41 47 105 48 42 49 104 50 43 51 44 52 45 53
REMARK SMILES IDX 98 54 46 55 103 56 97 57 99 58 47 59 102 60 96 61 95 62
REMARK SMILES IDX 48 64 82 65 61 66 81 67 62 68 65 69 80 70 100 71 63 72 64 73
REMARK SMILES IDX 79 75 101 76 66 77 49 78 50 79 59 80 51 81 52 82 58 83 60 84
REMARK SMILES IDX 53 85 54 86 55 87 56 88 57 89 83 90 84 91 93 92 85 93 86 94
REMARK SMILES IDX 92 95 94 96 87 97 88 98 89 99 90 100 91 101 67 102 68 103
REMARK SMILES IDX 77 104 69 105 70 106 76 107 78 108 71 109 72 110 73 111
REMARK SMILES IDX 74 112 75 113
REMARK H PARENT 25 36 25 37 25 38 99 63 65 74
REMARK Flexibility Score: inf
ROOT
ATOM      1  C   UNL A   1      46.816  26.287  25.020  1.00  0.00     0.188 C 
ENDROOT
BRANCH   1   2
ATOM      2  O   UNL A   1      45.480  25.991  24.667  1.00  0.00    -0.376 OA
BRANCH   2   3
ATOM      3  C   UNL A   1      44.848  25.135  25.589  1.00  0.00     0.202 C 
BRANCH   3   4
ATOM      4  C   UNL A   1      44.224  23.802  25.119  1.00  0.00     0.261 C 
BRANCH   4   5
ATOM      5  O   UNL A   1      42.571  23.370  25.433  1.00  0.00    -0.459 OA
BRANCH   5   6
ATOM      6  C   UNL A   1      41.359  23.094  26.142  1.00  0.00     0.365 C 
ATOM      7  O   UNL A   1      41.141  21.876  26.125  1.00  0.00    -0.245 OA
BRANCH   6   8
ATOM      8  C   UNL A   1      39.989  23.898  26.804  1.00  0.00     0.297 C 
BRANCH   8   9
ATOM      9  C   UNL A   1      38.478  23.676  27.238  1.00  0.00     0.135 C 
BRANCH   9  10
ATOM     10  C   UNL A   1      37.487  23.796  26.109  1.00  0.00     0.065 A 
ATOM     11  N   UNL A   1      35.670  23.542  24.833  1.00  0.00    -0.319 N 
ATOM     12  C   UNL A   1      36.840  23.283  24.164  1.00  0.00     0.201 A 
ATOM     13  C   UNL A   1      36.105  23.980  26.088  1.00  0.00     0.112 A 
ATOM     14  N   UNL A   1      37.917  23.477  24.870  1.00  0.00    -0.241 NA
BRANCH  11  15
ATOM     15  C   UNL A   1      34.285  23.035  24.370  1.00  0.00     0.121 C 
BRANCH  15  16
ATOM     16  C   UNL A   1      34.388  21.428  24.062  1.00  0.00    -0.013 A 
ATOM     17  C   UNL A   1      33.831  16.188  24.208  1.00  0.00     0.044 C 
ATOM     18  C   UNL A   1      34.007  17.662  24.157  1.00  0.00    -0.051 A 
ATOM     19  C   UNL A   1      32.680  18.651  23.482  1.00  0.00     0.004 A 
ATOM     20  C   UNL A   1      35.451  18.530  24.727  1.00  0.00     0.004 A 
ATOM     21  C   UNL A   1      32.918  20.654  23.413  1.00  0.00     0.007 A 
ATOM     22  C   UNL A   1      35.645  20.315  24.619  1.00  0.00     0.007 A 
ENDBRANCH  15  16
BRANCH  15  23
ATOM     23  C   UNL A   1      33.285  23.267  25.618  1.00  0.00    -0.013 A 
ATOM     24  C   UNL A   1      33.351  22.478  26.803  1.00  0.00     0.007 A 
ATOM     25  C   UNL A   1      32.139  24.080  25.503  1.00  0.00     0.007 A 
ATOM     26  C   UNL A   1      32.350  22.500  27.786  1.00  0.00     0.000 A 
ATOM     27  C   UNL A   1      31.110  24.061  26.462  1.00  0.00     0.000 A 
ATOM     28  C   UNL A   1      31.218  23.279  27.607  1.00  0.00     0.000 A 
ENDBRANCH  15  23
BRANCH  15  29
ATOM     29  C   UNL A   1      33.964  23.930  23.099  1.00  0.00    -0.013 A 
ATOM     30  C   UNL A   1      33.974  25.340  23.188  1.00  0.00     0.007 A 
ATOM     31  C   UNL A   1      33.330  23.419  21.943  1.00  0.00     0.007 A 
ATOM     32  C   UNL A   1      33.489  26.175  22.175  1.00  0.00     0.000 A 
ATOM     33  C   UNL A   1      32.768  24.251  20.960  1.00  0.00     0.000 A 
ATOM     34  C   UNL A   1      32.869  25.630  21.063  1.00  0.00     0.000 A 
ENDBRANCH  15  29
ENDBRANCH  11  15
ENDBRANCH   9  10
ENDBRANCH   8   9
BRANCH   8  35
ATOM     35  N   UNL A   1      39.932  25.257  26.063  1.00  0.00    -0.346 N 
ATOM     36  H   UNL A   1      40.165  25.118  25.079  1.00  0.00     0.345 HD
ATOM     37  H   UNL A   1      40.603  25.901  26.483  1.00  0.00     0.345 HD
ATOM     38  H   UNL A   1      38.994  25.647  26.138  1.00  0.00     0.345 HD
ENDBRANCH   8  35
ENDBRANCH   6   8
ENDBRANCH   5   6
ENDBRANCH   4   5
ENDBRANCH   3   4
ENDBRANCH   2   3
ENDBRANCH   1   2
BRANCH   1  39
ATOM     39  C   UNL A   1      46.967  27.336  26.098  1.00  0.00     0.188 C 
BRANCH  39  40
ATOM     40  O   UNL A   1      46.019  27.217  27.141  1.00  0.00    -0.376 OA
BRANCH  40  41
ATOM     41  C   UNL A   1      46.207  27.721  28.430  1.00  0.00     0.202 C 
BRANCH  41  42
ATOM     42  C   UNL A   1      46.100  26.529  29.323  1.00  0.00     0.261 C 
BRANCH  42  43
ATOM     43  O   UNL A   1      44.801  26.514  30.038  1.00  0.00    -0.460 OA
BRANCH  43  44
ATOM     44  C   UNL A   1      43.548  26.486  29.462  1.00  0.00     0.338 C 
ATOM     45  O   UNL A   1      43.097  25.447  28.990  1.00  0.00    -0.246 OA
BRANCH  44  46
ATOM     46  C   UNL A   1      42.624  27.683  29.646  1.00  0.00     0.060 A 
ATOM     47  C   UNL A   1      43.107  28.978  29.524  1.00  0.00     0.016 A 
ATOM     48  C   UNL A   1      41.282  27.591  30.014  1.00  0.00     0.016 A 
ATOM     49  C   UNL A   1      42.329  30.064  29.995  1.00  0.00     0.010 A 
ATOM     50  C   UNL A   1      40.642  28.677  30.694  1.00  0.00     0.010 A 
ATOM     51  C   UNL A   1      41.297  29.904  30.917  1.00  0.00    -0.014 A 
BRANCH  51  52
ATOM     52  C   UNL A   1      40.833  30.942  32.122  1.00  0.00     0.031 A 
ATOM     53  C   UNL A   1      41.487  30.502  33.361  1.00  0.00     0.074 A 
ATOM     54  C   UNL A   1      39.898  32.054  32.301  1.00  0.00     0.049 A 
ATOM     55  N   UNL A   1      41.049  30.774  34.539  1.00  0.00    -0.248 NA
ATOM     56  C   UNL A   1      42.505  29.431  33.375  1.00  0.00     0.031 C 
ATOM     57  C   UNL A   1      40.356  33.448  32.708  1.00  0.00     0.029 A 
ATOM     58  N   UNL A   1      38.710  32.507  31.620  1.00  0.00    -0.354 N 
ATOM     59  C   UNL A   1      42.071  30.391  35.353  1.00  0.00     0.074 A 
ATOM     60  C   UNL A   1      42.644  29.259  34.688  1.00  0.00     0.031 C 
ATOM     61  C   UNL A   1      39.512  34.430  32.266  1.00  0.00     0.029 A 
ATOM     62  C   UNL A   1      38.341  33.838  31.607  1.00  0.00     0.049 A 
ATOM     63  H   UNL A   1      38.146  31.849  31.152  1.00  0.00     0.167 HD
ATOM     64  C   UNL A   1      42.635  31.354  36.133  1.00  0.00     0.037 A 
ATOM     65  C   UNL A   1      36.998  34.139  31.653  1.00  0.00     0.037 A 
ATOM     66  C   UNL A   1      41.932  32.668  35.961  1.00  0.00     0.049 A 
ATOM     67  C   UNL A   1      36.791  34.258  33.145  1.00  0.00     0.074 A 
ATOM     68  C   UNL A   1      42.311  33.942  35.570  1.00  0.00     0.029 A 
ATOM     69  N   UNL A   1      40.534  32.719  35.911  1.00  0.00    -0.354 N 
ATOM     70  N   UNL A   1      37.843  34.213  33.919  1.00  0.00    -0.248 NA
ATOM     71  C   UNL A   1      35.592  34.490  33.922  1.00  0.00     0.031 C 
ATOM     72  C   UNL A   1      41.137  34.773  35.509  1.00  0.00     0.029 A 
ATOM     73  C   UNL A   1      40.026  33.997  35.789  1.00  0.00     0.049 A 
ATOM     74  H   UNL A   1      39.966  31.917  35.959  1.00  0.00     0.167 HD
ATOM     75  C   UNL A   1      37.592  34.354  35.208  1.00  0.00     0.074 A 
ATOM     76  C   UNL A   1      36.123  34.538  35.168  1.00  0.00     0.031 C 
ATOM     77  C   UNL A   1      38.623  34.224  36.107  1.00  0.00     0.037 A 
BRANCH  64  78
ATOM     78  C   UNL A   1      43.966  31.178  36.855  1.00  0.00     0.058 A 
ATOM     79  C   UNL A   1      43.990  31.321  38.254  1.00  0.00     0.135 A 
ATOM     80  C   UNL A   1      45.229  30.853  36.290  1.00  0.00     0.135 A 
ATOM     81  F   UNL A   1      42.869  31.555  38.948  1.00  0.00    -0.206 F 
ATOM     82  C   UNL A   1      45.155  31.202  39.015  1.00  0.00     0.059 A 
ATOM     83  C   UNL A   1      46.405  30.724  37.031  1.00  0.00     0.059 A 
ATOM     84  F   UNL A   1      45.424  30.621  34.991  1.00  0.00    -0.206 F 
ATOM     85  C   UNL A   1      46.359  30.903  38.396  1.00  0.00     0.060 A 
BRANCH  85  86
ATOM     86  S   UNL A   1      47.837  30.720  39.400  1.00  0.00     0.124 S 
ATOM     87  O   UNL A   1      48.645  29.822  38.580  1.00  0.00    -0.237 OA
ATOM     88  O   UNL A   1      48.307  32.096  39.497  1.00  0.00    -0.237 OA
ATOM     89  O   UNL A   1      47.336  30.142  40.644  1.00  0.00    -0.744 OA
ENDBRANCH  85  86
ENDBRANCH  64  78
BRANCH  65  90
ATOM     90  C   UNL A   1      36.119  33.572  30.515  1.00  0.00     0.058 A 
ATOM     91  C   UNL A   1      36.663  33.603  29.204  1.00  0.00     0.135 A 
ATOM     92  C   UNL A   1      34.994  32.732  30.629  1.00  0.00     0.135 A 
ATOM     93  F   UNL A   1      37.656  34.465  28.927  1.00  0.00    -0.206 F 
ATOM     94  C   UNL A   1      36.315  32.691  28.177  1.00  0.00     0.059 A 
ATOM     95  C   UNL A   1      34.637  31.786  29.615  1.00  0.00     0.059 A 
ATOM     96  F   UNL A   1      34.286  32.709  31.767  1.00  0.00    -0.206 F 
ATOM     97  C   UNL A   1      35.400  31.680  28.448  1.00  0.00     0.060 A 
BRANCH  97  98
ATOM     98  S   UNL A   1      35.484  30.078  27.503  1.00  0.00     0.124 S 
ATOM     99  O   UNL A   1      36.871  30.038  27.059  1.00  0.00    -0.237 OA
ATOM    100  O   UNL A   1      35.137  29.071  28.507  1.00  0.00    -0.237 OA
ATOM    101  O   UNL A   1      34.492  30.205  26.444  1.00  0.00    -0.744 OA
ENDBRANCH  97  98
ENDBRANCH  65  90
BRANCH  77 102
ATOM    102  C   UNL A   1      38.261  34.022  37.512  1.00  0.00     0.058 A 
ATOM    103  C   UNL A   1      37.806  32.365  37.918  1.00  0.00     0.135 A 
ATOM    104  C   UNL A   1      38.970  35.151  38.684  1.00  0.00     0.135 A 
ATOM    105  F   UNL A   1      37.222  31.610  36.970  1.00  0.00    -0.206 F 
ATOM    106  C   UNL A   1      38.121  31.638  39.448  1.00  0.00     0.059 A 
ATOM    107  C   UNL A   1      39.330  34.555  40.314  1.00  0.00     0.059 A 
ATOM    108  F   UNL A   1      39.240  36.439  38.461  1.00  0.00    -0.206 F 
ATOM    109  C   UNL A   1      38.882  32.636  40.754  1.00  0.00     0.060 A 
BRANCH 109 110
ATOM    110  S   UNL A   1      38.551  31.452  42.342  1.00  0.00     0.124 S 
ATOM    111  O   UNL A   1      37.100  31.256  42.268  1.00  0.00    -0.237 OA
ATOM    112  O   UNL A   1      39.336  30.276  41.979  1.00  0.00    -0.237 OA
ATOM    113  O   UNL A   1      38.935  32.129  43.577  1.00  0.00    -0.744 OA
ENDBRANCH 109 110
ENDBRANCH  77 102
ENDBRANCH  51  52
ENDBRANCH  44  46
ENDBRANCH  43  44
ENDBRANCH  42  43
ENDBRANCH  41  42
ENDBRANCH  40  41
ENDBRANCH  39  40
ENDBRANCH   1  39
TORSDOF 27
ENDMDL
MODEL 3
REMARK VINA RESULT:      -7.7      4.200     11.165
REMARK SMILES Cc1ccc(C(c2ccccc2)(c2ccccc2)n2cnc(C[C@H]([NH3+])C(=O)OCCOCCOCCOC(=O)c3ccc(-c4c5nc(c(-c6c(F)cc(S(=O)(=O)[O-])cc6F)c6ccc([nH]6)c(-c6c(F)cc(S(=O)(=O)[O-])cc6F)c6nc(c(-c7c(F)cc(S(=O)(=O)[O-])cc7F)c7ccc4[nH]7)C=C6)C=C5)cc3)c2)cc1
REMARK SMILES IDX 32 1 31 2 30 3 29 4 28 5 26 6 27 7 24 8 23 9 22 10 19 11
REMARK SMILES IDX 20 12 106 13 21 14 6 15 5 16 1 17 2 18 3 19 108 20 4 21
REMARK SMILES IDX 107 22 7 23 8 24 12 25 9 26 11 27 10 28 13 29 14 30 18 31
REMARK SMILES IDX 15 32 17 33 16 34 25 35 33 39 34 40 35 41 36 42 37 43 38 44
REMARK SMILES IDX 39 45 40 46 41 47 105 48 42 49 104 50 43 51 44 52 45 53
REMARK SMILES IDX 98 54 46 55 103 56 97 57 99 58 47 59 102 60 96 61 95 62
REMARK SMILES IDX 48 64 82 65 61 66 81 67 62 68 65 69 80 70 100 71 63 72 64 73
REMARK SMILES IDX 79 75 101 76 66 77 49 78 50 79 59 80 51 81 52 82 58 83 60 84
REMARK SMILES IDX 53 85 54 86 55 87 56 88 57 89 83 90 84 91 93 92 85 93 86 94
REMARK SMILES IDX 92 95 94 96 87 97 88 98 89 99 90 100 91 101 67 102 68 103
REMARK SMILES IDX 77 104 69 105 70 106 76 107 78 108 71 109 72 110 73 111
REMARK SMILES IDX 74 112 75 113
REMARK H PARENT 25 36 25 37 25 38 99 63 65 74
REMARK Flexibility Score: inf
ROOT
ATOM      1  C   UNL A   1      35.861  30.694  28.725  1.00  0.00     0.188 C 
ENDROOT
BRANCH   1   2
ATOM      2  O   UNL A   1      36.737  29.751  28.144  1.00  0.00    -0.376 OA
BRANCH   2   3
ATOM      3  C   UNL A   1      38.016  29.756  28.734  1.00  0.00     0.202 C 
BRANCH   3   4
ATOM      4  C   UNL A   1      39.250  29.287  27.933  1.00  0.00     0.261 C 
BRANCH   4   5
ATOM      5  O   UNL A   1      39.534  27.623  27.522  1.00  0.00    -0.459 OA
BRANCH   5   6
ATOM      6  C   UNL A   1      40.199  26.366  27.363  1.00  0.00     0.365 C 
ATOM      7  O   UNL A   1      39.359  25.458  27.328  1.00  0.00    -0.245 OA
BRANCH   6   8
ATOM      8  C   UNL A   1      41.772  25.671  27.439  1.00  0.00     0.297 C 
BRANCH   8   9
ATOM      9  C   UNL A   1      43.250  25.939  27.950  1.00  0.00     0.135 C 
BRANCH   9  10
ATOM     10  C   UNL A   1      43.488  25.549  29.386  1.00  0.00     0.065 A 
ATOM     11  N   UNL A   1      44.251  25.514  31.486  1.00  0.00    -0.319 N 
ATOM     12  C   UNL A   1      44.421  24.321  30.830  1.00  0.00     0.201 A 
ATOM     13  C   UNL A   1      43.542  26.292  30.565  1.00  0.00     0.112 A 
ATOM     14  N   UNL A   1      43.935  24.297  29.623  1.00  0.00    -0.241 NA
BRANCH  11  15
ATOM     15  C   UNL A   1      45.051  25.926  32.743  1.00  0.00     0.121 C 
BRANCH  15  16
ATOM     16  C   UNL A   1      44.220  27.097  33.536  1.00  0.00    -0.013 A 
ATOM     17  C   UNL A   1      42.805  31.557  35.962  1.00  0.00     0.044 C 
ATOM     18  C   UNL A   1      43.189  30.289  35.289  1.00  0.00    -0.051 A 
ATOM     19  C   UNL A   1      43.291  30.276  33.505  1.00  0.00     0.004 A 
ATOM     20  C   UNL A   1      43.562  28.769  36.132  1.00  0.00     0.004 A 
ATOM     21  C   UNL A   1      43.813  28.553  32.590  1.00  0.00     0.007 A 
ATOM     22  C   UNL A   1      43.990  27.242  35.283  1.00  0.00     0.007 A 
ENDBRANCH  15  16
BRANCH  15  23
ATOM     23  C   UNL A   1      45.124  24.611  33.678  1.00  0.00    -0.013 A 
ATOM     24  C   UNL A   1      46.361  24.011  34.053  1.00  0.00     0.007 A 
ATOM     25  C   UNL A   1      43.976  23.843  33.961  1.00  0.00     0.007 A 
ATOM     26  C   UNL A   1      46.440  22.746  34.655  1.00  0.00     0.000 A 
ATOM     27  C   UNL A   1      44.059  22.552  34.514  1.00  0.00     0.000 A 
ATOM     28  C   UNL A   1      45.287  22.007  34.870  1.00  0.00     0.000 A 
ENDBRANCH  15  23
BRANCH  15  29
ATOM     29  C   UNL A   1      46.451  26.393  32.159  1.00  0.00    -0.013 A 
ATOM     30  C   UNL A   1      47.162  27.458  32.755  1.00  0.00     0.007 A 
ATOM     31  C   UNL A   1      46.898  26.040  30.864  1.00  0.00     0.007 A 
ATOM     32  C   UNL A   1      48.281  28.058  32.165  1.00  0.00     0.000 A 
ATOM     33  C   UNL A   1      47.970  26.692  30.232  1.00  0.00     0.000 A 
ATOM     34  C   UNL A   1      48.678  27.684  30.892  1.00  0.00     0.000 A 
ENDBRANCH  15  29
ENDBRANCH  11  15
ENDBRANCH   9  10
ENDBRANCH   8   9
BRANCH   8  35
ATOM     35  N   UNL A   1      42.004  25.064  26.033  1.00  0.00    -0.346 N 
ATOM     36  H   UNL A   1      42.388  24.124  26.127  1.00  0.00     0.345 HD
ATOM     37  H   UNL A   1      42.660  25.650  25.515  1.00  0.00     0.345 HD
ATOM     38  H   UNL A   1      41.118  25.021  25.530  1.00  0.00     0.345 HD
ENDBRANCH   8  35
ENDBRANCH   6   8
ENDBRANCH   5   6
ENDBRANCH   4   5
ENDBRANCH   3   4
ENDBRANCH   2   3
ENDBRANCH   1   2
BRANCH   1  39
ATOM     39  C   UNL A   1      36.476  31.533  29.823  1.00  0.00     0.188 C 
BRANCH  39  40
ATOM     40  O   UNL A   1      35.919  31.291  31.100  1.00  0.00    -0.376 OA
BRANCH  40  41
ATOM     41  C   UNL A   1      36.518  30.490  32.076  1.00  0.00     0.202 C 
BRANCH  41  42
ATOM     42  C   UNL A   1      36.835  31.429  33.193  1.00  0.00     0.261 C 
BRANCH  42  43
ATOM     43  O   UNL A   1      38.113  31.064  33.849  1.00  0.00    -0.460 OA
BRANCH  43  44
ATOM     44  C   UNL A   1      39.359  31.031  33.256  1.00  0.00     0.338 C 
ATOM     45  O   UNL A   1      39.938  29.965  33.071  1.00  0.00    -0.246 OA
BRANCH  44  46
ATOM     46  C   UNL A   1      39.897  32.295  32.597  1.00  0.00     0.060 A 
ATOM     47  C   UNL A   1      39.527  32.632  31.302  1.00  0.00     0.016 A 
ATOM     48  C   UNL A   1      40.831  33.150  33.180  1.00  0.00     0.016 A 
ATOM     49  C   UNL A   1      40.260  33.619  30.598  1.00  0.00     0.010 A 
ATOM     50  C   UNL A   1      41.688  33.953  32.361  1.00  0.00     0.010 A 
ATOM     51  C   UNL A   1      41.552  33.995  30.959  1.00  0.00    -0.014 A 
BRANCH  51  52
ATOM     52  C   UNL A   1      42.801  34.443  29.968  1.00  0.00     0.031 A 
ATOM     53  C   UNL A   1      43.631  33.255  29.738  1.00  0.00     0.074 A 
ATOM     54  C   UNL A   1      43.341  35.674  29.385  1.00  0.00     0.049 A 
ATOM     55  N   UNL A   1      44.870  33.301  29.398  1.00  0.00    -0.248 NA
ATOM     56  C   UNL A   1      43.226  31.912  30.200  1.00  0.00     0.031 C 
ATOM     57  C   UNL A   1      43.452  35.883  27.881  1.00  0.00     0.029 A 
ATOM     58  N   UNL A   1      43.247  37.078  29.700  1.00  0.00    -0.354 N 
ATOM     59  C   UNL A   1      45.155  32.012  29.063  1.00  0.00     0.074 A 
ATOM     60  C   UNL A   1      44.343  31.232  29.949  1.00  0.00     0.031 C 
ATOM     61  C   UNL A   1      43.400  37.204  27.528  1.00  0.00     0.029 A 
ATOM     62  C   UNL A   1      43.354  38.052  28.726  1.00  0.00     0.049 A 
ATOM     63  H   UNL A   1      43.102  37.350  30.635  1.00  0.00     0.167 HD
ATOM     64  C   UNL A   1      45.567  31.781  27.786  1.00  0.00     0.037 A 
ATOM     65  C   UNL A   1      43.985  39.230  29.054  1.00  0.00     0.037 A 
ATOM     66  C   UNL A   1      45.683  33.063  27.017  1.00  0.00     0.049 A 
ATOM     67  C   UNL A   1      45.407  38.903  28.664  1.00  0.00     0.074 A 
ATOM     68  C   UNL A   1      45.121  33.566  25.854  1.00  0.00     0.029 A 
ATOM     69  N   UNL A   1      46.261  34.192  27.609  1.00  0.00    -0.354 N 
ATOM     70  N   UNL A   1      45.631  37.779  28.036  1.00  0.00    -0.248 NA
ATOM     71  C   UNL A   1      46.630  39.666  28.800  1.00  0.00     0.031 C 
ATOM     72  C   UNL A   1      45.562  34.926  25.680  1.00  0.00     0.029 A 
ATOM     73  C   UNL A   1      46.335  35.286  26.770  1.00  0.00     0.049 A 
ATOM     74  H   UNL A   1      46.585  34.204  28.538  1.00  0.00     0.167 HD
ATOM     75  C   UNL A   1      46.891  37.572  27.696  1.00  0.00     0.074 A 
ATOM     76  C   UNL A   1      47.505  38.820  28.204  1.00  0.00     0.031 C 
ATOM     77  C   UNL A   1      47.238  36.374  27.119  1.00  0.00     0.037 A 
BRANCH  64  78
ATOM     78  C   UNL A   1      45.625  30.393  27.160  1.00  0.00     0.058 A 
ATOM     79  C   UNL A   1      46.886  29.850  26.855  1.00  0.00     0.135 A 
ATOM     80  C   UNL A   1      44.539  29.529  26.853  1.00  0.00     0.135 A 
ATOM     81  F   UNL A   1      48.015  30.506  27.150  1.00  0.00    -0.206 F 
ATOM     82  C   UNL A   1      47.056  28.598  26.261  1.00  0.00     0.059 A 
ATOM     83  C   UNL A   1      44.685  28.272  26.264  1.00  0.00     0.059 A 
ATOM     84  F   UNL A   1      43.262  29.821  27.108  1.00  0.00    -0.206 F 
ATOM     85  C   UNL A   1      45.950  27.814  25.967  1.00  0.00     0.060 A 
BRANCH  85  86
ATOM     86  S   UNL A   1      46.196  26.192  25.237  1.00  0.00     0.124 S 
ATOM     87  O   UNL A   1      46.681  25.422  26.378  1.00  0.00    -0.237 OA
ATOM     88  O   UNL A   1      44.854  25.867  24.768  1.00  0.00    -0.237 OA
ATOM     89  O   UNL A   1      47.182  26.435  24.187  1.00  0.00    -0.744 OA
ENDBRANCH  85  86
ENDBRANCH  64  78
BRANCH  65  90
ATOM     90  C   UNL A   1      43.380  40.041  30.223  1.00  0.00     0.058 A 
ATOM     91  C   UNL A   1      44.107  40.053  31.443  1.00  0.00     0.135 A 
ATOM     92  C   UNL A   1      42.385  41.036  30.162  1.00  0.00     0.135 A 
ATOM     93  F   UNL A   1      44.996  39.074  31.686  1.00  0.00    -0.206 F 
ATOM     94  C   UNL A   1      44.055  41.105  32.390  1.00  0.00     0.059 A 
ATOM     95  C   UNL A   1      42.327  42.122  31.093  1.00  0.00     0.059 A 
ATOM     96  F   UNL A   1      41.522  41.059  29.136  1.00  0.00    -0.206 F 
ATOM     97  C   UNL A   1      43.266  42.219  32.124  1.00  0.00     0.060 A 
BRANCH  97  98
ATOM     98  S   UNL A   1      43.722  43.872  32.848  1.00  0.00     0.124 S 
ATOM     99  O   UNL A   1      43.130  43.815  34.179  1.00  0.00    -0.237 OA
ATOM    100  O   UNL A   1      45.186  43.858  32.834  1.00  0.00    -0.237 OA
ATOM    101  O   UNL A   1      43.144  44.859  31.947  1.00  0.00    -0.744 OA
ENDBRANCH  97  98
ENDBRANCH  65  90
BRANCH  77 102
ATOM    102  C   UNL A   1      48.663  36.034  27.095  1.00  0.00     0.058 A 
ATOM    103  C   UNL A   1      49.219  35.118  28.498  1.00  0.00     0.135 A 
ATOM    104  C   UNL A   1      49.425  35.923  25.495  1.00  0.00     0.135 A 
ATOM    105  F   UNL A   1      48.608  35.320  29.679  1.00  0.00    -0.206 F 
ATOM    106  C   UNL A   1      50.468  33.932  28.428  1.00  0.00     0.059 A 
ATOM    107  C   UNL A   1      50.744  34.760  25.272  1.00  0.00     0.059 A 
ATOM    108  F   UNL A   1      49.112  36.662  24.429  1.00  0.00    -0.206 F 
ATOM    109  C   UNL A   1      51.327  33.655  26.858  1.00  0.00     0.060 A 
BRANCH 109 110
ATOM    110  S   UNL A   1      52.902  32.587  27.501  1.00  0.00     0.124 S 
ATOM    111  O   UNL A   1      53.356  31.952  26.260  1.00  0.00    -0.237 OA
ATOM    112  O   UNL A   1      53.777  33.650  27.987  1.00  0.00    -0.237 OA
ATOM    113  O   UNL A   1      52.483  31.594  28.486  1.00  0.00    -0.744 OA
ENDBRANCH 109 110
ENDBRANCH  77 102
ENDBRANCH  51  52
ENDBRANCH  44  46
ENDBRANCH  43  44
ENDBRANCH  42  43
ENDBRANCH  41  42
ENDBRANCH  40  41
ENDBRANCH  39  40
ENDBRANCH   1  39
TORSDOF 27
ENDMDL
