MODEL 1
REMARK VINA RESULT:     -10.5      0.000      0.000
REMARK SMILES COc1ccc(OC)c(Nc2c(-c3ccc(C(=O)OCCOCCOCCOC(=O)c4ccc(-c5c6nc(c(-c7c(F)cc(S(=O)(=O)[O-])cc7F)c7ccc([nH]7)c(-c7c(F)cc(S(=O)(=O)[O-])cc7F)c7nc(c(-c8c(F)cc(S(=O)(=O)[O-])cc8F)c8ccc5[nH]8)C=C7)C=C6)cc4)cc3)nc3cnccn23)c1
REMARK SMILES IDX 23 1 22 2 21 3 20 4 19 5 17 6 18 7 16 8 13 9 14 10 98 11
REMARK SMILES IDX 15 12 97 13 12 14 11 15 105 16 99 17 100 18 104 19 101 20
REMARK SMILES IDX 103 21 102 22 10 23 9 25 3 26 4 27 106 28 5 29 6 30 2 31
REMARK SMILES IDX 1 32 7 33 8 34 24 35 25 36 26 37 27 38 28 39 29 40 30 41
REMARK SMILES IDX 31 42 32 43 96 44 33 45 95 46 34 47 35 48 36 49 89 50 37 51
REMARK SMILES IDX 94 52 88 53 90 54 38 55 93 56 87 57 86 58 39 60 73 61 52 62
REMARK SMILES IDX 72 63 53 64 56 65 71 66 91 67 54 68 55 69 70 71 92 72 57 73
REMARK SMILES IDX 40 74 41 75 50 76 42 77 43 78 49 79 51 80 44 81 45 82 46 83
REMARK SMILES IDX 47 84 48 85 74 86 75 87 84 88 76 89 77 90 83 91 85 92 78 93
REMARK SMILES IDX 79 94 80 95 81 96 82 97 58 98 59 99 68 100 60 101 61 102
REMARK SMILES IDX 67 103 69 104 62 105 63 106 64 107 65 108 66 109
REMARK H PARENT 10 24 90 59 56 70
REMARK Flexibility Score: inf
ROOT
ATOM      1  C   UNL A   1      34.189  29.280  26.968  1.00  0.00     0.188 C 
ENDROOT
BRANCH   1   2
ATOM      2  O   UNL A   1      33.676  28.279  26.095  1.00  0.00    -0.376 OA
BRANCH   2   3
ATOM      3  C   UNL A   1      32.420  28.587  25.506  1.00  0.00     0.202 C 
BRANCH   3   4
ATOM      4  C   UNL A   1      31.253  27.604  25.727  1.00  0.00     0.261 C 
BRANCH   4   5
ATOM      5  O   UNL A   1      31.548  26.199  25.639  1.00  0.00    -0.460 OA
BRANCH   5   6
ATOM      6  C   UNL A   1      30.640  25.314  26.111  1.00  0.00     0.338 C 
ATOM      7  O   UNL A   1      29.517  25.576  26.502  1.00  0.00    -0.246 OA
BRANCH   6   8
ATOM      8  C   UNL A   1      31.173  23.936  25.910  1.00  0.00     0.060 A 
ATOM      9  C   UNL A   1      32.157  21.305  25.609  1.00  0.00     0.004 A 
ATOM     10  C   UNL A   1      32.347  22.005  26.809  1.00  0.00     0.011 A 
ATOM     11  C   UNL A   1      31.443  21.926  24.573  1.00  0.00     0.011 A 
ATOM     12  C   UNL A   1      31.872  23.317  26.955  1.00  0.00     0.016 A 
ATOM     13  C   UNL A   1      30.942  23.227  24.724  1.00  0.00     0.016 A 
BRANCH   9  14
ATOM     14  C   UNL A   1      32.779  20.006  25.375  1.00  0.00     0.114 A 
ATOM     15  C   UNL A   1      33.941  19.739  24.650  1.00  0.00     0.143 A 
ATOM     16  N   UNL A   1      34.076  18.366  24.710  1.00  0.00    -0.283 N 
ATOM     17  N   UNL A   1      32.157  18.840  25.772  1.00  0.00    -0.225 NA
ATOM     18  C   UNL A   1      32.932  17.891  25.304  1.00  0.00     0.157 A 
ATOM     19  C   UNL A   1      35.037  17.470  24.270  1.00  0.00     0.115 A 
ATOM     20  C   UNL A   1      32.707  16.473  25.325  1.00  0.00     0.158 A 
ATOM     21  C   UNL A   1      34.774  16.153  24.366  1.00  0.00     0.129 A 
ATOM     22  N   UNL A   1      33.593  15.626  24.872  1.00  0.00    -0.259 NA
BRANCH  15  23
ATOM     23  N   UNL A   1      34.841  20.573  24.080  1.00  0.00    -0.336 N 
ATOM     24  H   UNL A   1      35.397  20.138  23.393  1.00  0.00     0.168 HD
BRANCH  23  25
ATOM     25  C   UNL A   1      35.152  21.951  24.267  1.00  0.00     0.086 A 
ATOM     26  C   UNL A   1      34.482  24.194  23.430  1.00  0.00     0.121 A 
ATOM     27  C   UNL A   1      35.444  24.787  24.221  1.00  0.00     0.050 A 
ATOM     28  C   UNL A   1      34.333  22.807  23.462  1.00  0.00     0.076 A 
ATOM     29  C   UNL A   1      36.210  23.989  25.066  1.00  0.00     0.052 A 
ATOM     30  C   UNL A   1      36.086  22.578  25.116  1.00  0.00     0.142 A 
BRANCH  26  31
ATOM     31  O   UNL A   1      33.815  25.005  22.558  1.00  0.00    -0.497 OA
ATOM     32  C   UNL A   1      32.993  24.313  21.623  1.00  0.00     0.278 C 
ENDBRANCH  26  31
BRANCH  30  33
ATOM     33  O   UNL A   1      36.935  22.113  26.075  1.00  0.00    -0.495 OA
ATOM     34  C   UNL A   1      38.186  21.526  25.808  1.00  0.00     0.278 C 
ENDBRANCH  30  33
ENDBRANCH  23  25
ENDBRANCH  15  23
ENDBRANCH   9  14
ENDBRANCH   6   8
ENDBRANCH   5   6
ENDBRANCH   4   5
ENDBRANCH   3   4
ENDBRANCH   2   3
ENDBRANCH   1   2
BRANCH   1  35
ATOM     35  C   UNL A   1      33.365  30.574  26.870  1.00  0.00     0.188 C 
BRANCH  35  36
ATOM     36  O   UNL A   1      33.599  31.532  27.881  1.00  0.00    -0.376 OA
BRANCH  36  37
ATOM     37  C   UNL A   1      34.871  32.149  27.996  1.00  0.00     0.202 C 
BRANCH  37  38
ATOM     38  C   UNL A   1      35.432  32.904  29.228  1.00  0.00     0.261 C 
BRANCH  38  39
ATOM     39  O   UNL A   1      36.690  32.526  29.789  1.00  0.00    -0.460 OA
BRANCH  39  40
ATOM     40  C   UNL A   1      36.749  31.352  30.455  1.00  0.00     0.338 C 
ATOM     41  O   UNL A   1      35.884  30.865  31.167  1.00  0.00    -0.246 OA
BRANCH  40  42
ATOM     42  C   UNL A   1      37.978  30.651  30.020  1.00  0.00     0.060 A 
ATOM     43  C   UNL A   1      38.910  30.238  30.984  1.00  0.00     0.016 A 
ATOM     44  C   UNL A   1      38.204  30.397  28.667  1.00  0.00     0.016 A 
ATOM     45  C   UNL A   1      40.084  29.592  30.593  1.00  0.00     0.010 A 
ATOM     46  C   UNL A   1      39.390  29.767  28.276  1.00  0.00     0.010 A 
ATOM     47  C   UNL A   1      40.349  29.387  29.233  1.00  0.00    -0.014 A 
BRANCH  47  48
ATOM     48  C   UNL A   1      41.694  28.935  28.795  1.00  0.00     0.031 A 
ATOM     49  C   UNL A   1      42.806  29.948  28.734  1.00  0.00     0.074 A 
ATOM     50  C   UNL A   1      41.928  27.655  28.454  1.00  0.00     0.049 A 
ATOM     51  N   UNL A   1      44.039  29.806  28.323  1.00  0.00    -0.248 NA
ATOM     52  C   UNL A   1      42.473  31.310  29.182  1.00  0.00     0.031 C 
ATOM     53  C   UNL A   1      40.947  26.572  28.506  1.00  0.00     0.029 A 
ATOM     54  N   UNL A   1      43.069  27.052  27.985  1.00  0.00    -0.354 N 
ATOM     55  C   UNL A   1      44.627  31.059  28.454  1.00  0.00     0.074 A 
ATOM     56  C   UNL A   1      43.603  31.956  28.946  1.00  0.00     0.031 C 
ATOM     57  C   UNL A   1      41.529  25.436  28.082  1.00  0.00     0.029 A 
ATOM     58  C   UNL A   1      42.910  25.718  27.693  1.00  0.00     0.049 A 
ATOM     59  H   UNL A   1      43.921  27.530  27.869  1.00  0.00     0.167 HD
ATOM     60  C   UNL A   1      45.902  31.429  28.190  1.00  0.00     0.037 A 
ATOM     61  C   UNL A   1      43.775  24.834  27.156  1.00  0.00     0.037 A 
ATOM     62  C   UNL A   1      46.916  30.529  27.701  1.00  0.00     0.049 A 
ATOM     63  C   UNL A   1      45.171  25.285  26.801  1.00  0.00     0.074 A 
ATOM     64  C   UNL A   1      48.247  30.797  27.435  1.00  0.00     0.029 A 
ATOM     65  N   UNL A   1      46.707  29.193  27.386  1.00  0.00    -0.354 N 
ATOM     66  N   UNL A   1      45.727  26.462  26.964  1.00  0.00    -0.248 NA
ATOM     67  C   UNL A   1      46.059  24.284  26.189  1.00  0.00     0.031 C 
ATOM     68  C   UNL A   1      48.827  29.644  26.897  1.00  0.00     0.029 A 
ATOM     69  C   UNL A   1      47.877  28.635  26.894  1.00  0.00     0.049 A 
ATOM     70  H   UNL A   1      45.855  28.713  27.497  1.00  0.00     0.167 HD
ATOM     71  C   UNL A   1      47.038  26.333  26.511  1.00  0.00     0.074 A 
ATOM     72  C   UNL A   1      47.192  24.962  26.071  1.00  0.00     0.031 C 
ATOM     73  C   UNL A   1      48.023  27.265  26.468  1.00  0.00     0.037 A 
BRANCH  60  74
ATOM     74  C   UNL A   1      46.264  32.876  28.386  1.00  0.00     0.058 A 
ATOM     75  C   UNL A   1      46.154  33.820  27.352  1.00  0.00     0.135 A 
ATOM     76  C   UNL A   1      46.710  33.328  29.639  1.00  0.00     0.135 A 
ATOM     77  F   UNL A   1      45.752  33.442  26.128  1.00  0.00    -0.206 F 
ATOM     78  C   UNL A   1      46.506  35.153  27.545  1.00  0.00     0.059 A 
ATOM     79  C   UNL A   1      47.038  34.663  29.863  1.00  0.00     0.059 A 
ATOM     80  F   UNL A   1      46.838  32.470  30.663  1.00  0.00    -0.206 F 
ATOM     81  C   UNL A   1      46.948  35.564  28.803  1.00  0.00     0.060 A 
BRANCH  81  82
ATOM     82  S   UNL A   1      47.411  37.293  29.031  1.00  0.00     0.124 S 
ATOM     83  O   UNL A   1      46.500  37.962  28.108  1.00  0.00    -0.237 OA
ATOM     84  O   UNL A   1      47.140  37.502  30.451  1.00  0.00    -0.237 OA
ATOM     85  O   UNL A   1      48.820  37.323  28.654  1.00  0.00    -0.744 OA
ENDBRANCH  81  82
ENDBRANCH  60  74
BRANCH  61  86
ATOM     86  C   UNL A   1      43.355  23.424  26.923  1.00  0.00     0.058 A 
ATOM     87  C   UNL A   1      43.098  22.953  25.626  1.00  0.00     0.135 A 
ATOM     88  C   UNL A   1      43.193  22.523  27.987  1.00  0.00     0.135 A 
ATOM     89  F   UNL A   1      43.221  23.781  24.577  1.00  0.00    -0.206 F 
ATOM     90  C   UNL A   1      42.684  21.646  25.392  1.00  0.00     0.059 A 
ATOM     91  C   UNL A   1      42.808  21.201  27.775  1.00  0.00     0.059 A 
ATOM     92  F   UNL A   1      43.430  22.919  29.247  1.00  0.00    -0.206 F 
ATOM     93  C   UNL A   1      42.547  20.775  26.474  1.00  0.00     0.060 A 
BRANCH  93  94
ATOM     94  S   UNL A   1      42.058  19.066  26.151  1.00  0.00     0.124 S 
ATOM     95  O   UNL A   1      42.988  18.689  25.092  1.00  0.00    -0.237 OA
ATOM     96  O   UNL A   1      42.278  18.436  27.449  1.00  0.00    -0.237 OA
ATOM     97  O   UNL A   1      40.660  19.187  25.749  1.00  0.00    -0.744 OA
ENDBRANCH  93  94
ENDBRANCH  61  86
BRANCH  73  98
ATOM     98  C   UNL A   1      49.379  26.828  25.973  1.00  0.00     0.058 A 
ATOM     99  C   UNL A   1      49.770  26.984  24.635  1.00  0.00     0.135 A 
ATOM    100  C   UNL A   1      50.322  26.300  26.871  1.00  0.00     0.135 A 
ATOM    101  F   UNL A   1      48.908  27.480  23.732  1.00  0.00    -0.206 F 
ATOM    102  C   UNL A   1      51.037  26.608  24.197  1.00  0.00     0.059 A 
ATOM    103  C   UNL A   1      51.606  25.948  26.463  1.00  0.00     0.059 A 
ATOM    104  F   UNL A   1      50.009  26.140  28.166  1.00  0.00    -0.206 F 
ATOM    105  C   UNL A   1      51.950  26.095  25.121  1.00  0.00     0.060 A 
BRANCH 105 106
ATOM    106  S   UNL A   1      53.602  25.645  24.548  1.00  0.00     0.124 S 
ATOM    107  O   UNL A   1      53.599  24.199  24.743  1.00  0.00    -0.237 OA
ATOM    108  O   UNL A   1      53.584  26.096  23.159  1.00  0.00    -0.237 OA
ATOM    109  O   UNL A   1      54.487  26.395  25.433  1.00  0.00    -0.744 OA
ENDBRANCH 105 106
ENDBRANCH  73  98
ENDBRANCH  47  48
ENDBRANCH  40  42
ENDBRANCH  39  40
ENDBRANCH  38  39
ENDBRANCH  37  38
ENDBRANCH  36  37
ENDBRANCH  35  36
ENDBRANCH   1  35
TORSDOF 25
ENDMDL
MODEL 2
REMARK VINA RESULT:     -10.1      0.651      7.681
REMARK SMILES COc1ccc(OC)c(Nc2c(-c3ccc(C(=O)OCCOCCOCCOC(=O)c4ccc(-c5c6nc(c(-c7c(F)cc(S(=O)(=O)[O-])cc7F)c7ccc([nH]7)c(-c7c(F)cc(S(=O)(=O)[O-])cc7F)c7nc(c(-c8c(F)cc(S(=O)(=O)[O-])cc8F)c8ccc5[nH]8)C=C7)C=C6)cc4)cc3)nc3cnccn23)c1
REMARK SMILES IDX 23 1 22 2 21 3 20 4 19 5 17 6 18 7 16 8 13 9 14 10 98 11
REMARK SMILES IDX 15 12 97 13 12 14 11 15 105 16 99 17 100 18 104 19 101 20
REMARK SMILES IDX 103 21 102 22 10 23 9 25 3 26 4 27 106 28 5 29 6 30 2 31
REMARK SMILES IDX 1 32 7 33 8 34 24 35 25 36 26 37 27 38 28 39 29 40 30 41
REMARK SMILES IDX 31 42 32 43 96 44 33 45 95 46 34 47 35 48 36 49 89 50 37 51
REMARK SMILES IDX 94 52 88 53 90 54 38 55 93 56 87 57 86 58 39 60 73 61 52 62
REMARK SMILES IDX 72 63 53 64 56 65 71 66 91 67 54 68 55 69 70 71 92 72 57 73
REMARK SMILES IDX 40 74 41 75 50 76 42 77 43 78 49 79 51 80 44 81 45 82 46 83
REMARK SMILES IDX 47 84 48 85 74 86 75 87 84 88 76 89 77 90 83 91 85 92 78 93
REMARK SMILES IDX 79 94 80 95 81 96 82 97 58 98 59 99 68 100 60 101 61 102
REMARK SMILES IDX 67 103 69 104 62 105 63 106 64 107 65 108 66 109
REMARK H PARENT 10 24 90 59 56 70
REMARK Flexibility Score: inf
ROOT
ATOM      1  C   UNL A   1      34.390  29.527  27.324  1.00  0.00     0.188 C 
ENDROOT
BRANCH   1   2
ATOM      2  O   UNL A   1      33.800  28.597  26.423  1.00  0.00    -0.376 OA
BRANCH   2   3
ATOM      3  C   UNL A   1      32.381  28.542  26.465  1.00  0.00     0.202 C 
BRANCH   3   4
ATOM      4  C   UNL A   1      31.721  27.586  27.479  1.00  0.00     0.261 C 
BRANCH   4   5
ATOM      5  O   UNL A   1      31.895  26.174  27.265  1.00  0.00    -0.460 OA
BRANCH   5   6
ATOM      6  C   UNL A   1      30.902  25.483  26.658  1.00  0.00     0.338 C 
ATOM      7  O   UNL A   1      29.845  25.941  26.263  1.00  0.00    -0.246 OA
BRANCH   6   8
ATOM      8  C   UNL A   1      31.386  24.099  26.390  1.00  0.00     0.060 A 
ATOM      9  C   UNL A   1      32.312  21.463  25.967  1.00  0.00     0.004 A 
ATOM     10  C   UNL A   1      32.926  22.291  26.917  1.00  0.00     0.011 A 
ATOM     11  C   UNL A   1      31.210  21.959  25.253  1.00  0.00     0.011 A 
ATOM     12  C   UNL A   1      32.477  23.605  27.118  1.00  0.00     0.016 A 
ATOM     13  C   UNL A   1      30.741  23.263  25.470  1.00  0.00     0.016 A 
BRANCH   9  14
ATOM     14  C   UNL A   1      32.860  20.155  25.625  1.00  0.00     0.114 A 
ATOM     15  C   UNL A   1      33.987  19.882  24.848  1.00  0.00     0.143 A 
ATOM     16  N   UNL A   1      34.052  18.504  24.809  1.00  0.00    -0.283 N 
ATOM     17  N   UNL A   1      32.189  18.996  25.961  1.00  0.00    -0.225 NA
ATOM     18  C   UNL A   1      32.901  18.045  25.405  1.00  0.00     0.157 A 
ATOM     19  C   UNL A   1      34.953  17.594  24.279  1.00  0.00     0.115 A 
ATOM     20  C   UNL A   1      32.604  16.642  25.335  1.00  0.00     0.158 A 
ATOM     21  C   UNL A   1      34.626  16.288  24.293  1.00  0.00     0.129 A 
ATOM     22  N   UNL A   1      33.434  15.786  24.798  1.00  0.00    -0.259 NA
BRANCH  15  23
ATOM     23  N   UNL A   1      34.912  20.708  24.308  1.00  0.00    -0.336 N 
ATOM     24  H   UNL A   1      35.636  20.232  23.841  1.00  0.00     0.168 HD
BRANCH  23  25
ATOM     25  C   UNL A   1      35.056  22.125  24.277  1.00  0.00     0.086 A 
ATOM     26  C   UNL A   1      34.077  24.124  23.168  1.00  0.00     0.121 A 
ATOM     27  C   UNL A   1      34.989  24.937  23.806  1.00  0.00     0.050 A 
ATOM     28  C   UNL A   1      34.103  22.750  23.407  1.00  0.00     0.076 A 
ATOM     29  C   UNL A   1      35.884  24.370  24.709  1.00  0.00     0.052 A 
ATOM     30  C   UNL A   1      35.939  22.978  24.969  1.00  0.00     0.142 A 
BRANCH  26  31
ATOM     31  O   UNL A   1      33.278  24.710  22.230  1.00  0.00    -0.497 OA
ATOM     32  C   UNL A   1      33.642  26.048  21.899  1.00  0.00     0.278 C 
ENDBRANCH  26  31
BRANCH  30  33
ATOM     33  O   UNL A   1      36.880  22.765  25.931  1.00  0.00    -0.495 OA
ATOM     34  C   UNL A   1      37.904  21.803  25.840  1.00  0.00     0.278 C 
ENDBRANCH  30  33
ENDBRANCH  23  25
ENDBRANCH  15  23
ENDBRANCH   9  14
ENDBRANCH   6   8
ENDBRANCH   5   6
ENDBRANCH   4   5
ENDBRANCH   3   4
ENDBRANCH   2   3
ENDBRANCH   1   2
BRANCH   1  35
ATOM     35  C   UNL A   1      33.634  30.865  27.311  1.00  0.00     0.188 C 
BRANCH  35  36
ATOM     36  O   UNL A   1      33.898  31.734  28.393  1.00  0.00    -0.376 OA
BRANCH  36  37
ATOM     37  C   UNL A   1      35.232  32.117  28.688  1.00  0.00     0.202 C 
BRANCH  37  38
ATOM     38  C   UNL A   1      35.748  32.756  30.002  1.00  0.00     0.261 C 
BRANCH  38  39
ATOM     39  O   UNL A   1      36.970  32.303  30.588  1.00  0.00    -0.460 OA
BRANCH  39  40
ATOM     40  C   UNL A   1      37.046  31.003  30.948  1.00  0.00     0.338 C 
ATOM     41  O   UNL A   1      36.173  30.334  31.478  1.00  0.00    -0.246 OA
BRANCH  40  42
ATOM     42  C   UNL A   1      38.315  30.463  30.413  1.00  0.00     0.060 A 
ATOM     43  C   UNL A   1      39.352  30.139  31.300  1.00  0.00     0.016 A 
ATOM     44  C   UNL A   1      38.478  30.271  29.040  1.00  0.00     0.016 A 
ATOM     45  C   UNL A   1      40.565  29.646  30.814  1.00  0.00     0.010 A 
ATOM     46  C   UNL A   1      39.699  29.795  28.553  1.00  0.00     0.010 A 
ATOM     47  C   UNL A   1      40.758  29.507  29.434  1.00  0.00    -0.014 A 
BRANCH  47  48
ATOM     48  C   UNL A   1      42.114  29.228  28.896  1.00  0.00     0.031 A 
ATOM     49  C   UNL A   1      42.416  27.841  28.397  1.00  0.00     0.074 A 
ATOM     50  C   UNL A   1      43.062  30.183  28.852  1.00  0.00     0.049 A 
ATOM     51  N   UNL A   1      43.540  27.345  27.947  1.00  0.00    -0.248 NA
ATOM     52  C   UNL A   1      41.302  26.879  28.428  1.00  0.00     0.031 C 
ATOM     53  C   UNL A   1      42.884  31.573  29.268  1.00  0.00     0.029 A 
ATOM     54  N   UNL A   1      44.371  30.120  28.444  1.00  0.00    -0.354 N 
ATOM     55  C   UNL A   1      43.271  26.013  27.650  1.00  0.00     0.074 A 
ATOM     56  C   UNL A   1      41.890  25.771  28.007  1.00  0.00     0.031 C 
ATOM     57  C   UNL A   1      44.043  32.231  29.097  1.00  0.00     0.029 A 
ATOM     58  C   UNL A   1      45.056  31.302  28.594  1.00  0.00     0.049 A 
ATOM     59  H   UNL A   1      44.781  29.304  28.077  1.00  0.00     0.167 HD
ATOM     60  C   UNL A   1      44.099  25.079  27.125  1.00  0.00     0.037 A 
ATOM     61  C   UNL A   1      46.353  31.594  28.371  1.00  0.00     0.037 A 
ATOM     62  C   UNL A   1      45.473  25.328  26.772  1.00  0.00     0.049 A 
ATOM     63  C   UNL A   1      47.276  30.518  27.855  1.00  0.00     0.074 A 
ATOM     64  C   UNL A   1      46.385  24.457  26.202  1.00  0.00     0.029 A 
ATOM     65  N   UNL A   1      46.138  26.530  26.970  1.00  0.00    -0.354 N 
ATOM     66  N   UNL A   1      47.002  29.273  27.542  1.00  0.00    -0.248 NA
ATOM     67  C   UNL A   1      48.687  30.887  27.661  1.00  0.00     0.031 C 
ATOM     68  C   UNL A   1      47.619  25.110  26.118  1.00  0.00     0.029 A 
ATOM     69  C   UNL A   1      47.460  26.411  26.569  1.00  0.00     0.049 A 
ATOM     70  H   UNL A   1      45.732  27.346  27.342  1.00  0.00     0.167 HD
ATOM     71  C   UNL A   1      48.196  28.723  27.080  1.00  0.00     0.074 A 
ATOM     72  C   UNL A   1      49.192  29.772  27.149  1.00  0.00     0.031 C 
ATOM     73  C   UNL A   1      48.442  27.466  26.633  1.00  0.00     0.037 A 
BRANCH  60  74
ATOM     74  C   UNL A   1      43.553  23.689  26.940  1.00  0.00     0.058 A 
ATOM     75  C   UNL A   1      43.093  23.226  25.697  1.00  0.00     0.135 A 
ATOM     76  C   UNL A   1      43.508  22.798  28.026  1.00  0.00     0.135 A 
ATOM     77  F   UNL A   1      43.093  24.040  24.628  1.00  0.00    -0.206 F 
ATOM     78  C   UNL A   1      42.577  21.943  25.544  1.00  0.00     0.059 A 
ATOM     79  C   UNL A   1      43.024  21.500  27.889  1.00  0.00     0.059 A 
ATOM     80  F   UNL A   1      43.930  23.187  29.239  1.00  0.00    -0.206 F 
ATOM     81  C   UNL A   1      42.545  21.088  26.646  1.00  0.00     0.060 A 
BRANCH  81  82
ATOM     82  S   UNL A   1      41.863  19.431  26.433  1.00  0.00     0.124 S 
ATOM     83  O   UNL A   1      42.366  19.078  25.109  1.00  0.00    -0.237 OA
ATOM     84  O   UNL A   1      42.458  18.704  27.551  1.00  0.00    -0.237 OA
ATOM     85  O   UNL A   1      40.421  19.641  26.521  1.00  0.00    -0.744 OA
ENDBRANCH  81  82
ENDBRANCH  60  74
BRANCH  61  86
ATOM     86  C   UNL A   1      46.865  32.969  28.626  1.00  0.00     0.058 A 
ATOM     87  C   UNL A   1      46.885  33.933  27.606  1.00  0.00     0.135 A 
ATOM     88  C   UNL A   1      47.353  33.347  29.887  1.00  0.00     0.135 A 
ATOM     89  F   UNL A   1      46.446  33.616  26.378  1.00  0.00    -0.206 F 
ATOM     90  C   UNL A   1      47.380  35.215  27.821  1.00  0.00     0.059 A 
ATOM     91  C   UNL A   1      47.826  34.633  30.135  1.00  0.00     0.059 A 
ATOM     92  F   UNL A   1      47.353  32.466  30.900  1.00  0.00    -0.206 F 
ATOM     93  C   UNL A   1      47.843  35.557  29.092  1.00  0.00     0.060 A 
BRANCH  93  94
ATOM     94  S   UNL A   1      48.435  37.241  29.371  1.00  0.00     0.124 S 
ATOM     95  O   UNL A   1      49.656  37.260  28.571  1.00  0.00    -0.237 OA
ATOM     96  O   UNL A   1      47.326  38.042  28.863  1.00  0.00    -0.237 OA
ATOM     97  O   UNL A   1      48.628  37.295  30.817  1.00  0.00    -0.744 OA
ENDBRANCH  93  94
ENDBRANCH  61  86
BRANCH  73  98
ATOM     98  C   UNL A   1      49.831  27.158  26.136  1.00  0.00     0.058 A 
ATOM     99  C   UNL A   1      50.850  26.716  26.993  1.00  0.00     0.135 A 
ATOM    100  C   UNL A   1      50.127  27.251  24.765  1.00  0.00     0.135 A 
ATOM    101  F   UNL A   1      50.625  26.612  28.313  1.00  0.00    -0.206 F 
ATOM    102  C   UNL A   1      52.119  26.402  26.516  1.00  0.00     0.059 A 
ATOM    103  C   UNL A   1      51.380  26.912  24.261  1.00  0.00     0.059 A 
ATOM    104  F   UNL A   1      49.189  27.656  23.895  1.00  0.00    -0.206 F 
ATOM    105  C   UNL A   1      52.373  26.499  25.147  1.00  0.00     0.060 A 
BRANCH 105 106
ATOM    106  S   UNL A   1      54.014  26.055  24.535  1.00  0.00     0.124 S 
ATOM    107  O   UNL A   1      53.929  26.465  23.138  1.00  0.00    -0.237 OA
ATOM    108  O   UNL A   1      54.890  26.862  25.380  1.00  0.00    -0.237 OA
ATOM    109  O   UNL A   1      54.085  24.615  24.764  1.00  0.00    -0.744 OA
ENDBRANCH 105 106
ENDBRANCH  73  98
ENDBRANCH  47  48
ENDBRANCH  40  42
ENDBRANCH  39  40
ENDBRANCH  38  39
ENDBRANCH  37  38
ENDBRANCH  36  37
ENDBRANCH  35  36
ENDBRANCH   1  35
TORSDOF 25
ENDMDL
MODEL 3
REMARK VINA RESULT:      -9.8      1.028      2.227
REMARK SMILES COc1ccc(OC)c(Nc2c(-c3ccc(C(=O)OCCOCCOCCOC(=O)c4ccc(-c5c6nc(c(-c7c(F)cc(S(=O)(=O)[O-])cc7F)c7ccc([nH]7)c(-c7c(F)cc(S(=O)(=O)[O-])cc7F)c7nc(c(-c8c(F)cc(S(=O)(=O)[O-])cc8F)c8ccc5[nH]8)C=C7)C=C6)cc4)cc3)nc3cnccn23)c1
REMARK SMILES IDX 23 1 22 2 21 3 20 4 19 5 17 6 18 7 16 8 13 9 14 10 98 11
REMARK SMILES IDX 15 12 97 13 12 14 11 15 105 16 99 17 100 18 104 19 101 20
REMARK SMILES IDX 103 21 102 22 10 23 9 25 3 26 4 27 106 28 5 29 6 30 2 31
REMARK SMILES IDX 1 32 7 33 8 34 24 35 25 36 26 37 27 38 28 39 29 40 30 41
REMARK SMILES IDX 31 42 32 43 96 44 33 45 95 46 34 47 35 48 36 49 89 50 37 51
REMARK SMILES IDX 94 52 88 53 90 54 38 55 93 56 87 57 86 58 39 60 73 61 52 62
REMARK SMILES IDX 72 63 53 64 56 65 71 66 91 67 54 68 55 69 70 71 92 72 57 73
REMARK SMILES IDX 40 74 41 75 50 76 42 77 43 78 49 79 51 80 44 81 45 82 46 83
REMARK SMILES IDX 47 84 48 85 74 86 75 87 84 88 76 89 77 90 83 91 85 92 78 93
REMARK SMILES IDX 79 94 80 95 81 96 82 97 58 98 59 99 68 100 60 101 61 102
REMARK SMILES IDX 67 103 69 104 62 105 63 106 64 107 65 108 66 109
REMARK H PARENT 10 24 90 59 56 70
REMARK Flexibility Score: inf
ROOT
ATOM      1  C   UNL A   1      34.117  29.454  27.156  1.00  0.00     0.188 C 
ENDROOT
BRANCH   1   2
ATOM      2  O   UNL A   1      33.690  28.450  26.242  1.00  0.00    -0.376 OA
BRANCH   2   3
ATOM      3  C   UNL A   1      33.426  28.914  24.925  1.00  0.00     0.202 C 
BRANCH   3   4
ATOM      4  C   UNL A   1      32.339  28.191  24.104  1.00  0.00     0.261 C 
BRANCH   4   5
ATOM      5  O   UNL A   1      32.411  26.756  24.034  1.00  0.00    -0.460 OA
BRANCH   5   6
ATOM      6  C   UNL A   1      31.914  26.135  22.941  1.00  0.00     0.338 C 
ATOM      7  O   UNL A   1      31.471  26.677  21.944  1.00  0.00    -0.246 OA
BRANCH   6   8
ATOM      8  C   UNL A   1      32.159  24.670  23.077  1.00  0.00     0.060 A 
ATOM      9  C   UNL A   1      32.551  21.880  23.291  1.00  0.00     0.004 A 
ATOM     10  C   UNL A   1      31.275  22.436  23.459  1.00  0.00     0.011 A 
ATOM     11  C   UNL A   1      33.622  22.733  22.985  1.00  0.00     0.011 A 
ATOM     12  C   UNL A   1      31.081  23.823  23.367  1.00  0.00     0.016 A 
ATOM     13  C   UNL A   1      33.428  24.117  22.866  1.00  0.00     0.016 A 
BRANCH   9  14
ATOM     14  C   UNL A   1      32.807  20.466  23.540  1.00  0.00     0.114 A 
ATOM     15  C   UNL A   1      33.513  19.905  24.605  1.00  0.00     0.143 A 
ATOM     16  N   UNL A   1      33.488  18.547  24.356  1.00  0.00    -0.283 N 
ATOM     17  N   UNL A   1      32.456  19.507  22.611  1.00  0.00    -0.225 NA
ATOM     18  C   UNL A   1      32.932  18.391  23.109  1.00  0.00     0.157 A 
ATOM     19  C   UNL A   1      33.932  17.430  25.047  1.00  0.00     0.115 A 
ATOM     20  C   UNL A   1      32.956  17.090  22.504  1.00  0.00     0.158 A 
ATOM     21  C   UNL A   1      33.877  16.234  24.431  1.00  0.00     0.129 A 
ATOM     22  N   UNL A   1      33.412  16.042  23.137  1.00  0.00    -0.259 NA
BRANCH  15  23
ATOM     23  N   UNL A   1      34.041  20.471  25.714  1.00  0.00    -0.336 N 
ATOM     24  H   UNL A   1      34.478  19.823  26.313  1.00  0.00     0.168 HD
BRANCH  23  25
ATOM     25  C   UNL A   1      34.093  21.810  26.196  1.00  0.00     0.086 A 
ATOM     26  C   UNL A   1      32.608  23.558  27.156  1.00  0.00     0.121 A 
ATOM     27  C   UNL A   1      33.660  24.449  27.186  1.00  0.00     0.050 A 
ATOM     28  C   UNL A   1      32.824  22.264  26.681  1.00  0.00     0.076 A 
ATOM     29  C   UNL A   1      34.922  24.019  26.786  1.00  0.00     0.052 A 
ATOM     30  C   UNL A   1      35.171  22.713  26.294  1.00  0.00     0.142 A 
BRANCH  26  31
ATOM     31  O   UNL A   1      31.375  24.048  27.476  1.00  0.00    -0.497 OA
ATOM     32  C   UNL A   1      30.300  23.460  26.750  1.00  0.00     0.278 C 
ENDBRANCH  26  31
BRANCH  30  33
ATOM     33  O   UNL A   1      36.506  22.604  26.043  1.00  0.00    -0.495 OA
ATOM     34  C   UNL A   1      37.063  22.478  24.757  1.00  0.00     0.278 C 
ENDBRANCH  30  33
ENDBRANCH  23  25
ENDBRANCH  15  23
ENDBRANCH   9  14
ENDBRANCH   6   8
ENDBRANCH   5   6
ENDBRANCH   4   5
ENDBRANCH   3   4
ENDBRANCH   2   3
ENDBRANCH   1   2
BRANCH   1  35
ATOM     35  C   UNL A   1      33.385  30.781  26.901  1.00  0.00     0.188 C 
BRANCH  35  36
ATOM     36  O   UNL A   1      33.654  31.821  27.819  1.00  0.00    -0.376 OA
BRANCH  36  37
ATOM     37  C   UNL A   1      34.949  32.396  27.883  1.00  0.00     0.202 C 
BRANCH  37  38
ATOM     38  C   UNL A   1      35.539  33.235  29.044  1.00  0.00     0.261 C 
BRANCH  38  39
ATOM     39  O   UNL A   1      36.767  32.843  29.660  1.00  0.00    -0.460 OA
BRANCH  39  40
ATOM     40  C   UNL A   1      36.772  31.690  30.365  1.00  0.00     0.338 C 
ATOM     41  O   UNL A   1      35.865  31.241  31.048  1.00  0.00    -0.246 OA
BRANCH  40  42
ATOM     42  C   UNL A   1      38.008  30.956  30.013  1.00  0.00     0.060 A 
ATOM     43  C   UNL A   1      38.911  30.606  31.028  1.00  0.00     0.016 A 
ATOM     44  C   UNL A   1      38.270  30.608  28.687  1.00  0.00     0.016 A 
ATOM     45  C   UNL A   1      40.092  29.929  30.714  1.00  0.00     0.010 A 
ATOM     46  C   UNL A   1      39.461  29.947  28.372  1.00  0.00     0.010 A 
ATOM     47  C   UNL A   1      40.391  29.630  29.379  1.00  0.00    -0.014 A 
BRANCH  47  48
ATOM     48  C   UNL A   1      41.745  29.143  29.011  1.00  0.00     0.031 A 
ATOM     49  C   UNL A   1      42.890  30.118  29.040  1.00  0.00     0.074 A 
ATOM     50  C   UNL A   1      41.958  27.863  28.653  1.00  0.00     0.049 A 
ATOM     51  N   UNL A   1      44.141  29.944  28.699  1.00  0.00    -0.248 NA
ATOM     52  C   UNL A   1      42.575  31.481  29.500  1.00  0.00     0.031 C 
ATOM     53  C   UNL A   1      40.941  26.813  28.621  1.00  0.00     0.029 A 
ATOM     54  N   UNL A   1      43.104  27.233  28.237  1.00  0.00    -0.354 N 
ATOM     55  C   UNL A   1      44.760  31.174  28.894  1.00  0.00     0.074 A 
ATOM     56  C   UNL A   1      43.739  32.094  29.347  1.00  0.00     0.031 C 
ATOM     57  C   UNL A   1      41.510  25.668  28.204  1.00  0.00     0.029 A 
ATOM     58  C   UNL A   1      42.921  25.912  27.904  1.00  0.00     0.049 A 
ATOM     59  H   UNL A   1      43.977  27.685  28.183  1.00  0.00     0.167 HD
ATOM     60  C   UNL A   1      46.060  31.506  28.715  1.00  0.00     0.037 A 
ATOM     61  C   UNL A   1      43.787  25.011  27.398  1.00  0.00     0.037 A 
ATOM     62  C   UNL A   1      47.072  30.584  28.265  1.00  0.00     0.049 A 
ATOM     63  C   UNL A   1      45.215  25.423  27.137  1.00  0.00     0.074 A 
ATOM     64  C   UNL A   1      48.425  30.813  28.084  1.00  0.00     0.029 A 
ATOM     65  N   UNL A   1      46.839  29.263  27.906  1.00  0.00    -0.354 N 
ATOM     66  N   UNL A   1      45.798  26.577  27.361  1.00  0.00    -0.248 NA
ATOM     67  C   UNL A   1      46.105  24.407  26.554  1.00  0.00     0.031 C 
ATOM     68  C   UNL A   1      48.997  29.653  27.554  1.00  0.00     0.029 A 
ATOM     69  C   UNL A   1      48.017  28.677  27.470  1.00  0.00     0.049 A 
ATOM     70  H   UNL A   1      45.966  28.810  27.955  1.00  0.00     0.167 HD
ATOM     71  C   UNL A   1      47.129  26.414  26.982  1.00  0.00     0.074 A 
ATOM     72  C   UNL A   1      47.265  25.049  26.520  1.00  0.00     0.031 C 
ATOM     73  C   UNL A   1      48.145  27.312  27.020  1.00  0.00     0.037 A 
BRANCH  60  74
ATOM     74  C   UNL A   1      46.456  32.935  28.968  1.00  0.00     0.058 A 
ATOM     75  C   UNL A   1      46.792  33.403  30.249  1.00  0.00     0.135 A 
ATOM     76  C   UNL A   1      46.518  33.849  27.902  1.00  0.00     0.135 A 
ATOM     77  F   UNL A   1      46.731  32.580  31.308  1.00  0.00    -0.206 F 
ATOM     78  C   UNL A   1      47.142  34.732  30.469  1.00  0.00     0.059 A 
ATOM     79  C   UNL A   1      46.896  35.175  28.095  1.00  0.00     0.059 A 
ATOM     80  F   UNL A   1      46.204  33.459  26.657  1.00  0.00    -0.206 F 
ATOM     81  C   UNL A   1      47.189  35.610  29.386  1.00  0.00     0.060 A 
BRANCH  81  82
ATOM     82  S   UNL A   1      47.634  37.332  29.691  1.00  0.00     0.124 S 
ATOM     83  O   UNL A   1      47.273  37.480  31.098  1.00  0.00    -0.237 OA
ATOM     84  O   UNL A   1      49.065  37.339  29.402  1.00  0.00    -0.237 OA
ATOM     85  O   UNL A   1      46.802  38.073  28.749  1.00  0.00    -0.744 OA
ENDBRANCH  81  82
ENDBRANCH  60  74
BRANCH  61  86
ATOM     86  C   UNL A   1      43.336  23.622  27.106  1.00  0.00     0.058 A 
ATOM     87  C   UNL A   1      43.162  22.688  28.138  1.00  0.00     0.135 A 
ATOM     88  C   UNL A   1      43.080  23.197  25.793  1.00  0.00     0.135 A 
ATOM     89  F   UNL A   1      43.411  23.040  29.408  1.00  0.00    -0.206 F 
ATOM     90  C   UNL A   1      42.762  21.380  27.880  1.00  0.00     0.059 A 
ATOM     91  C   UNL A   1      42.651  21.902  25.512  1.00  0.00     0.059 A 
ATOM     92  F   UNL A   1      43.227  24.050  24.767  1.00  0.00    -0.206 F 
ATOM     93  C   UNL A   1      42.503  20.999  26.563  1.00  0.00     0.060 A 
BRANCH  93  94
ATOM     94  S   UNL A   1      41.936  19.312  26.249  1.00  0.00     0.124 S 
ATOM     95  O   UNL A   1      42.418  18.613  27.436  1.00  0.00    -0.237 OA
ATOM     96  O   UNL A   1      40.490  19.490  26.155  1.00  0.00    -0.237 OA
ATOM     97  O   UNL A   1      42.601  18.962  24.998  1.00  0.00    -0.744 OA
ENDBRANCH  93  94
ENDBRANCH  61  86
BRANCH  73  98
ATOM     98  C   UNL A   1      49.512  26.842  26.596  1.00  0.00     0.058 A 
ATOM     99  C   UNL A   1      50.451  26.352  27.516  1.00  0.00     0.135 A 
ATOM    100  C   UNL A   1      49.864  26.827  25.235  1.00  0.00     0.135 A 
ATOM    101  F   UNL A   1      50.171  26.345  28.829  1.00  0.00    -0.206 F 
ATOM    102  C   UNL A   1      51.699  25.888  27.107  1.00  0.00     0.059 A 
ATOM    103  C   UNL A   1      51.093  26.339  24.801  1.00  0.00     0.059 A 
ATOM    104  F   UNL A   1      49.002  27.273  24.308  1.00  0.00    -0.206 F 
ATOM    105  C   UNL A   1      52.008  25.881  25.746  1.00  0.00     0.060 A 
BRANCH 105 106
ATOM    106  S   UNL A   1      53.617  25.244  25.226  1.00  0.00     0.124 S 
ATOM    107  O   UNL A   1      53.423  23.805  25.367  1.00  0.00    -0.237 OA
ATOM    108  O   UNL A   1      53.718  25.738  23.856  1.00  0.00    -0.237 OA
ATOM    109  O   UNL A   1      54.547  25.849  26.175  1.00  0.00    -0.744 OA
ENDBRANCH 105 106
ENDBRANCH  73  98
ENDBRANCH  47  48
ENDBRANCH  40  42
ENDBRANCH  39  40
ENDBRANCH  38  39
ENDBRANCH  37  38
ENDBRANCH  36  37
ENDBRANCH  35  36
ENDBRANCH   1  35
TORSDOF 25
ENDMDL
