MODEL 1
REMARK VINA RESULT:     -10.2      0.000      0.000
REMARK SMILES O=C(C[C@H]1SC[C@@H](C(=O)OCCOCCOCCOC(=O)c2ccc(-c3c4nc(c(-c5c(F)cc(S(=O)(=O)[O-])cc5F)c5ccc([nH]5)c(-c5c(F)cc(S(=O)(=O)[O-])cc5F)c5nc(c(-c6c(F)cc(S(=O)(=O)[O-])cc6F)c6ccc3[nH]6)C=C5)C=C4)cc2)NC1=O)Nc1cccc(Cl)c1
REMARK SMILES IDX 14 1 13 2 12 3 11 4 10 5 8 6 9 7 7 8 4 9 5 10 89 11 6 12
REMARK SMILES IDX 88 13 90 14 3 16 2 17 1 18 91 19 92 21 93 22 98 23 94 24
REMARK SMILES IDX 96 25 95 26 97 27 15 28 16 29 17 30 18 31 19 32 20 33 21 34
REMARK SMILES IDX 22 35 23 36 87 37 24 38 86 39 25 40 26 41 27 42 80 43 28 44
REMARK SMILES IDX 85 45 79 46 81 47 29 48 84 49 78 50 77 51 30 53 64 54 43 55
REMARK SMILES IDX 63 56 44 57 47 58 62 59 82 60 45 61 46 62 61 64 83 65 48 66
REMARK SMILES IDX 31 67 32 68 41 69 33 70 34 71 40 72 42 73 35 74 36 75 37 76
REMARK SMILES IDX 38 77 39 78 65 79 66 80 75 81 67 82 68 83 74 84 76 85 69 86
REMARK SMILES IDX 70 87 71 88 72 89 73 90 49 91 50 92 59 93 51 94 52 95 58 96
REMARK SMILES IDX 60 97 53 98 54 99 55 100 56 101 57 102
REMARK H PARENT 88 15 91 20 81 52 47 63
REMARK Flexibility Score: inf
ROOT
ATOM      1  C   UNL A   1      40.361  21.139  26.927  1.00  0.00     0.188 C 
ENDROOT
BRANCH   1   2
ATOM      2  O   UNL A   1      39.787  21.630  25.734  1.00  0.00    -0.376 OA
BRANCH   2   3
ATOM      3  C   UNL A   1      38.377  21.571  25.591  1.00  0.00     0.202 C 
BRANCH   3   4
ATOM      4  C   UNL A   1      37.489  22.824  25.743  1.00  0.00     0.261 C 
BRANCH   4   5
ATOM      5  O   UNL A   1      36.196  22.764  25.129  1.00  0.00    -0.462 OA
BRANCH   5   6
ATOM      6  C   UNL A   1      35.148  23.170  25.891  1.00  0.00     0.329 C 
ATOM      7  O   UNL A   1      34.851  24.340  26.069  1.00  0.00    -0.250 OA
BRANCH   6   8
ATOM      8  C   UNL A   1      34.447  21.971  26.552  1.00  0.00     0.202 C 
ATOM      9  C   UNL A   1      31.676  22.346  25.374  1.00  0.00     0.145 C 
ATOM     10  S   UNL A   1      32.846  21.406  24.336  1.00  0.00    -0.145 SA
ATOM     11  C   UNL A   1      32.085  22.709  26.792  1.00  0.00     0.234 C 
ATOM     12  C   UNL A   1      34.094  20.882  25.548  1.00  0.00     0.107 C 
ATOM     13  N   UNL A   1      33.298  22.417  27.306  1.00  0.00    -0.341 N 
ATOM     14  O   UNL A   1      31.325  23.350  27.527  1.00  0.00    -0.274 OA
ATOM     15  H   UNL A   1      33.411  22.516  28.279  1.00  0.00     0.164 HD
BRANCH   9  16
ATOM     16  C   UNL A   1      31.086  23.563  24.650  1.00  0.00     0.124 C 
BRANCH  16  17
ATOM     17  C   UNL A   1      31.880  24.867  24.615  1.00  0.00     0.226 C 
ATOM     18  O   UNL A   1      32.658  25.088  23.690  1.00  0.00    -0.275 OA
ATOM     19  N   UNL A   1      31.567  25.778  25.613  1.00  0.00    -0.326 N 
ATOM     20  H   UNL A   1      30.994  25.455  26.346  1.00  0.00     0.169 HD
BRANCH  19  21
ATOM     21  C   UNL A   1      31.989  27.124  25.679  1.00  0.00     0.042 A 
ATOM     22  C   UNL A   1      31.260  28.074  24.949  1.00  0.00     0.026 A 
ATOM     23  C   UNL A   1      33.132  27.527  26.371  1.00  0.00     0.046 A 
ATOM     24  C   UNL A   1      31.662  29.412  24.919  1.00  0.00     0.004 A 
ATOM     25  C   UNL A   1      33.553  28.855  26.302  1.00  0.00     0.043 A 
ATOM     26  C   UNL A   1      32.822  29.800  25.586  1.00  0.00     0.020 A 
ATOM     27  Cl  UNL A   1      35.020  29.331  27.073  1.00  0.00    -0.084 Cl
ENDBRANCH  19  21
ENDBRANCH  16  17
ENDBRANCH   9  16
ENDBRANCH   6   8
ENDBRANCH   5   6
ENDBRANCH   4   5
ENDBRANCH   3   4
ENDBRANCH   2   3
ENDBRANCH   1   2
BRANCH   1  28
ATOM     28  C   UNL A   1      41.769  20.546  26.704  1.00  0.00     0.188 C 
BRANCH  28  29
ATOM     29  O   UNL A   1      42.568  20.997  25.619  1.00  0.00    -0.376 OA
BRANCH  29  30
ATOM     30  C   UNL A   1      43.259  22.234  25.764  1.00  0.00     0.202 C 
BRANCH  30  31
ATOM     31  C   UNL A   1      42.691  23.550  25.186  1.00  0.00     0.261 C 
BRANCH  31  32
ATOM     32  O   UNL A   1      42.025  24.433  26.108  1.00  0.00    -0.460 OA
BRANCH  32  33
ATOM     33  C   UNL A   1      42.229  25.756  25.903  1.00  0.00     0.338 C 
ATOM     34  O   UNL A   1      42.190  26.345  24.824  1.00  0.00    -0.246 OA
BRANCH  33  35
ATOM     35  C   UNL A   1      42.270  26.471  27.195  1.00  0.00     0.060 A 
ATOM     36  C   UNL A   1      41.460  26.004  28.243  1.00  0.00     0.016 A 
ATOM     37  C   UNL A   1      43.043  27.619  27.363  1.00  0.00     0.016 A 
ATOM     38  C   UNL A   1      41.396  26.695  29.450  1.00  0.00     0.010 A 
ATOM     39  C   UNL A   1      42.949  28.336  28.562  1.00  0.00     0.010 A 
ATOM     40  C   UNL A   1      42.096  27.898  29.595  1.00  0.00    -0.014 A 
BRANCH  40  41
ATOM     41  C   UNL A   1      41.733  28.814  30.705  1.00  0.00     0.031 A 
ATOM     42  C   UNL A   1      42.565  28.765  31.960  1.00  0.00     0.074 A 
ATOM     43  C   UNL A   1      40.726  29.699  30.594  1.00  0.00     0.049 A 
ATOM     44  N   UNL A   1      42.423  29.423  33.080  1.00  0.00    -0.248 NA
ATOM     45  C   UNL A   1      43.716  27.845  31.945  1.00  0.00     0.031 C 
ATOM     46  C   UNL A   1      39.888  29.889  29.413  1.00  0.00     0.029 A 
ATOM     47  N   UNL A   1      40.236  30.603  31.504  1.00  0.00    -0.354 N 
ATOM     48  C   UNL A   1      43.459  28.994  33.903  1.00  0.00     0.074 A 
ATOM     49  C   UNL A   1      44.201  27.995  33.167  1.00  0.00     0.031 C 
ATOM     50  C   UNL A   1      38.975  30.842  29.675  1.00  0.00     0.029 A 
ATOM     51  C   UNL A   1      39.144  31.305  31.052  1.00  0.00     0.049 A 
ATOM     52  H   UNL A   1      40.629  30.736  32.397  1.00  0.00     0.167 HD
ATOM     53  C   UNL A   1      43.771  29.402  35.156  1.00  0.00     0.037 A 
ATOM     54  C   UNL A   1      38.362  32.203  31.687  1.00  0.00     0.037 A 
ATOM     55  C   UNL A   1      43.025  30.389  35.890  1.00  0.00     0.049 A 
ATOM     56  C   UNL A   1      38.679  32.580  33.115  1.00  0.00     0.074 A 
ATOM     57  C   UNL A   1      43.248  30.859  37.172  1.00  0.00     0.029 A 
ATOM     58  N   UNL A   1      41.908  31.056  35.409  1.00  0.00    -0.354 N 
ATOM     59  N   UNL A   1      39.657  32.164  33.884  1.00  0.00    -0.248 NA
ATOM     60  C   UNL A   1      37.787  33.556  33.757  1.00  0.00     0.031 C 
ATOM     61  C   UNL A   1      42.240  31.779  37.483  1.00  0.00     0.029 A 
ATOM     62  C   UNL A   1      41.424  31.926  36.371  1.00  0.00     0.049 A 
ATOM     63  H   UNL A   1      41.517  30.930  34.514  1.00  0.00     0.167 HD
ATOM     64  C   UNL A   1      39.525  32.863  35.082  1.00  0.00     0.074 A 
ATOM     65  C   UNL A   1      38.374  33.728  34.933  1.00  0.00     0.031 C 
ATOM     66  C   UNL A   1      40.291  32.800  36.202  1.00  0.00     0.037 A 
BRANCH  53  67
ATOM     67  C   UNL A   1      44.958  28.758  35.818  1.00  0.00     0.058 A 
ATOM     68  C   UNL A   1      46.251  29.296  35.703  1.00  0.00     0.135 A 
ATOM     69  C   UNL A   1      44.800  27.599  36.594  1.00  0.00     0.135 A 
ATOM     70  F   UNL A   1      46.464  30.389  34.954  1.00  0.00    -0.206 F 
ATOM     71  C   UNL A   1      47.346  28.693  36.311  1.00  0.00     0.059 A 
ATOM     72  C   UNL A   1      45.876  26.995  37.237  1.00  0.00     0.059 A 
ATOM     73  F   UNL A   1      43.588  27.038  36.733  1.00  0.00    -0.206 F 
ATOM     74  C   UNL A   1      47.149  27.543  37.076  1.00  0.00     0.060 A 
BRANCH  74  75
ATOM     75  S   UNL A   1      48.581  26.775  37.863  1.00  0.00     0.124 S 
ATOM     76  O   UNL A   1      48.166  25.376  37.922  1.00  0.00    -0.237 OA
ATOM     77  O   UNL A   1      49.654  27.079  36.921  1.00  0.00    -0.237 OA
ATOM     78  O   UNL A   1      48.669  27.457  39.151  1.00  0.00    -0.744 OA
ENDBRANCH  74  75
ENDBRANCH  53  67
BRANCH  54  79
ATOM     79  C   UNL A   1      37.194  32.810  30.990  1.00  0.00     0.058 A 
ATOM     80  C   UNL A   1      35.883  32.420  31.301  1.00  0.00     0.135 A 
ATOM     81  C   UNL A   1      37.366  33.765  29.976  1.00  0.00     0.135 A 
ATOM     82  F   UNL A   1      35.664  31.501  32.254  1.00  0.00    -0.206 F 
ATOM     83  C   UNL A   1      34.786  32.930  30.613  1.00  0.00     0.059 A 
ATOM     84  C   UNL A   1      36.285  34.312  29.294  1.00  0.00     0.059 A 
ATOM     85  F   UNL A   1      38.599  34.179  29.644  1.00  0.00    -0.206 F 
ATOM     86  C   UNL A   1      34.998  33.877  29.609  1.00  0.00     0.060 A 
BRANCH  86  87
ATOM     87  S   UNL A   1      33.566  34.545  28.735  1.00  0.00     0.124 S 
ATOM     88  O   UNL A   1      34.147  35.701  28.062  1.00  0.00    -0.237 OA
ATOM     89  O   UNL A   1      33.185  33.431  27.874  1.00  0.00    -0.237 OA
ATOM     90  O   UNL A   1      32.628  34.848  29.812  1.00  0.00    -0.744 OA
ENDBRANCH  86  87
ENDBRANCH  54  79
BRANCH  66  91
ATOM     91  C   UNL A   1      39.959  33.744  37.328  1.00  0.00     0.058 A 
ATOM     92  C   UNL A   1      40.531  35.021  37.427  1.00  0.00     0.135 A 
ATOM     93  C   UNL A   1      39.020  33.371  38.304  1.00  0.00     0.135 A 
ATOM     94  F   UNL A   1      41.434  35.430  36.521  1.00  0.00    -0.206 F 
ATOM     95  C   UNL A   1      40.214  35.880  38.476  1.00  0.00     0.059 A 
ATOM     96  C   UNL A   1      38.664  34.226  39.343  1.00  0.00     0.059 A 
ATOM     97  F   UNL A   1      38.427  32.167  38.250  1.00  0.00    -0.206 F 
ATOM     98  C   UNL A   1      39.282  35.472  39.430  1.00  0.00     0.060 A 
BRANCH  98  99
ATOM     99  S   UNL A   1      38.871  36.598  40.781  1.00  0.00     0.124 S 
ATOM    100  O   UNL A   1      40.173  36.786  41.412  1.00  0.00    -0.237 OA
ATOM    101  O   UNL A   1      38.336  37.756  40.072  1.00  0.00    -0.237 OA
ATOM    102  O   UNL A   1      37.896  35.846  41.567  1.00  0.00    -0.744 OA
ENDBRANCH  98  99
ENDBRANCH  66  91
ENDBRANCH  40  41
ENDBRANCH  33  35
ENDBRANCH  32  33
ENDBRANCH  31  32
ENDBRANCH  30  31
ENDBRANCH  29  30
ENDBRANCH  28  29
ENDBRANCH   1  28
TORSDOF 23
ENDMDL
MODEL 2
REMARK VINA RESULT:     -10.2      2.126      8.699
REMARK SMILES O=C(C[C@H]1SC[C@@H](C(=O)OCCOCCOCCOC(=O)c2ccc(-c3c4nc(c(-c5c(F)cc(S(=O)(=O)[O-])cc5F)c5ccc([nH]5)c(-c5c(F)cc(S(=O)(=O)[O-])cc5F)c5nc(c(-c6c(F)cc(S(=O)(=O)[O-])cc6F)c6ccc3[nH]6)C=C5)C=C4)cc2)NC1=O)Nc1cccc(Cl)c1
REMARK SMILES IDX 14 1 13 2 12 3 11 4 10 5 8 6 9 7 7 8 4 9 5 10 89 11 6 12
REMARK SMILES IDX 88 13 90 14 3 16 2 17 1 18 91 19 92 21 93 22 98 23 94 24
REMARK SMILES IDX 96 25 95 26 97 27 15 28 16 29 17 30 18 31 19 32 20 33 21 34
REMARK SMILES IDX 22 35 23 36 87 37 24 38 86 39 25 40 26 41 27 42 80 43 28 44
REMARK SMILES IDX 85 45 79 46 81 47 29 48 84 49 78 50 77 51 30 53 64 54 43 55
REMARK SMILES IDX 63 56 44 57 47 58 62 59 82 60 45 61 46 62 61 64 83 65 48 66
REMARK SMILES IDX 31 67 32 68 41 69 33 70 34 71 40 72 42 73 35 74 36 75 37 76
REMARK SMILES IDX 38 77 39 78 65 79 66 80 75 81 67 82 68 83 74 84 76 85 69 86
REMARK SMILES IDX 70 87 71 88 72 89 73 90 49 91 50 92 59 93 51 94 52 95 58 96
REMARK SMILES IDX 60 97 53 98 54 99 55 100 56 101 57 102
REMARK H PARENT 88 15 91 20 81 52 47 63
REMARK Flexibility Score: inf
ROOT
ATOM      1  C   UNL A   1      40.081  21.620  26.934  1.00  0.00     0.188 C 
ENDROOT
BRANCH   1   2
ATOM      2  O   UNL A   1      39.464  22.101  25.759  1.00  0.00    -0.376 OA
BRANCH   2   3
ATOM      3  C   UNL A   1      38.088  21.821  25.557  1.00  0.00     0.202 C 
BRANCH   3   4
ATOM      4  C   UNL A   1      37.001  22.898  25.748  1.00  0.00     0.261 C 
BRANCH   4   5
ATOM      5  O   UNL A   1      36.558  23.572  24.564  1.00  0.00    -0.462 OA
BRANCH   5   6
ATOM      6  C   UNL A   1      35.367  23.170  24.050  1.00  0.00     0.329 C 
ATOM      7  O   UNL A   1      35.065  22.001  23.874  1.00  0.00    -0.250 OA
BRANCH   6   8
ATOM      8  C   UNL A   1      34.500  24.376  23.651  1.00  0.00     0.202 C 
ATOM      9  C   UNL A   1      31.971  23.649  25.161  1.00  0.00     0.145 C 
ATOM     10  S   UNL A   1      33.225  24.555  26.128  1.00  0.00    -0.145 SA
ATOM     11  C   UNL A   1      32.180  23.483  23.665  1.00  0.00     0.234 C 
ATOM     12  C   UNL A   1      34.237  25.312  24.823  1.00  0.00     0.107 C 
ATOM     13  N   UNL A   1      33.280  23.928  23.021  1.00  0.00    -0.341 N 
ATOM     14  O   UNL A   1      31.358  22.870  22.975  1.00  0.00    -0.274 OA
ATOM     15  H   UNL A   1      33.248  23.949  22.038  1.00  0.00     0.164 HD
BRANCH   9  16
ATOM     16  C   UNL A   1      31.576  22.314  25.806  1.00  0.00     0.124 C 
BRANCH  16  17
ATOM     17  C   UNL A   1      32.616  21.200  25.912  1.00  0.00     0.226 C 
ATOM     18  O   UNL A   1      33.471  21.239  26.794  1.00  0.00    -0.275 OA
ATOM     19  N   UNL A   1      32.439  20.140  25.035  1.00  0.00    -0.326 N 
ATOM     20  H   UNL A   1      31.774  20.261  24.319  1.00  0.00     0.169 HD
BRANCH  19  21
ATOM     21  C   UNL A   1      33.117  18.902  25.073  1.00  0.00     0.042 A 
ATOM     22  C   UNL A   1      34.447  18.873  24.626  1.00  0.00     0.026 A 
ATOM     23  C   UNL A   1      32.502  17.711  25.460  1.00  0.00     0.046 A 
ATOM     24  C   UNL A   1      35.155  17.669  24.576  1.00  0.00     0.004 A 
ATOM     25  C   UNL A   1      33.199  16.506  25.367  1.00  0.00     0.043 A 
ATOM     26  C   UNL A   1      34.523  16.480  24.933  1.00  0.00     0.020 A 
ATOM     27  Cl  UNL A   1      32.406  15.024  25.748  1.00  0.00    -0.084 Cl
ENDBRANCH  19  21
ENDBRANCH  16  17
ENDBRANCH   9  16
ENDBRANCH   6   8
ENDBRANCH   5   6
ENDBRANCH   4   5
ENDBRANCH   3   4
ENDBRANCH   2   3
ENDBRANCH   1   2
BRANCH   1  28
ATOM     28  C   UNL A   1      41.210  20.609  26.636  1.00  0.00     0.188 C 
BRANCH  28  29
ATOM     29  O   UNL A   1      42.191  20.906  25.653  1.00  0.00    -0.376 OA
BRANCH  29  30
ATOM     30  C   UNL A   1      43.132  21.938  25.936  1.00  0.00     0.202 C 
BRANCH  30  31
ATOM     31  C   UNL A   1      42.966  23.362  25.358  1.00  0.00     0.261 C 
BRANCH  31  32
ATOM     32  O   UNL A   1      42.163  24.284  26.118  1.00  0.00    -0.460 OA
BRANCH  32  33
ATOM     33  C   UNL A   1      42.257  25.584  25.749  1.00  0.00     0.338 C 
ATOM     34  O   UNL A   1      42.532  26.009  24.627  1.00  0.00    -0.246 OA
BRANCH  33  35
ATOM     35  C   UNL A   1      41.741  26.457  26.822  1.00  0.00     0.060 A 
ATOM     36  C   UNL A   1      42.263  27.756  26.936  1.00  0.00     0.016 A 
ATOM     37  C   UNL A   1      40.802  25.995  27.744  1.00  0.00     0.016 A 
ATOM     38  C   UNL A   1      41.873  28.587  27.984  1.00  0.00     0.010 A 
ATOM     39  C   UNL A   1      40.440  26.815  28.820  1.00  0.00     0.010 A 
ATOM     40  C   UNL A   1      41.004  28.098  28.965  1.00  0.00    -0.014 A 
BRANCH  40  41
ATOM     41  C   UNL A   1      40.895  28.822  30.256  1.00  0.00     0.031 A 
ATOM     42  C   UNL A   1      39.842  29.892  30.377  1.00  0.00     0.074 A 
ATOM     43  C   UNL A   1      41.671  28.513  31.310  1.00  0.00     0.049 A 
ATOM     44  N   UNL A   1      39.581  30.695  31.376  1.00  0.00    -0.248 NA
ATOM     45  C   UNL A   1      38.965  30.082  29.209  1.00  0.00     0.031 C 
ATOM     46  C   UNL A   1      42.681  27.457  31.342  1.00  0.00     0.029 A 
ATOM     47  N   UNL A   1      41.729  29.072  32.563  1.00  0.00    -0.354 N 
ATOM     48  C   UNL A   1      38.516  31.485  30.955  1.00  0.00     0.074 A 
ATOM     49  C   UNL A   1      38.203  31.090  29.600  1.00  0.00     0.031 C 
ATOM     50  C   UNL A   1      43.271  27.455  32.551  1.00  0.00     0.029 A 
ATOM     51  C   UNL A   1      42.703  28.528  33.367  1.00  0.00     0.049 A 
ATOM     52  H   UNL A   1      41.131  29.795  32.859  1.00  0.00     0.167 HD
ATOM     53  C   UNL A   1      37.852  32.447  31.639  1.00  0.00     0.037 A 
ATOM     54  C   UNL A   1      43.100  28.872  34.609  1.00  0.00     0.037 A 
ATOM     55  C   UNL A   1      38.173  32.846  32.984  1.00  0.00     0.049 A 
ATOM     56  C   UNL A   1      42.400  30.006  35.321  1.00  0.00     0.074 A 
ATOM     57  C   UNL A   1      37.573  33.822  33.759  1.00  0.00     0.029 A 
ATOM     58  N   UNL A   1      39.185  32.290  33.754  1.00  0.00    -0.354 N 
ATOM     59  N   UNL A   1      41.399  30.749  34.912  1.00  0.00    -0.248 NA
ATOM     60  C   UNL A   1      42.881  30.341  36.669  1.00  0.00     0.031 C 
ATOM     61  C   UNL A   1      38.250  33.887  34.982  1.00  0.00     0.029 A 
ATOM     62  C   UNL A   1      39.233  32.910  34.991  1.00  0.00     0.049 A 
ATOM     63  H   UNL A   1      39.780  31.562  33.463  1.00  0.00     0.167 HD
ATOM     64  C   UNL A   1      41.102  31.606  35.968  1.00  0.00     0.074 A 
ATOM     65  C   UNL A   1      42.028  31.287  37.035  1.00  0.00     0.031 C 
ATOM     66  C   UNL A   1      40.145  32.566  36.053  1.00  0.00     0.037 A 
BRANCH  53  67
ATOM     67  C   UNL A   1      36.729  33.152  30.929  1.00  0.00     0.058 A 
ATOM     68  C   UNL A   1      36.972  34.094  29.916  1.00  0.00     0.135 A 
ATOM     69  C   UNL A   1      35.392  32.868  31.251  1.00  0.00     0.135 A 
ATOM     70  F   UNL A   1      38.231  34.420  29.583  1.00  0.00    -0.206 F 
ATOM     71  C   UNL A   1      35.931  34.748  29.266  1.00  0.00     0.059 A 
ATOM     72  C   UNL A   1      34.334  33.488  30.593  1.00  0.00     0.059 A 
ATOM     73  F   UNL A   1      35.102  31.981  32.215  1.00  0.00    -0.206 F 
ATOM     74  C   UNL A   1      34.615  34.438  29.612  1.00  0.00     0.060 A 
BRANCH  74  75
ATOM     75  S   UNL A   1      33.275  35.294  28.756  1.00  0.00     0.124 S 
ATOM     76  O   UNL A   1      34.014  36.273  27.965  1.00  0.00    -0.237 OA
ATOM     77  O   UNL A   1      32.647  34.213  28.003  1.00  0.00    -0.237 OA
ATOM     78  O   UNL A   1      32.472  35.845  29.844  1.00  0.00    -0.744 OA
ENDBRANCH  74  75
ENDBRANCH  53  67
BRANCH  54  79
ATOM     79  C   UNL A   1      44.220  28.147  35.270  1.00  0.00     0.058 A 
ATOM     80  C   UNL A   1      43.975  27.079  36.146  1.00  0.00     0.135 A 
ATOM     81  C   UNL A   1      45.556  28.530  35.069  1.00  0.00     0.135 A 
ATOM     82  F   UNL A   1      42.716  26.682  36.383  1.00  0.00    -0.206 F 
ATOM     83  C   UNL A   1      45.008  26.436  36.821  1.00  0.00     0.059 A 
ATOM     84  C   UNL A   1      46.608  27.884  35.709  1.00  0.00     0.059 A 
ATOM     85  F   UNL A   1      45.847  29.542  34.235  1.00  0.00    -0.206 F 
ATOM     86  C   UNL A   1      46.323  26.848  36.596  1.00  0.00     0.060 A 
BRANCH  86  87
ATOM     87  S   UNL A   1      47.657  25.994  37.465  1.00  0.00     0.124 S 
ATOM     88  O   UNL A   1      46.937  24.894  38.097  1.00  0.00    -0.237 OA
ATOM     89  O   UNL A   1      48.550  25.627  36.371  1.00  0.00    -0.237 OA
ATOM     90  O   UNL A   1      48.172  27.015  38.373  1.00  0.00    -0.744 OA
ENDBRANCH  86  87
ENDBRANCH  54  79
BRANCH  66  91
ATOM     91  C   UNL A   1      39.997  33.290  37.366  1.00  0.00     0.058 A 
ATOM     92  C   UNL A   1      39.020  32.937  38.309  1.00  0.00     0.135 A 
ATOM     93  C   UNL A   1      40.877  34.334  37.696  1.00  0.00     0.135 A 
ATOM     94  F   UNL A   1      38.153  31.946  38.047  1.00  0.00    -0.206 F 
ATOM     95  C   UNL A   1      38.896  33.618  39.517  1.00  0.00     0.059 A 
ATOM     96  C   UNL A   1      40.792  35.007  38.911  1.00  0.00     0.059 A 
ATOM     97  F   UNL A   1      41.842  34.704  36.838  1.00  0.00    -0.206 F 
ATOM     98  C   UNL A   1      39.786  34.654  39.807  1.00  0.00     0.060 A 
BRANCH  98  99
ATOM     99  S   UNL A   1      39.621  35.524  41.380  1.00  0.00     0.124 S 
ATOM    100  O   UNL A   1      40.678  36.525  41.275  1.00  0.00    -0.237 OA
ATOM    101  O   UNL A   1      38.255  36.035  41.315  1.00  0.00    -0.237 OA
ATOM    102  O   UNL A   1      39.845  34.478  42.374  1.00  0.00    -0.744 OA
ENDBRANCH  98  99
ENDBRANCH  66  91
ENDBRANCH  40  41
ENDBRANCH  33  35
ENDBRANCH  32  33
ENDBRANCH  31  32
ENDBRANCH  30  31
ENDBRANCH  29  30
ENDBRANCH  28  29
ENDBRANCH   1  28
TORSDOF 23
ENDMDL
MODEL 3
REMARK VINA RESULT:     -10.0      1.420      2.096
REMARK SMILES O=C(C[C@H]1SC[C@@H](C(=O)OCCOCCOCCOC(=O)c2ccc(-c3c4nc(c(-c5c(F)cc(S(=O)(=O)[O-])cc5F)c5ccc([nH]5)c(-c5c(F)cc(S(=O)(=O)[O-])cc5F)c5nc(c(-c6c(F)cc(S(=O)(=O)[O-])cc6F)c6ccc3[nH]6)C=C5)C=C4)cc2)NC1=O)Nc1cccc(Cl)c1
REMARK SMILES IDX 14 1 13 2 12 3 11 4 10 5 8 6 9 7 7 8 4 9 5 10 89 11 6 12
REMARK SMILES IDX 88 13 90 14 3 16 2 17 1 18 91 19 92 21 93 22 98 23 94 24
REMARK SMILES IDX 96 25 95 26 97 27 15 28 16 29 17 30 18 31 19 32 20 33 21 34
REMARK SMILES IDX 22 35 23 36 87 37 24 38 86 39 25 40 26 41 27 42 80 43 28 44
REMARK SMILES IDX 85 45 79 46 81 47 29 48 84 49 78 50 77 51 30 53 64 54 43 55
REMARK SMILES IDX 63 56 44 57 47 58 62 59 82 60 45 61 46 62 61 64 83 65 48 66
REMARK SMILES IDX 31 67 32 68 41 69 33 70 34 71 40 72 42 73 35 74 36 75 37 76
REMARK SMILES IDX 38 77 39 78 65 79 66 80 75 81 67 82 68 83 74 84 76 85 69 86
REMARK SMILES IDX 70 87 71 88 72 89 73 90 49 91 50 92 59 93 51 94 52 95 58 96
REMARK SMILES IDX 60 97 53 98 54 99 55 100 56 101 57 102
REMARK H PARENT 88 15 91 20 81 52 47 63
REMARK Flexibility Score: inf
ROOT
ATOM      1  C   UNL A   1      38.222  21.184  25.466  1.00  0.00     0.188 C 
ENDROOT
BRANCH   1   2
ATOM      2  O   UNL A   1      37.003  21.894  25.420  1.00  0.00    -0.376 OA
BRANCH   2   3
ATOM      3  C   UNL A   1      36.924  23.043  24.591  1.00  0.00     0.202 C 
BRANCH   3   4
ATOM      4  C   UNL A   1      36.511  22.949  23.108  1.00  0.00     0.261 C 
BRANCH   4   5
ATOM      5  O   UNL A   1      35.351  23.697  22.722  1.00  0.00    -0.462 OA
BRANCH   5   6
ATOM      6  C   UNL A   1      34.279  23.617  23.551  1.00  0.00     0.329 C 
ATOM      7  O   UNL A   1      33.887  24.541  24.245  1.00  0.00    -0.250 OA
BRANCH   6   8
ATOM      8  C   UNL A   1      33.686  22.197  23.556  1.00  0.00     0.202 C 
ATOM      9  C   UNL A   1      31.708  22.528  25.832  1.00  0.00     0.145 C 
ATOM     10  S   UNL A   1      31.103  23.044  24.190  1.00  0.00    -0.145 SA
ATOM     11  C   UNL A   1      33.048  21.816  25.928  1.00  0.00     0.234 C 
ATOM     12  C   UNL A   1      32.241  22.173  23.074  1.00  0.00     0.107 C 
ATOM     13  N   UNL A   1      33.842  21.595  24.859  1.00  0.00    -0.341 N 
ATOM     14  O   UNL A   1      33.498  21.456  27.021  1.00  0.00    -0.274 OA
ATOM     15  H   UNL A   1      34.592  20.968  24.977  1.00  0.00     0.164 HD
BRANCH   9  16
ATOM     16  C   UNL A   1      31.611  23.646  26.879  1.00  0.00     0.124 C 
BRANCH  16  17
ATOM     17  C   UNL A   1      31.089  25.018  26.458  1.00  0.00     0.226 C 
ATOM     18  O   UNL A   1      29.897  25.289  26.588  1.00  0.00    -0.275 OA
ATOM     19  N   UNL A   1      32.058  25.920  26.045  1.00  0.00    -0.326 N 
ATOM     20  H   UNL A   1      32.964  25.563  25.900  1.00  0.00     0.169 HD
BRANCH  19  21
ATOM     21  C   UNL A   1      31.872  27.300  25.817  1.00  0.00     0.042 A 
ATOM     22  C   UNL A   1      32.275  28.190  26.824  1.00  0.00     0.026 A 
ATOM     23  C   UNL A   1      31.244  27.803  24.676  1.00  0.00     0.046 A 
ATOM     24  C   UNL A   1      32.060  29.564  26.689  1.00  0.00     0.004 A 
ATOM     25  C   UNL A   1      30.993  29.171  24.566  1.00  0.00     0.043 A 
ATOM     26  C   UNL A   1      31.403  30.054  25.562  1.00  0.00     0.020 A 
ATOM     27  Cl  UNL A   1      30.126  29.776  23.205  1.00  0.00    -0.084 Cl
ENDBRANCH  19  21
ENDBRANCH  16  17
ENDBRANCH   9  16
ENDBRANCH   6   8
ENDBRANCH   5   6
ENDBRANCH   4   5
ENDBRANCH   3   4
ENDBRANCH   2   3
ENDBRANCH   1   2
BRANCH   1  28
ATOM     28  C   UNL A   1      39.211  21.773  26.496  1.00  0.00     0.188 C 
BRANCH  28  29
ATOM     29  O   UNL A   1      40.517  22.156  26.092  1.00  0.00    -0.376 OA
BRANCH  29  30
ATOM     30  C   UNL A   1      41.620  21.405  26.592  1.00  0.00     0.202 C 
BRANCH  30  31
ATOM     31  C   UNL A   1      43.079  21.857  26.354  1.00  0.00     0.261 C 
BRANCH  31  32
ATOM     32  O   UNL A   1      43.468  23.125  26.913  1.00  0.00    -0.460 OA
BRANCH  32  33
ATOM     33  C   UNL A   1      43.143  24.214  26.176  1.00  0.00     0.338 C 
ATOM     34  O   UNL A   1      43.165  24.302  24.949  1.00  0.00    -0.246 OA
BRANCH  33  35
ATOM     35  C   UNL A   1      42.510  25.239  27.032  1.00  0.00     0.060 A 
ATOM     36  C   UNL A   1      42.999  26.554  26.971  1.00  0.00     0.016 A 
ATOM     37  C   UNL A   1      41.493  24.908  27.927  1.00  0.00     0.016 A 
ATOM     38  C   UNL A   1      42.495  27.536  27.821  1.00  0.00     0.010 A 
ATOM     39  C   UNL A   1      41.016  25.886  28.809  1.00  0.00     0.010 A 
ATOM     40  C   UNL A   1      41.542  27.192  28.785  1.00  0.00    -0.014 A 
BRANCH  40  41
ATOM     41  C   UNL A   1      41.297  28.119  29.918  1.00  0.00     0.031 A 
ATOM     42  C   UNL A   1      42.178  27.994  31.134  1.00  0.00     0.074 A 
ATOM     43  C   UNL A   1      40.354  29.077  29.860  1.00  0.00     0.049 A 
ATOM     44  N   UNL A   1      42.134  28.648  32.265  1.00  0.00    -0.248 NA
ATOM     45  C   UNL A   1      43.256  26.992  31.060  1.00  0.00     0.031 C 
ATOM     46  C   UNL A   1      39.481  29.342  28.719  1.00  0.00     0.029 A 
ATOM     47  N   UNL A   1      39.973  30.004  30.799  1.00  0.00    -0.354 N 
ATOM     48  C   UNL A   1      43.171  28.134  33.037  1.00  0.00     0.074 A 
ATOM     49  C   UNL A   1      43.804  27.092  32.260  1.00  0.00     0.031 C 
ATOM     50  C   UNL A   1      38.653  30.356  29.030  1.00  0.00     0.029 A 
ATOM     51  C   UNL A   1      38.917  30.789  30.402  1.00  0.00     0.049 A 
ATOM     52  H   UNL A   1      40.414  30.097  31.674  1.00  0.00     0.167 HD
ATOM     53  C   UNL A   1      43.567  28.504  34.278  1.00  0.00     0.037 A 
ATOM     54  C   UNL A   1      38.232  31.734  31.079  1.00  0.00     0.037 A 
ATOM     55  C   UNL A   1      42.929  29.534  35.054  1.00  0.00     0.049 A 
ATOM     56  C   UNL A   1      38.639  32.070  32.494  1.00  0.00     0.074 A 
ATOM     57  C   UNL A   1      43.242  29.972  36.328  1.00  0.00     0.029 A 
ATOM     58  N   UNL A   1      41.844  30.288  34.629  1.00  0.00    -0.354 N 
ATOM     59  N   UNL A   1      39.617  31.575  33.215  1.00  0.00    -0.248 NA
ATOM     60  C   UNL A   1      37.851  33.102  33.184  1.00  0.00     0.031 C 
ATOM     61  C   UNL A   1      42.320  30.959  36.691  1.00  0.00     0.029 A 
ATOM     62  C   UNL A   1      41.469  31.179  35.619  1.00  0.00     0.049 A 
ATOM     63  H   UNL A   1      41.406  30.201  33.751  1.00  0.00     0.167 HD
ATOM     64  C   UNL A   1      39.589  32.268  34.423  1.00  0.00     0.074 A 
ATOM     65  C   UNL A   1      38.500  33.217  34.334  1.00  0.00     0.031 C 
ATOM     66  C   UNL A   1      40.397  32.136  35.507  1.00  0.00     0.037 A 
BRANCH  53  67
ATOM     67  C   UNL A   1      44.731  27.767  34.881  1.00  0.00     0.058 A 
ATOM     68  C   UNL A   1      46.051  28.226  34.738  1.00  0.00     0.135 A 
ATOM     69  C   UNL A   1      44.524  26.596  35.629  1.00  0.00     0.135 A 
ATOM     70  F   UNL A   1      46.309  29.326  34.013  1.00  0.00    -0.206 F 
ATOM     71  C   UNL A   1      47.125  27.537  35.291  1.00  0.00     0.059 A 
ATOM     72  C   UNL A   1      45.581  25.907  36.216  1.00  0.00     0.059 A 
ATOM     73  F   UNL A   1      43.284  26.109  35.792  1.00  0.00    -0.206 F 
ATOM     74  C   UNL A   1      46.880  26.378  36.029  1.00  0.00     0.060 A 
BRANCH  74  75
ATOM     75  S   UNL A   1      48.284  25.499  36.745  1.00  0.00     0.124 S 
ATOM     76  O   UNL A   1      48.381  24.339  35.862  1.00  0.00    -0.237 OA
ATOM     77  O   UNL A   1      49.359  26.478  36.624  1.00  0.00    -0.237 OA
ATOM     78  O   UNL A   1      47.849  25.213  38.109  1.00  0.00    -0.744 OA
ENDBRANCH  74  75
ENDBRANCH  53  67
BRANCH  54  79
ATOM     79  C   UNL A   1      37.083  32.434  30.440  1.00  0.00     0.058 A 
ATOM     80  C   UNL A   1      37.280  33.575  29.648  1.00  0.00     0.135 A 
ATOM     81  C   UNL A   1      35.763  31.999  30.638  1.00  0.00     0.135 A 
ATOM     82  F   UNL A   1      38.521  34.040  29.438  1.00  0.00    -0.206 F 
ATOM     83  C   UNL A   1      36.211  34.278  29.100  1.00  0.00     0.059 A 
ATOM     84  C   UNL A   1      34.680  32.666  30.077  1.00  0.00     0.059 A 
ATOM     85  F   UNL A   1      35.519  30.908  31.382  1.00  0.00    -0.206 F 
ATOM     86  C   UNL A   1      34.912  33.814  29.322  1.00  0.00     0.060 A 
BRANCH  86  87
ATOM     87  S   UNL A   1      33.534  34.724  28.590  1.00  0.00     0.124 S 
ATOM     88  O   UNL A   1      32.537  34.647  29.652  1.00  0.00    -0.237 OA
ATOM     89  O   UNL A   1      34.122  36.039  28.361  1.00  0.00    -0.237 OA
ATOM     90  O   UNL A   1      33.231  33.959  27.384  1.00  0.00    -0.744 OA
ENDBRANCH  86  87
ENDBRANCH  54  79
BRANCH  66  91
ATOM     91  C   UNL A   1      40.185  33.089  36.655  1.00  0.00     0.058 A 
ATOM     92  C   UNL A   1      40.938  34.264  36.800  1.00  0.00     0.135 A 
ATOM     93  C   UNL A   1      39.184  32.832  37.606  1.00  0.00     0.135 A 
ATOM     94  F   UNL A   1      41.908  34.560  35.920  1.00  0.00    -0.206 F 
ATOM     95  C   UNL A   1      40.730  35.133  37.868  1.00  0.00     0.059 A 
ATOM     96  C   UNL A   1      38.937  33.702  38.663  1.00  0.00     0.059 A 
ATOM     97  F   UNL A   1      38.422  31.731  37.508  1.00  0.00    -0.206 F 
ATOM     98  C   UNL A   1      39.729  34.841  38.796  1.00  0.00     0.060 A 
BRANCH  98  99
ATOM     99  S   UNL A   1      39.463  35.979  40.172  1.00  0.00     0.124 S 
ATOM    100  O   UNL A   1      38.543  35.218  41.010  1.00  0.00    -0.237 OA
ATOM    101  O   UNL A   1      40.811  36.150  40.704  1.00  0.00    -0.237 OA
ATOM    102  O   UNL A   1      38.894  37.162  39.531  1.00  0.00    -0.744 OA
ENDBRANCH  98  99
ENDBRANCH  66  91
ENDBRANCH  40  41
ENDBRANCH  33  35
ENDBRANCH  32  33
ENDBRANCH  31  32
ENDBRANCH  30  31
ENDBRANCH  29  30
ENDBRANCH  28  29
ENDBRANCH   1  28
TORSDOF 23
ENDMDL
