MODEL 1
REMARK VINA RESULT:     -10.7      0.000      0.000
REMARK SMILES CC[C@@H]1CC[C@](C[C@@H]2CCCc3ccccc32)(C(=O)OCCOCCOCCOC(=O)c2ccc(-c3c4nc(c(-c5c(F)cc(S(=O)(=O)[O-])cc5F)c5ccc([nH]5)c(-c5c(F)cc(S(=O)(=O)[O-])cc5F)c5nc(c(-c6c(F)cc(S(=O)(=O)[O-])cc6F)c6ccc3[nH]6)C=C5)C=C4)cc2)C1
REMARK SMILES IDX 25 1 24 2 23 3 22 4 21 5 20 6 18 7 19 8 6 9 3 10 4 11 98 12
REMARK SMILES IDX 5 13 2 14 1 15 7 16 8 17 9 18 17 19 10 20 12 21 16 22 11 23
REMARK SMILES IDX 13 24 15 25 14 26 26 27 27 28 28 29 29 30 30 31 31 32 32 33
REMARK SMILES IDX 33 34 97 35 34 36 96 37 35 38 36 39 37 40 90 41 38 42 95 43
REMARK SMILES IDX 89 44 91 45 39 46 94 47 88 48 87 49 40 51 74 52 53 53 73 54
REMARK SMILES IDX 54 55 57 56 72 57 92 58 55 59 56 60 71 62 93 63 58 64 41 65
REMARK SMILES IDX 42 66 51 67 43 68 44 69 50 70 52 71 45 72 46 73 47 74 48 75
REMARK SMILES IDX 49 76 75 77 76 78 85 79 77 80 78 81 84 82 86 83 79 84 80 85
REMARK SMILES IDX 81 86 82 87 83 88 59 89 60 90 69 91 61 92 62 93 68 94 70 95
REMARK SMILES IDX 63 96 64 97 65 98 66 99 67 100
REMARK H PARENT 91 50 57 61
REMARK Flexibility Score: inf
ROOT
ATOM      1  C   UNL A   1      39.212  21.698  26.089  1.00  0.00     0.188 C 
ENDROOT
BRANCH   1   2
ATOM      2  C   UNL A   1      37.769  21.493  25.628  1.00  0.00     0.188 C 
BRANCH   2   3
ATOM      3  O   UNL A   1      37.225  22.422  24.710  1.00  0.00    -0.376 OA
BRANCH   3   4
ATOM      4  C   UNL A   1      35.833  22.680  24.813  1.00  0.00     0.202 C 
BRANCH   4   5
ATOM      5  C   UNL A   1      35.371  23.978  25.502  1.00  0.00     0.261 C 
BRANCH   5   6
ATOM      6  O   UNL A   1      34.266  24.686  24.898  1.00  0.00    -0.463 OA
BRANCH   6   7
ATOM      7  C   UNL A   1      33.194  24.863  25.729  1.00  0.00     0.312 C 
ATOM      8  O   UNL A   1      32.877  24.046  26.588  1.00  0.00    -0.252 OA
BRANCH   7   9
ATOM      9  C   UNL A   1      32.353  26.138  25.426  1.00  0.00     0.069 C 
ATOM     10  C   UNL A   1      32.655  28.470  26.043  1.00  0.00    -0.010 C 
ATOM     11  C   UNL A   1      31.869  27.819  27.169  1.00  0.00     0.005 C 
ATOM     12  C   UNL A   1      33.384  27.291  25.415  1.00  0.00     0.022 C 
ATOM     13  C   UNL A   1      31.335  26.537  26.520  1.00  0.00     0.019 C 
BRANCH  10  14
ATOM     14  C   UNL A   1      33.518  29.659  26.444  1.00  0.00     0.000 C 
ATOM     15  C   UNL A   1      34.680  29.229  27.333  1.00  0.00     0.004 C 
ENDBRANCH  10  14
BRANCH   9  16
ATOM     16  C   UNL A   1      31.636  25.822  24.059  1.00  0.00     0.027 C 
BRANCH  16  17
ATOM     17  C   UNL A   1      30.945  26.817  23.065  1.00  0.00     0.020 C 
ATOM     18  C   UNL A   1      31.898  27.807  22.364  1.00  0.00     0.009 C 
ATOM     19  C   UNL A   1      29.546  27.377  23.347  1.00  0.00    -0.042 A 
ATOM     20  C   UNL A   1      31.535  29.272  22.576  1.00  0.00     0.005 C 
ATOM     21  C   UNL A   1      29.156  28.639  22.836  1.00  0.00    -0.045 A 
ATOM     22  C   UNL A   1      28.547  26.572  23.925  1.00  0.00     0.004 A 
ATOM     23  C   UNL A   1      30.123  29.532  22.104  1.00  0.00     0.036 C 
ATOM     24  C   UNL A   1      27.817  29.060  22.912  1.00  0.00     0.004 A 
ATOM     25  C   UNL A   1      27.216  27.004  23.994  1.00  0.00     0.000 A 
ATOM     26  C   UNL A   1      26.852  28.245  23.487  1.00  0.00     0.000 A 
ENDBRANCH  16  17
ENDBRANCH   9  16
ENDBRANCH   7   9
ENDBRANCH   6   7
ENDBRANCH   5   6
ENDBRANCH   4   5
ENDBRANCH   3   4
ENDBRANCH   2   3
ENDBRANCH   1   2
BRANCH   1  27
ATOM     27  O   UNL A   1      40.103  20.590  26.097  1.00  0.00    -0.376 OA
BRANCH  27  28
ATOM     28  C   UNL A   1      41.329  20.840  26.804  1.00  0.00     0.202 C 
BRANCH  28  29
ATOM     29  C   UNL A   1      41.294  21.985  27.846  1.00  0.00     0.261 C 
BRANCH  29  30
ATOM     30  O   UNL A   1      42.355  22.968  27.751  1.00  0.00    -0.460 OA
BRANCH  30  31
ATOM     31  C   UNL A   1      42.149  24.055  26.968  1.00  0.00     0.338 C 
ATOM     32  O   UNL A   1      42.064  24.046  25.749  1.00  0.00    -0.246 OA
BRANCH  31  33
ATOM     33  C   UNL A   1      41.760  25.219  27.824  1.00  0.00     0.060 A 
ATOM     34  C   UNL A   1      42.657  26.295  27.927  1.00  0.00     0.016 A 
ATOM     35  C   UNL A   1      40.517  25.306  28.461  1.00  0.00     0.016 A 
ATOM     36  C   UNL A   1      42.343  27.419  28.706  1.00  0.00     0.010 A 
ATOM     37  C   UNL A   1      40.210  26.425  29.252  1.00  0.00     0.010 A 
ATOM     38  C   UNL A   1      41.136  27.474  29.414  1.00  0.00    -0.014 A 
BRANCH  38  39
ATOM     39  C   UNL A   1      40.934  28.497  30.482  1.00  0.00     0.031 A 
ATOM     40  C   UNL A   1      41.821  28.434  31.703  1.00  0.00     0.074 A 
ATOM     41  C   UNL A   1      40.013  29.476  30.393  1.00  0.00     0.049 A 
ATOM     42  N   UNL A   1      41.803  29.168  32.788  1.00  0.00    -0.248 NA
ATOM     43  C   UNL A   1      42.868  27.400  31.695  1.00  0.00     0.031 C 
ATOM     44  C   UNL A   1      39.114  29.699  29.265  1.00  0.00     0.029 A 
ATOM     45  N   UNL A   1      39.678  30.466  31.290  1.00  0.00    -0.354 N 
ATOM     46  C   UNL A   1      42.827  28.680  33.592  1.00  0.00     0.074 A 
ATOM     47  C   UNL A   1      43.426  27.570  32.884  1.00  0.00     0.031 C 
ATOM     48  C   UNL A   1      38.317  30.748  29.544  1.00  0.00     0.029 A 
ATOM     49  C   UNL A   1      38.625  31.253  30.884  1.00  0.00     0.049 A 
ATOM     50  H   UNL A   1      40.148  30.599  32.145  1.00  0.00     0.167 HD
ATOM     51  C   UNL A   1      43.242  29.115  34.806  1.00  0.00     0.037 A 
ATOM     52  C   UNL A   1      37.968  32.246  31.522  1.00  0.00     0.037 A 
ATOM     53  C   UNL A   1      42.655  30.216  35.525  1.00  0.00     0.049 A 
ATOM     54  C   UNL A   1      38.391  32.661  32.913  1.00  0.00     0.074 A 
ATOM     55  C   UNL A   1      43.028  30.735  36.754  1.00  0.00     0.029 A 
ATOM     56  N   UNL A   1      41.569  30.959  35.092  1.00  0.00    -0.354 N 
ATOM     57  N   UNL A   1      39.375  32.206  33.652  1.00  0.00    -0.248 NA
ATOM     58  C   UNL A   1      37.608  33.728  33.560  1.00  0.00     0.031 C 
ATOM     59  C   UNL A   1      42.134  31.758  37.088  1.00  0.00     0.029 A 
ATOM     60  C   UNL A   1      41.239  31.914  36.042  1.00  0.00     0.049 A 
ATOM     61  H   UNL A   1      41.100  30.828  34.236  1.00  0.00     0.167 HD
ATOM     62  C   UNL A   1      39.346  32.947  34.831  1.00  0.00     0.074 A 
ATOM     63  C   UNL A   1      38.252  33.887  34.708  1.00  0.00     0.031 C 
ATOM     64  C   UNL A   1      40.155  32.856  35.918  1.00  0.00     0.037 A 
BRANCH  51  65
ATOM     65  C   UNL A   1      44.379  28.373  35.453  1.00  0.00     0.058 A 
ATOM     66  C   UNL A   1      45.718  28.709  35.204  1.00  0.00     0.135 A 
ATOM     67  C   UNL A   1      44.122  27.325  36.351  1.00  0.00     0.135 A 
ATOM     68  F   UNL A   1      46.020  29.692  34.340  1.00  0.00    -0.206 F 
ATOM     69  C   UNL A   1      46.765  28.011  35.797  1.00  0.00     0.059 A 
ATOM     70  C   UNL A   1      45.152  26.631  36.979  1.00  0.00     0.059 A 
ATOM     71  F   UNL A   1      42.859  26.963  36.625  1.00  0.00    -0.206 F 
ATOM     72  C   UNL A   1      46.471  26.971  36.681  1.00  0.00     0.060 A 
BRANCH  72  73
ATOM     73  S   UNL A   1      47.840  26.067  37.434  1.00  0.00     0.124 S 
ATOM     74  O   UNL A   1      48.810  26.047  36.343  1.00  0.00    -0.237 OA
ATOM     75  O   UNL A   1      48.184  26.912  38.573  1.00  0.00    -0.237 OA
ATOM     76  O   UNL A   1      47.250  24.774  37.771  1.00  0.00    -0.744 OA
ENDBRANCH  72  73
ENDBRANCH  51  65
BRANCH  52  77
ATOM     77  C   UNL A   1      36.812  32.919  30.867  1.00  0.00     0.058 A 
ATOM     78  C   UNL A   1      37.002  33.887  29.870  1.00  0.00     0.135 A 
ATOM     79  C   UNL A   1      35.492  32.625  31.246  1.00  0.00     0.135 A 
ATOM     80  F   UNL A   1      38.245  34.223  29.491  1.00  0.00    -0.206 F 
ATOM     81  C   UNL A   1      35.929  34.546  29.277  1.00  0.00     0.059 A 
ATOM     82  C   UNL A   1      34.402  33.252  30.649  1.00  0.00     0.059 A 
ATOM     83  F   UNL A   1      35.253  31.710  32.198  1.00  0.00    -0.206 F 
ATOM     84  C   UNL A   1      34.631  34.218  29.670  1.00  0.00     0.060 A 
BRANCH  84  85
ATOM     85  S   UNL A   1      33.244  35.041  28.857  1.00  0.00     0.124 S 
ATOM     86  O   UNL A   1      33.902  36.188  28.240  1.00  0.00    -0.237 OA
ATOM     87  O   UNL A   1      32.770  34.009  27.940  1.00  0.00    -0.237 OA
ATOM     88  O   UNL A   1      32.341  35.350  29.962  1.00  0.00    -0.744 OA
ENDBRANCH  84  85
ENDBRANCH  52  77
BRANCH  64  89
ATOM     89  C   UNL A   1      39.925  33.818  37.054  1.00  0.00     0.058 A 
ATOM     90  C   UNL A   1      40.429  35.128  37.033  1.00  0.00     0.135 A 
ATOM     91  C   UNL A   1      39.132  33.445  38.154  1.00  0.00     0.135 A 
ATOM     92  F   UNL A   1      41.195  35.539  36.009  1.00  0.00    -0.206 F 
ATOM     93  C   UNL A   1      40.175  36.025  38.066  1.00  0.00     0.059 A 
ATOM     94  C   UNL A   1      38.843  34.333  39.186  1.00  0.00     0.059 A 
ATOM     95  F   UNL A   1      38.612  32.209  38.223  1.00  0.00    -0.206 F 
ATOM     96  C   UNL A   1      39.378  35.620  39.139  1.00  0.00     0.060 A 
BRANCH  96  97
ATOM     97  S   UNL A   1      39.025  36.805  40.457  1.00  0.00     0.124 S 
ATOM     98  O   UNL A   1      37.996  36.102  41.217  1.00  0.00    -0.237 OA
ATOM     99  O   UNL A   1      40.320  36.938  41.115  1.00  0.00    -0.237 OA
ATOM    100  O   UNL A   1      38.570  37.991  39.735  1.00  0.00    -0.744 OA
ENDBRANCH  96  97
ENDBRANCH  64  89
ENDBRANCH  38  39
ENDBRANCH  31  33
ENDBRANCH  30  31
ENDBRANCH  29  30
ENDBRANCH  28  29
ENDBRANCH  27  28
ENDBRANCH   1  27
TORSDOF 23
ENDMDL
MODEL 2
REMARK VINA RESULT:     -10.7      4.630      5.813
REMARK SMILES CC[C@@H]1CC[C@](C[C@@H]2CCCc3ccccc32)(C(=O)OCCOCCOCCOC(=O)c2ccc(-c3c4nc(c(-c5c(F)cc(S(=O)(=O)[O-])cc5F)c5ccc([nH]5)c(-c5c(F)cc(S(=O)(=O)[O-])cc5F)c5nc(c(-c6c(F)cc(S(=O)(=O)[O-])cc6F)c6ccc3[nH]6)C=C5)C=C4)cc2)C1
REMARK SMILES IDX 25 1 24 2 23 3 22 4 21 5 20 6 18 7 19 8 6 9 3 10 4 11 98 12
REMARK SMILES IDX 5 13 2 14 1 15 7 16 8 17 9 18 17 19 10 20 12 21 16 22 11 23
REMARK SMILES IDX 13 24 15 25 14 26 26 27 27 28 28 29 29 30 30 31 31 32 32 33
REMARK SMILES IDX 33 34 97 35 34 36 96 37 35 38 36 39 37 40 90 41 38 42 95 43
REMARK SMILES IDX 89 44 91 45 39 46 94 47 88 48 87 49 40 51 74 52 53 53 73 54
REMARK SMILES IDX 54 55 57 56 72 57 92 58 55 59 56 60 71 62 93 63 58 64 41 65
REMARK SMILES IDX 42 66 51 67 43 68 44 69 50 70 52 71 45 72 46 73 47 74 48 75
REMARK SMILES IDX 49 76 75 77 76 78 85 79 77 80 78 81 84 82 86 83 79 84 80 85
REMARK SMILES IDX 81 86 82 87 83 88 59 89 60 90 69 91 61 92 62 93 68 94 70 95
REMARK SMILES IDX 63 96 64 97 65 98 66 99 67 100
REMARK H PARENT 91 50 57 61
REMARK Flexibility Score: inf
ROOT
ATOM      1  C   UNL A   1      34.133  20.384  24.637  1.00  0.00     0.188 C 
ENDROOT
BRANCH   1   2
ATOM      2  C   UNL A   1      32.641  20.245  24.335  1.00  0.00     0.188 C 
BRANCH   2   3
ATOM      3  O   UNL A   1      31.720  20.593  25.352  1.00  0.00    -0.376 OA
BRANCH   3   4
ATOM      4  C   UNL A   1      31.458  21.977  25.528  1.00  0.00     0.202 C 
BRANCH   4   5
ATOM      5  C   UNL A   1      31.525  22.567  26.949  1.00  0.00     0.261 C 
BRANCH   5   6
ATOM      6  O   UNL A   1      31.486  24.007  27.066  1.00  0.00    -0.463 OA
BRANCH   6   7
ATOM      7  C   UNL A   1      32.556  24.643  26.501  1.00  0.00     0.312 C 
ATOM      8  O   UNL A   1      33.697  24.194  26.548  1.00  0.00    -0.252 OA
BRANCH   7   9
ATOM      9  C   UNL A   1      32.221  26.032  25.882  1.00  0.00     0.069 C 
ATOM     10  C   UNL A   1      33.186  28.238  26.217  1.00  0.00    -0.010 C 
ATOM     11  C   UNL A   1      32.098  28.074  27.264  1.00  0.00     0.005 C 
ATOM     12  C   UNL A   1      33.564  26.799  25.896  1.00  0.00     0.022 C 
ATOM     13  C   UNL A   1      31.260  26.915  26.713  1.00  0.00     0.019 C 
BRANCH  10  14
ATOM     14  C   UNL A   1      34.333  29.165  26.599  1.00  0.00     0.000 C 
ATOM     15  C   UNL A   1      33.828  30.407  27.325  1.00  0.00     0.004 C 
ENDBRANCH  10  14
BRANCH   9  16
ATOM     16  C   UNL A   1      31.617  25.698  24.465  1.00  0.00     0.027 C 
BRANCH  16  17
ATOM     17  C   UNL A   1      31.124  26.687  23.355  1.00  0.00     0.020 C 
ATOM     18  C   UNL A   1      32.226  27.564  22.726  1.00  0.00     0.009 C 
ATOM     19  C   UNL A   1      29.752  27.363  23.446  1.00  0.00    -0.042 A 
ATOM     20  C   UNL A   1      31.959  29.061  22.830  1.00  0.00     0.005 C 
ATOM     21  C   UNL A   1      29.523  28.621  22.838  1.00  0.00    -0.045 A 
ATOM     22  C   UNL A   1      28.632  26.666  23.939  1.00  0.00     0.004 A 
ATOM     23  C   UNL A   1      30.635  29.400  22.185  1.00  0.00     0.036 C 
ATOM     24  C   UNL A   1      28.222  29.143  22.738  1.00  0.00     0.004 A 
ATOM     25  C   UNL A   1      27.341  27.198  23.832  1.00  0.00     0.000 A 
ATOM     26  C   UNL A   1      27.136  28.434  23.231  1.00  0.00     0.000 A 
ENDBRANCH  16  17
ENDBRANCH   9  16
ENDBRANCH   7   9
ENDBRANCH   6   7
ENDBRANCH   5   6
ENDBRANCH   4   5
ENDBRANCH   3   4
ENDBRANCH   2   3
ENDBRANCH   1   2
BRANCH   1  27
ATOM     27  O   UNL A   1      34.716  21.680  24.677  1.00  0.00    -0.376 OA
BRANCH  27  28
ATOM     28  C   UNL A   1      36.129  21.685  24.414  1.00  0.00     0.202 C 
BRANCH  28  29
ATOM     29  C   UNL A   1      37.050  21.927  25.636  1.00  0.00     0.261 C 
BRANCH  29  30
ATOM     30  O   UNL A   1      38.383  22.414  25.345  1.00  0.00    -0.460 OA
BRANCH  30  31
ATOM     31  C   UNL A   1      39.314  22.350  26.328  1.00  0.00     0.338 C 
ATOM     32  O   UNL A   1      39.966  21.361  26.627  1.00  0.00    -0.246 OA
BRANCH  31  33
ATOM     33  C   UNL A   1      39.628  23.734  26.806  1.00  0.00     0.060 A 
ATOM     34  C   UNL A   1      40.133  24.658  25.876  1.00  0.00     0.016 A 
ATOM     35  C   UNL A   1      39.371  24.157  28.114  1.00  0.00     0.016 A 
ATOM     36  C   UNL A   1      40.436  25.972  26.261  1.00  0.00     0.010 A 
ATOM     37  C   UNL A   1      39.688  25.469  28.502  1.00  0.00     0.010 A 
ATOM     38  C   UNL A   1      40.260  26.377  27.590  1.00  0.00    -0.014 A 
BRANCH  38  39
ATOM     39  C   UNL A   1      40.870  27.649  28.077  1.00  0.00     0.031 A 
ATOM     40  C   UNL A   1      42.373  27.787  28.017  1.00  0.00     0.074 A 
ATOM     41  C   UNL A   1      40.138  28.678  28.547  1.00  0.00     0.049 A 
ATOM     42  N   UNL A   1      43.140  28.763  28.432  1.00  0.00    -0.248 NA
ATOM     43  C   UNL A   1      43.104  26.666  27.405  1.00  0.00     0.031 C 
ATOM     44  C   UNL A   1      38.681  28.721  28.629  1.00  0.00     0.029 A 
ATOM     45  N   UNL A   1      40.537  29.893  29.060  1.00  0.00    -0.354 N 
ATOM     46  C   UNL A   1      44.442  28.372  28.140  1.00  0.00     0.074 A 
ATOM     47  C   UNL A   1      44.362  27.057  27.540  1.00  0.00     0.031 C 
ATOM     48  C   UNL A   1      38.309  29.893  29.176  1.00  0.00     0.029 A 
ATOM     49  C   UNL A   1      39.501  30.674  29.515  1.00  0.00     0.049 A 
ATOM     50  H   UNL A   1      41.480  30.176  29.098  1.00  0.00     0.167 HD
ATOM     51  C   UNL A   1      45.602  29.042  28.342  1.00  0.00     0.037 A 
ATOM     52  C   UNL A   1      39.507  31.865  30.152  1.00  0.00     0.037 A 
ATOM     53  C   UNL A   1      45.699  30.349  28.939  1.00  0.00     0.049 A 
ATOM     54  C   UNL A   1      40.818  32.559  30.446  1.00  0.00     0.074 A 
ATOM     55  C   UNL A   1      46.835  31.107  29.163  1.00  0.00     0.029 A 
ATOM     56  N   UNL A   1      44.627  31.085  29.418  1.00  0.00    -0.354 N 
ATOM     57  N   UNL A   1      42.040  32.187  30.144  1.00  0.00    -0.248 NA
ATOM     58  C   UNL A   1      40.750  33.839  31.173  1.00  0.00     0.031 C 
ATOM     59  C   UNL A   1      46.456  32.281  29.825  1.00  0.00     0.029 A 
ATOM     60  C   UNL A   1      45.077  32.277  29.963  1.00  0.00     0.049 A 
ATOM     61  H   UNL A   1      43.685  30.803  29.377  1.00  0.00     0.167 HD
ATOM     62  C   UNL A   1      42.877  33.196  30.617  1.00  0.00     0.074 A 
ATOM     63  C   UNL A   1      42.025  34.199  31.219  1.00  0.00     0.031 C 
ATOM     64  C   UNL A   1      44.230  33.282  30.555  1.00  0.00     0.037 A 
BRANCH  51  65
ATOM     65  C   UNL A   1      46.876  28.353  27.935  1.00  0.00     0.058 A 
ATOM     66  C   UNL A   1      47.401  28.473  26.639  1.00  0.00     0.135 A 
ATOM     67  C   UNL A   1      47.592  27.580  28.863  1.00  0.00     0.135 A 
ATOM     68  F   UNL A   1      46.747  29.187  25.708  1.00  0.00    -0.206 F 
ATOM     69  C   UNL A   1      48.573  27.824  26.267  1.00  0.00     0.059 A 
ATOM     70  C   UNL A   1      48.782  26.945  28.521  1.00  0.00     0.059 A 
ATOM     71  F   UNL A   1      47.134  27.432  30.116  1.00  0.00    -0.206 F 
ATOM     72  C   UNL A   1      49.255  27.060  27.215  1.00  0.00     0.060 A 
BRANCH  72  73
ATOM     73  S   UNL A   1      50.769  26.215  26.714  1.00  0.00     0.124 S 
ATOM     74  O   UNL A   1      50.690  26.316  25.260  1.00  0.00    -0.237 OA
ATOM     75  O   UNL A   1      51.804  27.023  27.350  1.00  0.00    -0.237 OA
ATOM     76  O   UNL A   1      50.605  24.870  27.258  1.00  0.00    -0.744 OA
ENDBRANCH  72  73
ENDBRANCH  51  65
BRANCH  52  77
ATOM     77  C   UNL A   1      38.226  32.488  30.587  1.00  0.00     0.058 A 
ATOM     78  C   UNL A   1      37.596  32.100  31.779  1.00  0.00     0.135 A 
ATOM     79  C   UNL A   1      37.592  33.466  29.805  1.00  0.00     0.135 A 
ATOM     80  F   UNL A   1      38.147  31.149  32.550  1.00  0.00    -0.206 F 
ATOM     81  C   UNL A   1      36.381  32.651  32.177  1.00  0.00     0.059 A 
ATOM     82  C   UNL A   1      36.390  34.051  30.194  1.00  0.00     0.059 A 
ATOM     83  F   UNL A   1      38.149  33.871  28.653  1.00  0.00    -0.206 F 
ATOM     84  C   UNL A   1      35.788  33.630  31.379  1.00  0.00     0.060 A 
BRANCH  84  85
ATOM     85  S   UNL A   1      34.239  34.378  31.931  1.00  0.00     0.124 S 
ATOM     86  O   UNL A   1      34.701  35.651  32.471  1.00  0.00    -0.237 OA
ATOM     87  O   UNL A   1      33.474  34.451  30.690  1.00  0.00    -0.237 OA
ATOM     88  O   UNL A   1      33.736  33.422  32.914  1.00  0.00    -0.744 OA
ENDBRANCH  84  85
ENDBRANCH  52  77
BRANCH  64  89
ATOM     89  C   UNL A   1      44.888  34.516  31.116  1.00  0.00     0.058 A 
ATOM     90  C   UNL A   1      45.004  35.700  30.371  1.00  0.00     0.135 A 
ATOM     91  C   UNL A   1      45.351  34.536  32.443  1.00  0.00     0.135 A 
ATOM     92  F   UNL A   1      44.581  35.739  29.097  1.00  0.00    -0.206 F 
ATOM     93  C   UNL A   1      45.573  36.850  30.911  1.00  0.00     0.059 A 
ATOM     94  C   UNL A   1      45.899  35.681  33.014  1.00  0.00     0.059 A 
ATOM     95  F   UNL A   1      45.254  33.437  33.209  1.00  0.00    -0.206 F 
ATOM     96  C   UNL A   1      46.016  36.832  32.235  1.00  0.00     0.060 A 
BRANCH  96  97
ATOM     97  S   UNL A   1      46.719  38.342  32.937  1.00  0.00     0.124 S 
ATOM     98  O   UNL A   1      47.410  37.826  34.114  1.00  0.00    -0.237 OA
ATOM     99  O   UNL A   1      47.577  38.820  31.858  1.00  0.00    -0.237 OA
ATOM    100  O   UNL A   1      45.546  39.168  33.211  1.00  0.00    -0.744 OA
ENDBRANCH  96  97
ENDBRANCH  64  89
ENDBRANCH  38  39
ENDBRANCH  31  33
ENDBRANCH  30  31
ENDBRANCH  29  30
ENDBRANCH  28  29
ENDBRANCH  27  28
ENDBRANCH   1  27
TORSDOF 23
ENDMDL
MODEL 3
REMARK VINA RESULT:     -10.6      1.491      8.481
REMARK SMILES CC[C@@H]1CC[C@](C[C@@H]2CCCc3ccccc32)(C(=O)OCCOCCOCCOC(=O)c2ccc(-c3c4nc(c(-c5c(F)cc(S(=O)(=O)[O-])cc5F)c5ccc([nH]5)c(-c5c(F)cc(S(=O)(=O)[O-])cc5F)c5nc(c(-c6c(F)cc(S(=O)(=O)[O-])cc6F)c6ccc3[nH]6)C=C5)C=C4)cc2)C1
REMARK SMILES IDX 25 1 24 2 23 3 22 4 21 5 20 6 18 7 19 8 6 9 3 10 4 11 98 12
REMARK SMILES IDX 5 13 2 14 1 15 7 16 8 17 9 18 17 19 10 20 12 21 16 22 11 23
REMARK SMILES IDX 13 24 15 25 14 26 26 27 27 28 28 29 29 30 30 31 31 32 32 33
REMARK SMILES IDX 33 34 97 35 34 36 96 37 35 38 36 39 37 40 90 41 38 42 95 43
REMARK SMILES IDX 89 44 91 45 39 46 94 47 88 48 87 49 40 51 74 52 53 53 73 54
REMARK SMILES IDX 54 55 57 56 72 57 92 58 55 59 56 60 71 62 93 63 58 64 41 65
REMARK SMILES IDX 42 66 51 67 43 68 44 69 50 70 52 71 45 72 46 73 47 74 48 75
REMARK SMILES IDX 49 76 75 77 76 78 85 79 77 80 78 81 84 82 86 83 79 84 80 85
REMARK SMILES IDX 81 86 82 87 83 88 59 89 60 90 69 91 61 92 62 93 68 94 70 95
REMARK SMILES IDX 63 96 64 97 65 98 66 99 67 100
REMARK H PARENT 91 50 57 61
REMARK Flexibility Score: inf
ROOT
ATOM      1  C   UNL A   1      42.422  20.962  26.465  1.00  0.00     0.188 C 
ENDROOT
BRANCH   1   2
ATOM      2  C   UNL A   1      41.233  20.006  26.372  1.00  0.00     0.188 C 
BRANCH   2   3
ATOM      3  O   UNL A   1      39.953  20.497  26.721  1.00  0.00    -0.376 OA
BRANCH   3   4
ATOM      4  C   UNL A   1      39.419  21.525  25.900  1.00  0.00     0.202 C 
BRANCH   4   5
ATOM      5  C   UNL A   1      37.986  21.371  25.358  1.00  0.00     0.261 C 
BRANCH   5   6
ATOM      6  O   UNL A   1      37.028  22.385  25.732  1.00  0.00    -0.463 OA
BRANCH   6   7
ATOM      7  C   UNL A   1      36.348  22.927  24.676  1.00  0.00     0.312 C 
ATOM      8  O   UNL A   1      36.912  23.410  23.699  1.00  0.00    -0.252 OA
BRANCH   7   9
ATOM      9  C   UNL A   1      34.803  22.970  24.864  1.00  0.00     0.069 C 
ATOM     10  C   UNL A   1      33.110  21.225  24.820  1.00  0.00    -0.010 C 
ATOM     11  C   UNL A   1      33.280  21.705  23.389  1.00  0.00     0.005 C 
ATOM     12  C   UNL A   1      34.445  21.588  25.457  1.00  0.00     0.022 C 
ATOM     13  C   UNL A   1      33.978  23.059  23.559  1.00  0.00     0.019 C 
BRANCH  10  14
ATOM     14  C   UNL A   1      32.658  19.780  24.981  1.00  0.00     0.000 C 
ATOM     15  C   UNL A   1      32.322  19.147  23.636  1.00  0.00     0.004 C 
ENDBRANCH  10  14
BRANCH   9  16
ATOM     16  C   UNL A   1      34.552  24.220  25.791  1.00  0.00     0.027 C 
BRANCH  16  17
ATOM     17  C   UNL A   1      33.198  24.934  26.122  1.00  0.00     0.020 C 
ATOM     18  C   UNL A   1      32.039  23.992  26.507  1.00  0.00     0.009 C 
ATOM     19  C   UNL A   1      32.764  26.199  25.372  1.00  0.00    -0.042 A 
ATOM     20  C   UNL A   1      30.800  24.146  25.633  1.00  0.00     0.005 C 
ATOM     21  C   UNL A   1      31.391  26.514  25.220  1.00  0.00    -0.045 A 
ATOM     22  C   UNL A   1      33.701  27.185  25.011  1.00  0.00     0.004 A 
ATOM     23  C   UNL A   1      30.306  25.573  25.675  1.00  0.00     0.036 C 
ATOM     24  C   UNL A   1      30.995  27.767  24.723  1.00  0.00     0.004 A 
ATOM     25  C   UNL A   1      33.293  28.430  24.517  1.00  0.00     0.000 A 
ATOM     26  C   UNL A   1      31.941  28.721  24.375  1.00  0.00     0.000 A 
ENDBRANCH  16  17
ENDBRANCH   9  16
ENDBRANCH   7   9
ENDBRANCH   6   7
ENDBRANCH   5   6
ENDBRANCH   4   5
ENDBRANCH   3   4
ENDBRANCH   2   3
ENDBRANCH   1   2
BRANCH   1  27
ATOM     27  O   UNL A   1      43.089  21.360  25.274  1.00  0.00    -0.376 OA
BRANCH  27  28
ATOM     28  C   UNL A   1      43.905  22.532  25.434  1.00  0.00     0.202 C 
BRANCH  28  29
ATOM     29  C   UNL A   1      43.225  23.885  25.110  1.00  0.00     0.261 C 
BRANCH  29  30
ATOM     30  O   UNL A   1      42.483  24.503  26.192  1.00  0.00    -0.460 OA
BRANCH  30  31
ATOM     31  C   UNL A   1      42.046  25.774  26.020  1.00  0.00     0.338 C 
ATOM     32  O   UNL A   1      41.546  26.222  24.999  1.00  0.00    -0.246 OA
BRANCH  31  33
ATOM     33  C   UNL A   1      42.003  26.469  27.345  1.00  0.00     0.060 A 
ATOM     34  C   UNL A   1      41.040  26.056  28.280  1.00  0.00     0.016 A 
ATOM     35  C   UNL A   1      42.928  27.454  27.711  1.00  0.00     0.016 A 
ATOM     36  C   UNL A   1      40.958  26.662  29.543  1.00  0.00     0.010 A 
ATOM     37  C   UNL A   1      42.836  28.069  28.970  1.00  0.00     0.010 A 
ATOM     38  C   UNL A   1      41.826  27.707  29.882  1.00  0.00    -0.014 A 
BRANCH  38  39
ATOM     39  C   UNL A   1      41.547  28.562  31.074  1.00  0.00     0.031 A 
ATOM     40  C   UNL A   1      40.410  29.552  30.988  1.00  0.00     0.074 A 
ATOM     41  C   UNL A   1      42.251  28.473  32.219  1.00  0.00     0.049 A 
ATOM     42  N   UNL A   1      40.009  30.442  31.860  1.00  0.00    -0.248 NA
ATOM     43  C   UNL A   1      39.621  29.531  29.746  1.00  0.00     0.031 C 
ATOM     44  C   UNL A   1      43.345  27.542  32.477  1.00  0.00     0.029 A 
ATOM     45  N   UNL A   1      42.148  29.199  33.385  1.00  0.00    -0.354 N 
ATOM     46  C   UNL A   1      38.930  31.091  31.271  1.00  0.00     0.074 A 
ATOM     47  C   UNL A   1      38.758  30.513  29.956  1.00  0.00     0.031 C 
ATOM     48  C   UNL A   1      43.825  27.764  33.715  1.00  0.00     0.029 A 
ATOM     49  C   UNL A   1      43.095  28.875  34.329  1.00  0.00     0.049 A 
ATOM     50  H   UNL A   1      41.460  29.888  33.530  1.00  0.00     0.167 HD
ATOM     51  C   UNL A   1      38.144  32.074  31.774  1.00  0.00     0.037 A 
ATOM     52  C   UNL A   1      43.361  29.422  35.535  1.00  0.00     0.037 A 
ATOM     53  C   UNL A   1      38.303  32.661  33.079  1.00  0.00     0.049 A 
ATOM     54  C   UNL A   1      42.527  30.576  36.044  1.00  0.00     0.074 A 
ATOM     55  C   UNL A   1      37.537  33.649  33.674  1.00  0.00     0.029 A 
ATOM     56  N   UNL A   1      39.297  32.327  33.985  1.00  0.00    -0.354 N 
ATOM     57  N   UNL A   1      41.497  31.165  35.485  1.00  0.00    -0.248 NA
ATOM     58  C   UNL A   1      42.897  31.143  37.352  1.00  0.00     0.031 C 
ATOM     59  C   UNL A   1      38.100  33.950  34.919  1.00  0.00     0.029 A 
ATOM     60  C   UNL A   1      39.183  33.110  35.123  1.00  0.00     0.049 A 
ATOM     61  H   UNL A   1      39.984  31.637  33.841  1.00  0.00     0.167 HD
ATOM     62  C   UNL A   1      41.081  32.147  36.381  1.00  0.00     0.074 A 
ATOM     63  C   UNL A   1      41.965  32.070  37.525  1.00  0.00     0.031 C 
ATOM     64  C   UNL A   1      40.057  33.030  36.267  1.00  0.00     0.037 A 
BRANCH  51  65
ATOM     65  C   UNL A   1      37.048  32.601  30.889  1.00  0.00     0.058 A 
ATOM     66  C   UNL A   1      37.262  33.668  30.003  1.00  0.00     0.135 A 
ATOM     67  C   UNL A   1      35.772  32.015  30.914  1.00  0.00     0.135 A 
ATOM     68  F   UNL A   1      38.458  34.276  29.952  1.00  0.00    -0.206 F 
ATOM     69  C   UNL A   1      36.240  34.158  29.196  1.00  0.00     0.059 A 
ATOM     70  C   UNL A   1      34.743  32.469  30.095  1.00  0.00     0.059 A 
ATOM     71  F   UNL A   1      35.514  30.991  31.743  1.00  0.00    -0.206 F 
ATOM     72  C   UNL A   1      34.983  33.554  29.252  1.00  0.00     0.060 A 
BRANCH  72  73
ATOM     73  S   UNL A   1      33.665  34.208  28.207  1.00  0.00     0.124 S 
ATOM     74  O   UNL A   1      32.846  34.919  29.184  1.00  0.00    -0.237 OA
ATOM     75  O   UNL A   1      34.399  35.046  27.265  1.00  0.00    -0.237 OA
ATOM     76  O   UNL A   1      33.057  33.010  27.635  1.00  0.00    -0.744 OA
ENDBRANCH  72  73
ENDBRANCH  51  65
BRANCH  52  77
ATOM     77  C   UNL A   1      44.492  28.906  36.357  1.00  0.00     0.058 A 
ATOM     78  C   UNL A   1      45.765  29.494  36.295  1.00  0.00     0.135 A 
ATOM     79  C   UNL A   1      44.327  27.798  37.202  1.00  0.00     0.135 A 
ATOM     80  F   UNL A   1      45.980  30.540  35.482  1.00  0.00    -0.206 F 
ATOM     81  C   UNL A   1      46.835  28.998  37.033  1.00  0.00     0.059 A 
ATOM     82  C   UNL A   1      45.376  27.299  37.970  1.00  0.00     0.059 A 
ATOM     83  F   UNL A   1      43.132  27.195  37.296  1.00  0.00    -0.206 F 
ATOM     84  C   UNL A   1      46.630  27.902  37.872  1.00  0.00     0.060 A 
BRANCH  84  85
ATOM     85  S   UNL A   1      48.012  27.299  38.866  1.00  0.00     0.124 S 
ATOM     86  O   UNL A   1      47.378  26.239  39.642  1.00  0.00    -0.237 OA
ATOM     87  O   UNL A   1      48.958  26.863  37.844  1.00  0.00    -0.237 OA
ATOM     88  O   UNL A   1      48.420  28.478  39.625  1.00  0.00    -0.744 OA
ENDBRANCH  84  85
ENDBRANCH  52  77
BRANCH  64  89
ATOM     89  C   UNL A   1      39.799  33.969  37.416  1.00  0.00     0.058 A 
ATOM     90  C   UNL A   1      39.002  33.601  38.511  1.00  0.00     0.135 A 
ATOM     91  C   UNL A   1      40.412  35.233  37.456  1.00  0.00     0.135 A 
ATOM     92  F   UNL A   1      38.388  32.406  38.528  1.00  0.00    -0.206 F 
ATOM     93  C   UNL A   1      38.803  34.457  39.592  1.00  0.00     0.059 A 
ATOM     94  C   UNL A   1      40.251  36.095  38.537  1.00  0.00     0.059 A 
ATOM     95  F   UNL A   1      41.197  35.635  36.443  1.00  0.00    -0.206 F 
ATOM     96  C   UNL A   1      39.435  35.703  39.597  1.00  0.00     0.060 A 
BRANCH  96  97
ATOM     97  S   UNL A   1      39.200  36.790  41.021  1.00  0.00     0.124 S 
ATOM     98  O   UNL A   1      38.576  37.955  40.403  1.00  0.00    -0.237 OA
ATOM     99  O   UNL A   1      38.338  35.992  41.886  1.00  0.00    -0.237 OA
ATOM    100  O   UNL A   1      40.558  36.997  41.518  1.00  0.00    -0.744 OA
ENDBRANCH  96  97
ENDBRANCH  64  89
ENDBRANCH  38  39
ENDBRANCH  31  33
ENDBRANCH  30  31
ENDBRANCH  29  30
ENDBRANCH  28  29
ENDBRANCH  27  28
ENDBRANCH   1  27
TORSDOF 23
ENDMDL
