MODEL 1
REMARK VINA RESULT:      -8.0      0.000      0.000
REMARK SMILES CS(=O)(=O)c1ccc(C2=NN(c3ccc(C(=O)OCCOCCOCCOC(=O)c4ccc(-c5c6nc(c(-c7c(F)cc(S(=O)(=O)[O-])cc7F)c7ccc([nH]7)c(-c7c(F)cc(S(=O)(=O)[O-])cc7F)c7nc(c(-c8c(F)cc(S(=O)(=O)[O-])cc8F)c8ccc5[nH]8)C=C7)C=C6)cc4)cc3)[C@H](c3ccc(F)cc3)C2)cc1
REMARK SMILES IDX 22 1 21 2 20 3 19 4 18 5 16 6 17 7 15 8 12 9 13 10 97 11
REMARK SMILES IDX 14 12 96 13 11 14 9 15 10 16 106 17 98 18 8 19 5 20 6 21
REMARK SMILES IDX 108 22 7 23 107 24 2 25 1 26 3 27 4 28 99 29 100 30 105 31
REMARK SMILES IDX 101 32 104 33 102 34 103 35 23 36 24 37 25 38 26 39 27 40
REMARK SMILES IDX 28 41 29 42 30 43 31 44 95 45 32 46 94 47 33 48 34 49 35 50
REMARK SMILES IDX 88 51 36 52 93 53 87 54 89 55 37 56 92 57 86 58 85 59 38 61
REMARK SMILES IDX 72 62 51 63 71 64 52 65 55 66 70 67 90 68 53 69 54 70 69 72
REMARK SMILES IDX 91 73 56 74 39 75 40 76 49 77 41 78 42 79 48 80 50 81 43 82
REMARK SMILES IDX 44 83 45 84 46 85 47 86 73 87 74 88 83 89 75 90 76 91 82 92
REMARK SMILES IDX 84 93 77 94 78 95 79 96 80 97 81 98 57 99 58 100 67 101
REMARK SMILES IDX 59 102 60 103 66 104 68 105 61 106 62 107 63 108 64 109
REMARK SMILES IDX 65 110
REMARK H PARENT 89 60 55 71
REMARK Flexibility Score: inf
ROOT
ATOM      1  C   UNL A   1      40.632  21.101  26.278  1.00  0.00     0.188 C 
ENDROOT
BRANCH   1   2
ATOM      2  O   UNL A   1      40.633  22.514  26.220  1.00  0.00    -0.376 OA
BRANCH   2   3
ATOM      3  C   UNL A   1      39.894  23.276  27.161  1.00  0.00     0.202 C 
BRANCH   3   4
ATOM      4  C   UNL A   1      39.077  24.525  26.789  1.00  0.00     0.261 C 
BRANCH   4   5
ATOM      5  O   UNL A   1      39.029  25.562  27.775  1.00  0.00    -0.460 OA
BRANCH   5   6
ATOM      6  C   UNL A   1      39.826  26.636  27.532  1.00  0.00     0.338 C 
ATOM      7  O   UNL A   1      40.479  26.842  26.524  1.00  0.00    -0.246 OA
BRANCH   6   8
ATOM      8  C   UNL A   1      39.692  27.635  28.621  1.00  0.00     0.060 A 
ATOM      9  C   UNL A   1      39.232  29.517  30.660  1.00  0.00     0.060 A 
ATOM     10  C   UNL A   1      38.773  28.202  30.796  1.00  0.00     0.029 A 
ATOM     11  C   UNL A   1      40.031  29.835  29.551  1.00  0.00     0.029 A 
ATOM     12  C   UNL A   1      38.993  27.267  29.778  1.00  0.00     0.018 A 
ATOM     13  C   UNL A   1      40.247  28.912  28.524  1.00  0.00     0.018 A 
BRANCH   9  14
ATOM     14  N   UNL A   1      38.776  30.549  31.496  1.00  0.00    -0.257 N 
ATOM     15  C   UNL A   1      38.576  31.299  33.489  1.00  0.00     0.071 C 
ATOM     16  N   UNL A   1      39.450  30.845  32.645  1.00  0.00    -0.176 NA
ATOM     17  C   UNL A   1      37.142  31.249  33.042  1.00  0.00     0.091 C 
ATOM     18  C   UNL A   1      37.312  30.719  31.614  1.00  0.00     0.144 C 
BRANCH  15  19
ATOM     19  C   UNL A   1      38.929  31.884  34.797  1.00  0.00    -0.002 A 
ATOM     20  C   UNL A   1      39.547  32.800  37.357  1.00  0.00     0.067 A 
ATOM     21  C   UNL A   1      38.220  32.512  37.028  1.00  0.00     0.021 A 
ATOM     22  C   UNL A   1      40.567  32.643  36.411  1.00  0.00     0.021 A 
ATOM     23  C   UNL A   1      37.909  32.071  35.739  1.00  0.00     0.011 A 
ATOM     24  C   UNL A   1      40.256  32.174  35.129  1.00  0.00     0.011 A 
BRANCH  20  25
ATOM     25  S   UNL A   1      39.943  33.291  39.022  1.00  0.00     0.175 S 
ATOM     26  C   UNL A   1      39.418  34.982  39.132  1.00  0.00     0.163 C 
ATOM     27  O   UNL A   1      41.387  33.263  39.157  1.00  0.00    -0.224 OA
ATOM     28  O   UNL A   1      39.105  32.491  39.896  1.00  0.00    -0.224 OA
ENDBRANCH  20  25
ENDBRANCH  15  19
BRANCH  18  29
ATOM     29  C   UNL A   1      36.773  31.567  30.464  1.00  0.00    -0.023 A 
ATOM     30  C   UNL A   1      35.430  31.572  30.056  1.00  0.00     0.009 A 
ATOM     31  C   UNL A   1      37.657  32.462  29.821  1.00  0.00     0.009 A 
ATOM     32  C   UNL A   1      34.989  32.449  29.059  1.00  0.00     0.039 A 
ATOM     33  C   UNL A   1      37.208  33.372  28.865  1.00  0.00     0.039 A 
ATOM     34  C   UNL A   1      35.875  33.355  28.489  1.00  0.00     0.123 A 
ATOM     35  F   UNL A   1      35.435  34.228  27.573  1.00  0.00    -0.207 F 
ENDBRANCH  18  29
ENDBRANCH   9  14
ENDBRANCH   6   8
ENDBRANCH   5   6
ENDBRANCH   4   5
ENDBRANCH   3   4
ENDBRANCH   2   3
ENDBRANCH   1   2
BRANCH   1  36
ATOM     36  C   UNL A   1      41.958  20.346  26.506  1.00  0.00     0.188 C 
BRANCH  36  37
ATOM     37  O   UNL A   1      42.752  20.050  25.384  1.00  0.00    -0.376 OA
BRANCH  37  38
ATOM     38  C   UNL A   1      44.165  20.115  25.475  1.00  0.00     0.202 C 
BRANCH  38  39
ATOM     39  C   UNL A   1      45.077  21.180  24.830  1.00  0.00     0.261 C 
BRANCH  39  40
ATOM     40  O   UNL A   1      45.252  22.430  25.498  1.00  0.00    -0.460 OA
BRANCH  40  41
ATOM     41  C   UNL A   1      44.245  23.324  25.345  1.00  0.00     0.338 C 
ATOM     42  O   UNL A   1      43.353  23.296  24.509  1.00  0.00    -0.246 OA
BRANCH  41  43
ATOM     43  C   UNL A   1      44.279  24.277  26.470  1.00  0.00     0.060 A 
ATOM     44  C   UNL A   1      45.509  24.826  26.860  1.00  0.00     0.016 A 
ATOM     45  C   UNL A   1      43.107  24.602  27.153  1.00  0.00     0.016 A 
ATOM     46  C   UNL A   1      45.571  25.695  27.949  1.00  0.00     0.010 A 
ATOM     47  C   UNL A   1      43.176  25.454  28.260  1.00  0.00     0.010 A 
ATOM     48  C   UNL A   1      44.411  25.984  28.679  1.00  0.00    -0.014 A 
BRANCH  48  49
ATOM     49  C   UNL A   1      44.507  26.702  29.975  1.00  0.00     0.031 A 
ATOM     50  C   UNL A   1      44.329  28.197  29.982  1.00  0.00     0.074 A 
ATOM     51  C   UNL A   1      44.741  26.042  31.124  1.00  0.00     0.049 A 
ATOM     52  N   UNL A   1      44.449  29.042  30.972  1.00  0.00    -0.248 NA
ATOM     53  C   UNL A   1      43.969  28.821  28.698  1.00  0.00     0.031 C 
ATOM     54  C   UNL A   1      44.889  24.593  31.252  1.00  0.00     0.029 A 
ATOM     55  N   UNL A   1      44.911  26.511  32.403  1.00  0.00    -0.354 N 
ATOM     56  C   UNL A   1      44.188  30.296  30.431  1.00  0.00     0.074 A 
ATOM     57  C   UNL A   1      43.933  30.106  29.021  1.00  0.00     0.031 C 
ATOM     58  C   UNL A   1      45.147  24.294  32.539  1.00  0.00     0.029 A 
ATOM     59  C   UNL A   1      45.218  25.529  33.316  1.00  0.00     0.049 A 
ATOM     60  H   UNL A   1      44.821  27.462  32.644  1.00  0.00     0.167 HD
ATOM     61  C   UNL A   1      44.156  31.497  31.057  1.00  0.00     0.037 A 
ATOM     62  C   UNL A   1      45.549  25.625  34.620  1.00  0.00     0.037 A 
ATOM     63  C   UNL A   1      44.414  31.681  32.462  1.00  0.00     0.049 A 
ATOM     64  C   UNL A   1      45.587  26.984  35.277  1.00  0.00     0.074 A 
ATOM     65  C   UNL A   1      44.395  32.856  33.192  1.00  0.00     0.029 A 
ATOM     66  N   UNL A   1      44.744  30.666  33.348  1.00  0.00    -0.354 N 
ATOM     67  N   UNL A   1      45.316  28.160  34.760  1.00  0.00    -0.248 NA
ATOM     68  C   UNL A   1      45.972  27.029  36.695  1.00  0.00     0.031 C 
ATOM     69  C   UNL A   1      44.768  32.561  34.506  1.00  0.00     0.029 A 
ATOM     70  C   UNL A   1      44.955  31.193  34.612  1.00  0.00     0.049 A 
ATOM     71  H   UNL A   1      44.818  29.713  33.113  1.00  0.00     0.167 HD
ATOM     72  C   UNL A   1      45.464  29.076  35.798  1.00  0.00     0.074 A 
ATOM     73  C   UNL A   1      45.836  28.318  36.974  1.00  0.00     0.031 C 
ATOM     74  C   UNL A   1      45.308  30.424  35.780  1.00  0.00     0.037 A 
BRANCH  61  75
ATOM     75  C   UNL A   1      43.847  32.712  30.227  1.00  0.00     0.058 A 
ATOM     76  C   UNL A   1      44.842  33.381  29.498  1.00  0.00     0.135 A 
ATOM     77  C   UNL A   1      42.527  33.180  30.116  1.00  0.00     0.135 A 
ATOM     78  F   UNL A   1      46.123  32.990  29.583  1.00  0.00    -0.206 F 
ATOM     79  C   UNL A   1      44.542  34.479  28.697  1.00  0.00     0.059 A 
ATOM     80  C   UNL A   1      42.199  34.257  29.298  1.00  0.00     0.059 A 
ATOM     81  F   UNL A   1      41.537  32.580  30.796  1.00  0.00    -0.206 F 
ATOM     82  C   UNL A   1      43.216  34.905  28.598  1.00  0.00     0.060 A 
BRANCH  82  83
ATOM     83  S   UNL A   1      42.843  36.310  27.528  1.00  0.00     0.124 S 
ATOM     84  O   UNL A   1      44.135  36.987  27.474  1.00  0.00    -0.237 OA
ATOM     85  O   UNL A   1      42.420  35.655  26.294  1.00  0.00    -0.237 OA
ATOM     86  O   UNL A   1      41.792  37.019  28.250  1.00  0.00    -0.744 OA
ENDBRANCH  82  83
ENDBRANCH  61  75
BRANCH  62  87
ATOM     87  C   UNL A   1      45.896  24.404  35.400  1.00  0.00     0.058 A 
ATOM     88  C   UNL A   1      47.225  23.966  35.512  1.00  0.00     0.135 A 
ATOM     89  C   UNL A   1      44.902  23.628  36.019  1.00  0.00     0.135 A 
ATOM     90  F   UNL A   1      48.211  24.664  34.928  1.00  0.00    -0.206 F 
ATOM     91  C   UNL A   1      47.553  22.792  36.181  1.00  0.00     0.059 A 
ATOM     92  C   UNL A   1      45.210  22.467  36.721  1.00  0.00     0.059 A 
ATOM     93  F   UNL A   1      43.615  24.003  35.951  1.00  0.00    -0.206 F 
ATOM     94  C   UNL A   1      46.537  22.047  36.783  1.00  0.00     0.060 A 
BRANCH  94  95
ATOM     95  S   UNL A   1      46.979  20.536  37.666  1.00  0.00     0.124 S 
ATOM     96  O   UNL A   1      48.148  20.088  36.917  1.00  0.00    -0.237 OA
ATOM     97  O   UNL A   1      47.238  21.034  39.013  1.00  0.00    -0.237 OA
ATOM     98  O   UNL A   1      45.786  19.706  37.531  1.00  0.00    -0.744 OA
ENDBRANCH  94  95
ENDBRANCH  62  87
BRANCH  74  99
ATOM     99  C   UNL A   1      45.483  31.168  37.078  1.00  0.00     0.058 A 
ATOM    100  C   UNL A   1      46.708  31.750  37.442  1.00  0.00     0.135 A 
ATOM    101  C   UNL A   1      44.392  31.350  37.944  1.00  0.00     0.135 A 
ATOM    102  F   UNL A   1      47.786  31.604  36.655  1.00  0.00    -0.206 F 
ATOM    103  C   UNL A   1      46.851  32.462  38.629  1.00  0.00     0.059 A 
ATOM    104  C   UNL A   1      44.504  32.086  39.120  1.00  0.00     0.059 A 
ATOM    105  F   UNL A   1      43.194  30.826  37.640  1.00  0.00    -0.206 F 
ATOM    106  C   UNL A   1      45.741  32.627  39.460  1.00  0.00     0.060 A 
BRANCH 106 107
ATOM    107  S   UNL A   1      45.933  33.583  40.980  1.00  0.00     0.124 S 
ATOM    108  O   UNL A   1      46.151  32.529  41.965  1.00  0.00    -0.237 OA
ATOM    109  O   UNL A   1      47.092  34.418  40.678  1.00  0.00    -0.237 OA
ATOM    110  O   UNL A   1      44.665  34.297  41.096  1.00  0.00    -0.744 OA
ENDBRANCH 106 107
ENDBRANCH  74  99
ENDBRANCH  48  49
ENDBRANCH  41  43
ENDBRANCH  40  41
ENDBRANCH  39  40
ENDBRANCH  38  39
ENDBRANCH  37  38
ENDBRANCH  36  37
ENDBRANCH   1  36
TORSDOF 24
ENDMDL
MODEL 2
REMARK VINA RESULT:      -7.7      6.098     10.215
REMARK SMILES CS(=O)(=O)c1ccc(C2=NN(c3ccc(C(=O)OCCOCCOCCOC(=O)c4ccc(-c5c6nc(c(-c7c(F)cc(S(=O)(=O)[O-])cc7F)c7ccc([nH]7)c(-c7c(F)cc(S(=O)(=O)[O-])cc7F)c7nc(c(-c8c(F)cc(S(=O)(=O)[O-])cc8F)c8ccc5[nH]8)C=C7)C=C6)cc4)cc3)[C@H](c3ccc(F)cc3)C2)cc1
REMARK SMILES IDX 22 1 21 2 20 3 19 4 18 5 16 6 17 7 15 8 12 9 13 10 97 11
REMARK SMILES IDX 14 12 96 13 11 14 9 15 10 16 106 17 98 18 8 19 5 20 6 21
REMARK SMILES IDX 108 22 7 23 107 24 2 25 1 26 3 27 4 28 99 29 100 30 105 31
REMARK SMILES IDX 101 32 104 33 102 34 103 35 23 36 24 37 25 38 26 39 27 40
REMARK SMILES IDX 28 41 29 42 30 43 31 44 95 45 32 46 94 47 33 48 34 49 35 50
REMARK SMILES IDX 88 51 36 52 93 53 87 54 89 55 37 56 92 57 86 58 85 59 38 61
REMARK SMILES IDX 72 62 51 63 71 64 52 65 55 66 70 67 90 68 53 69 54 70 69 72
REMARK SMILES IDX 91 73 56 74 39 75 40 76 49 77 41 78 42 79 48 80 50 81 43 82
REMARK SMILES IDX 44 83 45 84 46 85 47 86 73 87 74 88 83 89 75 90 76 91 82 92
REMARK SMILES IDX 84 93 77 94 78 95 79 96 80 97 81 98 57 99 58 100 67 101
REMARK SMILES IDX 59 102 60 103 66 104 68 105 61 106 62 107 63 108 64 109
REMARK SMILES IDX 65 110
REMARK H PARENT 89 60 55 71
REMARK Flexibility Score: inf
ROOT
ATOM      1  C   UNL A   1      37.739  33.078  31.077  1.00  0.00     0.188 C 
ENDROOT
BRANCH   1   2
ATOM      2  O   UNL A   1      37.503  34.061  30.088  1.00  0.00    -0.376 OA
BRANCH   2   3
ATOM      3  C   UNL A   1      36.920  33.708  28.845  1.00  0.00     0.202 C 
BRANCH   3   4
ATOM      4  C   UNL A   1      36.551  32.265  28.458  1.00  0.00     0.261 C 
BRANCH   4   5
ATOM      5  O   UNL A   1      35.470  32.120  27.530  1.00  0.00    -0.460 OA
BRANCH   5   6
ATOM      6  C   UNL A   1      34.376  31.469  28.004  1.00  0.00     0.338 C 
ATOM      7  O   UNL A   1      33.762  31.728  29.025  1.00  0.00    -0.246 OA
BRANCH   6   8
ATOM      8  C   UNL A   1      33.917  30.452  27.026  1.00  0.00     0.060 A 
ATOM      9  C   UNL A   1      32.905  28.463  25.313  1.00  0.00     0.060 A 
ATOM     10  C   UNL A   1      32.096  29.536  25.706  1.00  0.00     0.029 A 
ATOM     11  C   UNL A   1      34.258  28.474  25.687  1.00  0.00     0.029 A 
ATOM     12  C   UNL A   1      32.595  30.521  26.566  1.00  0.00     0.018 A 
ATOM     13  C   UNL A   1      34.763  29.447  26.555  1.00  0.00     0.018 A 
BRANCH   9  14
ATOM     14  N   UNL A   1      32.367  27.312  24.716  1.00  0.00    -0.257 N 
ATOM     15  C   UNL A   1      32.676  25.286  24.103  1.00  0.00     0.071 C 
ATOM     16  N   UNL A   1      32.774  26.076  25.129  1.00  0.00    -0.176 NA
ATOM     17  C   UNL A   1      32.295  25.938  22.804  1.00  0.00     0.091 C 
ATOM     18  C   UNL A   1      32.071  27.381  23.270  1.00  0.00     0.144 C 
BRANCH  15  19
ATOM     19  C   UNL A   1      32.868  23.825  24.176  1.00  0.00    -0.002 A 
ATOM     20  C   UNL A   1      33.028  21.049  24.391  1.00  0.00     0.067 A 
ATOM     21  C   UNL A   1      32.970  21.830  25.549  1.00  0.00     0.021 A 
ATOM     22  C   UNL A   1      33.017  21.648  23.126  1.00  0.00     0.021 A 
ATOM     23  C   UNL A   1      32.908  23.222  25.440  1.00  0.00     0.011 A 
ATOM     24  C   UNL A   1      32.927  23.041  23.019  1.00  0.00     0.011 A 
BRANCH  20  25
ATOM     25  S   UNL A   1      33.032  19.275  24.538  1.00  0.00     0.175 S 
ATOM     26  C   UNL A   1      32.280  18.695  23.040  1.00  0.00     0.163 C 
ATOM     27  O   UNL A   1      32.158  18.924  25.641  1.00  0.00    -0.224 OA
ATOM     28  O   UNL A   1      34.425  18.867  24.542  1.00  0.00    -0.224 OA
ENDBRANCH  20  25
ENDBRANCH  15  19
BRANCH  18  29
ATOM     29  C   UNL A   1      30.700  28.010  23.028  1.00  0.00    -0.023 A 
ATOM     30  C   UNL A   1      29.492  27.451  23.472  1.00  0.00     0.009 A 
ATOM     31  C   UNL A   1      30.646  29.268  22.389  1.00  0.00     0.009 A 
ATOM     32  C   UNL A   1      28.283  28.135  23.301  1.00  0.00     0.039 A 
ATOM     33  C   UNL A   1      29.448  29.973  22.264  1.00  0.00     0.039 A 
ATOM     34  C   UNL A   1      28.275  29.396  22.719  1.00  0.00     0.123 A 
ATOM     35  F   UNL A   1      27.121  30.067  22.605  1.00  0.00    -0.207 F 
ENDBRANCH  18  29
ENDBRANCH   9  14
ENDBRANCH   6   8
ENDBRANCH   5   6
ENDBRANCH   4   5
ENDBRANCH   3   4
ENDBRANCH   2   3
ENDBRANCH   1   2
BRANCH   1  36
ATOM     36  C   UNL A   1      36.649  32.773  32.125  1.00  0.00     0.188 C 
BRANCH  36  37
ATOM     37  O   UNL A   1      35.762  31.711  31.867  1.00  0.00    -0.376 OA
BRANCH  37  38
ATOM     38  C   UNL A   1      36.226  30.373  31.896  1.00  0.00     0.202 C 
BRANCH  38  39
ATOM     39  C   UNL A   1      36.609  29.510  30.674  1.00  0.00     0.261 C 
BRANCH  39  40
ATOM     40  O   UNL A   1      37.413  28.348  30.878  1.00  0.00    -0.460 OA
BRANCH  40  41
ATOM     41  C   UNL A   1      38.206  28.368  31.978  1.00  0.00     0.338 C 
ATOM     42  O   UNL A   1      38.037  27.753  33.022  1.00  0.00    -0.246 OA
BRANCH  41  43
ATOM     43  C   UNL A   1      39.431  29.127  31.668  1.00  0.00     0.060 A 
ATOM     44  C   UNL A   1      40.044  28.951  30.419  1.00  0.00     0.016 A 
ATOM     45  C   UNL A   1      39.987  29.985  32.617  1.00  0.00     0.016 A 
ATOM     46  C   UNL A   1      41.227  29.625  30.121  1.00  0.00     0.010 A 
ATOM     47  C   UNL A   1      41.187  30.641  32.324  1.00  0.00     0.010 A 
ATOM     48  C   UNL A   1      41.827  30.445  31.086  1.00  0.00    -0.014 A 
BRANCH  48  49
ATOM     49  C   UNL A   1      43.200  30.965  30.871  1.00  0.00     0.031 A 
ATOM     50  C   UNL A   1      43.363  32.334  30.267  1.00  0.00     0.074 A 
ATOM     51  C   UNL A   1      44.283  30.241  31.210  1.00  0.00     0.049 A 
ATOM     52  N   UNL A   1      44.453  32.961  29.912  1.00  0.00    -0.248 NA
ATOM     53  C   UNL A   1      42.125  33.097  30.027  1.00  0.00     0.031 C 
ATOM     54  C   UNL A   1      44.255  28.923  31.841  1.00  0.00     0.029 A 
ATOM     55  N   UNL A   1      45.620  30.512  31.056  1.00  0.00    -0.354 N 
ATOM     56  C   UNL A   1      44.037  34.186  29.403  1.00  0.00     0.074 A 
ATOM     57  C   UNL A   1      42.592  34.202  29.465  1.00  0.00     0.031 C 
ATOM     58  C   UNL A   1      45.519  28.491  32.003  1.00  0.00     0.029 A 
ATOM     59  C   UNL A   1      46.441  29.483  31.455  1.00  0.00     0.049 A 
ATOM     60  H   UNL A   1      45.959  31.363  30.693  1.00  0.00     0.167 HD
ATOM     61  C   UNL A   1      44.792  35.207  28.933  1.00  0.00     0.037 A 
ATOM     62  C   UNL A   1      47.780  29.350  31.359  1.00  0.00     0.037 A 
ATOM     63  C   UNL A   1      46.231  35.184  28.871  1.00  0.00     0.049 A 
ATOM     64  C   UNL A   1      48.594  30.470  30.755  1.00  0.00     0.074 A 
ATOM     65  C   UNL A   1      47.087  36.174  28.422  1.00  0.00     0.029 A 
ATOM     66  N   UNL A   1      47.025  34.116  29.263  1.00  0.00    -0.354 N 
ATOM     67  N   UNL A   1      48.191  31.632  30.298  1.00  0.00    -0.248 NA
ATOM     68  C   UNL A   1      50.046  30.261  30.658  1.00  0.00     0.031 C 
ATOM     69  C   UNL A   1      48.395  35.685  28.489  1.00  0.00     0.029 A 
ATOM     70  C   UNL A   1      48.360  34.415  29.041  1.00  0.00     0.049 A 
ATOM     71  H   UNL A   1      46.690  33.271  29.641  1.00  0.00     0.167 HD
ATOM     72  C   UNL A   1      49.341  32.303  29.893  1.00  0.00     0.074 A 
ATOM     73  C   UNL A   1      50.457  31.424  30.170  1.00  0.00     0.031 C 
ATOM     74  C   UNL A   1      49.464  33.536  29.340  1.00  0.00     0.037 A 
BRANCH  61  75
ATOM     75  C   UNL A   1      44.080  36.433  28.432  1.00  0.00     0.058 A 
ATOM     76  C   UNL A   1      43.737  36.588  27.080  1.00  0.00     0.135 A 
ATOM     77  C   UNL A   1      43.686  37.441  29.327  1.00  0.00     0.135 A 
ATOM     78  F   UNL A   1      44.107  35.665  26.178  1.00  0.00    -0.206 F 
ATOM     79  C   UNL A   1      43.040  37.704  26.630  1.00  0.00     0.059 A 
ATOM     80  C   UNL A   1      42.961  38.552  28.905  1.00  0.00     0.059 A 
ATOM     81  F   UNL A   1      43.992  37.347  30.631  1.00  0.00    -0.206 F 
ATOM     82  C   UNL A   1      42.650  38.678  27.552  1.00  0.00     0.060 A 
BRANCH  82  83
ATOM     83  S   UNL A   1      41.717  40.103  26.954  1.00  0.00     0.124 S 
ATOM     84  O   UNL A   1      42.756  40.868  26.272  1.00  0.00    -0.237 OA
ATOM     85  O   UNL A   1      40.721  39.479  26.089  1.00  0.00    -0.237 OA
ATOM     86  O   UNL A   1      41.193  40.705  28.175  1.00  0.00    -0.744 OA
ENDBRANCH  82  83
ENDBRANCH  61  75
BRANCH  62  87
ATOM     87  C   UNL A   1      48.448  28.101  31.821  1.00  0.00     0.058 A 
ATOM     88  C   UNL A   1      48.598  26.998  30.967  1.00  0.00     0.135 A 
ATOM     89  C   UNL A   1      48.916  27.971  33.139  1.00  0.00     0.135 A 
ATOM     90  F   UNL A   1      48.155  27.065  29.702  1.00  0.00    -0.206 F 
ATOM     91  C   UNL A   1      49.158  25.803  31.407  1.00  0.00     0.059 A 
ATOM     92  C   UNL A   1      49.510  26.797  33.593  1.00  0.00     0.059 A 
ATOM     93  F   UNL A   1      48.806  28.996  33.998  1.00  0.00    -0.206 F 
ATOM     94  C   UNL A   1      49.613  25.713  32.724  1.00  0.00     0.060 A 
BRANCH  94  95
ATOM     95  S   UNL A   1      50.358  24.164  33.278  1.00  0.00     0.124 S 
ATOM     96  O   UNL A   1      49.240  23.529  33.965  1.00  0.00    -0.237 OA
ATOM     97  O   UNL A   1      50.763  23.552  32.016  1.00  0.00    -0.237 OA
ATOM     98  O   UNL A   1      51.456  24.606  34.132  1.00  0.00    -0.744 OA
ENDBRANCH  94  95
ENDBRANCH  62  87
BRANCH  74  99
ATOM     99  C   UNL A   1      50.854  34.038  29.045  1.00  0.00     0.058 A 
ATOM    100  C   UNL A   1      51.459  33.857  27.791  1.00  0.00     0.135 A 
ATOM    101  C   UNL A   1      51.567  34.760  30.016  1.00  0.00     0.135 A 
ATOM    102  F   UNL A   1      50.824  33.171  26.827  1.00  0.00    -0.206 F 
ATOM    103  C   UNL A   1      52.731  34.352  27.519  1.00  0.00     0.059 A 
ATOM    104  C   UNL A   1      52.827  35.291  29.755  1.00  0.00     0.059 A 
ATOM    105  F   UNL A   1      51.033  34.973  31.228  1.00  0.00    -0.206 F 
ATOM    106  C   UNL A   1      53.405  35.071  28.507  1.00  0.00     0.060 A 
BRANCH 106 107
ATOM    107  S   UNL A   1      55.041  35.737  28.129  1.00  0.00     0.124 S 
ATOM    108  O   UNL A   1      55.911  34.656  28.582  1.00  0.00    -0.237 OA
ATOM    109  O   UNL A   1      54.971  35.931  26.684  1.00  0.00    -0.237 OA
ATOM    110  O   UNL A   1      55.101  36.963  28.919  1.00  0.00    -0.744 OA
ENDBRANCH 106 107
ENDBRANCH  74  99
ENDBRANCH  48  49
ENDBRANCH  41  43
ENDBRANCH  40  41
ENDBRANCH  39  40
ENDBRANCH  38  39
ENDBRANCH  37  38
ENDBRANCH  36  37
ENDBRANCH   1  36
TORSDOF 24
ENDMDL
MODEL 3
REMARK VINA RESULT:      -7.5      4.721     11.669
REMARK SMILES CS(=O)(=O)c1ccc(C2=NN(c3ccc(C(=O)OCCOCCOCCOC(=O)c4ccc(-c5c6nc(c(-c7c(F)cc(S(=O)(=O)[O-])cc7F)c7ccc([nH]7)c(-c7c(F)cc(S(=O)(=O)[O-])cc7F)c7nc(c(-c8c(F)cc(S(=O)(=O)[O-])cc8F)c8ccc5[nH]8)C=C7)C=C6)cc4)cc3)[C@H](c3ccc(F)cc3)C2)cc1
REMARK SMILES IDX 22 1 21 2 20 3 19 4 18 5 16 6 17 7 15 8 12 9 13 10 97 11
REMARK SMILES IDX 14 12 96 13 11 14 9 15 10 16 106 17 98 18 8 19 5 20 6 21
REMARK SMILES IDX 108 22 7 23 107 24 2 25 1 26 3 27 4 28 99 29 100 30 105 31
REMARK SMILES IDX 101 32 104 33 102 34 103 35 23 36 24 37 25 38 26 39 27 40
REMARK SMILES IDX 28 41 29 42 30 43 31 44 95 45 32 46 94 47 33 48 34 49 35 50
REMARK SMILES IDX 88 51 36 52 93 53 87 54 89 55 37 56 92 57 86 58 85 59 38 61
REMARK SMILES IDX 72 62 51 63 71 64 52 65 55 66 70 67 90 68 53 69 54 70 69 72
REMARK SMILES IDX 91 73 56 74 39 75 40 76 49 77 41 78 42 79 48 80 50 81 43 82
REMARK SMILES IDX 44 83 45 84 46 85 47 86 73 87 74 88 83 89 75 90 76 91 82 92
REMARK SMILES IDX 84 93 77 94 78 95 79 96 80 97 81 98 57 99 58 100 67 101
REMARK SMILES IDX 59 102 60 103 66 104 68 105 61 106 62 107 63 108 64 109
REMARK SMILES IDX 65 110
REMARK H PARENT 89 60 55 71
REMARK Flexibility Score: inf
ROOT
ATOM      1  C   UNL A   1      45.214  41.179  33.091  1.00  0.00     0.188 C 
ENDROOT
BRANCH   1   2
ATOM      2  O   UNL A   1      44.125  41.667  32.331  1.00  0.00    -0.376 OA
BRANCH   2   3
ATOM      3  C   UNL A   1      43.209  40.771  31.725  1.00  0.00     0.202 C 
BRANCH   3   4
ATOM      4  C   UNL A   1      43.225  40.422  30.226  1.00  0.00     0.261 C 
BRANCH   4   5
ATOM      5  O   UNL A   1      43.034  39.041  29.900  1.00  0.00    -0.460 OA
BRANCH   5   6
ATOM      6  C   UNL A   1      44.166  38.351  29.599  1.00  0.00     0.338 C 
ATOM      7  O   UNL A   1      45.110  38.754  28.942  1.00  0.00    -0.246 OA
BRANCH   6   8
ATOM      8  C   UNL A   1      44.177  37.046  30.306  1.00  0.00     0.060 A 
ATOM      9  C   UNL A   1      43.991  34.570  31.627  1.00  0.00     0.060 A 
ATOM     10  C   UNL A   1      43.609  34.685  30.285  1.00  0.00     0.029 A 
ATOM     11  C   UNL A   1      44.584  35.679  32.251  1.00  0.00     0.029 A 
ATOM     12  C   UNL A   1      43.692  35.919  29.629  1.00  0.00     0.018 A 
ATOM     13  C   UNL A   1      44.661  36.917  31.609  1.00  0.00     0.018 A 
BRANCH   9  14
ATOM     14  N   UNL A   1      43.641  33.452  32.401  1.00  0.00    -0.257 N 
ATOM     15  C   UNL A   1      43.354  31.333  32.481  1.00  0.00     0.071 C 
ATOM     16  N   UNL A   1      44.221  32.242  32.152  1.00  0.00    -0.176 NA
ATOM     17  C   UNL A   1      41.998  31.836  32.891  1.00  0.00     0.091 C 
ATOM     18  C   UNL A   1      42.232  33.350  32.833  1.00  0.00     0.144 C 
BRANCH  15  19
ATOM     19  C   UNL A   1      43.656  29.890  32.516  1.00  0.00    -0.002 A 
ATOM     20  C   UNL A   1      44.395  27.208  32.708  1.00  0.00     0.067 A 
ATOM     21  C   UNL A   1      45.207  28.100  32.001  1.00  0.00     0.021 A 
ATOM     22  C   UNL A   1      43.211  27.646  33.311  1.00  0.00     0.021 A 
ATOM     23  C   UNL A   1      44.826  29.440  31.891  1.00  0.00     0.011 A 
ATOM     24  C   UNL A   1      42.846  28.994  33.223  1.00  0.00     0.011 A 
BRANCH  20  25
ATOM     25  S   UNL A   1      44.926  25.520  32.906  1.00  0.00     0.175 S 
ATOM     26  C   UNL A   1      44.888  24.838  31.269  1.00  0.00     0.163 C 
ATOM     27  O   UNL A   1      43.922  24.834  33.697  1.00  0.00    -0.224 OA
ATOM     28  O   UNL A   1      46.306  25.573  33.351  1.00  0.00    -0.224 OA
ENDBRANCH  20  25
ENDBRANCH  15  19
BRANCH  18  29
ATOM     29  C   UNL A   1      41.997  34.161  34.106  1.00  0.00    -0.023 A 
ATOM     30  C   UNL A   1      41.447  35.452  34.122  1.00  0.00     0.009 A 
ATOM     31  C   UNL A   1      42.273  33.549  35.349  1.00  0.00     0.009 A 
ATOM     32  C   UNL A   1      41.168  36.095  35.334  1.00  0.00     0.039 A 
ATOM     33  C   UNL A   1      41.947  34.168  36.556  1.00  0.00     0.039 A 
ATOM     34  C   UNL A   1      41.400  35.439  36.537  1.00  0.00     0.123 A 
ATOM     35  F   UNL A   1      41.082  36.040  37.692  1.00  0.00    -0.207 F 
ENDBRANCH  18  29
ENDBRANCH   9  14
ENDBRANCH   6   8
ENDBRANCH   5   6
ENDBRANCH   4   5
ENDBRANCH   3   4
ENDBRANCH   2   3
ENDBRANCH   1   2
BRANCH   1  36
ATOM     36  C   UNL A   1      46.610  41.078  32.444  1.00  0.00     0.188 C 
BRANCH  36  37
ATOM     37  O   UNL A   1      46.878  39.973  31.614  1.00  0.00    -0.376 OA
BRANCH  37  38
ATOM     38  C   UNL A   1      47.763  38.955  32.048  1.00  0.00     0.202 C 
BRANCH  38  39
ATOM     39  C   UNL A   1      48.500  37.939  31.150  1.00  0.00     0.261 C 
BRANCH  39  40
ATOM     40  O   UNL A   1      47.779  36.810  30.653  1.00  0.00    -0.460 OA
BRANCH  40  41
ATOM     41  C   UNL A   1      48.127  36.391  29.412  1.00  0.00     0.338 C 
ATOM     42  O   UNL A   1      48.961  36.891  28.670  1.00  0.00    -0.246 OA
BRANCH  41  43
ATOM     43  C   UNL A   1      47.459  35.106  29.139  1.00  0.00     0.060 A 
ATOM     44  C   UNL A   1      47.425  34.129  30.145  1.00  0.00     0.016 A 
ATOM     45  C   UNL A   1      46.896  34.856  27.888  1.00  0.00     0.016 A 
ATOM     46  C   UNL A   1      46.837  32.889  29.894  1.00  0.00     0.010 A 
ATOM     47  C   UNL A   1      46.329  33.603  27.632  1.00  0.00     0.010 A 
ATOM     48  C   UNL A   1      46.320  32.605  28.624  1.00  0.00    -0.014 A 
BRANCH  48  49
ATOM     49  C   UNL A   1      45.921  31.218  28.276  1.00  0.00     0.031 A 
ATOM     50  C   UNL A   1      44.477  30.825  28.439  1.00  0.00     0.074 A 
ATOM     51  C   UNL A   1      46.818  30.326  27.820  1.00  0.00     0.049 A 
ATOM     52  N   UNL A   1      43.911  29.658  28.278  1.00  0.00    -0.248 NA
ATOM     53  C   UNL A   1      43.546  31.894  28.841  1.00  0.00     0.031 C 
ATOM     54  C   UNL A   1      48.234  30.599  27.579  1.00  0.00     0.029 A 
ATOM     55  N   UNL A   1      46.671  29.001  27.490  1.00  0.00    -0.354 N 
ATOM     56  C   UNL A   1      42.564  29.847  28.564  1.00  0.00     0.074 A 
ATOM     57  C   UNL A   1      42.401  31.235  28.939  1.00  0.00     0.031 C 
ATOM     58  C   UNL A   1      48.830  29.468  27.158  1.00  0.00     0.029 A 
ATOM     59  C   UNL A   1      47.848  28.386  27.134  1.00  0.00     0.049 A 
ATOM     60  H   UNL A   1      45.803  28.536  27.507  1.00  0.00     0.167 HD
ATOM     61  C   UNL A   1      41.553  28.948  28.512  1.00  0.00     0.037 A 
ATOM     62  C   UNL A   1      48.104  27.092  26.852  1.00  0.00     0.037 A 
ATOM     63  C   UNL A   1      41.722  27.567  28.140  1.00  0.00     0.049 A 
ATOM     64  C   UNL A   1      46.975  26.091  26.880  1.00  0.00     0.074 A 
ATOM     65  C   UNL A   1      40.757  26.579  28.046  1.00  0.00     0.029 A 
ATOM     66  N   UNL A   1      42.932  26.976  27.808  1.00  0.00    -0.354 N 
ATOM     67  N   UNL A   1      45.701  26.288  27.130  1.00  0.00    -0.248 NA
ATOM     68  C   UNL A   1      47.316  24.692  26.583  1.00  0.00     0.031 C 
ATOM     69  C   UNL A   1      41.391  25.379  27.713  1.00  0.00     0.029 A 
ATOM     70  C   UNL A   1      42.742  25.631  27.534  1.00  0.00     0.049 A 
ATOM     71  H   UNL A   1      43.798  27.443  27.775  1.00  0.00     0.167 HD
ATOM     72  C   UNL A   1      45.088  25.046  26.986  1.00  0.00     0.074 A 
ATOM     73  C   UNL A   1      46.126  24.108  26.616  1.00  0.00     0.031 C 
ATOM     74  C   UNL A   1      43.783  24.711  27.148  1.00  0.00     0.037 A 
BRANCH  61  75
ATOM     75  C   UNL A   1      40.174  29.420  28.879  1.00  0.00     0.058 A 
ATOM     76  C   UNL A   1      39.197  29.678  27.905  1.00  0.00     0.135 A 
ATOM     77  C   UNL A   1      39.806  29.561  30.227  1.00  0.00     0.135 A 
ATOM     78  F   UNL A   1      39.500  29.579  26.600  1.00  0.00    -0.206 F 
ATOM     79  C   UNL A   1      37.909  30.073  28.252  1.00  0.00     0.059 A 
ATOM     80  C   UNL A   1      38.516  29.926  30.600  1.00  0.00     0.059 A 
ATOM     81  F   UNL A   1      40.702  29.332  31.200  1.00  0.00    -0.206 F 
ATOM     82  C   UNL A   1      37.576  30.187  29.604  1.00  0.00     0.060 A 
BRANCH  82  83
ATOM     83  S   UNL A   1      35.890  30.668  30.035  1.00  0.00     0.124 S 
ATOM     84  O   UNL A   1      35.162  29.427  29.791  1.00  0.00    -0.237 OA
ATOM     85  O   UNL A   1      36.028  31.055  31.435  1.00  0.00    -0.237 OA
ATOM     86  O   UNL A   1      35.599  31.759  29.111  1.00  0.00    -0.744 OA
ENDBRANCH  82  83
ENDBRANCH  61  75
BRANCH  62  87
ATOM     87  C   UNL A   1      49.492  26.650  26.539  1.00  0.00     0.058 A 
ATOM     88  C   UNL A   1      49.937  26.535  25.214  1.00  0.00     0.135 A 
ATOM     89  C   UNL A   1      50.391  26.299  27.559  1.00  0.00     0.135 A 
ATOM     90  F   UNL A   1      49.113  26.845  24.201  1.00  0.00    -0.206 F 
ATOM     91  C   UNL A   1      51.208  26.059  24.908  1.00  0.00     0.059 A 
ATOM     92  C   UNL A   1      51.679  25.852  27.280  1.00  0.00     0.059 A 
ATOM     93  F   UNL A   1      50.022  26.397  28.846  1.00  0.00    -0.206 F 
ATOM     94  C   UNL A   1      52.074  25.720  25.950  1.00  0.00     0.060 A 
BRANCH  94  95
ATOM     95  S   UNL A   1      53.729  25.124  25.541  1.00  0.00     0.124 S 
ATOM     96  O   UNL A   1      54.491  25.552  26.709  1.00  0.00    -0.237 OA
ATOM     97  O   UNL A   1      53.512  23.686  25.413  1.00  0.00    -0.237 OA
ATOM     98  O   UNL A   1      54.038  25.818  24.295  1.00  0.00    -0.744 OA
ENDBRANCH  94  95
ENDBRANCH  62  87
BRANCH  74  99
ATOM     99  C   UNL A   1      43.385  23.284  26.873  1.00  0.00     0.058 A 
ATOM    100  C   UNL A   1      43.365  22.755  25.573  1.00  0.00     0.135 A 
ATOM    101  C   UNL A   1      43.074  22.418  27.935  1.00  0.00     0.135 A 
ATOM    102  F   UNL A   1      43.649  23.538  24.521  1.00  0.00    -0.206 F 
ATOM    103  C   UNL A   1      43.025  21.427  25.334  1.00  0.00     0.059 A 
ATOM    104  C   UNL A   1      42.764  21.078  27.722  1.00  0.00     0.059 A 
ATOM    105  F   UNL A   1      43.090  22.867  29.200  1.00  0.00    -0.206 F 
ATOM    106  C   UNL A   1      42.730  20.595  26.415  1.00  0.00     0.060 A 
BRANCH 106 107
ATOM    107  S   UNL A   1      42.325  18.865  26.092  1.00  0.00     0.124 S 
ATOM    108  O   UNL A   1      40.904  18.951  25.770  1.00  0.00    -0.237 OA
ATOM    109  O   UNL A   1      43.209  18.542  24.977  1.00  0.00    -0.237 OA
ATOM    110  O   UNL A   1      42.643  18.199  27.352  1.00  0.00    -0.744 OA
ENDBRANCH 106 107
ENDBRANCH  74  99
ENDBRANCH  48  49
ENDBRANCH  41  43
ENDBRANCH  40  41
ENDBRANCH  39  40
ENDBRANCH  38  39
ENDBRANCH  37  38
ENDBRANCH  36  37
ENDBRANCH   1  36
TORSDOF 24
ENDMDL
