MODEL 1
REMARK VINA RESULT:     -10.6      0.000      0.000
REMARK SMILES Cc1nccnc1N1CCC2(CCC(=O)N([C@@H](C)C(=O)OCCOCCOCCOC(=O)c3ccc(-c4c5nc(c(-c6c(F)cc(S(=O)(=O)[O-])cc6F)c6ccc([nH]6)c(-c6c(F)cc(S(=O)(=O)[O-])cc6F)c6nc(c(-c7c(F)cc(S(=O)(=O)[O-])cc7F)c7ccc4[nH]7)C=C6)C=C5)cc3)C2)CC1
REMARK SMILES IDX 26 1 25 2 24 3 23 4 22 5 21 6 19 7 20 8 17 9 18 10 16 11
REMARK SMILES IDX 8 12 9 13 101 14 10 15 100 16 11 17 12 18 99 19 13 20 14 21
REMARK SMILES IDX 15 22 7 23 1 24 2 25 3 26 4 27 6 28 5 29 27 30 28 31 29 32
REMARK SMILES IDX 30 33 31 34 32 35 33 36 34 37 98 38 35 39 97 40 36 41 37 42
REMARK SMILES IDX 38 43 91 44 39 45 96 46 90 47 92 48 40 49 95 50 89 51 88 52
REMARK SMILES IDX 41 54 75 55 54 56 74 57 55 58 58 59 73 60 93 61 56 62 57 63
REMARK SMILES IDX 72 65 94 66 59 67 42 68 43 69 52 70 44 71 45 72 51 73 53 74
REMARK SMILES IDX 46 75 47 76 48 77 49 78 50 79 76 80 77 81 86 82 78 83 79 84
REMARK SMILES IDX 85 85 87 86 80 87 81 88 82 89 83 90 84 91 60 92 61 93 70 94
REMARK SMILES IDX 62 95 63 96 69 97 71 98 64 99 65 100 66 101 67 102 68 103
REMARK H PARENT 92 53 58 64
REMARK Flexibility Score: inf
ROOT
ATOM      1  C   UNL A   1      33.868  34.772  29.953  1.00  0.00     0.188 C 
ENDROOT
BRANCH   1   2
ATOM      2  C   UNL A   1      33.555  34.338  28.516  1.00  0.00     0.188 C 
BRANCH   2   3
ATOM      3  O   UNL A   1      34.165  33.148  28.034  1.00  0.00    -0.376 OA
BRANCH   3   4
ATOM      4  C   UNL A   1      33.317  32.121  27.526  1.00  0.00     0.202 C 
BRANCH   4   5
ATOM      5  C   UNL A   1      33.945  30.729  27.399  1.00  0.00     0.261 C 
BRANCH   5   6
ATOM      6  O   UNL A   1      33.553  30.054  26.182  1.00  0.00    -0.462 OA
BRANCH   6   7
ATOM      7  C   UNL A   1      33.375  28.712  26.279  1.00  0.00     0.328 C 
ATOM      8  O   UNL A   1      33.116  28.145  27.339  1.00  0.00    -0.250 OA
BRANCH   7   9
ATOM      9  C   UNL A   1      33.453  27.920  24.935  1.00  0.00     0.192 C 
ATOM     10  C   UNL A   1      33.538  28.948  23.805  1.00  0.00     0.044 C 
BRANCH   9  11
ATOM     11  N   UNL A   1      32.544  26.789  24.569  1.00  0.00    -0.329 N 
ATOM     12  N   UNL A   1      32.702  21.559  23.907  1.00  0.00    -0.355 N 
ATOM     13  C   UNL A   1      31.909  22.235  24.917  1.00  0.00     0.119 C 
ATOM     14  C   UNL A   1      32.494  22.036  22.549  1.00  0.00     0.119 C 
ATOM     15  C   UNL A   1      32.384  23.683  24.942  1.00  0.00     0.030 C 
ATOM     16  C   UNL A   1      32.910  23.519  22.482  1.00  0.00     0.030 C 
ATOM     17  C   UNL A   1      32.294  24.425  23.598  1.00  0.00    -0.008 C 
ATOM     18  C   UNL A   1      30.851  24.820  23.262  1.00  0.00     0.019 C 
ATOM     19  C   UNL A   1      33.109  25.742  23.699  1.00  0.00     0.127 C 
ATOM     20  C   UNL A   1      30.281  25.816  24.267  1.00  0.00     0.101 C 
ATOM     21  C   UNL A   1      31.173  27.010  24.577  1.00  0.00     0.223 C 
ATOM     22  O   UNL A   1      30.676  28.082  24.917  1.00  0.00    -0.275 OA
BRANCH  12  23
ATOM     23  C   UNL A   1      33.106  20.266  24.192  1.00  0.00     0.150 A 
ATOM     24  C   UNL A   1      35.486  20.964  24.803  1.00  0.00     0.071 C 
ATOM     25  C   UNL A   1      34.407  19.937  24.626  1.00  0.00     0.080 A 
ATOM     26  N   UNL A   1      34.761  18.673  25.001  1.00  0.00    -0.256 NA
ATOM     27  C   UNL A   1      33.784  17.748  24.985  1.00  0.00     0.131 A 
ATOM     28  N   UNL A   1      32.152  19.300  24.177  1.00  0.00    -0.236 NA
ATOM     29  C   UNL A   1      32.505  18.059  24.587  1.00  0.00     0.133 A 
ENDBRANCH  12  23
ENDBRANCH   9  11
ENDBRANCH   7   9
ENDBRANCH   6   7
ENDBRANCH   5   6
ENDBRANCH   4   5
ENDBRANCH   3   4
ENDBRANCH   2   3
ENDBRANCH   1   2
BRANCH   1  30
ATOM     30  O   UNL A   1      34.221  33.734  30.852  1.00  0.00    -0.376 OA
BRANCH  30  31
ATOM     31  C   UNL A   1      35.503  33.880  31.457  1.00  0.00     0.202 C 
BRANCH  31  32
ATOM     32  C   UNL A   1      36.589  33.124  30.694  1.00  0.00     0.261 C 
BRANCH  32  33
ATOM     33  O   UNL A   1      37.353  32.276  31.582  1.00  0.00    -0.460 OA
BRANCH  33  34
ATOM     34  C   UNL A   1      37.236  30.942  31.390  1.00  0.00     0.338 C 
ATOM     35  O   UNL A   1      36.292  30.247  31.709  1.00  0.00    -0.246 OA
BRANCH  34  36
ATOM     36  C   UNL A   1      38.458  30.439  30.718  1.00  0.00     0.060 A 
ATOM     37  C   UNL A   1      39.606  30.118  31.446  1.00  0.00     0.016 A 
ATOM     38  C   UNL A   1      38.486  30.354  29.330  1.00  0.00     0.016 A 
ATOM     39  C   UNL A   1      40.794  29.773  30.807  1.00  0.00     0.010 A 
ATOM     40  C   UNL A   1      39.655  29.927  28.688  1.00  0.00     0.010 A 
ATOM     41  C   UNL A   1      40.828  29.654  29.417  1.00  0.00    -0.014 A 
BRANCH  41  42
ATOM     42  C   UNL A   1      42.091  29.291  28.720  1.00  0.00     0.031 A 
ATOM     43  C   UNL A   1      42.309  27.874  28.262  1.00  0.00     0.074 A 
ATOM     44  C   UNL A   1      43.046  30.216  28.496  1.00  0.00     0.049 A 
ATOM     45  N   UNL A   1      43.393  27.306  27.805  1.00  0.00    -0.248 NA
ATOM     46  C   UNL A   1      41.144  26.981  28.322  1.00  0.00     0.031 C 
ATOM     47  C   UNL A   1      42.948  31.642  28.817  1.00  0.00     0.029 A 
ATOM     48  N   UNL A   1      44.309  30.083  27.970  1.00  0.00    -0.354 N 
ATOM     49  C   UNL A   1      43.045  25.984  27.545  1.00  0.00     0.074 A 
ATOM     50  C   UNL A   1      41.649  25.835  27.889  1.00  0.00     0.031 C 
ATOM     51  C   UNL A   1      44.108  32.244  28.509  1.00  0.00     0.029 A 
ATOM     52  C   UNL A   1      45.055  31.236  28.044  1.00  0.00     0.049 A 
ATOM     53  H   UNL A   1      44.646  29.245  27.578  1.00  0.00     0.167 HD
ATOM     54  C   UNL A   1      43.822  24.984  27.071  1.00  0.00     0.037 A 
ATOM     55  C   UNL A   1      46.369  31.446  27.833  1.00  0.00     0.037 A 
ATOM     56  C   UNL A   1      45.212  25.132  26.733  1.00  0.00     0.049 A 
ATOM     57  C   UNL A   1      47.246  30.293  27.426  1.00  0.00     0.074 A 
ATOM     58  C   UNL A   1      46.085  24.175  26.244  1.00  0.00     0.029 A 
ATOM     59  N   UNL A   1      45.935  26.307  26.860  1.00  0.00    -0.354 N 
ATOM     60  N   UNL A   1      46.912  29.045  27.196  1.00  0.00    -0.248 NA
ATOM     61  C   UNL A   1      48.680  30.571  27.267  1.00  0.00     0.031 C 
ATOM     62  C   UNL A   1      47.351  24.759  26.128  1.00  0.00     0.029 A 
ATOM     63  C   UNL A   1      47.254  26.091  26.498  1.00  0.00     0.049 A 
ATOM     64  H   UNL A   1      45.566  27.167  27.165  1.00  0.00     0.167 HD
ATOM     65  C   UNL A   1      48.093  28.395  26.850  1.00  0.00     0.074 A 
ATOM     66  C   UNL A   1      49.144  29.390  26.883  1.00  0.00     0.031 C 
ATOM     67  C   UNL A   1      48.288  27.092  26.532  1.00  0.00     0.037 A 
BRANCH  54  68
ATOM     68  C   UNL A   1      43.208  23.622  26.937  1.00  0.00     0.058 A 
ATOM     69  C   UNL A   1      42.951  22.812  28.051  1.00  0.00     0.135 A 
ATOM     70  C   UNL A   1      42.807  23.154  25.674  1.00  0.00     0.135 A 
ATOM     71  F   UNL A   1      43.331  23.206  29.277  1.00  0.00    -0.206 F 
ATOM     72  C   UNL A   1      42.314  21.581  27.920  1.00  0.00     0.059 A 
ATOM     73  C   UNL A   1      42.153  21.937  25.522  1.00  0.00     0.059 A 
ATOM     74  F   UNL A   1      43.041  23.890  24.576  1.00  0.00    -0.206 F 
ATOM     75  C   UNL A   1      41.913  21.155  26.651  1.00  0.00     0.060 A 
BRANCH  75  76
ATOM     76  S   UNL A   1      41.044  19.579  26.500  1.00  0.00     0.124 S 
ATOM     77  O   UNL A   1      42.014  18.780  25.759  1.00  0.00    -0.237 OA
ATOM     78  O   UNL A   1      40.841  19.199  27.895  1.00  0.00    -0.237 OA
ATOM     79  O   UNL A   1      39.831  19.929  25.768  1.00  0.00    -0.744 OA
ENDBRANCH  75  76
ENDBRANCH  54  68
BRANCH  55  80
ATOM     80  C   UNL A   1      46.961  32.786  28.094  1.00  0.00     0.058 A 
ATOM     81  C   UNL A   1      47.380  33.162  29.378  1.00  0.00     0.135 A 
ATOM     82  C   UNL A   1      47.093  33.728  27.061  1.00  0.00     0.135 A 
ATOM     83  F   UNL A   1      47.261  32.301  30.400  1.00  0.00    -0.206 F 
ATOM     84  C   UNL A   1      47.889  34.431  29.634  1.00  0.00     0.059 A 
ATOM     85  C   UNL A   1      47.626  34.992  27.285  1.00  0.00     0.059 A 
ATOM     86  F   UNL A   1      46.716  33.415  25.811  1.00  0.00    -0.206 F 
ATOM     87  C   UNL A   1      48.005  35.340  28.581  1.00  0.00     0.060 A 
BRANCH  87  88
ATOM     88  S   UNL A   1      48.690  36.977  28.913  1.00  0.00     0.124 S 
ATOM     89  O   UNL A   1      47.479  37.780  29.039  1.00  0.00    -0.237 OA
ATOM     90  O   UNL A   1      49.440  36.755  30.145  1.00  0.00    -0.237 OA
ATOM     91  O   UNL A   1      49.505  37.243  27.732  1.00  0.00    -0.744 OA
ENDBRANCH  87  88
ENDBRANCH  55  80
BRANCH  67  92
ATOM     92  C   UNL A   1      49.683  26.672  26.165  1.00  0.00     0.058 A 
ATOM     93  C   UNL A   1      50.166  26.785  24.853  1.00  0.00     0.135 A 
ATOM     94  C   UNL A   1      50.559  26.185  27.149  1.00  0.00     0.135 A 
ATOM     95  F   UNL A   1      49.366  27.239  23.875  1.00  0.00    -0.206 F 
ATOM     96  C   UNL A   1      51.462  26.403  24.521  1.00  0.00     0.059 A 
ATOM     97  C   UNL A   1      51.866  25.822  26.844  1.00  0.00     0.059 A 
ATOM     98  F   UNL A   1      50.150  26.069  28.422  1.00  0.00    -0.206 F 
ATOM     99  C   UNL A   1      52.304  25.920  25.525  1.00  0.00     0.060 A 
BRANCH  99 100
ATOM    100  S   UNL A   1      53.990  25.444  25.089  1.00  0.00     0.124 S 
ATOM    101  O   UNL A   1      53.797  24.074  24.627  1.00  0.00    -0.237 OA
ATOM    102  O   UNL A   1      54.337  26.418  24.059  1.00  0.00    -0.237 OA
ATOM    103  O   UNL A   1      54.718  25.586  26.347  1.00  0.00    -0.744 OA
ENDBRANCH  99 100
ENDBRANCH  67  92
ENDBRANCH  41  42
ENDBRANCH  34  36
ENDBRANCH  33  34
ENDBRANCH  32  33
ENDBRANCH  31  32
ENDBRANCH  30  31
ENDBRANCH   1  30
TORSDOF 22
ENDMDL
MODEL 2
REMARK VINA RESULT:      -9.4      2.238      4.356
REMARK SMILES Cc1nccnc1N1CCC2(CCC(=O)N([C@@H](C)C(=O)OCCOCCOCCOC(=O)c3ccc(-c4c5nc(c(-c6c(F)cc(S(=O)(=O)[O-])cc6F)c6ccc([nH]6)c(-c6c(F)cc(S(=O)(=O)[O-])cc6F)c6nc(c(-c7c(F)cc(S(=O)(=O)[O-])cc7F)c7ccc4[nH]7)C=C6)C=C5)cc3)C2)CC1
REMARK SMILES IDX 26 1 25 2 24 3 23 4 22 5 21 6 19 7 20 8 17 9 18 10 16 11
REMARK SMILES IDX 8 12 9 13 101 14 10 15 100 16 11 17 12 18 99 19 13 20 14 21
REMARK SMILES IDX 15 22 7 23 1 24 2 25 3 26 4 27 6 28 5 29 27 30 28 31 29 32
REMARK SMILES IDX 30 33 31 34 32 35 33 36 34 37 98 38 35 39 97 40 36 41 37 42
REMARK SMILES IDX 38 43 91 44 39 45 96 46 90 47 92 48 40 49 95 50 89 51 88 52
REMARK SMILES IDX 41 54 75 55 54 56 74 57 55 58 58 59 73 60 93 61 56 62 57 63
REMARK SMILES IDX 72 65 94 66 59 67 42 68 43 69 52 70 44 71 45 72 51 73 53 74
REMARK SMILES IDX 46 75 47 76 48 77 49 78 50 79 76 80 77 81 86 82 78 83 79 84
REMARK SMILES IDX 85 85 87 86 80 87 81 88 82 89 83 90 84 91 60 92 61 93 70 94
REMARK SMILES IDX 62 95 63 96 69 97 71 98 64 99 65 100 66 101 67 102 68 103
REMARK H PARENT 92 53 58 64
REMARK Flexibility Score: inf
ROOT
ATOM      1  C   UNL A   1      38.475  27.997  29.573  1.00  0.00     0.188 C 
ENDROOT
BRANCH   1   2
ATOM      2  C   UNL A   1      38.913  27.355  28.251  1.00  0.00     0.188 C 
BRANCH   2   3
ATOM      3  O   UNL A   1      39.003  25.937  28.200  1.00  0.00    -0.376 OA
BRANCH   3   4
ATOM      4  C   UNL A   1      39.302  25.332  26.944  1.00  0.00     0.202 C 
BRANCH   4   5
ATOM      5  C   UNL A   1      38.849  23.879  26.770  1.00  0.00     0.261 C 
BRANCH   5   6
ATOM      6  O   UNL A   1      37.873  23.725  25.714  1.00  0.00    -0.462 OA
BRANCH   6   7
ATOM      7  C   UNL A   1      37.564  22.449  25.373  1.00  0.00     0.328 C 
ATOM      8  O   UNL A   1      38.131  21.470  25.856  1.00  0.00    -0.250 OA
BRANCH   7   9
ATOM      9  C   UNL A   1      36.384  22.284  24.364  1.00  0.00     0.192 C 
ATOM     10  C   UNL A   1      36.711  23.142  23.138  1.00  0.00     0.044 C 
BRANCH   9  11
ATOM     11  N   UNL A   1      34.938  22.396  24.731  1.00  0.00    -0.329 N 
ATOM     12  N   UNL A   1      31.051  25.960  24.713  1.00  0.00    -0.355 N 
ATOM     13  C   UNL A   1      31.045  24.736  23.935  1.00  0.00     0.119 C 
ATOM     14  C   UNL A   1      31.296  25.778  26.135  1.00  0.00     0.119 C 
ATOM     15  C   UNL A   1      32.457  24.169  24.011  1.00  0.00     0.030 C 
ATOM     16  C   UNL A   1      32.698  25.163  26.315  1.00  0.00     0.030 C 
ATOM     17  C   UNL A   1      32.981  23.903  25.432  1.00  0.00    -0.008 C 
ATOM     18  C   UNL A   1      32.355  22.643  26.043  1.00  0.00     0.019 C 
ATOM     19  C   UNL A   1      34.512  23.658  25.363  1.00  0.00     0.127 C 
ATOM     20  C   UNL A   1      32.738  21.383  25.272  1.00  0.00     0.101 C 
ATOM     21  C   UNL A   1      34.222  21.231  24.971  1.00  0.00     0.223 C 
ATOM     22  O   UNL A   1      34.717  20.111  24.850  1.00  0.00    -0.275 OA
BRANCH  12  23
ATOM     23  C   UNL A   1      30.321  27.024  24.210  1.00  0.00     0.150 A 
ATOM     24  C   UNL A   1      32.316  28.619  24.221  1.00  0.00     0.071 C 
ATOM     25  C   UNL A   1      30.876  28.295  23.954  1.00  0.00     0.080 A 
ATOM     26  N   UNL A   1      30.168  29.302  23.363  1.00  0.00    -0.256 NA
ATOM     27  C   UNL A   1      28.911  29.009  22.984  1.00  0.00     0.131 A 
ATOM     28  N   UNL A   1      29.043  26.773  23.825  1.00  0.00    -0.236 NA
ATOM     29  C   UNL A   1      28.364  27.766  23.206  1.00  0.00     0.133 A 
ENDBRANCH  12  23
ENDBRANCH   9  11
ENDBRANCH   7   9
ENDBRANCH   6   7
ENDBRANCH   5   6
ENDBRANCH   4   5
ENDBRANCH   3   4
ENDBRANCH   2   3
ENDBRANCH   1   2
BRANCH   1  30
ATOM     30  O   UNL A   1      37.427  28.948  29.484  1.00  0.00    -0.376 OA
BRANCH  30  31
ATOM     31  C   UNL A   1      36.837  29.305  30.730  1.00  0.00     0.202 C 
BRANCH  31  32
ATOM     32  C   UNL A   1      37.843  29.255  31.879  1.00  0.00     0.261 C 
BRANCH  32  33
ATOM     33  O   UNL A   1      37.791  30.466  32.667  1.00  0.00    -0.460 OA
BRANCH  33  34
ATOM     34  C   UNL A   1      38.535  31.506  32.223  1.00  0.00     0.338 C 
ATOM     35  O   UNL A   1      38.306  32.686  32.403  1.00  0.00    -0.246 OA
BRANCH  34  36
ATOM     36  C   UNL A   1      39.697  30.984  31.466  1.00  0.00     0.060 A 
ATOM     37  C   UNL A   1      40.718  30.274  32.102  1.00  0.00     0.016 A 
ATOM     38  C   UNL A   1      39.809  31.268  30.109  1.00  0.00     0.016 A 
ATOM     39  C   UNL A   1      41.872  29.898  31.419  1.00  0.00     0.010 A 
ATOM     40  C   UNL A   1      40.931  30.819  29.401  1.00  0.00     0.010 A 
ATOM     41  C   UNL A   1      41.984  30.150  30.052  1.00  0.00    -0.014 A 
BRANCH  41  42
ATOM     42  C   UNL A   1      43.213  29.760  29.309  1.00  0.00     0.031 A 
ATOM     43  C   UNL A   1      43.372  28.344  28.825  1.00  0.00     0.074 A 
ATOM     44  C   UNL A   1      44.188  30.659  29.068  1.00  0.00     0.049 A 
ATOM     45  N   UNL A   1      44.424  27.750  28.325  1.00  0.00    -0.248 NA
ATOM     46  C   UNL A   1      42.183  27.486  28.909  1.00  0.00     0.031 C 
ATOM     47  C   UNL A   1      44.144  32.082  29.412  1.00  0.00     0.029 A 
ATOM     48  N   UNL A   1      45.429  30.496  28.499  1.00  0.00    -0.354 N 
ATOM     49  C   UNL A   1      44.027  26.444  28.058  1.00  0.00     0.074 A 
ATOM     50  C   UNL A   1      42.639  26.332  28.444  1.00  0.00     0.031 C 
ATOM     51  C   UNL A   1      45.312  32.654  29.075  1.00  0.00     0.029 A 
ATOM     52  C   UNL A   1      46.212  31.625  28.566  1.00  0.00     0.049 A 
ATOM     53  H   UNL A   1      45.728  29.654  28.086  1.00  0.00     0.167 HD
ATOM     54  C   UNL A   1      44.758  25.428  27.545  1.00  0.00     0.037 A 
ATOM     55  C   UNL A   1      47.525  31.798  28.317  1.00  0.00     0.037 A 
ATOM     56  C   UNL A   1      46.141  25.539  27.165  1.00  0.00     0.049 A 
ATOM     57  C   UNL A   1      48.352  30.625  27.866  1.00  0.00     0.074 A 
ATOM     58  C   UNL A   1      46.968  24.564  26.635  1.00  0.00     0.029 A 
ATOM     59  N   UNL A   1      46.903  26.689  27.286  1.00  0.00    -0.354 N 
ATOM     60  N   UNL A   1      47.974  29.391  27.629  1.00  0.00    -0.248 NA
ATOM     61  C   UNL A   1      49.788  30.862  27.665  1.00  0.00     0.031 C 
ATOM     62  C   UNL A   1      48.247  25.111  26.487  1.00  0.00     0.029 A 
ATOM     63  C   UNL A   1      48.203  26.439  26.878  1.00  0.00     0.049 A 
ATOM     64  H   UNL A   1      46.570  27.555  27.614  1.00  0.00     0.167 HD
ATOM     65  C   UNL A   1      49.122  28.712  27.235  1.00  0.00     0.074 A 
ATOM     66  C   UNL A   1      50.204  29.673  27.249  1.00  0.00     0.031 C 
ATOM     67  C   UNL A   1      49.267  27.408  26.893  1.00  0.00     0.037 A 
BRANCH  54  68
ATOM     68  C   UNL A   1      44.098  24.087  27.411  1.00  0.00     0.058 A 
ATOM     69  C   UNL A   1      43.927  23.233  28.509  1.00  0.00     0.135 A 
ATOM     70  C   UNL A   1      43.569  23.686  26.174  1.00  0.00     0.135 A 
ATOM     71  F   UNL A   1      44.430  23.563  29.709  1.00  0.00    -0.206 F 
ATOM     72  C   UNL A   1      43.248  22.024  28.386  1.00  0.00     0.059 A 
ATOM     73  C   UNL A   1      42.872  22.491  26.032  1.00  0.00     0.059 A 
ATOM     74  F   UNL A   1      43.718  24.466  25.091  1.00  0.00    -0.206 F 
ATOM     75  C   UNL A   1      42.718  21.665  27.144  1.00  0.00     0.060 A 
BRANCH  75  76
ATOM     76  S   UNL A   1      41.798  20.117  27.009  1.00  0.00     0.124 S 
ATOM     77  O   UNL A   1      40.553  20.457  27.691  1.00  0.00    -0.237 OA
ATOM     78  O   UNL A   1      41.701  19.937  25.563  1.00  0.00    -0.237 OA
ATOM     79  O   UNL A   1      42.647  19.154  27.702  1.00  0.00    -0.744 OA
ENDBRANCH  75  76
ENDBRANCH  54  68
BRANCH  55  80
ATOM     80  C   UNL A   1      48.165  33.115  28.577  1.00  0.00     0.058 A 
ATOM     81  C   UNL A   1      48.641  33.457  29.851  1.00  0.00     0.135 A 
ATOM     82  C   UNL A   1      48.288  34.071  27.555  1.00  0.00     0.135 A 
ATOM     83  F   UNL A   1      48.534  32.581  30.862  1.00  0.00    -0.206 F 
ATOM     84  C   UNL A   1      49.197  34.706  30.109  1.00  0.00     0.059 A 
ATOM     85  C   UNL A   1      48.866  35.315  27.780  1.00  0.00     0.059 A 
ATOM     86  F   UNL A   1      47.856  33.791  26.315  1.00  0.00    -0.206 F 
ATOM     87  C   UNL A   1      49.302  35.629  29.067  1.00  0.00     0.060 A 
BRANCH  87  88
ATOM     88  S   UNL A   1      50.047  37.240  29.400  1.00  0.00     0.124 S 
ATOM     89  O   UNL A   1      50.493  37.636  28.069  1.00  0.00    -0.237 OA
ATOM     90  O   UNL A   1      48.923  37.994  29.947  1.00  0.00    -0.237 OA
ATOM     91  O   UNL A   1      51.105  36.926  30.355  1.00  0.00    -0.744 OA
ENDBRANCH  87  88
ENDBRANCH  55  80
BRANCH  67  92
ATOM     92  C   UNL A   1      50.637  26.952  26.477  1.00  0.00     0.058 A 
ATOM     93  C   UNL A   1      51.547  26.412  27.399  1.00  0.00     0.135 A 
ATOM     94  C   UNL A   1      51.030  27.024  25.131  1.00  0.00     0.135 A 
ATOM     95  F   UNL A   1      51.220  26.328  28.698  1.00  0.00    -0.206 F 
ATOM     96  C   UNL A   1      52.810  25.984  27.006  1.00  0.00     0.059 A 
ATOM     97  C   UNL A   1      52.278  26.577  24.712  1.00  0.00     0.059 A 
ATOM     98  F   UNL A   1      50.193  27.522  24.207  1.00  0.00    -0.206 F 
ATOM     99  C   UNL A   1      53.167  26.073  25.659  1.00  0.00     0.060 A 
BRANCH  99 100
ATOM    100  S   UNL A   1      54.803  25.497  25.154  1.00  0.00     0.124 S 
ATOM    101  O   UNL A   1      54.901  26.043  23.805  1.00  0.00    -0.237 OA
ATOM    102  O   UNL A   1      55.675  26.111  26.151  1.00  0.00    -0.237 OA
ATOM    103  O   UNL A   1      54.691  24.044  25.240  1.00  0.00    -0.744 OA
ENDBRANCH  99 100
ENDBRANCH  67  92
ENDBRANCH  41  42
ENDBRANCH  34  36
ENDBRANCH  33  34
ENDBRANCH  32  33
ENDBRANCH  31  32
ENDBRANCH  30  31
ENDBRANCH   1  30
TORSDOF 22
ENDMDL
MODEL 3
REMARK VINA RESULT:      -9.3      6.088     10.254
REMARK SMILES Cc1nccnc1N1CCC2(CCC(=O)N([C@@H](C)C(=O)OCCOCCOCCOC(=O)c3ccc(-c4c5nc(c(-c6c(F)cc(S(=O)(=O)[O-])cc6F)c6ccc([nH]6)c(-c6c(F)cc(S(=O)(=O)[O-])cc6F)c6nc(c(-c7c(F)cc(S(=O)(=O)[O-])cc7F)c7ccc4[nH]7)C=C6)C=C5)cc3)C2)CC1
REMARK SMILES IDX 26 1 25 2 24 3 23 4 22 5 21 6 19 7 20 8 17 9 18 10 16 11
REMARK SMILES IDX 8 12 9 13 101 14 10 15 100 16 11 17 12 18 99 19 13 20 14 21
REMARK SMILES IDX 15 22 7 23 1 24 2 25 3 26 4 27 6 28 5 29 27 30 28 31 29 32
REMARK SMILES IDX 30 33 31 34 32 35 33 36 34 37 98 38 35 39 97 40 36 41 37 42
REMARK SMILES IDX 38 43 91 44 39 45 96 46 90 47 92 48 40 49 95 50 89 51 88 52
REMARK SMILES IDX 41 54 75 55 54 56 74 57 55 58 58 59 73 60 93 61 56 62 57 63
REMARK SMILES IDX 72 65 94 66 59 67 42 68 43 69 52 70 44 71 45 72 51 73 53 74
REMARK SMILES IDX 46 75 47 76 48 77 49 78 50 79 76 80 77 81 86 82 78 83 79 84
REMARK SMILES IDX 85 85 87 86 80 87 81 88 82 89 83 90 84 91 60 92 61 93 70 94
REMARK SMILES IDX 62 95 63 96 69 97 71 98 64 99 65 100 66 101 67 102 68 103
REMARK H PARENT 92 53 58 64
REMARK Flexibility Score: inf
ROOT
ATOM      1  C   UNL A   1      37.057  32.648  34.615  1.00  0.00     0.188 C 
ENDROOT
BRANCH   1   2
ATOM      2  C   UNL A   1      35.863  32.910  33.688  1.00  0.00     0.188 C 
BRANCH   2   3
ATOM      3  O   UNL A   1      34.867  33.822  34.130  1.00  0.00    -0.376 OA
BRANCH   3   4
ATOM      4  C   UNL A   1      34.924  35.161  33.645  1.00  0.00     0.202 C 
BRANCH   4   5
ATOM      5  C   UNL A   1      33.599  35.762  33.165  1.00  0.00     0.261 C 
BRANCH   5   6
ATOM      6  O   UNL A   1      33.068  35.081  32.006  1.00  0.00    -0.462 OA
BRANCH   6   7
ATOM      7  C   UNL A   1      32.911  35.839  30.892  1.00  0.00     0.328 C 
ATOM      8  O   UNL A   1      32.036  36.696  30.782  1.00  0.00    -0.250 OA
BRANCH   7   9
ATOM      9  C   UNL A   1      33.963  35.606  29.761  1.00  0.00     0.192 C 
ATOM     10  C   UNL A   1      33.605  36.546  28.607  1.00  0.00     0.044 C 
BRANCH   9  11
ATOM     11  N   UNL A   1      34.373  34.260  29.254  1.00  0.00    -0.329 N 
ATOM     12  N   UNL A   1      37.845  30.442  30.339  1.00  0.00    -0.355 N 
ATOM     13  C   UNL A   1      36.405  30.285  30.408  1.00  0.00     0.119 C 
ATOM     14  C   UNL A   1      38.342  30.960  29.074  1.00  0.00     0.119 C 
ATOM     15  C   UNL A   1      35.812  31.685  30.309  1.00  0.00     0.030 C 
ATOM     16  C   UNL A   1      37.758  32.371  28.861  1.00  0.00     0.030 C 
ATOM     17  C   UNL A   1      36.209  32.477  29.052  1.00  0.00    -0.008 C 
ATOM     18  C   UNL A   1      35.459  31.984  27.808  1.00  0.00     0.019 C 
ATOM     19  C   UNL A   1      35.817  33.965  29.253  1.00  0.00     0.127 C 
ATOM     20  C   UNL A   1      33.954  32.209  27.920  1.00  0.00     0.101 C 
ATOM     21  C   UNL A   1      33.537  33.606  28.358  1.00  0.00     0.223 C 
ATOM     22  O   UNL A   1      32.454  34.068  28.002  1.00  0.00    -0.275 OA
BRANCH  12  23
ATOM     23  C   UNL A   1      38.603  29.627  31.162  1.00  0.00     0.150 A 
ATOM     24  C   UNL A   1      40.272  31.474  31.739  1.00  0.00     0.071 C 
ATOM     25  C   UNL A   1      39.752  30.071  31.851  1.00  0.00     0.080 A 
ATOM     26  N   UNL A   1      40.429  29.285  32.738  1.00  0.00    -0.256 NA
ATOM     27  C   UNL A   1      39.916  28.063  32.968  1.00  0.00     0.131 A 
ATOM     28  N   UNL A   1      38.126  28.381  31.413  1.00  0.00    -0.236 NA
ATOM     29  C   UNL A   1      38.783  27.625  32.322  1.00  0.00     0.133 A 
ENDBRANCH  12  23
ENDBRANCH   9  11
ENDBRANCH   7   9
ENDBRANCH   6   7
ENDBRANCH   5   6
ENDBRANCH   4   5
ENDBRANCH   3   4
ENDBRANCH   2   3
ENDBRANCH   1   2
BRANCH   1  30
ATOM     30  O   UNL A   1      36.921  33.113  35.948  1.00  0.00    -0.376 OA
BRANCH  30  31
ATOM     31  C   UNL A   1      37.904  32.621  36.854  1.00  0.00     0.202 C 
BRANCH  31  32
ATOM     32  C   UNL A   1      38.511  33.735  37.706  1.00  0.00     0.261 C 
BRANCH  32  33
ATOM     33  O   UNL A   1      38.429  35.009  37.030  1.00  0.00    -0.460 OA
BRANCH  33  34
ATOM     34  C   UNL A   1      39.548  35.770  37.039  1.00  0.00     0.338 C 
ATOM     35  O   UNL A   1      39.756  36.740  37.741  1.00  0.00    -0.246 OA
BRANCH  34  36
ATOM     36  C   UNL A   1      40.507  35.236  36.042  1.00  0.00     0.060 A 
ATOM     37  C   UNL A   1      40.081  34.815  34.780  1.00  0.00     0.016 A 
ATOM     38  C   UNL A   1      41.843  35.084  36.396  1.00  0.00     0.016 A 
ATOM     39  C   UNL A   1      40.956  34.193  33.893  1.00  0.00     0.010 A 
ATOM     40  C   UNL A   1      42.742  34.534  35.474  1.00  0.00     0.010 A 
ATOM     41  C   UNL A   1      42.305  34.061  34.222  1.00  0.00    -0.014 A 
BRANCH  41  42
ATOM     42  C   UNL A   1      43.250  33.393  33.288  1.00  0.00     0.031 A 
ATOM     43  C   UNL A   1      43.714  34.119  32.054  1.00  0.00     0.074 A 
ATOM     44  C   UNL A   1      43.693  32.143  33.530  1.00  0.00     0.049 A 
ATOM     45  N   UNL A   1      44.383  33.666  31.025  1.00  0.00    -0.248 NA
ATOM     46  C   UNL A   1      43.387  35.549  31.974  1.00  0.00     0.031 C 
ATOM     47  C   UNL A   1      43.387  31.343  34.718  1.00  0.00     0.029 A 
ATOM     48  N   UNL A   1      44.475  31.311  32.765  1.00  0.00    -0.354 N 
ATOM     49  C   UNL A   1      44.534  34.752  30.168  1.00  0.00     0.074 A 
ATOM     50  C   UNL A   1      43.896  35.885  30.797  1.00  0.00     0.031 C 
ATOM     51  C   UNL A   1      43.950  30.130  34.590  1.00  0.00     0.029 A 
ATOM     52  C   UNL A   1      44.587  30.041  33.281  1.00  0.00     0.049 A 
ATOM     53  H   UNL A   1      44.913  31.598  31.930  1.00  0.00     0.167 HD
ATOM     54  C   UNL A   1      45.144  34.795  28.962  1.00  0.00     0.037 A 
ATOM     55  C   UNL A   1      45.079  28.912  32.733  1.00  0.00     0.037 A 
ATOM     56  C   UNL A   1      45.776  33.665  28.334  1.00  0.00     0.049 A 
ATOM     57  C   UNL A   1      45.641  28.952  31.338  1.00  0.00     0.074 A 
ATOM     58  C   UNL A   1      46.422  33.610  27.111  1.00  0.00     0.029 A 
ATOM     59  N   UNL A   1      45.831  32.390  28.874  1.00  0.00    -0.354 N 
ATOM     60  N   UNL A   1      45.769  29.977  30.529  1.00  0.00    -0.248 NA
ATOM     61  C   UNL A   1      46.111  27.679  30.774  1.00  0.00     0.031 C 
ATOM     62  C   UNL A   1      46.819  32.287  26.887  1.00  0.00     0.029 A 
ATOM     63  C   UNL A   1      46.464  31.531  27.993  1.00  0.00     0.049 A 
ATOM     64  H   UNL A   1      45.472  32.134  29.754  1.00  0.00     0.167 HD
ATOM     65  C   UNL A   1      46.348  29.474  29.368  1.00  0.00     0.074 A 
ATOM     66  C   UNL A   1      46.561  28.059  29.586  1.00  0.00     0.031 C 
ATOM     67  C   UNL A   1      46.674  30.126  28.225  1.00  0.00     0.037 A 
BRANCH  54  68
ATOM     68  C   UNL A   1      45.115  36.091  28.208  1.00  0.00     0.058 A 
ATOM     69  C   UNL A   1      44.016  36.469  27.425  1.00  0.00     0.135 A 
ATOM     70  C   UNL A   1      46.181  36.999  28.330  1.00  0.00     0.135 A 
ATOM     71  F   UNL A   1      42.981  35.630  27.261  1.00  0.00    -0.206 F 
ATOM     72  C   UNL A   1      43.971  37.707  26.789  1.00  0.00     0.059 A 
ATOM     73  C   UNL A   1      46.149  38.247  27.720  1.00  0.00     0.059 A 
ATOM     74  F   UNL A   1      47.260  36.677  29.061  1.00  0.00    -0.206 F 
ATOM     75  C   UNL A   1      45.040  38.591  26.948  1.00  0.00     0.060 A 
BRANCH  75  76
ATOM     76  S   UNL A   1      44.948  40.213  26.159  1.00  0.00     0.124 S 
ATOM     77  O   UNL A   1      45.903  40.061  25.065  1.00  0.00    -0.237 OA
ATOM     78  O   UNL A   1      43.543  40.292  25.769  1.00  0.00    -0.237 OA
ATOM     79  O   UNL A   1      45.353  41.131  27.219  1.00  0.00    -0.744 OA
ENDBRANCH  75  76
ENDBRANCH  54  68
BRANCH  55  80
ATOM     80  C   UNL A   1      44.979  27.623  33.468  1.00  0.00     0.058 A 
ATOM     81  C   UNL A   1      43.891  26.759  33.282  1.00  0.00     0.135 A 
ATOM     82  C   UNL A   1      45.964  27.245  34.396  1.00  0.00     0.135 A 
ATOM     83  F   UNL A   1      42.919  27.084  32.416  1.00  0.00    -0.206 F 
ATOM     84  C   UNL A   1      43.771  25.575  34.003  1.00  0.00     0.059 A 
ATOM     85  C   UNL A   1      45.881  26.054  35.107  1.00  0.00     0.059 A 
ATOM     86  F   UNL A   1      47.031  28.032  34.605  1.00  0.00    -0.206 F 
ATOM     87  C   UNL A   1      44.771  25.233  34.916  1.00  0.00     0.060 A 
BRANCH  87  88
ATOM     88  S   UNL A   1      44.623  23.684  35.832  1.00  0.00     0.124 S 
ATOM     89  O   UNL A   1      43.320  23.205  35.386  1.00  0.00    -0.237 OA
ATOM     90  O   UNL A   1      45.778  22.930  35.354  1.00  0.00    -0.237 OA
ATOM     91  O   UNL A   1      44.697  24.112  37.225  1.00  0.00    -0.744 OA
ENDBRANCH  87  88
ENDBRANCH  55  80
BRANCH  67  92
ATOM     92  C   UNL A   1      47.323  29.323  27.134  1.00  0.00     0.058 A 
ATOM     93  C   UNL A   1      46.569  28.712  26.120  1.00  0.00     0.135 A 
ATOM     94  C   UNL A   1      48.720  29.194  27.083  1.00  0.00     0.135 A 
ATOM     95  F   UNL A   1      45.229  28.801  26.128  1.00  0.00    -0.206 F 
ATOM     96  C   UNL A   1      47.175  27.977  25.107  1.00  0.00     0.059 A 
ATOM     97  C   UNL A   1      49.349  28.486  26.065  1.00  0.00     0.059 A 
ATOM     98  F   UNL A   1      49.487  29.769  28.022  1.00  0.00    -0.206 F 
ATOM     99  C   UNL A   1      48.568  27.868  25.090  1.00  0.00     0.060 A 
BRANCH  99 100
ATOM    100  S   UNL A   1      49.349  26.927  23.761  1.00  0.00     0.124 S 
ATOM    101  O   UNL A   1      49.803  27.995  22.877  1.00  0.00    -0.237 OA
ATOM    102  O   UNL A   1      50.399  26.198  24.466  1.00  0.00    -0.237 OA
ATOM    103  O   UNL A   1      48.260  26.103  23.245  1.00  0.00    -0.744 OA
ENDBRANCH  99 100
ENDBRANCH  67  92
ENDBRANCH  41  42
ENDBRANCH  34  36
ENDBRANCH  33  34
ENDBRANCH  32  33
ENDBRANCH  31  32
ENDBRANCH  30  31
ENDBRANCH   1  30
TORSDOF 22
ENDMDL
