MODEL 1
REMARK VINA RESULT:      -9.2      0.000      0.000
REMARK SMILES CC[NH2+][C@]1(C(=O)OCCOCCOCCOC(=O)c2ccc(-c3c4nc(c(-c5c(F)cc(S(=O)(=O)[O-])cc5F)c5ccc([nH]5)c(-c5c(F)cc(S(=O)(=O)[O-])cc5F)c5nc(c(-c6c(F)cc(S(=O)(=O)[O-])cc6F)c6ccc3[nH]6)C=C5)C=C4)cc2)CC[C@H](OCC)C1
REMARK SMILES IDX 12 1 11 2 10 3 9 4 8 5 7 6 5 7 6 8 4 9 85 10 91 11 86 12
REMARK SMILES IDX 87 13 3 14 2 17 1 18 88 19 89 20 90 21 13 22 14 23 15 24
REMARK SMILES IDX 16 25 17 26 18 27 19 28 20 29 84 30 21 31 83 32 22 33 23 34
REMARK SMILES IDX 24 35 77 36 25 37 82 38 76 39 78 40 26 41 81 42 75 43 74 44
REMARK SMILES IDX 27 46 61 47 40 48 60 49 41 50 44 51 59 52 79 53 42 54 43 55
REMARK SMILES IDX 58 57 80 58 45 59 28 60 29 61 38 62 30 63 31 64 37 65 39 66
REMARK SMILES IDX 32 67 33 68 34 69 35 70 36 71 62 72 63 73 72 74 64 75 65 76
REMARK SMILES IDX 71 77 73 78 66 79 67 80 68 81 69 82 70 83 46 84 47 85 56 86
REMARK SMILES IDX 48 87 49 88 55 89 57 90 50 91 51 92 52 93 53 94 54 95
REMARK H PARENT 3 15 3 16 78 45 44 56
REMARK Flexibility Score: inf
ROOT
ATOM      1  C   UNL A   1      34.902  31.588  28.269  1.00  0.00     0.188 C 
ENDROOT
BRANCH   1   2
ATOM      2  C   UNL A   1      34.040  30.622  27.428  1.00  0.00     0.188 C 
BRANCH   2   3
ATOM      3  O   UNL A   1      34.468  29.268  27.451  1.00  0.00    -0.376 OA
BRANCH   3   4
ATOM      4  C   UNL A   1      34.122  28.496  26.308  1.00  0.00     0.202 C 
BRANCH   4   5
ATOM      5  C   UNL A   1      32.746  27.827  26.397  1.00  0.00     0.261 C 
BRANCH   5   6
ATOM      6  O   UNL A   1      31.732  28.459  25.592  1.00  0.00    -0.459 OA
BRANCH   6   7
ATOM      7  C   UNL A   1      30.962  27.623  24.841  1.00  0.00     0.368 C 
ATOM      8  O   UNL A   1      30.734  26.457  25.143  1.00  0.00    -0.245 OA
BRANCH   7   9
ATOM      9  C   UNL A   1      30.401  28.325  23.584  1.00  0.00     0.196 C 
ATOM     10  C   UNL A   1      28.966  27.834  23.355  1.00  0.00     0.084 C 
ATOM     11  C   UNL A   1      30.173  29.839  23.816  1.00  0.00     0.113 C 
ATOM     12  C   UNL A   1      28.345  28.897  22.478  1.00  0.00     0.039 C 
ATOM     13  C   UNL A   1      28.910  30.217  23.008  1.00  0.00     0.125 C 
BRANCH   9  14
ATOM     14  N   UNL A   1      31.309  28.209  22.412  1.00  0.00    -0.332 N 
ATOM     15  H   UNL A   1      30.789  28.495  21.584  1.00  0.00     0.347 HD
ATOM     16  H   UNL A   1      32.112  28.801  22.627  1.00  0.00     0.347 HD
BRANCH  14  17
ATOM     17  C   UNL A   1      31.855  26.884  22.159  1.00  0.00     0.257 C 
ATOM     18  C   UNL A   1      33.346  26.897  22.471  1.00  0.00     0.071 C 
ENDBRANCH  14  17
ENDBRANCH   9  14
BRANCH  13  19
ATOM     19  O   UNL A   1      29.255  31.081  21.925  1.00  0.00    -0.378 OA
BRANCH  19  20
ATOM     20  C   UNL A   1      28.567  32.332  21.901  1.00  0.00     0.157 C 
ATOM     21  C   UNL A   1      27.841  32.624  20.597  1.00  0.00     0.035 C 
ENDBRANCH  19  20
ENDBRANCH  13  19
ENDBRANCH   7   9
ENDBRANCH   6   7
ENDBRANCH   5   6
ENDBRANCH   4   5
ENDBRANCH   3   4
ENDBRANCH   2   3
ENDBRANCH   1   2
BRANCH   1  22
ATOM     22  O   UNL A   1      34.294  32.514  29.163  1.00  0.00    -0.376 OA
BRANCH  22  23
ATOM     23  C   UNL A   1      35.109  33.301  30.022  1.00  0.00     0.202 C 
BRANCH  23  24
ATOM     24  C   UNL A   1      36.638  33.179  29.934  1.00  0.00     0.261 C 
BRANCH  24  25
ATOM     25  O   UNL A   1      37.260  32.557  31.069  1.00  0.00    -0.460 OA
BRANCH  25  26
ATOM     26  C   UNL A   1      37.167  31.204  31.115  1.00  0.00     0.338 C 
ATOM     27  O   UNL A   1      36.198  30.544  31.446  1.00  0.00    -0.246 OA
BRANCH  26  28
ATOM     28  C   UNL A   1      38.383  30.597  30.535  1.00  0.00     0.060 A 
ATOM     29  C   UNL A   1      39.435  30.274  31.402  1.00  0.00     0.016 A 
ATOM     30  C   UNL A   1      38.516  30.401  29.159  1.00  0.00     0.016 A 
ATOM     31  C   UNL A   1      40.634  29.775  30.893  1.00  0.00     0.010 A 
ATOM     32  C   UNL A   1      39.728  29.922  28.649  1.00  0.00     0.010 A 
ATOM     33  C   UNL A   1      40.802  29.630  29.510  1.00  0.00    -0.014 A 
BRANCH  33  34
ATOM     34  C   UNL A   1      42.143  29.310  28.960  1.00  0.00     0.031 A 
ATOM     35  C   UNL A   1      42.419  27.909  28.481  1.00  0.00     0.074 A 
ATOM     36  C   UNL A   1      43.099  30.252  28.871  1.00  0.00     0.049 A 
ATOM     37  N   UNL A   1      43.524  27.398  28.006  1.00  0.00    -0.248 NA
ATOM     38  C   UNL A   1      41.296  26.960  28.550  1.00  0.00     0.031 C 
ATOM     39  C   UNL A   1      42.946  31.652  29.266  1.00  0.00     0.029 A 
ATOM     40  N   UNL A   1      44.396  30.167  28.428  1.00  0.00    -0.354 N 
ATOM     41  C   UNL A   1      43.235  26.069  27.719  1.00  0.00     0.074 A 
ATOM     42  C   UNL A   1      41.855  25.847  28.097  1.00  0.00     0.031 C 
ATOM     43  C   UNL A   1      44.113  32.290  29.066  1.00  0.00     0.029 A 
ATOM     44  C   UNL A   1      45.101  31.340  28.556  1.00  0.00     0.049 A 
ATOM     45  H   UNL A   1      44.785  29.343  28.054  1.00  0.00     0.167 HD
ATOM     46  C   UNL A   1      44.043  25.122  27.187  1.00  0.00     0.037 A 
ATOM     47  C   UNL A   1      46.400  31.609  28.314  1.00  0.00     0.037 A 
ATOM     48  C   UNL A   1      45.416  25.343  26.815  1.00  0.00     0.049 A 
ATOM     49  C   UNL A   1      47.299  30.520  27.786  1.00  0.00     0.074 A 
ATOM     50  C   UNL A   1      46.308  24.449  26.249  1.00  0.00     0.029 A 
ATOM     51  N   UNL A   1      46.101  26.537  26.985  1.00  0.00    -0.354 N 
ATOM     52  N   UNL A   1      47.004  29.276  27.492  1.00  0.00    -0.248 NA
ATOM     53  C   UNL A   1      48.709  30.871  27.556  1.00  0.00     0.031 C 
ATOM     54  C   UNL A   1      47.546  25.088  26.117  1.00  0.00     0.029 A 
ATOM     55  C   UNL A   1      47.411  26.395  26.558  1.00  0.00     0.049 A 
ATOM     56  H   UNL A   1      45.713  27.363  27.355  1.00  0.00     0.167 HD
ATOM     57  C   UNL A   1      48.183  28.705  27.021  1.00  0.00     0.074 A 
ATOM     58  C   UNL A   1      49.193  29.742  27.058  1.00  0.00     0.031 C 
ATOM     59  C   UNL A   1      48.408  27.436  26.595  1.00  0.00     0.037 A 
BRANCH  46  60
ATOM     60  C   UNL A   1      43.467  23.748  26.991  1.00  0.00     0.058 A 
ATOM     61  C   UNL A   1      43.114  23.270  25.720  1.00  0.00     0.135 A 
ATOM     62  C   UNL A   1      43.306  22.883  28.086  1.00  0.00     0.135 A 
ATOM     63  F   UNL A   1      43.232  24.062  24.643  1.00  0.00    -0.206 F 
ATOM     64  C   UNL A   1      42.603  21.988  25.543  1.00  0.00     0.059 A 
ATOM     65  C   UNL A   1      42.818  21.589  27.929  1.00  0.00     0.059 A 
ATOM     66  F   UNL A   1      43.626  23.292  29.324  1.00  0.00    -0.206 F 
ATOM     67  C   UNL A   1      42.458  21.155  26.655  1.00  0.00     0.060 A 
BRANCH  67  68
ATOM     68  S   UNL A   1      41.803  19.491  26.407  1.00  0.00     0.124 S 
ATOM     69  O   UNL A   1      42.428  19.117  25.143  1.00  0.00    -0.237 OA
ATOM     70  O   UNL A   1      42.289  18.784  27.588  1.00  0.00    -0.237 OA
ATOM     71  O   UNL A   1      40.359  19.697  26.356  1.00  0.00    -0.744 OA
ENDBRANCH  67  68
ENDBRANCH  46  60
BRANCH  47  72
ATOM     72  C   UNL A   1      46.944  32.966  28.589  1.00  0.00     0.058 A 
ATOM     73  C   UNL A   1      47.447  33.304  29.854  1.00  0.00     0.135 A 
ATOM     74  C   UNL A   1      46.957  33.956  27.594  1.00  0.00     0.135 A 
ATOM     75  F   UNL A   1      47.443  32.397  30.842  1.00  0.00    -0.206 F 
ATOM     76  C   UNL A   1      47.930  34.580  30.129  1.00  0.00     0.059 A 
ATOM     77  C   UNL A   1      47.459  35.230  27.837  1.00  0.00     0.059 A 
ATOM     78  F   UNL A   1      46.494  33.681  26.365  1.00  0.00    -0.206 F 
ATOM     79  C   UNL A   1      47.934  35.537  29.112  1.00  0.00     0.060 A 
BRANCH  79  80
ATOM     80  S   UNL A   1      48.607  37.174  29.465  1.00  0.00     0.124 S 
ATOM     81  O   UNL A   1      50.033  36.958  29.255  1.00  0.00    -0.237 OA
ATOM     82  O   UNL A   1      47.932  38.004  28.472  1.00  0.00    -0.237 OA
ATOM     83  O   UNL A   1      48.201  37.412  30.848  1.00  0.00    -0.744 OA
ENDBRANCH  79  80
ENDBRANCH  47  72
BRANCH  59  84
ATOM     84  C   UNL A   1      49.790  27.101  26.104  1.00  0.00     0.058 A 
ATOM     85  C   UNL A   1      50.788  26.634  26.973  1.00  0.00     0.135 A 
ATOM     86  C   UNL A   1      50.102  27.196  24.737  1.00  0.00     0.135 A 
ATOM     87  F   UNL A   1      50.544  26.530  28.288  1.00  0.00    -0.206 F 
ATOM     88  C   UNL A   1      52.055  26.292  26.507  1.00  0.00     0.059 A 
ATOM     89  C   UNL A   1      51.354  26.835  24.247  1.00  0.00     0.059 A 
ATOM     90  F   UNL A   1      49.180  27.626  23.862  1.00  0.00    -0.206 F 
ATOM     91  C   UNL A   1      52.328  26.396  25.142  1.00  0.00     0.060 A 
BRANCH  91  92
ATOM     92  S   UNL A   1      53.964  25.918  24.546  1.00  0.00     0.124 S 
ATOM     93  O   UNL A   1      53.870  26.253  23.129  1.00  0.00    -0.237 OA
ATOM     94  O   UNL A   1      54.849  26.765  25.340  1.00  0.00    -0.237 OA
ATOM     95  O   UNL A   1      54.033  24.492  24.850  1.00  0.00    -0.744 OA
ENDBRANCH  91  92
ENDBRANCH  59  84
ENDBRANCH  33  34
ENDBRANCH  26  28
ENDBRANCH  25  26
ENDBRANCH  24  25
ENDBRANCH  23  24
ENDBRANCH  22  23
ENDBRANCH   1  22
TORSDOF 24
ENDMDL
MODEL 2
REMARK VINA RESULT:      -9.0      6.608      9.434
REMARK SMILES CC[NH2+][C@]1(C(=O)OCCOCCOCCOC(=O)c2ccc(-c3c4nc(c(-c5c(F)cc(S(=O)(=O)[O-])cc5F)c5ccc([nH]5)c(-c5c(F)cc(S(=O)(=O)[O-])cc5F)c5nc(c(-c6c(F)cc(S(=O)(=O)[O-])cc6F)c6ccc3[nH]6)C=C5)C=C4)cc2)CC[C@H](OCC)C1
REMARK SMILES IDX 12 1 11 2 10 3 9 4 8 5 7 6 5 7 6 8 4 9 85 10 91 11 86 12
REMARK SMILES IDX 87 13 3 14 2 17 1 18 88 19 89 20 90 21 13 22 14 23 15 24
REMARK SMILES IDX 16 25 17 26 18 27 19 28 20 29 84 30 21 31 83 32 22 33 23 34
REMARK SMILES IDX 24 35 77 36 25 37 82 38 76 39 78 40 26 41 81 42 75 43 74 44
REMARK SMILES IDX 27 46 61 47 40 48 60 49 41 50 44 51 59 52 79 53 42 54 43 55
REMARK SMILES IDX 58 57 80 58 45 59 28 60 29 61 38 62 30 63 31 64 37 65 39 66
REMARK SMILES IDX 32 67 33 68 34 69 35 70 36 71 62 72 63 73 72 74 64 75 65 76
REMARK SMILES IDX 71 77 73 78 66 79 67 80 68 81 69 82 70 83 46 84 47 85 56 86
REMARK SMILES IDX 48 87 49 88 55 89 57 90 50 91 51 92 52 93 53 94 54 95
REMARK H PARENT 3 15 3 16 78 45 44 56
REMARK Flexibility Score: inf
ROOT
ATOM      1  C   UNL A   1      33.326  29.545  26.887  1.00  0.00     0.188 C 
ENDROOT
BRANCH   1   2
ATOM      2  C   UNL A   1      33.383  28.631  25.644  1.00  0.00     0.188 C 
BRANCH   2   3
ATOM      3  O   UNL A   1      32.810  27.344  25.823  1.00  0.00    -0.376 OA
BRANCH   3   4
ATOM      4  C   UNL A   1      31.424  27.242  25.523  1.00  0.00     0.202 C 
BRANCH   4   5
ATOM      5  C   UNL A   1      30.738  26.016  26.137  1.00  0.00     0.261 C 
BRANCH   5   6
ATOM      6  O   UNL A   1      31.631  25.139  26.849  1.00  0.00    -0.459 OA
BRANCH   6   7
ATOM      7  C   UNL A   1      31.339  23.809  26.781  1.00  0.00     0.368 C 
ATOM      8  O   UNL A   1      30.304  23.320  27.218  1.00  0.00    -0.245 OA
BRANCH   7   9
ATOM      9  C   UNL A   1      32.454  23.006  26.074  1.00  0.00     0.196 C 
ATOM     10  C   UNL A   1      33.554  22.701  27.099  1.00  0.00     0.084 C 
ATOM     11  C   UNL A   1      31.990  21.581  25.688  1.00  0.00     0.113 C 
ATOM     12  C   UNL A   1      34.305  21.534  26.500  1.00  0.00     0.039 C 
ATOM     13  C   UNL A   1      33.222  20.662  25.861  1.00  0.00     0.125 C 
BRANCH   9  14
ATOM     14  N   UNL A   1      32.916  23.656  24.818  1.00  0.00    -0.332 N 
ATOM     15  H   UNL A   1      33.047  24.648  25.010  1.00  0.00     0.347 HD
ATOM     16  H   UNL A   1      33.770  23.164  24.553  1.00  0.00     0.347 HD
BRANCH  14  17
ATOM     17  C   UNL A   1      32.024  23.537  23.675  1.00  0.00     0.257 C 
ATOM     18  C   UNL A   1      32.078  24.829  22.870  1.00  0.00     0.071 C 
ENDBRANCH  14  17
ENDBRANCH   9  14
BRANCH  13  19
ATOM     19  O   UNL A   1      33.660  20.177  24.591  1.00  0.00    -0.378 OA
BRANCH  19  20
ATOM     20  C   UNL A   1      32.717  19.363  23.892  1.00  0.00     0.157 C 
ATOM     21  C   UNL A   1      32.523  17.977  24.489  1.00  0.00     0.035 C 
ENDBRANCH  19  20
ENDBRANCH  13  19
ENDBRANCH   7   9
ENDBRANCH   6   7
ENDBRANCH   5   6
ENDBRANCH   4   5
ENDBRANCH   3   4
ENDBRANCH   2   3
ENDBRANCH   1   2
BRANCH   1  22
ATOM     22  O   UNL A   1      32.195  30.374  27.129  1.00  0.00    -0.376 OA
BRANCH  22  23
ATOM     23  C   UNL A   1      32.329  31.787  27.048  1.00  0.00     0.202 C 
BRANCH  23  24
ATOM     24  C   UNL A   1      33.480  32.481  27.790  1.00  0.00     0.261 C 
BRANCH  24  25
ATOM     25  O   UNL A   1      33.532  33.907  27.626  1.00  0.00    -0.460 OA
BRANCH  25  26
ATOM     26  C   UNL A   1      33.443  34.628  28.773  1.00  0.00     0.338 C 
ATOM     27  O   UNL A   1      32.539  35.372  29.106  1.00  0.00    -0.246 OA
BRANCH  26  28
ATOM     28  C   UNL A   1      34.547  34.260  29.684  1.00  0.00     0.060 A 
ATOM     29  C   UNL A   1      35.860  34.411  29.221  1.00  0.00     0.016 A 
ATOM     30  C   UNL A   1      34.301  33.721  30.948  1.00  0.00     0.016 A 
ATOM     31  C   UNL A   1      36.934  34.002  30.012  1.00  0.00     0.010 A 
ATOM     32  C   UNL A   1      35.379  33.289  31.731  1.00  0.00     0.010 A 
ATOM     33  C   UNL A   1      36.699  33.404  31.256  1.00  0.00    -0.014 A 
BRANCH  33  34
ATOM     34  C   UNL A   1      37.822  32.774  31.996  1.00  0.00     0.031 A 
ATOM     35  C   UNL A   1      38.496  31.565  31.403  1.00  0.00     0.074 A 
ATOM     36  C   UNL A   1      38.248  33.276  33.169  1.00  0.00     0.049 A 
ATOM     37  N   UNL A   1      39.463  30.833  31.892  1.00  0.00    -0.248 NA
ATOM     38  C   UNL A   1      38.014  31.125  30.085  1.00  0.00     0.031 C 
ATOM     39  C   UNL A   1      37.702  34.461  33.829  1.00  0.00     0.029 A 
ATOM     40  N   UNL A   1      39.234  32.840  34.019  1.00  0.00    -0.354 N 
ATOM     41  C   UNL A   1      39.706  29.845  30.945  1.00  0.00     0.074 A 
ATOM     42  C   UNL A   1      38.768  30.058  29.863  1.00  0.00     0.031 C 
ATOM     43  C   UNL A   1      38.349  34.646  34.994  1.00  0.00     0.029 A 
ATOM     44  C   UNL A   1      39.333  33.579  35.174  1.00  0.00     0.049 A 
ATOM     45  H   UNL A   1      39.815  32.070  33.821  1.00  0.00     0.167 HD
ATOM     46  C   UNL A   1      40.629  28.854  30.972  1.00  0.00     0.037 A 
ATOM     47  C   UNL A   1      40.110  33.399  36.262  1.00  0.00     0.037 A 
ATOM     48  C   UNL A   1      41.558  28.641  32.050  1.00  0.00     0.049 A 
ATOM     49  C   UNL A   1      41.083  32.248  36.299  1.00  0.00     0.074 A 
ATOM     50  C   UNL A   1      42.544  27.675  32.157  1.00  0.00     0.029 A 
ATOM     51  N   UNL A   1      41.610  29.394  33.214  1.00  0.00    -0.354 N 
ATOM     52  N   UNL A   1      41.322  31.339  35.384  1.00  0.00    -0.248 NA
ATOM     53  C   UNL A   1      41.891  32.097  37.518  1.00  0.00     0.031 C 
ATOM     54  C   UNL A   1      43.162  27.816  33.405  1.00  0.00     0.029 A 
ATOM     55  C   UNL A   1      42.593  28.899  34.055  1.00  0.00     0.049 A 
ATOM     56  H   UNL A   1      41.032  30.167  33.412  1.00  0.00     0.167 HD
ATOM     57  C   UNL A   1      42.323  30.525  35.906  1.00  0.00     0.074 A 
ATOM     58  C   UNL A   1      42.653  31.056  37.212  1.00  0.00     0.031 C 
ATOM     59  C   UNL A   1      42.917  29.438  35.352  1.00  0.00     0.037 A 
BRANCH  46  60
ATOM     60  C   UNL A   1      40.666  27.908  29.805  1.00  0.00     0.058 A 
ATOM     61  C   UNL A   1      39.699  26.904  29.639  1.00  0.00     0.135 A 
ATOM     62  C   UNL A   1      41.659  28.033  28.821  1.00  0.00     0.135 A 
ATOM     63  F   UNL A   1      38.739  26.731  30.560  1.00  0.00    -0.206 F 
ATOM     64  C   UNL A   1      39.727  26.045  28.544  1.00  0.00     0.059 A 
ATOM     65  C   UNL A   1      41.692  27.200  27.706  1.00  0.00     0.059 A 
ATOM     66  F   UNL A   1      42.610  28.974  28.934  1.00  0.00    -0.206 F 
ATOM     67  C   UNL A   1      40.728  26.201  27.584  1.00  0.00     0.060 A 
BRANCH  67  68
ATOM     68  S   UNL A   1      40.743  25.086  26.164  1.00  0.00     0.124 S 
ATOM     69  O   UNL A   1      41.749  24.109  26.571  1.00  0.00    -0.237 OA
ATOM     70  O   UNL A   1      39.367  24.601  26.132  1.00  0.00    -0.237 OA
ATOM     71  O   UNL A   1      41.124  25.953  25.053  1.00  0.00    -0.744 OA
ENDBRANCH  67  68
ENDBRANCH  46  60
BRANCH  47  72
ATOM     72  C   UNL A   1      39.989  34.321  37.424  1.00  0.00     0.058 A 
ATOM     73  C   UNL A   1      39.225  33.975  38.548  1.00  0.00     0.135 A 
ATOM     74  C   UNL A   1      40.625  35.572  37.424  1.00  0.00     0.135 A 
ATOM     75  F   UNL A   1      38.587  32.796  38.588  1.00  0.00    -0.206 F 
ATOM     76  C   UNL A   1      39.083  34.843  39.627  1.00  0.00     0.059 A 
ATOM     77  C   UNL A   1      40.519  36.446  38.502  1.00  0.00     0.059 A 
ATOM     78  F   UNL A   1      41.374  35.947  36.376  1.00  0.00    -0.206 F 
ATOM     79  C   UNL A   1      39.736  36.076  39.595  1.00  0.00     0.060 A 
BRANCH  79  80
ATOM     80  S   UNL A   1      39.584  37.175  41.020  1.00  0.00     0.124 S 
ATOM     81  O   UNL A   1      40.978  37.333  41.420  1.00  0.00    -0.237 OA
ATOM     82  O   UNL A   1      38.950  38.351  40.434  1.00  0.00    -0.237 OA
ATOM     83  O   UNL A   1      38.744  36.414  41.940  1.00  0.00    -0.744 OA
ENDBRANCH  79  80
ENDBRANCH  47  72
BRANCH  59  84
ATOM     84  C   UNL A   1      44.006  28.763  36.139  1.00  0.00     0.058 A 
ATOM     85  C   UNL A   1      45.329  29.234  36.123  1.00  0.00     0.135 A 
ATOM     86  C   UNL A   1      43.712  27.663  36.963  1.00  0.00     0.135 A 
ATOM     87  F   UNL A   1      45.664  30.278  35.348  1.00  0.00    -0.206 F 
ATOM     88  C   UNL A   1      46.326  28.626  36.880  1.00  0.00     0.059 A 
ATOM     89  C   UNL A   1      44.688  27.057  37.748  1.00  0.00     0.059 A 
ATOM     90  F   UNL A   1      42.461  27.180  37.023  1.00  0.00    -0.206 F 
ATOM     91  C   UNL A   1      45.996  27.538  37.690  1.00  0.00     0.060 A 
BRANCH  91  92
ATOM     92  S   UNL A   1      47.291  26.779  38.694  1.00  0.00     0.124 S 
ATOM     93  O   UNL A   1      48.407  27.691  38.471  1.00  0.00    -0.237 OA
ATOM     94  O   UNL A   1      46.709  26.805  40.032  1.00  0.00    -0.237 OA
ATOM     95  O   UNL A   1      47.439  25.450  38.107  1.00  0.00    -0.744 OA
ENDBRANCH  91  92
ENDBRANCH  59  84
ENDBRANCH  33  34
ENDBRANCH  26  28
ENDBRANCH  25  26
ENDBRANCH  24  25
ENDBRANCH  23  24
ENDBRANCH  22  23
ENDBRANCH   1  22
TORSDOF 24
ENDMDL
MODEL 3
REMARK VINA RESULT:      -9.0      5.212     10.104
REMARK SMILES CC[NH2+][C@]1(C(=O)OCCOCCOCCOC(=O)c2ccc(-c3c4nc(c(-c5c(F)cc(S(=O)(=O)[O-])cc5F)c5ccc([nH]5)c(-c5c(F)cc(S(=O)(=O)[O-])cc5F)c5nc(c(-c6c(F)cc(S(=O)(=O)[O-])cc6F)c6ccc3[nH]6)C=C5)C=C4)cc2)CC[C@H](OCC)C1
REMARK SMILES IDX 12 1 11 2 10 3 9 4 8 5 7 6 5 7 6 8 4 9 85 10 91 11 86 12
REMARK SMILES IDX 87 13 3 14 2 17 1 18 88 19 89 20 90 21 13 22 14 23 15 24
REMARK SMILES IDX 16 25 17 26 18 27 19 28 20 29 84 30 21 31 83 32 22 33 23 34
REMARK SMILES IDX 24 35 77 36 25 37 82 38 76 39 78 40 26 41 81 42 75 43 74 44
REMARK SMILES IDX 27 46 61 47 40 48 60 49 41 50 44 51 59 52 79 53 42 54 43 55
REMARK SMILES IDX 58 57 80 58 45 59 28 60 29 61 38 62 30 63 31 64 37 65 39 66
REMARK SMILES IDX 32 67 33 68 34 69 35 70 36 71 62 72 63 73 72 74 64 75 65 76
REMARK SMILES IDX 71 77 73 78 66 79 67 80 68 81 69 82 70 83 46 84 47 85 56 86
REMARK SMILES IDX 48 87 49 88 55 89 57 90 50 91 51 92 52 93 53 94 54 95
REMARK H PARENT 3 15 3 16 78 45 44 56
REMARK Flexibility Score: inf
ROOT
ATOM      1  C   UNL A   1      30.848  27.274  24.251  1.00  0.00     0.188 C 
ENDROOT
BRANCH   1   2
ATOM      2  C   UNL A   1      30.924  26.338  23.026  1.00  0.00     0.188 C 
BRANCH   2   3
ATOM      3  O   UNL A   1      31.661  26.853  21.927  1.00  0.00    -0.376 OA
BRANCH   3   4
ATOM      4  C   UNL A   1      32.755  26.054  21.494  1.00  0.00     0.202 C 
BRANCH   4   5
ATOM      5  C   UNL A   1      32.775  24.642  22.090  1.00  0.00     0.261 C 
BRANCH   5   6
ATOM      6  O   UNL A   1      34.006  24.304  22.758  1.00  0.00    -0.459 OA
BRANCH   6   7
ATOM      7  C   UNL A   1      34.071  24.622  24.082  1.00  0.00     0.368 C 
ATOM      8  O   UNL A   1      34.329  25.746  24.497  1.00  0.00    -0.245 OA
BRANCH   7   9
ATOM      9  C   UNL A   1      33.764  23.406  24.985  1.00  0.00     0.196 C 
ATOM     10  C   UNL A   1      32.397  23.628  25.646  1.00  0.00     0.084 C 
ATOM     11  C   UNL A   1      33.501  22.122  24.163  1.00  0.00     0.113 C 
ATOM     12  C   UNL A   1      31.960  22.245  26.067  1.00  0.00     0.039 C 
ATOM     13  C   UNL A   1      32.417  21.329  24.929  1.00  0.00     0.125 C 
BRANCH   9  14
ATOM     14  N   UNL A   1      34.879  23.092  25.918  1.00  0.00    -0.332 N 
ATOM     15  H   UNL A   1      34.991  23.884  26.549  1.00  0.00     0.347 HD
ATOM     16  H   UNL A   1      34.613  22.222  26.381  1.00  0.00     0.347 HD
BRANCH  14  17
ATOM     17  C   UNL A   1      36.169  22.828  25.300  1.00  0.00     0.257 C 
ATOM     18  C   UNL A   1      37.213  23.745  25.926  1.00  0.00     0.071 C 
ENDBRANCH  14  17
ENDBRANCH   9  14
BRANCH  13  19
ATOM     19  O   UNL A   1      32.966  20.120  25.454  1.00  0.00    -0.378 OA
BRANCH  19  20
ATOM     20  C   UNL A   1      33.565  19.254  24.489  1.00  0.00     0.157 C 
ATOM     21  C   UNL A   1      32.575  18.584  23.549  1.00  0.00     0.035 C 
ENDBRANCH  19  20
ENDBRANCH  13  19
ENDBRANCH   7   9
ENDBRANCH   6   7
ENDBRANCH   5   6
ENDBRANCH   4   5
ENDBRANCH   3   4
ENDBRANCH   2   3
ENDBRANCH   1   2
BRANCH   1  22
ATOM     22  O   UNL A   1      30.981  26.757  25.571  1.00  0.00    -0.376 OA
BRANCH  22  23
ATOM     23  C   UNL A   1      31.805  27.434  26.511  1.00  0.00     0.202 C 
BRANCH  23  24
ATOM     24  C   UNL A   1      32.725  28.567  26.033  1.00  0.00     0.261 C 
BRANCH  24  25
ATOM     25  O   UNL A   1      33.990  28.646  26.710  1.00  0.00    -0.460 OA
BRANCH  25  26
ATOM     26  C   UNL A   1      34.351  29.886  27.126  1.00  0.00     0.338 C 
ATOM     27  O   UNL A   1      33.707  30.915  27.019  1.00  0.00    -0.246 OA
BRANCH  26  28
ATOM     28  C   UNL A   1      35.604  29.810  27.903  1.00  0.00     0.060 A 
ATOM     29  C   UNL A   1      36.812  30.043  27.232  1.00  0.00     0.016 A 
ATOM     30  C   UNL A   1      35.605  29.457  29.254  1.00  0.00     0.016 A 
ATOM     31  C   UNL A   1      38.026  29.902  27.904  1.00  0.00     0.010 A 
ATOM     32  C   UNL A   1      36.825  29.294  29.920  1.00  0.00     0.010 A 
ATOM     33  C   UNL A   1      38.043  29.491  29.242  1.00  0.00    -0.014 A 
BRANCH  33  34
ATOM     34  C   UNL A   1      39.331  29.131  29.887  1.00  0.00     0.031 A 
ATOM     35  C   UNL A   1      39.794  29.924  31.080  1.00  0.00     0.074 A 
ATOM     36  C   UNL A   1      40.073  28.106  29.430  1.00  0.00     0.049 A 
ATOM     37  N   UNL A   1      40.899  29.814  31.771  1.00  0.00    -0.248 NA
ATOM     38  C   UNL A   1      38.889  30.982  31.557  1.00  0.00     0.031 C 
ATOM     39  C   UNL A   1      39.717  27.240  28.307  1.00  0.00     0.029 A 
ATOM     40  N   UNL A   1      41.289  27.629  29.852  1.00  0.00    -0.354 N 
ATOM     41  C   UNL A   1      40.826  30.785  32.761  1.00  0.00     0.074 A 
ATOM     42  C   UNL A   1      39.577  31.493  32.567  1.00  0.00     0.031 C 
ATOM     43  C   UNL A   1      40.706  26.348  28.116  1.00  0.00     0.029 A 
ATOM     44  C   UNL A   1      41.774  26.598  29.083  1.00  0.00     0.049 A 
ATOM     45  H   UNL A   1      41.769  27.991  30.632  1.00  0.00     0.167 HD
ATOM     46  C   UNL A   1      41.715  31.062  33.745  1.00  0.00     0.037 A 
ATOM     47  C   UNL A   1      42.954  25.947  29.139  1.00  0.00     0.037 A 
ATOM     48  C   UNL A   1      42.958  30.361  33.934  1.00  0.00     0.049 A 
ATOM     49  C   UNL A   1      43.958  26.318  30.201  1.00  0.00     0.074 A 
ATOM     50  C   UNL A   1      43.914  30.556  34.916  1.00  0.00     0.029 A 
ATOM     51  N   UNL A   1      43.425  29.340  33.120  1.00  0.00    -0.354 N 
ATOM     52  N   UNL A   1      43.863  27.219  31.149  1.00  0.00    -0.248 NA
ATOM     53  C   UNL A   1      45.232  25.582  30.200  1.00  0.00     0.031 C 
ATOM     54  C   UNL A   1      44.980  29.685  34.669  1.00  0.00     0.029 A 
ATOM     55  C   UNL A   1      44.667  28.914  33.561  1.00  0.00     0.049 A 
ATOM     56  H   UNL A   1      42.945  28.974  32.342  1.00  0.00     0.167 HD
ATOM     57  C   UNL A   1      45.051  27.142  31.870  1.00  0.00     0.074 A 
ATOM     58  C   UNL A   1      45.845  26.098  31.256  1.00  0.00     0.031 C 
ATOM     59  C   UNL A   1      45.447  27.870  32.945  1.00  0.00     0.037 A 
BRANCH  46  60
ATOM     60  C   UNL A   1      41.384  32.187  34.684  1.00  0.00     0.058 A 
ATOM     61  C   UNL A   1      41.692  33.520  34.376  1.00  0.00     0.135 A 
ATOM     62  C   UNL A   1      40.714  31.930  35.891  1.00  0.00     0.135 A 
ATOM     63  F   UNL A   1      42.348  33.818  33.243  1.00  0.00    -0.206 F 
ATOM     64  C   UNL A   1      41.363  34.560  35.240  1.00  0.00     0.059 A 
ATOM     65  C   UNL A   1      40.355  32.957  36.760  1.00  0.00     0.059 A 
ATOM     66  F   UNL A   1      40.399  30.672  36.236  1.00  0.00    -0.206 F 
ATOM     67  C   UNL A   1      40.695  34.268  36.431  1.00  0.00     0.060 A 
BRANCH  67  68
ATOM     68  S   UNL A   1      40.266  35.629  37.536  1.00  0.00     0.124 S 
ATOM     69  O   UNL A   1      41.475  35.739  38.346  1.00  0.00    -0.237 OA
ATOM     70  O   UNL A   1      40.026  36.726  36.604  1.00  0.00    -0.237 OA
ATOM     71  O   UNL A   1      39.083  35.137  38.238  1.00  0.00    -0.744 OA
ENDBRANCH  67  68
ENDBRANCH  46  60
BRANCH  47  72
ATOM     72  C   UNL A   1      43.267  24.887  28.143  1.00  0.00     0.058 A 
ATOM     73  C   UNL A   1      43.888  25.196  26.924  1.00  0.00     0.135 A 
ATOM     74  C   UNL A   1      42.939  23.544  28.388  1.00  0.00     0.135 A 
ATOM     75  F   UNL A   1      44.209  26.467  26.639  1.00  0.00    -0.206 F 
ATOM     76  C   UNL A   1      44.158  24.216  25.975  1.00  0.00     0.059 A 
ATOM     77  C   UNL A   1      43.222  22.543  27.465  1.00  0.00     0.059 A 
ATOM     78  F   UNL A   1      42.350  23.194  29.542  1.00  0.00    -0.206 F 
ATOM     79  C   UNL A   1      43.823  22.890  26.256  1.00  0.00     0.060 A 
BRANCH  79  80
ATOM     80  S   UNL A   1      44.222  21.618  25.038  1.00  0.00     0.124 S 
ATOM     81  O   UNL A   1      45.566  21.229  25.447  1.00  0.00    -0.237 OA
ATOM     82  O   UNL A   1      43.172  20.631  25.270  1.00  0.00    -0.237 OA
ATOM     83  O   UNL A   1      44.129  22.332  23.767  1.00  0.00    -0.744 OA
ENDBRANCH  79  80
ENDBRANCH  47  72
BRANCH  59  84
ATOM     84  C   UNL A   1      46.786  27.546  33.550  1.00  0.00     0.058 A 
ATOM     85  C   UNL A   1      47.949  28.239  33.181  1.00  0.00     0.135 A 
ATOM     86  C   UNL A   1      46.896  26.567  34.551  1.00  0.00     0.135 A 
ATOM     87  F   UNL A   1      47.900  29.180  32.225  1.00  0.00    -0.206 F 
ATOM     88  C   UNL A   1      49.180  27.959  33.768  1.00  0.00     0.059 A 
ATOM     89  C   UNL A   1      48.111  26.288  35.171  1.00  0.00     0.059 A 
ATOM     90  F   UNL A   1      45.812  25.882  34.949  1.00  0.00    -0.206 F 
ATOM     91  C   UNL A   1      49.250  26.982  34.764  1.00  0.00     0.060 A 
BRANCH  91  92
ATOM     92  S   UNL A   1      50.845  26.651  35.542  1.00  0.00     0.124 S 
ATOM     93  O   UNL A   1      50.788  25.205  35.725  1.00  0.00    -0.237 OA
ATOM     94  O   UNL A   1      51.791  27.125  34.537  1.00  0.00    -0.237 OA
ATOM     95  O   UNL A   1      50.795  27.441  36.769  1.00  0.00    -0.744 OA
ENDBRANCH  91  92
ENDBRANCH  59  84
ENDBRANCH  33  34
ENDBRANCH  26  28
ENDBRANCH  25  26
ENDBRANCH  24  25
ENDBRANCH  23  24
ENDBRANCH  22  23
ENDBRANCH   1  22
TORSDOF 24
ENDMDL
