MODEL 1
REMARK VINA RESULT:      -5.9      0.000      0.000
REMARK SMILES CC/C=C/C/C=C/C/C=C/C/C=C/CC/C=C/COCC(=O)OCCOCCOCCOC(=O)c1ccc(-c2c3nc(c(-c4c(F)cc(S(=O)(=O)[O-])cc4F)c4ccc([nH]4)c(-c4c(F)cc(S(=O)(=O)[O-])cc4F)c4nc(c(-c5c(F)cc(S(=O)(=O)[O-])cc5F)c5ccc2[nH]5)C=C4)C=C3)cc1
REMARK SMILES IDX 21 1 22 2 20 3 19 4 18 5 17 6 16 7 15 8 14 9 13 10 12 11
REMARK SMILES IDX 11 12 10 13 9 14 8 15 7 16 6 17 5 18 4 19 3 20 2 21 1 22
REMARK SMILES IDX 23 23 24 24 25 25 26 26 27 27 28 28 29 29 30 30 31 31 32 32
REMARK SMILES IDX 33 33 34 34 35 35 36 36 100 37 37 38 99 39 38 40 39 41 40 42
REMARK SMILES IDX 93 43 41 44 98 45 92 46 94 47 42 48 97 49 91 50 90 51 43 53
REMARK SMILES IDX 77 54 56 55 76 56 57 57 60 58 75 59 95 60 58 61 59 62 74 64
REMARK SMILES IDX 96 65 61 66 44 67 45 68 54 69 46 70 47 71 53 72 55 73 48 74
REMARK SMILES IDX 49 75 50 76 51 77 52 78 78 79 79 80 88 81 80 82 81 83 87 84
REMARK SMILES IDX 89 85 82 86 83 87 84 88 85 89 86 90 62 91 63 92 72 93 64 94
REMARK SMILES IDX 65 95 71 96 73 97 66 98 67 99 68 100 69 101 70 102
REMARK H PARENT 94 52 60 63
REMARK Flexibility Score: inf
ROOT
ATOM      1  C   UNL A   1      52.099  23.280  36.538  1.00  0.00     0.332 C 
ATOM      2  O   UNL A   1      52.302  22.675  37.589  1.00  0.00    -0.250 OA
ENDROOT
BRANCH   1   3
ATOM      3  C   UNL A   1      52.569  24.733  36.360  1.00  0.00     0.283 C 
BRANCH   3   4
ATOM      4  O   UNL A   1      51.855  25.894  36.737  1.00  0.00    -0.366 OA
BRANCH   4   5
ATOM      5  C   UNL A   1      51.346  26.712  35.683  1.00  0.00     0.188 C 
BRANCH   5   6
ATOM      6  C   UNL A   1      50.263  26.033  34.885  1.00  0.00    -0.003 C 
ATOM      7  C   UNL A   1      49.265  26.704  34.283  1.00  0.00    -0.029 C 
BRANCH   7   8
ATOM      8  C   UNL A   1      48.066  26.114  33.591  1.00  0.00     0.031 C 
BRANCH   8   9
ATOM      9  C   UNL A   1      47.214  27.121  32.758  1.00  0.00     0.031 C 
BRANCH   9  10
ATOM     10  C   UNL A   1      46.580  26.619  31.471  1.00  0.00    -0.031 C 
ATOM     11  C   UNL A   1      46.639  27.152  30.233  1.00  0.00    -0.027 C 
BRANCH  11  12
ATOM     12  C   UNL A   1      45.929  26.645  28.997  1.00  0.00     0.054 C 
BRANCH  12  13
ATOM     13  C   UNL A   1      46.864  26.297  27.854  1.00  0.00    -0.027 C 
ATOM     14  C   UNL A   1      46.681  25.285  26.979  1.00  0.00    -0.027 C 
BRANCH  14  15
ATOM     15  C   UNL A   1      47.514  25.029  25.745  1.00  0.00     0.054 C 
BRANCH  15  16
ATOM     16  C   UNL A   1      46.767  24.301  24.660  1.00  0.00    -0.027 C 
ATOM     17  C   UNL A   1      45.935  23.261  24.863  1.00  0.00    -0.027 C 
BRANCH  17  18
ATOM     18  C   UNL A   1      45.142  22.578  23.778  1.00  0.00     0.054 C 
BRANCH  18  19
ATOM     19  C   UNL A   1      43.873  21.976  24.316  1.00  0.00    -0.027 C 
ATOM     20  C   UNL A   1      43.704  21.532  25.574  1.00  0.00    -0.031 C 
BRANCH  20  21
ATOM     21  C   UNL A   1      42.410  20.975  26.095  1.00  0.00     0.023 C 
ATOM     22  C   UNL A   1      42.403  20.903  27.615  1.00  0.00     0.008 C 
ENDBRANCH  20  21
ENDBRANCH  18  19
ENDBRANCH  17  18
ENDBRANCH  15  16
ENDBRANCH  14  15
ENDBRANCH  12  13
ENDBRANCH  11  12
ENDBRANCH   9  10
ENDBRANCH   8   9
ENDBRANCH   7   8
ENDBRANCH   5   6
ENDBRANCH   4   5
ENDBRANCH   3   4
ENDBRANCH   1   3
BRANCH   1  23
ATOM     23  O   UNL A   1      51.413  22.769  35.478  1.00  0.00    -0.462 OA
BRANCH  23  24
ATOM     24  C   UNL A   1      50.048  22.385  35.760  1.00  0.00     0.261 C 
BRANCH  24  25
ATOM     25  C   UNL A   1      49.767  20.877  35.736  1.00  0.00     0.202 C 
BRANCH  25  26
ATOM     26  O   UNL A   1      49.234  20.326  36.929  1.00  0.00    -0.376 OA
BRANCH  26  27
ATOM     27  C   UNL A   1      48.972  21.264  37.957  1.00  0.00     0.188 C 
BRANCH  27  28
ATOM     28  C   UNL A   1      47.519  21.499  38.302  1.00  0.00     0.188 C 
BRANCH  28  29
ATOM     29  O   UNL A   1      47.263  22.664  39.052  1.00  0.00    -0.376 OA
BRANCH  29  30
ATOM     30  C   UNL A   1      48.230  23.706  38.935  1.00  0.00     0.202 C 
BRANCH  30  31
ATOM     31  C   UNL A   1      47.952  25.176  39.362  1.00  0.00     0.261 C 
BRANCH  31  32
ATOM     32  O   UNL A   1      47.976  26.214  38.356  1.00  0.00    -0.460 OA
BRANCH  32  33
ATOM     33  C   UNL A   1      47.424  27.408  38.691  1.00  0.00     0.338 C 
ATOM     34  O   UNL A   1      47.866  28.173  39.518  1.00  0.00    -0.246 OA
BRANCH  33  35
ATOM     35  C   UNL A   1      46.314  27.752  37.736  1.00  0.00     0.060 A 
ATOM     36  C   UNL A   1      46.556  28.793  36.830  1.00  0.00     0.016 A 
ATOM     37  C   UNL A   1      45.073  27.106  37.701  1.00  0.00     0.016 A 
ATOM     38  C   UNL A   1      45.560  29.224  35.939  1.00  0.00     0.010 A 
ATOM     39  C   UNL A   1      44.065  27.554  36.814  1.00  0.00     0.010 A 
ATOM     40  C   UNL A   1      44.289  28.634  35.937  1.00  0.00    -0.014 A 
BRANCH  40  41
ATOM     41  C   UNL A   1      43.171  29.290  35.177  1.00  0.00     0.031 A 
ATOM     42  C   UNL A   1      42.452  30.432  35.817  1.00  0.00     0.074 A 
ATOM     43  C   UNL A   1      42.847  29.001  33.900  1.00  0.00     0.049 A 
ATOM     44  N   UNL A   1      41.461  31.141  35.348  1.00  0.00    -0.248 NA
ATOM     45  C   UNL A   1      42.934  30.850  37.140  1.00  0.00     0.031 C 
ATOM     46  C   UNL A   1      43.566  28.037  33.103  1.00  0.00     0.029 A 
ATOM     47  N   UNL A   1      41.883  29.469  33.033  1.00  0.00    -0.354 N 
ATOM     48  C   UNL A   1      41.205  32.101  36.311  1.00  0.00     0.074 A 
ATOM     49  C   UNL A   1      42.127  31.866  37.403  1.00  0.00     0.031 C 
ATOM     50  C   UNL A   1      43.039  27.965  31.871  1.00  0.00     0.029 A 
ATOM     51  C   UNL A   1      41.882  28.838  31.803  1.00  0.00     0.049 A 
ATOM     52  H   UNL A   1      41.253  30.188  33.268  1.00  0.00     0.167 HD
ATOM     53  C   UNL A   1      40.286  33.092  36.282  1.00  0.00     0.037 A 
ATOM     54  C   UNL A   1      41.044  28.910  30.747  1.00  0.00     0.037 A 
ATOM     55  C   UNL A   1      39.348  33.306  35.212  1.00  0.00     0.049 A 
ATOM     56  C   UNL A   1      39.912  29.895  30.816  1.00  0.00     0.074 A 
ATOM     57  C   UNL A   1      38.334  34.244  35.141  1.00  0.00     0.029 A 
ATOM     58  N   UNL A   1      39.293  32.571  34.036  1.00  0.00    -0.354 N 
ATOM     59  N   UNL A   1      39.649  30.762  31.764  1.00  0.00    -0.248 NA
ATOM     60  C   UNL A   1      38.970  29.928  29.689  1.00  0.00     0.031 C 
ATOM     61  C   UNL A   1      37.629  34.038  33.951  1.00  0.00     0.029 A 
ATOM     62  C   UNL A   1      38.243  33.015  33.247  1.00  0.00     0.049 A 
ATOM     63  H   UNL A   1      39.909  31.841  33.797  1.00  0.00     0.167 HD
ATOM     64  C   UNL A   1      38.541  31.474  31.328  1.00  0.00     0.074 A 
ATOM     65  C   UNL A   1      38.181  30.938  30.031  1.00  0.00     0.031 C 
ATOM     66  C   UNL A   1      37.892  32.487  31.951  1.00  0.00     0.037 A 
BRANCH  53  67
ATOM     67  C   UNL A   1      40.215  33.962  37.499  1.00  0.00     0.058 A 
ATOM     68  C   UNL A   1      40.978  35.133  37.622  1.00  0.00     0.135 A 
ATOM     69  C   UNL A   1      39.400  33.584  38.578  1.00  0.00     0.135 A 
ATOM     70  F   UNL A   1      41.801  35.512  36.631  1.00  0.00    -0.206 F 
ATOM     71  C   UNL A   1      40.959  35.886  38.789  1.00  0.00     0.059 A 
ATOM     72  C   UNL A   1      39.345  34.339  39.743  1.00  0.00     0.059 A 
ATOM     73  F   UNL A   1      38.668  32.462  38.513  1.00  0.00    -0.206 F 
ATOM     74  C   UNL A   1      40.141  35.478  39.845  1.00  0.00     0.060 A 
BRANCH  74  75
ATOM     75  S   UNL A   1      40.143  36.452  41.363  1.00  0.00     0.124 S 
ATOM     76  O   UNL A   1      41.209  37.411  41.092  1.00  0.00    -0.237 OA
ATOM     77  O   UNL A   1      38.790  36.997  41.383  1.00  0.00    -0.237 OA
ATOM     78  O   UNL A   1      40.435  35.466  42.398  1.00  0.00    -0.744 OA
ENDBRANCH  74  75
ENDBRANCH  53  67
BRANCH  54  79
ATOM     79  C   UNL A   1      41.194  28.010  29.560  1.00  0.00     0.058 A 
ATOM     80  C   UNL A   1      40.341  26.913  29.349  1.00  0.00     0.135 A 
ATOM     81  C   UNL A   1      42.239  28.193  28.637  1.00  0.00     0.135 A 
ATOM     82  F   UNL A   1      39.333  26.675  30.202  1.00  0.00    -0.206 F 
ATOM     83  C   UNL A   1      40.535  26.020  28.294  1.00  0.00     0.059 A 
ATOM     84  C   UNL A   1      42.437  27.331  27.559  1.00  0.00     0.059 A 
ATOM     85  F   UNL A   1      43.087  29.223  28.779  1.00  0.00    -0.206 F 
ATOM     86  C   UNL A   1      41.589  26.236  27.405  1.00  0.00     0.060 A 
BRANCH  86  87
ATOM     87  S   UNL A   1      41.830  25.073  26.041  1.00  0.00     0.124 S 
ATOM     88  O   UNL A   1      40.945  23.978  26.424  1.00  0.00    -0.237 OA
ATOM     89  O   UNL A   1      41.406  25.862  24.888  1.00  0.00    -0.237 OA
ATOM     90  O   UNL A   1      43.259  24.777  26.098  1.00  0.00    -0.744 OA
ENDBRANCH  86  87
ENDBRANCH  54  79
BRANCH  66  91
ATOM     91  C   UNL A   1      36.749  33.129  31.217  1.00  0.00     0.058 A 
ATOM     92  C   UNL A   1      35.411  32.879  31.556  1.00  0.00     0.135 A 
ATOM     93  C   UNL A   1      37.004  34.054  30.190  1.00  0.00     0.135 A 
ATOM     94  F   UNL A   1      35.112  31.993  32.521  1.00  0.00    -0.206 F 
ATOM     95  C   UNL A   1      34.364  33.512  30.894  1.00  0.00     0.059 A 
ATOM     96  C   UNL A   1      35.975  34.721  29.537  1.00  0.00     0.059 A 
ATOM     97  F   UNL A   1      38.267  34.331  29.828  1.00  0.00    -0.206 F 
ATOM     98  C   UNL A   1      34.657  34.437  29.890  1.00  0.00     0.060 A 
BRANCH  98  99
ATOM     99  S   UNL A   1      33.292  35.292  29.077  1.00  0.00     0.124 S 
ATOM    100  O   UNL A   1      32.665  34.204  28.334  1.00  0.00    -0.237 OA
ATOM    101  O   UNL A   1      32.530  35.809  30.209  1.00  0.00    -0.237 OA
ATOM    102  O   UNL A   1      33.960  36.304  28.264  1.00  0.00    -0.744 OA
ENDBRANCH  98  99
ENDBRANCH  66  91
ENDBRANCH  40  41
ENDBRANCH  33  35
ENDBRANCH  32  33
ENDBRANCH  31  32
ENDBRANCH  30  31
ENDBRANCH  29  30
ENDBRANCH  28  29
ENDBRANCH  27  28
ENDBRANCH  26  27
ENDBRANCH  25  26
ENDBRANCH  24  25
ENDBRANCH  23  24
ENDBRANCH   1  23
TORSDOF 33
ENDMDL
MODEL 2
REMARK VINA RESULT:      -5.9      8.093     14.841
REMARK SMILES CC/C=C/C/C=C/C/C=C/C/C=C/CC/C=C/COCC(=O)OCCOCCOCCOC(=O)c1ccc(-c2c3nc(c(-c4c(F)cc(S(=O)(=O)[O-])cc4F)c4ccc([nH]4)c(-c4c(F)cc(S(=O)(=O)[O-])cc4F)c4nc(c(-c5c(F)cc(S(=O)(=O)[O-])cc5F)c5ccc2[nH]5)C=C4)C=C3)cc1
REMARK SMILES IDX 21 1 22 2 20 3 19 4 18 5 17 6 16 7 15 8 14 9 13 10 12 11
REMARK SMILES IDX 11 12 10 13 9 14 8 15 7 16 6 17 5 18 4 19 3 20 2 21 1 22
REMARK SMILES IDX 23 23 24 24 25 25 26 26 27 27 28 28 29 29 30 30 31 31 32 32
REMARK SMILES IDX 33 33 34 34 35 35 36 36 100 37 37 38 99 39 38 40 39 41 40 42
REMARK SMILES IDX 93 43 41 44 98 45 92 46 94 47 42 48 97 49 91 50 90 51 43 53
REMARK SMILES IDX 77 54 56 55 76 56 57 57 60 58 75 59 95 60 58 61 59 62 74 64
REMARK SMILES IDX 96 65 61 66 44 67 45 68 54 69 46 70 47 71 53 72 55 73 48 74
REMARK SMILES IDX 49 75 50 76 51 77 52 78 78 79 79 80 88 81 80 82 81 83 87 84
REMARK SMILES IDX 89 85 82 86 83 87 84 88 85 89 86 90 62 91 63 92 72 93 64 94
REMARK SMILES IDX 65 95 71 96 73 97 66 98 67 99 68 100 69 101 70 102
REMARK H PARENT 94 52 60 63
REMARK Flexibility Score: inf
ROOT
ATOM      1  C   UNL A   1      34.782  31.208  28.074  1.00  0.00     0.332 C 
ATOM      2  O   UNL A   1      33.830  31.332  27.307  1.00  0.00    -0.250 OA
ENDROOT
BRANCH   1   3
ATOM      3  C   UNL A   1      35.357  32.420  28.823  1.00  0.00     0.283 C 
BRANCH   3   4
ATOM      4  O   UNL A   1      36.482  33.185  28.438  1.00  0.00    -0.366 OA
BRANCH   4   5
ATOM      5  C   UNL A   1      37.214  33.832  29.480  1.00  0.00     0.188 C 
BRANCH   5   6
ATOM      6  C   UNL A   1      38.567  34.318  29.032  1.00  0.00    -0.003 C 
ATOM      7  C   UNL A   1      39.573  34.575  29.885  1.00  0.00    -0.029 C 
BRANCH   7   8
ATOM      8  C   UNL A   1      40.904  35.196  29.555  1.00  0.00     0.031 C 
BRANCH   8   9
ATOM      9  C   UNL A   1      42.025  34.192  29.142  1.00  0.00     0.031 C 
BRANCH   9  10
ATOM     10  C   UNL A   1      43.143  34.704  28.249  1.00  0.00    -0.031 C 
ATOM     11  C   UNL A   1      43.688  35.937  28.195  1.00  0.00    -0.027 C 
BRANCH  11  12
ATOM     12  C   UNL A   1      44.757  36.410  27.235  1.00  0.00     0.054 C 
BRANCH  12  13
ATOM     13  C   UNL A   1      44.872  37.921  27.144  1.00  0.00    -0.027 C 
ATOM     14  C   UNL A   1      46.000  38.629  27.362  1.00  0.00    -0.027 C 
BRANCH  14  15
ATOM     15  C   UNL A   1      46.167  40.112  27.119  1.00  0.00     0.054 C 
BRANCH  15  16
ATOM     16  C   UNL A   1      47.571  40.601  27.354  1.00  0.00    -0.027 C 
ATOM     17  C   UNL A   1      47.908  41.601  28.192  1.00  0.00    -0.027 C 
BRANCH  17  18
ATOM     18  C   UNL A   1      49.322  42.042  28.469  1.00  0.00     0.054 C 
BRANCH  18  19
ATOM     19  C   UNL A   1      49.594  42.133  29.945  1.00  0.00    -0.027 C 
ATOM     20  C   UNL A   1      48.660  42.037  30.908  1.00  0.00    -0.031 C 
BRANCH  20  21
ATOM     21  C   UNL A   1      48.968  42.089  32.377  1.00  0.00     0.023 C 
ATOM     22  C   UNL A   1      49.037  43.521  32.885  1.00  0.00     0.008 C 
ENDBRANCH  20  21
ENDBRANCH  18  19
ENDBRANCH  17  18
ENDBRANCH  15  16
ENDBRANCH  14  15
ENDBRANCH  12  13
ENDBRANCH  11  12
ENDBRANCH   9  10
ENDBRANCH   8   9
ENDBRANCH   7   8
ENDBRANCH   5   6
ENDBRANCH   4   5
ENDBRANCH   3   4
ENDBRANCH   1   3
BRANCH   1  23
ATOM     23  O   UNL A   1      35.444  30.036  28.293  1.00  0.00    -0.462 OA
BRANCH  23  24
ATOM     24  C   UNL A   1      36.611  29.829  27.466  1.00  0.00     0.261 C 
BRANCH  24  25
ATOM     25  C   UNL A   1      37.957  29.850  28.203  1.00  0.00     0.202 C 
BRANCH  25  26
ATOM     26  O   UNL A   1      38.488  28.585  28.562  1.00  0.00    -0.376 OA
BRANCH  26  27
ATOM     27  C   UNL A   1      38.229  28.182  29.894  1.00  0.00     0.188 C 
BRANCH  27  28
ATOM     28  C   UNL A   1      38.185  29.278  30.934  1.00  0.00     0.188 C 
BRANCH  28  29
ATOM     29  O   UNL A   1      37.050  29.266  31.769  1.00  0.00    -0.376 OA
BRANCH  29  30
ATOM     30  C   UNL A   1      37.028  30.249  32.803  1.00  0.00     0.202 C 
BRANCH  30  31
ATOM     31  C   UNL A   1      38.052  30.273  33.975  1.00  0.00     0.261 C 
BRANCH  31  32
ATOM     32  O   UNL A   1      38.040  31.389  34.893  1.00  0.00    -0.460 OA
BRANCH  32  33
ATOM     33  C   UNL A   1      39.197  31.659  35.549  1.00  0.00     0.338 C 
ATOM     34  O   UNL A   1      39.381  31.493  36.735  1.00  0.00    -0.246 OA
BRANCH  33  35
ATOM     35  C   UNL A   1      40.288  31.980  34.566  1.00  0.00     0.060 A 
ATOM     36  C   UNL A   1      41.607  31.887  35.027  1.00  0.00     0.016 A 
ATOM     37  C   UNL A   1      40.066  32.362  33.237  1.00  0.00     0.016 A 
ATOM     38  C   UNL A   1      42.690  32.223  34.199  1.00  0.00     0.010 A 
ATOM     39  C   UNL A   1      41.159  32.718  32.409  1.00  0.00     0.010 A 
ATOM     40  C   UNL A   1      42.483  32.674  32.888  1.00  0.00    -0.014 A 
BRANCH  40  41
ATOM     41  C   UNL A   1      43.627  33.283  32.127  1.00  0.00     0.031 A 
ATOM     42  C   UNL A   1      44.359  32.431  31.142  1.00  0.00     0.074 A 
ATOM     43  C   UNL A   1      43.964  34.589  32.178  1.00  0.00     0.049 A 
ATOM     44  N   UNL A   1      45.371  32.747  30.381  1.00  0.00    -0.248 NA
ATOM     45  C   UNL A   1      43.864  31.059  30.970  1.00  0.00     0.031 C 
ATOM     46  C   UNL A   1      43.239  35.560  32.958  1.00  0.00     0.029 A 
ATOM     47  N   UNL A   1      44.951  35.341  31.577  1.00  0.00    -0.354 N 
ATOM     48  C   UNL A   1      45.630  31.618  29.624  1.00  0.00     0.074 A 
ATOM     49  C   UNL A   1      44.687  30.600  30.040  1.00  0.00     0.031 C 
ATOM     50  C   UNL A   1      43.783  36.779  32.809  1.00  0.00     0.029 A 
ATOM     51  C   UNL A   1      44.958  36.667  31.966  1.00  0.00     0.049 A 
ATOM     52  H   UNL A   1      45.592  34.967  30.930  1.00  0.00     0.167 HD
ATOM     53  C   UNL A   1      46.569  31.450  28.667  1.00  0.00     0.037 A 
ATOM     54  C   UNL A   1      45.814  37.681  31.715  1.00  0.00     0.037 A 
ATOM     55  C   UNL A   1      47.528  32.448  28.277  1.00  0.00     0.049 A 
ATOM     56  C   UNL A   1      46.965  37.414  30.786  1.00  0.00     0.074 A 
ATOM     57  C   UNL A   1      48.561  32.330  27.365  1.00  0.00     0.029 A 
ATOM     58  N   UNL A   1      47.586  33.741  28.779  1.00  0.00    -0.354 N 
ATOM     59  N   UNL A   1      47.230  36.318  30.119  1.00  0.00    -0.248 NA
ATOM     60  C   UNL A   1      47.924  38.504  30.564  1.00  0.00     0.031 C 
ATOM     61  C   UNL A   1      49.280  33.529  27.359  1.00  0.00     0.029 A 
ATOM     62  C   UNL A   1      48.658  34.421  28.218  1.00  0.00     0.049 A 
ATOM     63  H   UNL A   1      46.960  34.121  29.437  1.00  0.00     0.167 HD
ATOM     64  C   UNL A   1      48.359  36.599  29.363  1.00  0.00     0.074 A 
ATOM     65  C   UNL A   1      48.728  37.969  29.654  1.00  0.00     0.031 C 
ATOM     66  C   UNL A   1      49.018  35.789  28.501  1.00  0.00     0.037 A 
BRANCH  53  67
ATOM     67  C   UNL A   1      46.639  30.089  28.044  1.00  0.00     0.058 A 
ATOM     68  C   UNL A   1      45.891  29.754  26.904  1.00  0.00     0.135 A 
ATOM     69  C   UNL A   1      47.437  29.094  28.630  1.00  0.00     0.135 A 
ATOM     70  F   UNL A   1      45.084  30.662  26.333  1.00  0.00    -0.206 F 
ATOM     71  C   UNL A   1      45.907  28.466  26.385  1.00  0.00     0.059 A 
ATOM     72  C   UNL A   1      47.489  27.808  28.110  1.00  0.00     0.059 A 
ATOM     73  F   UNL A   1      48.154  29.364  29.731  1.00  0.00    -0.206 F 
ATOM     74  C   UNL A   1      46.707  27.499  26.998  1.00  0.00     0.060 A 
BRANCH  74  75
ATOM     75  S   UNL A   1      46.702  25.825  26.328  1.00  0.00     0.124 S 
ATOM     76  O   UNL A   1      45.640  25.914  25.330  1.00  0.00    -0.237 OA
ATOM     77  O   UNL A   1      48.057  25.698  25.801  1.00  0.00    -0.237 OA
ATOM     78  O   UNL A   1      46.403  24.995  27.490  1.00  0.00    -0.744 OA
ENDBRANCH  74  75
ENDBRANCH  53  67
BRANCH  54  79
ATOM     79  C   UNL A   1      45.665  39.019  32.373  1.00  0.00     0.058 A 
ATOM     80  C   UNL A   1      45.061  40.104  31.717  1.00  0.00     0.135 A 
ATOM     81  C   UNL A   1      46.183  39.257  33.658  1.00  0.00     0.135 A 
ATOM     82  F   UNL A   1      44.560  39.945  30.482  1.00  0.00    -0.206 F 
ATOM     83  C   UNL A   1      45.003  41.374  32.292  1.00  0.00     0.059 A 
ATOM     84  C   UNL A   1      46.112  40.510  34.266  1.00  0.00     0.059 A 
ATOM     85  F   UNL A   1      46.771  38.262  34.341  1.00  0.00    -0.206 F 
ATOM     86  C   UNL A   1      45.535  41.568  33.568  1.00  0.00     0.060 A 
BRANCH  86  87
ATOM     87  S   UNL A   1      45.452  43.218  34.304  1.00  0.00     0.124 S 
ATOM     88  O   UNL A   1      45.576  44.074  33.129  1.00  0.00    -0.237 OA
ATOM     89  O   UNL A   1      44.141  43.201  34.946  1.00  0.00    -0.237 OA
ATOM     90  O   UNL A   1      46.590  43.237  35.218  1.00  0.00    -0.744 OA
ENDBRANCH  86  87
ENDBRANCH  54  79
BRANCH  66  91
ATOM     91  C   UNL A   1      50.185  36.376  27.758  1.00  0.00     0.058 A 
ATOM     92  C   UNL A   1      51.507  36.211  28.197  1.00  0.00     0.135 A 
ATOM     93  C   UNL A   1      49.975  37.069  26.554  1.00  0.00     0.135 A 
ATOM     94  F   UNL A   1      51.762  35.567  29.348  1.00  0.00    -0.206 F 
ATOM     95  C   UNL A   1      52.580  36.725  27.477  1.00  0.00     0.059 A 
ATOM     96  C   UNL A   1      51.034  37.564  25.803  1.00  0.00     0.059 A 
ATOM     97  F   UNL A   1      48.729  37.253  26.089  1.00  0.00    -0.206 F 
ATOM     98  C   UNL A   1      52.333  37.395  26.277  1.00  0.00     0.060 A 
BRANCH  98  99
ATOM     99  S   UNL A   1      53.737  38.009  25.325  1.00  0.00     0.124 S 
ATOM    100  O   UNL A   1      54.858  37.652  26.189  1.00  0.00    -0.237 OA
ATOM    101  O   UNL A   1      53.628  37.250  24.083  1.00  0.00    -0.237 OA
ATOM    102  O   UNL A   1      53.469  39.439  25.205  1.00  0.00    -0.744 OA
ENDBRANCH  98  99
ENDBRANCH  66  91
ENDBRANCH  40  41
ENDBRANCH  33  35
ENDBRANCH  32  33
ENDBRANCH  31  32
ENDBRANCH  30  31
ENDBRANCH  29  30
ENDBRANCH  28  29
ENDBRANCH  27  28
ENDBRANCH  26  27
ENDBRANCH  25  26
ENDBRANCH  24  25
ENDBRANCH  23  24
ENDBRANCH   1  23
TORSDOF 33
ENDMDL
MODEL 3
REMARK VINA RESULT:      -5.8      9.344     15.273
REMARK SMILES CC/C=C/C/C=C/C/C=C/C/C=C/CC/C=C/COCC(=O)OCCOCCOCCOC(=O)c1ccc(-c2c3nc(c(-c4c(F)cc(S(=O)(=O)[O-])cc4F)c4ccc([nH]4)c(-c4c(F)cc(S(=O)(=O)[O-])cc4F)c4nc(c(-c5c(F)cc(S(=O)(=O)[O-])cc5F)c5ccc2[nH]5)C=C4)C=C3)cc1
REMARK SMILES IDX 21 1 22 2 20 3 19 4 18 5 17 6 16 7 15 8 14 9 13 10 12 11
REMARK SMILES IDX 11 12 10 13 9 14 8 15 7 16 6 17 5 18 4 19 3 20 2 21 1 22
REMARK SMILES IDX 23 23 24 24 25 25 26 26 27 27 28 28 29 29 30 30 31 31 32 32
REMARK SMILES IDX 33 33 34 34 35 35 36 36 100 37 37 38 99 39 38 40 39 41 40 42
REMARK SMILES IDX 93 43 41 44 98 45 92 46 94 47 42 48 97 49 91 50 90 51 43 53
REMARK SMILES IDX 77 54 56 55 76 56 57 57 60 58 75 59 95 60 58 61 59 62 74 64
REMARK SMILES IDX 96 65 61 66 44 67 45 68 54 69 46 70 47 71 53 72 55 73 48 74
REMARK SMILES IDX 49 75 50 76 51 77 52 78 78 79 79 80 88 81 80 82 81 83 87 84
REMARK SMILES IDX 89 85 82 86 83 87 84 88 85 89 86 90 62 91 63 92 72 93 64 94
REMARK SMILES IDX 65 95 71 96 73 97 66 98 67 99 68 100 69 101 70 102
REMARK H PARENT 94 52 60 63
REMARK Flexibility Score: inf
ROOT
ATOM      1  C   UNL A   1      44.887  38.468  29.301  1.00  0.00     0.332 C 
ATOM      2  O   UNL A   1      44.962  39.485  29.986  1.00  0.00    -0.250 OA
ENDROOT
BRANCH   1   3
ATOM      3  C   UNL A   1      43.803  37.412  29.571  1.00  0.00     0.283 C 
BRANCH   3   4
ATOM      4  O   UNL A   1      43.310  36.464  28.644  1.00  0.00    -0.366 OA
BRANCH   4   5
ATOM      5  C   UNL A   1      42.792  36.971  27.413  1.00  0.00     0.188 C 
BRANCH   5   6
ATOM      6  C   UNL A   1      42.168  38.334  27.556  1.00  0.00    -0.003 C 
ATOM      7  C   UNL A   1      41.829  39.099  26.504  1.00  0.00    -0.029 C 
BRANCH   7   8
ATOM      8  C   UNL A   1      41.339  40.521  26.539  1.00  0.00     0.031 C 
BRANCH   8   9
ATOM      9  C   UNL A   1      41.518  41.323  25.213  1.00  0.00     0.031 C 
BRANCH   9  10
ATOM     10  C   UNL A   1      42.856  42.001  24.968  1.00  0.00    -0.031 C 
ATOM     11  C   UNL A   1      44.049  41.759  25.549  1.00  0.00    -0.027 C 
BRANCH  11  12
ATOM     12  C   UNL A   1      45.338  42.514  25.314  1.00  0.00     0.054 C 
BRANCH  12  13
ATOM     13  C   UNL A   1      45.640  42.764  23.848  1.00  0.00    -0.027 C 
ATOM     14  C   UNL A   1      46.646  42.190  23.153  1.00  0.00    -0.027 C 
BRANCH  14  15
ATOM     15  C   UNL A   1      46.860  42.304  21.661  1.00  0.00     0.054 C 
BRANCH  15  16
ATOM     16  C   UNL A   1      45.577  42.417  20.881  1.00  0.00    -0.027 C 
ATOM     17  C   UNL A   1      44.879  43.556  20.709  1.00  0.00    -0.027 C 
BRANCH  17  18
ATOM     18  C   UNL A   1      43.629  43.673  19.874  1.00  0.00     0.054 C 
BRANCH  18  19
ATOM     19  C   UNL A   1      43.803  44.660  18.753  1.00  0.00    -0.027 C 
ATOM     20  C   UNL A   1      42.894  45.582  18.391  1.00  0.00    -0.031 C 
BRANCH  20  21
ATOM     21  C   UNL A   1      43.114  46.585  17.294  1.00  0.00     0.023 C 
ATOM     22  C   UNL A   1      41.905  46.686  16.377  1.00  0.00     0.008 C 
ENDBRANCH  20  21
ENDBRANCH  18  19
ENDBRANCH  17  18
ENDBRANCH  15  16
ENDBRANCH  14  15
ENDBRANCH  12  13
ENDBRANCH  11  12
ENDBRANCH   9  10
ENDBRANCH   8   9
ENDBRANCH   7   8
ENDBRANCH   5   6
ENDBRANCH   4   5
ENDBRANCH   3   4
ENDBRANCH   1   3
BRANCH   1  23
ATOM     23  O   UNL A   1      45.757  38.149  28.301  1.00  0.00    -0.462 OA
BRANCH  23  24
ATOM     24  C   UNL A   1      45.927  39.169  27.291  1.00  0.00     0.261 C 
BRANCH  24  25
ATOM     25  C   UNL A   1      46.898  38.818  26.155  1.00  0.00     0.202 C 
BRANCH  25  26
ATOM     26  O   UNL A   1      46.718  37.545  25.555  1.00  0.00    -0.376 OA
BRANCH  26  27
ATOM     27  C   UNL A   1      47.745  36.607  25.822  1.00  0.00     0.188 C 
BRANCH  27  28
ATOM     28  C   UNL A   1      49.046  36.802  25.078  1.00  0.00     0.188 C 
BRANCH  28  29
ATOM     29  O   UNL A   1      49.899  35.680  25.059  1.00  0.00    -0.376 OA
BRANCH  29  30
ATOM     30  C   UNL A   1      51.200  35.895  24.514  1.00  0.00     0.202 C 
BRANCH  30  31
ATOM     31  C   UNL A   1      52.021  37.193  24.763  1.00  0.00     0.261 C 
BRANCH  31  32
ATOM     32  O   UNL A   1      52.847  37.283  25.946  1.00  0.00    -0.460 OA
BRANCH  32  33
ATOM     33  C   UNL A   1      52.697  38.389  26.719  1.00  0.00     0.338 C 
ATOM     34  O   UNL A   1      53.270  39.442  26.547  1.00  0.00    -0.246 OA
BRANCH  33  35
ATOM     35  C   UNL A   1      51.557  38.199  27.681  1.00  0.00     0.060 A 
ATOM     36  C   UNL A   1      51.720  37.227  28.675  1.00  0.00     0.016 A 
ATOM     37  C   UNL A   1      50.359  38.923  27.640  1.00  0.00     0.016 A 
ATOM     38  C   UNL A   1      50.689  36.937  29.582  1.00  0.00     0.010 A 
ATOM     39  C   UNL A   1      49.314  38.617  28.544  1.00  0.00     0.010 A 
ATOM     40  C   UNL A   1      49.458  37.604  29.513  1.00  0.00    -0.014 A 
BRANCH  40  41
ATOM     41  C   UNL A   1      48.291  37.087  30.306  1.00  0.00     0.031 A 
ATOM     42  C   UNL A   1      47.669  35.793  29.893  1.00  0.00     0.074 A 
ATOM     43  C   UNL A   1      47.839  37.649  31.446  1.00  0.00     0.049 A 
ATOM     44  N   UNL A   1      46.658  35.164  30.428  1.00  0.00    -0.248 NA
ATOM     45  C   UNL A   1      48.288  35.105  28.753  1.00  0.00     0.031 C 
ATOM     46  C   UNL A   1      48.450  38.805  32.052  1.00  0.00     0.029 A 
ATOM     47  N   UNL A   1      46.809  37.347  32.312  1.00  0.00    -0.354 N 
ATOM     48  C   UNL A   1      46.523  33.995  29.701  1.00  0.00     0.074 A 
ATOM     49  C   UNL A   1      47.539  34.016  28.668  1.00  0.00     0.031 C 
ATOM     50  C   UNL A   1      47.806  39.135  33.183  1.00  0.00     0.029 A 
ATOM     51  C   UNL A   1      46.673  38.245  33.353  1.00  0.00     0.049 A 
ATOM     52  H   UNL A   1      46.225  36.562  32.200  1.00  0.00     0.167 HD
ATOM     53  C   UNL A   1      45.634  32.994  29.883  1.00  0.00     0.037 A 
ATOM     54  C   UNL A   1      45.739  38.378  34.321  1.00  0.00     0.037 A 
ATOM     55  C   UNL A   1      44.604  32.987  30.887  1.00  0.00     0.049 A 
ATOM     56  C   UNL A   1      44.647  37.349  34.387  1.00  0.00     0.074 A 
ATOM     57  C   UNL A   1      43.615  32.042  31.090  1.00  0.00     0.029 A 
ATOM     58  N   UNL A   1      44.416  33.972  31.848  1.00  0.00    -0.354 N 
ATOM     59  N   UNL A   1      44.501  36.274  33.652  1.00  0.00    -0.248 NA
ATOM     60  C   UNL A   1      43.604  37.532  35.405  1.00  0.00     0.031 C 
ATOM     61  C   UNL A   1      42.794  32.483  32.132  1.00  0.00     0.029 A 
ATOM     62  C   UNL A   1      43.308  33.671  32.626  1.00  0.00     0.049 A 
ATOM     63  H   UNL A   1      44.986  34.767  31.961  1.00  0.00     0.167 HD
ATOM     64  C   UNL A   1      43.377  35.628  34.146  1.00  0.00     0.074 A 
ATOM     65  C   UNL A   1      42.879  36.432  35.243  1.00  0.00     0.031 C 
ATOM     66  C   UNL A   1      42.820  34.467  33.726  1.00  0.00     0.037 A 
BRANCH  53  67
ATOM     67  C   UNL A   1      45.704  31.863  28.903  1.00  0.00     0.058 A 
ATOM     68  C   UNL A   1      46.594  30.790  29.068  1.00  0.00     0.135 A 
ATOM     69  C   UNL A   1      44.895  31.883  27.757  1.00  0.00     0.135 A 
ATOM     70  F   UNL A   1      47.416  30.749  30.130  1.00  0.00    -0.206 F 
ATOM     71  C   UNL A   1      46.702  29.790  28.111  1.00  0.00     0.059 A 
ATOM     72  C   UNL A   1      44.967  30.878  26.802  1.00  0.00     0.059 A 
ATOM     73  F   UNL A   1      44.042  32.898  27.548  1.00  0.00    -0.206 F 
ATOM     74  C   UNL A   1      45.886  29.845  26.979  1.00  0.00     0.060 A 
BRANCH  74  75
ATOM     75  S   UNL A   1      46.051  28.552  25.733  1.00  0.00     0.124 S 
ATOM     76  O   UNL A   1      46.707  29.276  24.648  1.00  0.00    -0.237 OA
ATOM     77  O   UNL A   1      46.872  27.562  26.421  1.00  0.00    -0.237 OA
ATOM     78  O   UNL A   1      44.672  28.151  25.475  1.00  0.00    -0.744 OA
ENDBRANCH  74  75
ENDBRANCH  53  67
BRANCH  54  79
ATOM     79  C   UNL A   1      45.749  39.536  35.271  1.00  0.00     0.058 A 
ATOM     80  C   UNL A   1      45.015  40.707  35.020  1.00  0.00     0.135 A 
ATOM     81  C   UNL A   1      46.549  39.519  36.427  1.00  0.00     0.135 A 
ATOM     82  F   UNL A   1      44.244  40.792  33.925  1.00  0.00    -0.206 F 
ATOM     83  C   UNL A   1      45.094  41.821  35.856  1.00  0.00     0.059 A 
ATOM     84  C   UNL A   1      46.623  40.609  37.294  1.00  0.00     0.059 A 
ATOM     85  F   UNL A   1      47.274  38.430  36.726  1.00  0.00    -0.206 F 
ATOM     86  C   UNL A   1      45.905  41.763  36.991  1.00  0.00     0.060 A 
BRANCH  86  87
ATOM     87  S   UNL A   1      45.999  43.213  38.069  1.00  0.00     0.124 S 
ATOM     88  O   UNL A   1      47.146  42.886  38.908  1.00  0.00    -0.237 OA
ATOM     89  O   UNL A   1      46.198  44.294  37.109  1.00  0.00    -0.237 OA
ATOM     90  O   UNL A   1      44.705  43.215  38.746  1.00  0.00    -0.744 OA
ENDBRANCH  86  87
ENDBRANCH  54  79
BRANCH  66  91
ATOM     91  C   UNL A   1      41.630  33.957  34.488  1.00  0.00     0.058 A 
ATOM     92  C   UNL A   1      41.764  33.232  35.681  1.00  0.00     0.135 A 
ATOM     93  C   UNL A   1      40.330  34.250  34.041  1.00  0.00     0.135 A 
ATOM     94  F   UNL A   1      42.984  32.914  36.146  1.00  0.00    -0.206 F 
ATOM     95  C   UNL A   1      40.653  32.801  36.398  1.00  0.00     0.059 A 
ATOM     96  C   UNL A   1      39.206  33.856  34.757  1.00  0.00     0.059 A 
ATOM     97  F   UNL A   1      40.146  34.943  32.906  1.00  0.00    -0.206 F 
ATOM     98  C   UNL A   1      39.378  33.124  35.930  1.00  0.00     0.060 A 
BRANCH  98  99
ATOM     99  S   UNL A   1      37.945  32.607  36.898  1.00  0.00     0.124 S 
ATOM    100  O   UNL A   1      37.151  33.831  36.924  1.00  0.00    -0.237 OA
ATOM    101  O   UNL A   1      37.403  31.517  36.094  1.00  0.00    -0.237 OA
ATOM    102  O   UNL A   1      38.524  32.208  38.178  1.00  0.00    -0.744 OA
ENDBRANCH  98  99
ENDBRANCH  66  91
ENDBRANCH  40  41
ENDBRANCH  33  35
ENDBRANCH  32  33
ENDBRANCH  31  32
ENDBRANCH  30  31
ENDBRANCH  29  30
ENDBRANCH  28  29
ENDBRANCH  27  28
ENDBRANCH  26  27
ENDBRANCH  25  26
ENDBRANCH  24  25
ENDBRANCH  23  24
ENDBRANCH   1  23
TORSDOF 33
ENDMDL
