MODEL 1
REMARK VINA RESULT:      -9.1      0.000      0.000
REMARK SMILES CN(Cc1csc(Br)c1)c1cccc(F)c1C(=O)OCCOCCOCCOC(=O)c1ccc(-c2c3nc(c(-c4c(F)cc(S(=O)(=O)[O-])cc4F)c4ccc([nH]4)c(-c4c(F)cc(S(=O)(=O)[O-])cc4F)c4nc(c(-c5c(F)cc(S(=O)(=O)[O-])cc5F)c5ccc2[nH]5)C=C4)C=C3)cc1
REMARK SMILES IDX 23 1 22 2 21 3 20 4 19 5 17 6 18 7 16 8 10 9 11 10 12 11
REMARK SMILES IDX 14 12 13 13 15 14 2 15 1 16 3 17 4 18 5 19 9 20 6 21 7 22
REMARK SMILES IDX 8 23 24 24 25 25 26 26 27 27 28 28 29 29 30 30 31 31 32 32
REMARK SMILES IDX 96 33 33 34 95 35 34 36 35 37 36 38 89 39 37 40 94 41 88 42
REMARK SMILES IDX 90 43 38 44 93 45 87 46 86 47 39 49 73 50 52 51 72 52 53 53
REMARK SMILES IDX 56 54 71 55 91 56 54 57 55 58 70 60 92 61 57 62 40 63 41 64
REMARK SMILES IDX 50 65 42 66 43 67 49 68 51 69 44 70 45 71 46 72 47 73 48 74
REMARK SMILES IDX 74 75 75 76 84 77 76 78 77 79 83 80 85 81 78 82 79 83 80 84
REMARK SMILES IDX 81 85 82 86 58 87 59 88 68 89 60 90 61 91 67 92 69 93 62 94
REMARK SMILES IDX 63 95 64 96 65 97 66 98
REMARK H PARENT 90 48 56 59
REMARK Flexibility Score: inf
ROOT
ATOM      1  C   UNL A   1      45.874  39.832  25.660  1.00  0.00     0.188 C 
ENDROOT
BRANCH   1   2
ATOM      2  O   UNL A   1      45.524  41.004  24.921  1.00  0.00    -0.376 OA
BRANCH   2   3
ATOM      3  C   UNL A   1      46.629  41.849  24.596  1.00  0.00     0.202 C 
BRANCH   3   4
ATOM      4  C   UNL A   1      46.365  42.647  23.325  1.00  0.00     0.261 C 
BRANCH   4   5
ATOM      5  O   UNL A   1      45.065  42.334  22.802  1.00  0.00    -0.460 OA
BRANCH   5   6
ATOM      6  C   UNL A   1      44.079  43.256  22.908  1.00  0.00     0.343 C 
ATOM      7  O   UNL A   1      43.634  43.735  23.930  1.00  0.00    -0.246 OA
BRANCH   6   8
ATOM      8  C   UNL A   1      43.608  43.510  21.532  1.00  0.00     0.119 A 
ATOM      9  C   UNL A   1      44.155  44.492  20.680  1.00  0.00     0.054 A 
ATOM     10  C   UNL A   1      43.564  44.616  19.402  1.00  0.00     0.027 A 
ATOM     11  C   UNL A   1      42.482  43.828  18.994  1.00  0.00     0.005 A 
ATOM     12  C   UNL A   1      42.513  42.733  21.119  1.00  0.00     0.139 A 
ATOM     13  C   UNL A   1      41.952  42.883  19.858  1.00  0.00     0.040 A 
ATOM     14  F   UNL A   1      41.961  41.828  21.944  1.00  0.00    -0.206 F 
BRANCH   9  15
ATOM     15  N   UNL A   1      45.225  45.318  21.023  1.00  0.00    -0.369 N 
ATOM     16  C   UNL A   1      45.261  45.880  22.375  1.00  0.00     0.144 C 
BRANCH  15  17
ATOM     17  C   UNL A   1      45.868  46.128  19.981  1.00  0.00     0.152 C 
BRANCH  17  18
ATOM     18  C   UNL A   1      47.184  45.633  19.430  1.00  0.00    -0.017 A 
ATOM     19  C   UNL A   1      48.172  44.994  20.160  1.00  0.00     0.071 A 
ATOM     20  C   UNL A   1      47.590  45.766  18.054  1.00  0.00     0.033 A 
ATOM     21  S   UNL A   1      49.511  44.516  19.208  1.00  0.00    -0.136 S 
ATOM     22  C   UNL A   1      48.804  45.171  17.817  1.00  0.00     0.070 A 
ATOM     23  Br  UNL A   1      49.588  45.053  16.121  1.00  0.00    -0.039 Br
ENDBRANCH  17  18
ENDBRANCH  15  17
ENDBRANCH   9  15
ENDBRANCH   6   8
ENDBRANCH   5   6
ENDBRANCH   4   5
ENDBRANCH   3   4
ENDBRANCH   2   3
ENDBRANCH   1   2
BRANCH   1  24
ATOM     24  C   UNL A   1      47.368  39.770  26.016  1.00  0.00     0.188 C 
BRANCH  24  25
ATOM     25  O   UNL A   1      47.787  39.362  27.318  1.00  0.00    -0.376 OA
BRANCH  25  26
ATOM     26  C   UNL A   1      47.083  39.850  28.447  1.00  0.00     0.202 C 
BRANCH  26  27
ATOM     27  C   UNL A   1      46.294  38.804  29.240  1.00  0.00     0.261 C 
BRANCH  27  28
ATOM     28  O   UNL A   1      46.613  37.443  28.910  1.00  0.00    -0.460 OA
BRANCH  28  29
ATOM     29  C   UNL A   1      47.018  36.692  29.963  1.00  0.00     0.338 C 
ATOM     30  O   UNL A   1      47.300  37.085  31.082  1.00  0.00    -0.246 OA
BRANCH  29  31
ATOM     31  C   UNL A   1      47.002  35.257  29.607  1.00  0.00     0.060 A 
ATOM     32  C   UNL A   1      46.559  34.906  28.327  1.00  0.00     0.016 A 
ATOM     33  C   UNL A   1      47.297  34.265  30.548  1.00  0.00     0.016 A 
ATOM     34  C   UNL A   1      46.360  33.564  28.000  1.00  0.00     0.010 A 
ATOM     35  C   UNL A   1      47.082  32.920  30.223  1.00  0.00     0.010 A 
ATOM     36  C   UNL A   1      46.575  32.566  28.961  1.00  0.00    -0.014 A 
BRANCH  36  37
ATOM     37  C   UNL A   1      46.118  31.180  28.682  1.00  0.00     0.031 A 
ATOM     38  C   UNL A   1      44.664  30.838  28.863  1.00  0.00     0.074 A 
ATOM     39  C   UNL A   1      46.970  30.251  28.212  1.00  0.00     0.049 A 
ATOM     40  N   UNL A   1      44.050  29.703  28.647  1.00  0.00    -0.248 NA
ATOM     41  C   UNL A   1      43.786  31.915  29.349  1.00  0.00     0.031 C 
ATOM     42  C   UNL A   1      48.395  30.465  27.969  1.00  0.00     0.029 A 
ATOM     43  N   UNL A   1      46.760  28.945  27.846  1.00  0.00    -0.354 N 
ATOM     44  C   UNL A   1      42.714  29.931  28.957  1.00  0.00     0.074 A 
ATOM     45  C   UNL A   1      42.612  31.302  29.407  1.00  0.00     0.031 C 
ATOM     46  C   UNL A   1      48.930  29.335  27.475  1.00  0.00     0.029 A 
ATOM     47  C   UNL A   1      47.893  28.306  27.401  1.00  0.00     0.049 A 
ATOM     48  H   UNL A   1      45.880  28.508  27.896  1.00  0.00     0.167 HD
ATOM     49  C   UNL A   1      41.666  29.078  28.865  1.00  0.00     0.037 A 
ATOM     50  C   UNL A   1      48.075  27.033  26.994  1.00  0.00     0.037 A 
ATOM     51  C   UNL A   1      41.765  27.710  28.429  1.00  0.00     0.049 A 
ATOM     52  C   UNL A   1      46.907  26.081  26.982  1.00  0.00     0.074 A 
ATOM     53  C   UNL A   1      40.753  26.773  28.306  1.00  0.00     0.029 A 
ATOM     54  N   UNL A   1      42.940  27.080  28.050  1.00  0.00    -0.354 N 
ATOM     55  N   UNL A   1      45.649  26.314  27.271  1.00  0.00    -0.248 NA
ATOM     56  C   UNL A   1      47.185  24.688  26.599  1.00  0.00     0.031 C 
ATOM     57  C   UNL A   1      41.322  25.564  27.891  1.00  0.00     0.029 A 
ATOM     58  C   UNL A   1      42.682  25.761  27.715  1.00  0.00     0.049 A 
ATOM     59  H   UNL A   1      43.827  27.507  28.024  1.00  0.00     0.167 HD
ATOM     60  C   UNL A   1      44.987  25.104  27.092  1.00  0.00     0.074 A 
ATOM     61  C   UNL A   1      45.977  24.144  26.651  1.00  0.00     0.031 C 
ATOM     62  C   UNL A   1      43.676  24.813  27.279  1.00  0.00     0.037 A 
BRANCH  49  63
ATOM     63  C   UNL A   1      40.310  29.595  29.247  1.00  0.00     0.058 A 
ATOM     64  C   UNL A   1      39.356  29.896  28.263  1.00  0.00     0.135 A 
ATOM     65  C   UNL A   1      39.983  29.867  30.585  1.00  0.00     0.135 A 
ATOM     66  F   UNL A   1      39.616  29.645  26.969  1.00  0.00    -0.206 F 
ATOM     67  C   UNL A   1      38.133  30.471  28.588  1.00  0.00     0.059 A 
ATOM     68  C   UNL A   1      38.758  30.423  30.937  1.00  0.00     0.059 A 
ATOM     69  F   UNL A   1      40.853  29.573  31.565  1.00  0.00    -0.206 F 
ATOM     70  C   UNL A   1      37.846  30.737  29.929  1.00  0.00     0.060 A 
BRANCH  70  71
ATOM     71  S   UNL A   1      36.250  31.477  30.336  1.00  0.00     0.124 S 
ATOM     72  O   UNL A   1      36.595  32.888  30.455  1.00  0.00    -0.237 OA
ATOM     73  O   UNL A   1      35.441  31.114  29.176  1.00  0.00    -0.237 OA
ATOM     74  O   UNL A   1      35.877  30.811  31.582  1.00  0.00    -0.744 OA
ENDBRANCH  70  71
ENDBRANCH  49  63
BRANCH  50  75
ATOM     75  C   UNL A   1      49.423  26.569  26.574  1.00  0.00     0.058 A 
ATOM     76  C   UNL A   1      50.321  26.011  27.498  1.00  0.00     0.135 A 
ATOM     77  C   UNL A   1      49.835  26.662  25.236  1.00  0.00     0.135 A 
ATOM     78  F   UNL A   1      49.976  25.902  28.790  1.00  0.00    -0.206 F 
ATOM     79  C   UNL A   1      51.584  25.578  27.113  1.00  0.00     0.059 A 
ATOM     80  C   UNL A   1      51.085  26.212  24.822  1.00  0.00     0.059 A 
ATOM     81  F   UNL A   1      49.003  27.174  24.315  1.00  0.00    -0.206 F 
ATOM     82  C   UNL A   1      51.958  25.685  25.772  1.00  0.00     0.060 A 
BRANCH  82  83
ATOM     83  S   UNL A   1      53.600  25.111  25.290  1.00  0.00     0.124 S 
ATOM     84  O   UNL A   1      53.796  25.827  24.033  1.00  0.00    -0.237 OA
ATOM     85  O   UNL A   1      54.423  25.556  26.412  1.00  0.00    -0.237 OA
ATOM     86  O   UNL A   1      53.430  23.667  25.174  1.00  0.00    -0.744 OA
ENDBRANCH  82  83
ENDBRANCH  50  75
BRANCH  62  87
ATOM     87  C   UNL A   1      43.226  23.405  27.003  1.00  0.00     0.058 A 
ATOM     88  C   UNL A   1      42.897  22.539  28.058  1.00  0.00     0.135 A 
ATOM     89  C   UNL A   1      43.179  22.893  25.696  1.00  0.00     0.135 A 
ATOM     90  F   UNL A   1      42.930  22.975  29.327  1.00  0.00    -0.206 F 
ATOM     91  C   UNL A   1      42.547  21.212  27.828  1.00  0.00     0.059 A 
ATOM     92  C   UNL A   1      42.807  21.576  25.441  1.00  0.00     0.059 A 
ATOM     93  F   UNL A   1      43.473  23.684  24.651  1.00  0.00    -0.206 F 
ATOM     94  C   UNL A   1      42.507  20.738  26.516  1.00  0.00     0.060 A 
BRANCH  94  95
ATOM     95  S   UNL A   1      42.023  19.022  26.231  1.00  0.00     0.124 S 
ATOM     96  O   UNL A   1      42.807  18.683  25.049  1.00  0.00    -0.237 OA
ATOM     97  O   UNL A   1      42.432  18.374  27.473  1.00  0.00    -0.237 OA
ATOM     98  O   UNL A   1      40.580  19.109  26.024  1.00  0.00    -0.744 OA
ENDBRANCH  94  95
ENDBRANCH  62  87
ENDBRANCH  36  37
ENDBRANCH  29  31
ENDBRANCH  28  29
ENDBRANCH  27  28
ENDBRANCH  26  27
ENDBRANCH  25  26
ENDBRANCH  24  25
ENDBRANCH   1  24
TORSDOF 23
ENDMDL
MODEL 2
REMARK VINA RESULT:      -9.0     10.774     15.051
REMARK SMILES CN(Cc1csc(Br)c1)c1cccc(F)c1C(=O)OCCOCCOCCOC(=O)c1ccc(-c2c3nc(c(-c4c(F)cc(S(=O)(=O)[O-])cc4F)c4ccc([nH]4)c(-c4c(F)cc(S(=O)(=O)[O-])cc4F)c4nc(c(-c5c(F)cc(S(=O)(=O)[O-])cc5F)c5ccc2[nH]5)C=C4)C=C3)cc1
REMARK SMILES IDX 23 1 22 2 21 3 20 4 19 5 17 6 18 7 16 8 10 9 11 10 12 11
REMARK SMILES IDX 14 12 13 13 15 14 2 15 1 16 3 17 4 18 5 19 9 20 6 21 7 22
REMARK SMILES IDX 8 23 24 24 25 25 26 26 27 27 28 28 29 29 30 30 31 31 32 32
REMARK SMILES IDX 96 33 33 34 95 35 34 36 35 37 36 38 89 39 37 40 94 41 88 42
REMARK SMILES IDX 90 43 38 44 93 45 87 46 86 47 39 49 73 50 52 51 72 52 53 53
REMARK SMILES IDX 56 54 71 55 91 56 54 57 55 58 70 60 92 61 57 62 40 63 41 64
REMARK SMILES IDX 50 65 42 66 43 67 49 68 51 69 44 70 45 71 46 72 47 73 48 74
REMARK SMILES IDX 74 75 75 76 84 77 76 78 77 79 83 80 85 81 78 82 79 83 80 84
REMARK SMILES IDX 81 85 82 86 58 87 59 88 68 89 60 90 61 91 67 92 69 93 62 94
REMARK SMILES IDX 63 95 64 96 65 97 66 98
REMARK H PARENT 90 48 56 59
REMARK Flexibility Score: inf
ROOT
ATOM      1  C   UNL A   1      32.944  30.761  27.022  1.00  0.00     0.188 C 
ENDROOT
BRANCH   1   2
ATOM      2  O   UNL A   1      32.314  29.528  27.373  1.00  0.00    -0.376 OA
BRANCH   2   3
ATOM      3  C   UNL A   1      32.027  28.675  26.264  1.00  0.00     0.202 C 
BRANCH   3   4
ATOM      4  C   UNL A   1      33.156  27.683  26.016  1.00  0.00     0.261 C 
BRANCH   4   5
ATOM      5  O   UNL A   1      32.989  26.522  26.844  1.00  0.00    -0.460 OA
BRANCH   5   6
ATOM      6  C   UNL A   1      32.336  25.449  26.341  1.00  0.00     0.343 C 
ATOM      7  O   UNL A   1      31.280  24.991  26.724  1.00  0.00    -0.246 OA
BRANCH   6   8
ATOM      8  C   UNL A   1      33.201  24.907  25.275  1.00  0.00     0.119 A 
ATOM      9  C   UNL A   1      32.926  25.030  23.896  1.00  0.00     0.054 A 
ATOM     10  C   UNL A   1      33.851  24.427  23.014  1.00  0.00     0.027 A 
ATOM     11  C   UNL A   1      34.975  23.727  23.466  1.00  0.00     0.005 A 
ATOM     12  C   UNL A   1      34.324  24.189  25.720  1.00  0.00     0.139 A 
ATOM     13  C   UNL A   1      35.211  23.604  24.826  1.00  0.00     0.040 A 
ATOM     14  F   UNL A   1      34.565  24.031  27.031  1.00  0.00    -0.206 F 
BRANCH   9  15
ATOM     15  N   UNL A   1      31.822  25.705  23.376  1.00  0.00    -0.369 N 
ATOM     16  C   UNL A   1      30.640  24.923  23.012  1.00  0.00     0.144 C 
BRANCH  15  17
ATOM     17  C   UNL A   1      32.034  26.936  22.603  1.00  0.00     0.152 C 
BRANCH  17  18
ATOM     18  C   UNL A   1      30.915  27.948  22.589  1.00  0.00    -0.017 A 
ATOM     19  C   UNL A   1      30.994  29.228  22.067  1.00  0.00     0.071 A 
ATOM     20  C   UNL A   1      29.599  27.712  23.127  1.00  0.00     0.033 A 
ATOM     21  S   UNL A   1      29.518  30.089  22.166  1.00  0.00    -0.136 S 
ATOM     22  C   UNL A   1      28.761  28.779  22.922  1.00  0.00     0.070 A 
ATOM     23  Br  UNL A   1      26.948  28.780  23.391  1.00  0.00    -0.039 Br
ENDBRANCH  17  18
ENDBRANCH  15  17
ENDBRANCH   9  15
ENDBRANCH   6   8
ENDBRANCH   5   6
ENDBRANCH   4   5
ENDBRANCH   3   4
ENDBRANCH   2   3
ENDBRANCH   1   2
BRANCH   1  24
ATOM     24  C   UNL A   1      31.941  31.889  26.737  1.00  0.00     0.188 C 
BRANCH  24  25
ATOM     25  O   UNL A   1      31.891  33.044  27.574  1.00  0.00    -0.376 OA
BRANCH  25  26
ATOM     26  C   UNL A   1      33.053  33.844  27.706  1.00  0.00     0.202 C 
BRANCH  26  27
ATOM     27  C   UNL A   1      33.642  33.930  29.117  1.00  0.00     0.261 C 
BRANCH  27  28
ATOM     28  O   UNL A   1      33.498  35.214  29.745  1.00  0.00    -0.460 OA
BRANCH  28  29
ATOM     29  C   UNL A   1      33.186  35.160  31.062  1.00  0.00     0.338 C 
ATOM     30  O   UNL A   1      32.114  35.436  31.577  1.00  0.00    -0.246 OA
BRANCH  29  31
ATOM     31  C   UNL A   1      34.324  34.626  31.839  1.00  0.00     0.060 A 
ATOM     32  C   UNL A   1      35.578  35.221  31.655  1.00  0.00     0.016 A 
ATOM     33  C   UNL A   1      34.196  33.487  32.640  1.00  0.00     0.016 A 
ATOM     34  C   UNL A   1      36.713  34.649  32.228  1.00  0.00     0.010 A 
ATOM     35  C   UNL A   1      35.339  32.905  33.201  1.00  0.00     0.010 A 
ATOM     36  C   UNL A   1      36.608  33.461  32.966  1.00  0.00    -0.014 A 
BRANCH  36  37
ATOM     37  C   UNL A   1      37.845  32.733  33.348  1.00  0.00     0.031 A 
ATOM     38  C   UNL A   1      38.530  33.081  34.642  1.00  0.00     0.074 A 
ATOM     39  C   UNL A   1      38.320  31.728  32.590  1.00  0.00     0.049 A 
ATOM     40  N   UNL A   1      39.598  32.551  35.180  1.00  0.00    -0.248 NA
ATOM     41  C   UNL A   1      37.933  34.168  35.435  1.00  0.00     0.031 C 
ATOM     42  C   UNL A   1      37.734  31.278  31.330  1.00  0.00     0.029 A 
ATOM     43  N   UNL A   1      39.399  30.900  32.772  1.00  0.00    -0.354 N 
ATOM     44  C   UNL A   1      39.794  33.228  36.378  1.00  0.00     0.074 A 
ATOM     45  C   UNL A   1      38.754  34.229  36.473  1.00  0.00     0.031 C 
ATOM     46  C   UNL A   1      38.448  30.240  30.860  1.00  0.00     0.029 A 
ATOM     47  C   UNL A   1      39.564  29.977  31.767  1.00  0.00     0.049 A 
ATOM     48  H   UNL A   1      39.999  30.962  33.550  1.00  0.00     0.167 HD
ATOM     49  C   UNL A   1      40.749  33.026  37.318  1.00  0.00     0.037 A 
ATOM     50  C   UNL A   1      40.515  29.036  31.593  1.00  0.00     0.037 A 
ATOM     51  C   UNL A   1      41.791  32.039  37.222  1.00  0.00     0.049 A 
ATOM     52  C   UNL A   1      41.615  28.890  32.613  1.00  0.00     0.074 A 
ATOM     53  C   UNL A   1      42.801  31.766  38.129  1.00  0.00     0.029 A 
ATOM     54  N   UNL A   1      41.964  31.167  36.158  1.00  0.00    -0.354 N 
ATOM     55  N   UNL A   1      41.781  29.533  33.744  1.00  0.00    -0.248 NA
ATOM     56  C   UNL A   1      42.662  27.897  32.328  1.00  0.00     0.031 C 
ATOM     57  C   UNL A   1      43.609  30.756  37.595  1.00  0.00     0.029 A 
ATOM     58  C   UNL A   1      43.077  30.372  36.376  1.00  0.00     0.049 A 
ATOM     59  H   UNL A   1      41.383  31.121  35.365  1.00  0.00     0.167 HD
ATOM     60  C   UNL A   1      42.942  29.014  34.309  1.00  0.00     0.074 A 
ATOM     61  C   UNL A   1      43.426  27.990  33.407  1.00  0.00     0.031 C 
ATOM     62  C   UNL A   1      43.553  29.356  35.470  1.00  0.00     0.037 A 
BRANCH  49  63
ATOM     63  C   UNL A   1      40.717  33.894  38.542  1.00  0.00     0.058 A 
ATOM     64  C   UNL A   1      41.487  35.065  38.608  1.00  0.00     0.135 A 
ATOM     65  C   UNL A   1      39.983  33.524  39.680  1.00  0.00     0.135 A 
ATOM     66  F   UNL A   1      42.198  35.468  37.542  1.00  0.00    -0.206 F 
ATOM     67  C   UNL A   1      41.550  35.828  39.768  1.00  0.00     0.059 A 
ATOM     68  C   UNL A   1      40.015  34.282  40.845  1.00  0.00     0.059 A 
ATOM     69  F   UNL A   1      39.211  32.425  39.657  1.00  0.00    -0.206 F 
ATOM     70  C   UNL A   1      40.815  35.425  40.885  1.00  0.00     0.060 A 
BRANCH  70  71
ATOM     71  S   UNL A   1      40.902  36.431  42.381  1.00  0.00     0.124 S 
ATOM     72  O   UNL A   1      39.576  37.034  42.416  1.00  0.00    -0.237 OA
ATOM     73  O   UNL A   1      41.174  35.428  43.407  1.00  0.00    -0.237 OA
ATOM     74  O   UNL A   1      42.005  37.349  42.107  1.00  0.00    -0.744 OA
ENDBRANCH  70  71
ENDBRANCH  49  63
BRANCH  50  75
ATOM     75  C   UNL A   1      40.486  28.160  30.392  1.00  0.00     0.058 A 
ATOM     76  C   UNL A   1      41.360  28.372  29.315  1.00  0.00     0.135 A 
ATOM     77  C   UNL A   1      39.591  27.082  30.307  1.00  0.00     0.135 A 
ATOM     78  F   UNL A   1      42.233  29.391  29.347  1.00  0.00    -0.206 F 
ATOM     79  C   UNL A   1      41.337  27.558  28.189  1.00  0.00     0.059 A 
ATOM     80  C   UNL A   1      39.567  26.238  29.201  1.00  0.00     0.059 A 
ATOM     81  F   UNL A   1      38.749  26.831  31.321  1.00  0.00    -0.206 F 
ATOM     82  C   UNL A   1      40.434  26.494  28.140  1.00  0.00     0.060 A 
BRANCH  82  83
ATOM     83  S   UNL A   1      40.423  25.444  26.672  1.00  0.00     0.124 S 
ATOM     84  O   UNL A   1      40.959  26.355  25.665  1.00  0.00    -0.237 OA
ATOM     85  O   UNL A   1      41.300  24.347  27.071  1.00  0.00    -0.237 OA
ATOM     86  O   UNL A   1      39.015  25.095  26.521  1.00  0.00    -0.744 OA
ENDBRANCH  82  83
ENDBRANCH  50  75
BRANCH  62  87
ATOM     87  C   UNL A   1      44.809  28.619  35.843  1.00  0.00     0.058 A 
ATOM     88  C   UNL A   1      46.068  29.116  35.471  1.00  0.00     0.135 A 
ATOM     89  C   UNL A   1      44.763  27.388  36.517  1.00  0.00     0.135 A 
ATOM     90  F   UNL A   1      46.168  30.286  34.821  1.00  0.00    -0.206 F 
ATOM     91  C   UNL A   1      47.237  28.414  35.745  1.00  0.00     0.059 A 
ATOM     92  C   UNL A   1      45.922  26.680  36.822  1.00  0.00     0.059 A 
ATOM     93  F   UNL A   1      43.585  26.874  36.905  1.00  0.00    -0.206 F 
ATOM     94  C   UNL A   1      47.155  27.195  36.419  1.00  0.00     0.060 A 
BRANCH  94  95
ATOM     95  S   UNL A   1      48.683  26.309  36.793  1.00  0.00     0.124 S 
ATOM     96  O   UNL A   1      48.213  25.273  37.705  1.00  0.00    -0.237 OA
ATOM     97  O   UNL A   1      49.106  25.849  35.474  1.00  0.00    -0.237 OA
ATOM     98  O   UNL A   1      49.531  27.336  37.391  1.00  0.00    -0.744 OA
ENDBRANCH  94  95
ENDBRANCH  62  87
ENDBRANCH  36  37
ENDBRANCH  29  31
ENDBRANCH  28  29
ENDBRANCH  27  28
ENDBRANCH  26  27
ENDBRANCH  25  26
ENDBRANCH  24  25
ENDBRANCH   1  24
TORSDOF 23
ENDMDL
MODEL 3
REMARK VINA RESULT:      -9.0      6.831     11.960
REMARK SMILES CN(Cc1csc(Br)c1)c1cccc(F)c1C(=O)OCCOCCOCCOC(=O)c1ccc(-c2c3nc(c(-c4c(F)cc(S(=O)(=O)[O-])cc4F)c4ccc([nH]4)c(-c4c(F)cc(S(=O)(=O)[O-])cc4F)c4nc(c(-c5c(F)cc(S(=O)(=O)[O-])cc5F)c5ccc2[nH]5)C=C4)C=C3)cc1
REMARK SMILES IDX 23 1 22 2 21 3 20 4 19 5 17 6 18 7 16 8 10 9 11 10 12 11
REMARK SMILES IDX 14 12 13 13 15 14 2 15 1 16 3 17 4 18 5 19 9 20 6 21 7 22
REMARK SMILES IDX 8 23 24 24 25 25 26 26 27 27 28 28 29 29 30 30 31 31 32 32
REMARK SMILES IDX 96 33 33 34 95 35 34 36 35 37 36 38 89 39 37 40 94 41 88 42
REMARK SMILES IDX 90 43 38 44 93 45 87 46 86 47 39 49 73 50 52 51 72 52 53 53
REMARK SMILES IDX 56 54 71 55 91 56 54 57 55 58 70 60 92 61 57 62 40 63 41 64
REMARK SMILES IDX 50 65 42 66 43 67 49 68 51 69 44 70 45 71 46 72 47 73 48 74
REMARK SMILES IDX 74 75 75 76 84 77 76 78 77 79 83 80 85 81 78 82 79 83 80 84
REMARK SMILES IDX 81 85 82 86 58 87 59 88 68 89 60 90 61 91 67 92 69 93 62 94
REMARK SMILES IDX 63 95 64 96 65 97 66 98
REMARK H PARENT 90 48 56 59
REMARK Flexibility Score: inf
ROOT
ATOM      1  C   UNL A   1      38.820  34.530  31.401  1.00  0.00     0.188 C 
ENDROOT
BRANCH   1   2
ATOM      2  O   UNL A   1      37.492  34.631  30.883  1.00  0.00    -0.376 OA
BRANCH   2   3
ATOM      3  C   UNL A   1      36.976  33.414  30.342  1.00  0.00     0.202 C 
BRANCH   3   4
ATOM      4  C   UNL A   1      37.603  33.095  28.990  1.00  0.00     0.261 C 
BRANCH   4   5
ATOM      5  O   UNL A   1      38.297  31.839  29.047  1.00  0.00    -0.460 OA
BRANCH   5   6
ATOM      6  C   UNL A   1      37.601  30.699  28.835  1.00  0.00     0.343 C 
ATOM      7  O   UNL A   1      36.662  30.545  28.081  1.00  0.00    -0.246 OA
BRANCH   6   8
ATOM      8  C   UNL A   1      38.169  29.695  29.756  1.00  0.00     0.119 A 
ATOM      9  C   UNL A   1      39.413  29.058  29.559  1.00  0.00     0.054 A 
ATOM     10  C   UNL A   1      39.791  28.103  30.530  1.00  0.00     0.027 A 
ATOM     11  C   UNL A   1      38.981  27.782  31.624  1.00  0.00     0.005 A 
ATOM     12  C   UNL A   1      37.356  29.356  30.850  1.00  0.00     0.139 A 
ATOM     13  C   UNL A   1      37.755  28.409  31.784  1.00  0.00     0.040 A 
ATOM     14  F   UNL A   1      36.152  29.927  31.017  1.00  0.00    -0.206 F 
BRANCH   9  15
ATOM     15  N   UNL A   1      40.266  29.322  28.488  1.00  0.00    -0.369 N 
ATOM     16  C   UNL A   1      40.029  28.623  27.224  1.00  0.00     0.144 C 
BRANCH  15  17
ATOM     17  C   UNL A   1      41.661  29.693  28.758  1.00  0.00     0.152 C 
BRANCH  17  18
ATOM     18  C   UNL A   1      42.735  28.735  28.301  1.00  0.00    -0.017 A 
ATOM     19  C   UNL A   1      43.642  28.969  27.282  1.00  0.00     0.071 A 
ATOM     20  C   UNL A   1      42.956  27.430  28.873  1.00  0.00     0.033 A 
ATOM     21  S   UNL A   1      44.759  27.691  27.066  1.00  0.00    -0.136 S 
ATOM     22  C   UNL A   1      44.038  26.800  28.311  1.00  0.00     0.070 A 
ATOM     23  Br  UNL A   1      44.685  25.139  28.885  1.00  0.00    -0.039 Br
ENDBRANCH  17  18
ENDBRANCH  15  17
ENDBRANCH   9  15
ENDBRANCH   6   8
ENDBRANCH   5   6
ENDBRANCH   4   5
ENDBRANCH   3   4
ENDBRANCH   2   3
ENDBRANCH   1   2
BRANCH   1  24
ATOM     24  C   UNL A   1      38.856  34.290  32.919  1.00  0.00     0.188 C 
BRANCH  24  25
ATOM     25  O   UNL A   1      37.903  33.429  33.540  1.00  0.00    -0.376 OA
BRANCH  25  26
ATOM     26  C   UNL A   1      36.849  34.004  34.292  1.00  0.00     0.202 C 
BRANCH  26  27
ATOM     27  C   UNL A   1      36.883  33.729  35.798  1.00  0.00     0.261 C 
BRANCH  27  28
ATOM     28  O   UNL A   1      38.154  33.277  36.291  1.00  0.00    -0.460 OA
BRANCH  28  29
ATOM     29  C   UNL A   1      38.147  32.012  36.778  1.00  0.00     0.338 C 
ATOM     30  O   UNL A   1      37.387  31.548  37.612  1.00  0.00    -0.246 OA
BRANCH  29  31
ATOM     31  C   UNL A   1      39.165  31.191  36.089  1.00  0.00     0.060 A 
ATOM     32  C   UNL A   1      40.480  31.244  36.566  1.00  0.00     0.016 A 
ATOM     33  C   UNL A   1      38.866  30.477  34.924  1.00  0.00     0.016 A 
ATOM     34  C   UNL A   1      41.508  30.629  35.852  1.00  0.00     0.010 A 
ATOM     35  C   UNL A   1      39.902  29.873  34.200  1.00  0.00     0.010 A 
ATOM     36  C   UNL A   1      41.233  29.980  34.640  1.00  0.00    -0.014 A 
BRANCH  36  37
ATOM     37  C   UNL A   1      42.361  29.556  33.771  1.00  0.00     0.031 A 
ATOM     38  C   UNL A   1      42.851  30.492  32.699  1.00  0.00     0.074 A 
ATOM     39  C   UNL A   1      42.987  28.383  33.972  1.00  0.00     0.049 A 
ATOM     40  N   UNL A   1      43.838  30.335  31.854  1.00  0.00    -0.248 NA
ATOM     41  C   UNL A   1      42.137  31.771  32.560  1.00  0.00     0.031 C 
ATOM     42  C   UNL A   1      42.626  27.402  34.993  1.00  0.00     0.029 A 
ATOM     43  N   UNL A   1      44.064  27.820  33.333  1.00  0.00    -0.354 N 
ATOM     44  C   UNL A   1      43.873  31.498  31.094  1.00  0.00     0.074 A 
ATOM     45  C   UNL A   1      42.789  32.338  31.555  1.00  0.00     0.031 C 
ATOM     46  C   UNL A   1      43.478  26.365  34.926  1.00  0.00     0.029 A 
ATOM     47  C   UNL A   1      44.424  26.591  33.833  1.00  0.00     0.049 A 
ATOM     48  H   UNL A   1      44.535  28.256  32.587  1.00  0.00     0.167 HD
ATOM     49  C   UNL A   1      44.738  31.838  30.109  1.00  0.00     0.037 A 
ATOM     50  C   UNL A   1      45.395  25.740  33.444  1.00  0.00     0.037 A 
ATOM     51  C   UNL A   1      45.809  31.001  29.639  1.00  0.00     0.049 A 
ATOM     52  C   UNL A   1      46.289  26.109  32.288  1.00  0.00     0.074 A 
ATOM     53  C   UNL A   1      46.734  31.268  28.643  1.00  0.00     0.029 A 
ATOM     54  N   UNL A   1      46.101  29.737  30.125  1.00  0.00    -0.354 N 
ATOM     55  N   UNL A   1      46.315  27.215  31.585  1.00  0.00    -0.248 NA
ATOM     56  C   UNL A   1      47.280  25.107  31.865  1.00  0.00     0.031 C 
ATOM     57  C   UNL A   1      47.559  30.148  28.499  1.00  0.00     0.029 A 
ATOM     58  C   UNL A   1      47.175  29.201  29.434  1.00  0.00     0.049 A 
ATOM     59  H   UNL A   1      45.615  29.285  30.853  1.00  0.00     0.167 HD
ATOM     60  C   UNL A   1      47.330  27.048  30.648  1.00  0.00     0.074 A 
ATOM     61  C   UNL A   1      47.909  25.742  30.886  1.00  0.00     0.031 C 
ATOM     62  C   UNL A   1      47.743  27.899  29.677  1.00  0.00     0.037 A 
BRANCH  49  63
ATOM     63  C   UNL A   1      44.561  33.181  29.460  1.00  0.00     0.058 A 
ATOM     64  C   UNL A   1      43.933  33.294  28.211  1.00  0.00     0.135 A 
ATOM     65  C   UNL A   1      45.086  34.346  30.042  1.00  0.00     0.135 A 
ATOM     66  F   UNL A   1      43.406  32.211  27.617  1.00  0.00    -0.206 F 
ATOM     67  C   UNL A   1      43.851  34.513  27.547  1.00  0.00     0.059 A 
ATOM     68  C   UNL A   1      44.998  35.580  29.406  1.00  0.00     0.059 A 
ATOM     69  F   UNL A   1      45.674  34.292  31.248  1.00  0.00    -0.206 F 
ATOM     70  C   UNL A   1      44.392  35.651  28.151  1.00  0.00     0.060 A 
BRANCH  70  71
ATOM     71  S   UNL A   1      44.271  37.227  27.280  1.00  0.00     0.124 S 
ATOM     72  O   UNL A   1      43.052  37.047  26.501  1.00  0.00    -0.237 OA
ATOM     73  O   UNL A   1      44.188  38.180  28.383  1.00  0.00    -0.237 OA
ATOM     74  O   UNL A   1      45.510  37.283  26.508  1.00  0.00    -0.744 OA
ENDBRANCH  70  71
ENDBRANCH  49  63
BRANCH  50  75
ATOM     75  C   UNL A   1      45.573  24.440  34.143  1.00  0.00     0.058 A 
ATOM     76  C   UNL A   1      44.902  23.285  33.712  1.00  0.00     0.135 A 
ATOM     77  C   UNL A   1      46.430  24.326  35.248  1.00  0.00     0.135 A 
ATOM     78  F   UNL A   1      44.069  23.343  32.662  1.00  0.00    -0.206 F 
ATOM     79  C   UNL A   1      45.061  22.067  34.363  1.00  0.00     0.059 A 
ATOM     80  C   UNL A   1      46.625  23.112  35.900  1.00  0.00     0.059 A 
ATOM     81  F   UNL A   1      47.105  25.400  35.685  1.00  0.00    -0.206 F 
ATOM     82  C   UNL A   1      45.923  21.991  35.457  1.00  0.00     0.060 A 
BRANCH  82  83
ATOM     83  S   UNL A   1      46.122  20.399  36.285  1.00  0.00     0.124 S 
ATOM     84  O   UNL A   1      47.558  20.180  36.142  1.00  0.00    -0.237 OA
ATOM     85  O   UNL A   1      45.653  20.694  37.636  1.00  0.00    -0.237 OA
ATOM     86  O   UNL A   1      45.267  19.508  35.507  1.00  0.00    -0.744 OA
ENDBRANCH  82  83
ENDBRANCH  50  75
BRANCH  62  87
ATOM     87  C   UNL A   1      48.879  27.456  28.797  1.00  0.00     0.058 A 
ATOM     88  C   UNL A   1      50.195  27.864  29.068  1.00  0.00     0.135 A 
ATOM     89  C   UNL A   1      48.658  26.677  27.650  1.00  0.00     0.135 A 
ATOM     90  F   UNL A   1      50.461  28.614  30.149  1.00  0.00    -0.206 F 
ATOM     91  C   UNL A   1      51.250  27.524  28.228  1.00  0.00     0.059 A 
ATOM     92  C   UNL A   1      49.703  26.305  26.808  1.00  0.00     0.059 A 
ATOM     93  F   UNL A   1      47.420  26.252  27.352  1.00  0.00    -0.206 F 
ATOM     94  C   UNL A   1      50.994  26.746  27.098  1.00  0.00     0.060 A 
BRANCH  94  95
ATOM     95  S   UNL A   1      52.379  26.289  26.032  1.00  0.00     0.124 S 
ATOM     96  O   UNL A   1      51.974  26.864  24.755  1.00  0.00    -0.237 OA
ATOM     97  O   UNL A   1      53.506  26.937  26.693  1.00  0.00    -0.237 OA
ATOM     98  O   UNL A   1      52.382  24.830  26.091  1.00  0.00    -0.744 OA
ENDBRANCH  94  95
ENDBRANCH  62  87
ENDBRANCH  36  37
ENDBRANCH  29  31
ENDBRANCH  28  29
ENDBRANCH  27  28
ENDBRANCH  26  27
ENDBRANCH  25  26
ENDBRANCH  24  25
ENDBRANCH   1  24
TORSDOF 23
ENDMDL
