MODEL 1
REMARK VINA RESULT:      -9.5      0.000      0.000
REMARK SMILES CCN(CCC(=O)OCCOCCOCCOC(=O)c1ccc(-c2c3nc(c(-c4c(F)cc(S(=O)(=O)[O-])cc4F)c4ccc([nH]4)c(-c4c(F)cc(S(=O)(=O)[O-])cc4F)c4nc(c(-c5c(F)cc(S(=O)(=O)[O-])cc5F)c5ccc2[nH]5)C=C4)C=C3)cc1)S(=O)(=O)c1cn(CC)cn1
REMARK SMILES IDX 12 1 11 2 10 3 9 4 8 5 6 6 7 7 5 8 4 9 3 10 2 11 1 12 86 13
REMARK SMILES IDX 87 14 88 15 89 16 90 17 95 18 91 19 94 20 92 21 93 22 13 23
REMARK SMILES IDX 14 24 15 25 16 26 17 27 18 28 19 29 20 30 21 31 85 32 22 33
REMARK SMILES IDX 84 34 23 35 24 36 25 37 78 38 26 39 83 40 77 41 79 42 27 43
REMARK SMILES IDX 82 44 76 45 75 46 28 48 62 49 41 50 61 51 42 52 45 53 60 54
REMARK SMILES IDX 80 55 43 56 44 57 59 59 81 60 46 61 29 62 30 63 39 64 31 65
REMARK SMILES IDX 32 66 38 67 40 68 33 69 34 70 35 71 36 72 37 73 63 74 64 75
REMARK SMILES IDX 73 76 65 77 66 78 72 79 74 80 67 81 68 82 69 83 70 84 71 85
REMARK SMILES IDX 47 86 48 87 57 88 49 89 50 90 56 91 58 92 51 93 52 94 53 95
REMARK SMILES IDX 54 96 55 97
REMARK H PARENT 79 47 45 58
REMARK Flexibility Score: inf
ROOT
ATOM      1  C   UNL A   1      35.887  21.543  26.021  1.00  0.00     0.188 C 
ENDROOT
BRANCH   1   2
ATOM      2  O   UNL A   1      34.510  21.700  25.684  1.00  0.00    -0.376 OA
BRANCH   2   3
ATOM      3  C   UNL A   1      33.505  21.244  26.586  1.00  0.00     0.202 C 
BRANCH   3   4
ATOM      4  C   UNL A   1      32.794  22.299  27.440  1.00  0.00     0.261 C 
BRANCH   4   5
ATOM      5  O   UNL A   1      32.697  23.605  26.831  1.00  0.00    -0.463 OA
BRANCH   5   6
ATOM      6  C   UNL A   1      31.451  24.037  26.539  1.00  0.00     0.307 C 
ATOM      7  O   UNL A   1      30.470  23.829  27.247  1.00  0.00    -0.252 OA
BRANCH   6   8
ATOM      8  C   UNL A   1      31.314  24.865  25.276  1.00  0.00     0.139 C 
BRANCH   8   9
ATOM      9  C   UNL A   1      31.563  24.311  23.875  1.00  0.00     0.114 C 
BRANCH   9  10
ATOM     10  N   UNL A   1      32.722  24.815  23.087  1.00  0.00    -0.196 NA
BRANCH  10  11
ATOM     11  C   UNL A   1      34.055  24.380  23.575  1.00  0.00     0.099 C 
ATOM     12  C   UNL A   1      34.749  23.299  22.769  1.00  0.00     0.022 C 
ENDBRANCH  10  11
BRANCH  10  13
ATOM     13  S   UNL A   1      32.565  26.305  22.273  1.00  0.00     0.262 S 
ATOM     14  O   UNL A   1      33.893  26.740  21.895  1.00  0.00    -0.205 OA
ATOM     15  O   UNL A   1      31.532  26.161  21.264  1.00  0.00    -0.205 OA
BRANCH  13  16
ATOM     16  C   UNL A   1      31.943  27.625  23.251  1.00  0.00     0.188 A 
ATOM     17  C   UNL A   1      32.684  28.298  24.207  1.00  0.00     0.129 A 
ATOM     18  N   UNL A   1      30.655  28.141  23.206  1.00  0.00    -0.224 NA
ATOM     19  N   UNL A   1      31.821  29.194  24.785  1.00  0.00    -0.336 N 
ATOM     20  C   UNL A   1      30.621  29.072  24.140  1.00  0.00     0.201 A 
BRANCH  19  21
ATOM     21  C   UNL A   1      32.140  29.985  25.960  1.00  0.00     0.120 C 
ATOM     22  C   UNL A   1      31.385  31.292  26.147  1.00  0.00     0.027 C 
ENDBRANCH  19  21
ENDBRANCH  13  16
ENDBRANCH  10  13
ENDBRANCH   9  10
ENDBRANCH   8   9
ENDBRANCH   6   8
ENDBRANCH   5   6
ENDBRANCH   4   5
ENDBRANCH   3   4
ENDBRANCH   2   3
ENDBRANCH   1   2
BRANCH   1  23
ATOM     23  C   UNL A   1      36.827  22.741  25.843  1.00  0.00     0.188 C 
BRANCH  23  24
ATOM     24  O   UNL A   1      38.079  22.377  25.305  1.00  0.00    -0.376 OA
BRANCH  24  25
ATOM     25  C   UNL A   1      39.005  21.715  26.126  1.00  0.00     0.202 C 
BRANCH  25  26
ATOM     26  C   UNL A   1      40.124  22.565  26.722  1.00  0.00     0.261 C 
BRANCH  26  27
ATOM     27  O   UNL A   1      39.927  23.983  26.625  1.00  0.00    -0.460 OA
BRANCH  27  28
ATOM     28  C   UNL A   1      41.042  24.745  26.552  1.00  0.00     0.338 C 
ATOM     29  O   UNL A   1      41.887  24.735  25.682  1.00  0.00    -0.246 OA
BRANCH  28  30
ATOM     30  C   UNL A   1      41.015  25.673  27.694  1.00  0.00     0.060 A 
ATOM     31  C   UNL A   1      39.905  25.719  28.549  1.00  0.00     0.016 A 
ATOM     32  C   UNL A   1      42.109  26.515  27.887  1.00  0.00     0.016 A 
ATOM     33  C   UNL A   1      39.882  26.637  29.601  1.00  0.00     0.010 A 
ATOM     34  C   UNL A   1      42.078  27.438  28.925  1.00  0.00     0.010 A 
ATOM     35  C   UNL A   1      40.956  27.521  29.767  1.00  0.00    -0.014 A 
BRANCH  35  36
ATOM     36  C   UNL A   1      40.889  28.649  30.719  1.00  0.00     0.031 A 
ATOM     37  C   UNL A   1      41.780  28.609  31.926  1.00  0.00     0.074 A 
ATOM     38  C   UNL A   1      39.976  29.620  30.550  1.00  0.00     0.049 A 
ATOM     39  N   UNL A   1      41.761  29.351  32.999  1.00  0.00    -0.248 NA
ATOM     40  C   UNL A   1      42.818  27.564  31.932  1.00  0.00     0.031 C 
ATOM     41  C   UNL A   1      39.087  29.748  29.396  1.00  0.00     0.029 A 
ATOM     42  N   UNL A   1      39.622  30.659  31.368  1.00  0.00    -0.354 N 
ATOM     43  C   UNL A   1      42.762  28.847  33.823  1.00  0.00     0.074 A 
ATOM     44  C   UNL A   1      43.358  27.726  33.130  1.00  0.00     0.031 C 
ATOM     45  C   UNL A   1      38.268  30.796  29.592  1.00  0.00     0.029 A 
ATOM     46  C   UNL A   1      38.550  31.381  30.900  1.00  0.00     0.049 A 
ATOM     47  H   UNL A   1      40.089  30.868  32.209  1.00  0.00     0.167 HD
ATOM     48  C   UNL A   1      43.137  29.280  35.050  1.00  0.00     0.037 A 
ATOM     49  C   UNL A   1      37.860  32.380  31.484  1.00  0.00     0.037 A 
ATOM     50  C   UNL A   1      42.513  30.395  35.715  1.00  0.00     0.049 A 
ATOM     51  C   UNL A   1      38.280  32.835  32.855  1.00  0.00     0.074 A 
ATOM     52  C   UNL A   1      42.811  30.945  36.949  1.00  0.00     0.029 A 
ATOM     53  N   UNL A   1      41.452  31.128  35.195  1.00  0.00    -0.354 N 
ATOM     54  N   UNL A   1      39.232  32.361  33.626  1.00  0.00    -0.248 NA
ATOM     55  C   UNL A   1      37.539  33.961  33.437  1.00  0.00     0.031 C 
ATOM     56  C   UNL A   1      41.903  31.984  37.191  1.00  0.00     0.029 A 
ATOM     57  C   UNL A   1      41.076  32.117  36.086  1.00  0.00     0.049 A 
ATOM     58  H   UNL A   1      41.032  30.967  34.320  1.00  0.00     0.167 HD
ATOM     59  C   UNL A   1      39.230  33.153  34.768  1.00  0.00     0.074 A 
ATOM     60  C   UNL A   1      38.179  34.136  34.584  1.00  0.00     0.031 C 
ATOM     61  C   UNL A   1      40.026  33.084  35.865  1.00  0.00     0.037 A 
BRANCH  48  62
ATOM     62  C   UNL A   1      44.230  28.519  35.752  1.00  0.00     0.058 A 
ATOM     63  C   UNL A   1      45.589  28.837  35.578  1.00  0.00     0.135 A 
ATOM     64  C   UNL A   1      43.918  27.439  36.593  1.00  0.00     0.135 A 
ATOM     65  F   UNL A   1      45.949  29.846  34.771  1.00  0.00    -0.206 F 
ATOM     66  C   UNL A   1      46.597  28.085  36.176  1.00  0.00     0.059 A 
ATOM     67  C   UNL A   1      44.910  26.690  37.225  1.00  0.00     0.059 A 
ATOM     68  F   UNL A   1      42.639  27.085  36.794  1.00  0.00    -0.206 F 
ATOM     69  C   UNL A   1      46.246  27.007  36.991  1.00  0.00     0.060 A 
BRANCH  69  70
ATOM     70  S   UNL A   1      47.563  26.017  37.731  1.00  0.00     0.124 S 
ATOM     71  O   UNL A   1      48.724  26.878  37.523  1.00  0.00    -0.237 OA
ATOM     72  O   UNL A   1      47.116  25.882  39.114  1.00  0.00    -0.237 OA
ATOM     73  O   UNL A   1      47.547  24.787  36.946  1.00  0.00    -0.744 OA
ENDBRANCH  69  70
ENDBRANCH  48  62
BRANCH  49  74
ATOM     74  C   UNL A   1      36.734  33.021  30.757  1.00  0.00     0.058 A 
ATOM     75  C   UNL A   1      35.408  32.802  31.159  1.00  0.00     0.135 A 
ATOM     76  C   UNL A   1      36.955  33.908  29.691  1.00  0.00     0.135 A 
ATOM     77  F   UNL A   1      35.146  31.958  32.168  1.00  0.00    -0.206 F 
ATOM     78  C   UNL A   1      34.341  33.441  30.536  1.00  0.00     0.059 A 
ATOM     79  C   UNL A   1      35.905  34.576  29.065  1.00  0.00     0.059 A 
ATOM     80  F   UNL A   1      38.206  34.162  29.277  1.00  0.00    -0.206 F 
ATOM     81  C   UNL A   1      34.601  34.334  29.495  1.00  0.00     0.060 A 
BRANCH  81  82
ATOM     82  S   UNL A   1      33.212  35.218  28.750  1.00  0.00     0.124 S 
ATOM     83  O   UNL A   1      32.582  34.166  27.961  1.00  0.00    -0.237 OA
ATOM     84  O   UNL A   1      32.470  35.666  29.926  1.00  0.00    -0.237 OA
ATOM     85  O   UNL A   1      33.861  36.279  27.986  1.00  0.00    -0.744 OA
ENDBRANCH  81  82
ENDBRANCH  49  74
BRANCH  61  86
ATOM     86  C   UNL A   1      39.824  34.135  36.920  1.00  0.00     0.058 A 
ATOM     87  C   UNL A   1      38.933  33.953  37.988  1.00  0.00     0.135 A 
ATOM     88  C   UNL A   1      40.565  35.328  36.873  1.00  0.00     0.135 A 
ATOM     89  F   UNL A   1      38.199  32.833  38.073  1.00  0.00    -0.206 F 
ATOM     90  C   UNL A   1      38.758  34.933  38.959  1.00  0.00     0.059 A 
ATOM     91  C   UNL A   1      40.426  36.309  37.848  1.00  0.00     0.059 A 
ATOM     92  F   UNL A   1      41.439  35.542  35.878  1.00  0.00    -0.206 F 
ATOM     93  C   UNL A   1      39.508  36.109  38.878  1.00  0.00     0.060 A 
BRANCH  93  94
ATOM     94  S   UNL A   1      39.286  37.369  40.151  1.00  0.00     0.124 S 
ATOM     95  O   UNL A   1      38.260  38.214  39.551  1.00  0.00    -0.237 OA
ATOM     96  O   UNL A   1      38.862  36.578  41.303  1.00  0.00    -0.237 OA
ATOM     97  O   UNL A   1      40.611  37.972  40.266  1.00  0.00    -0.744 OA
ENDBRANCH  93  94
ENDBRANCH  61  86
ENDBRANCH  35  36
ENDBRANCH  28  30
ENDBRANCH  27  28
ENDBRANCH  26  27
ENDBRANCH  25  26
ENDBRANCH  24  25
ENDBRANCH  23  24
ENDBRANCH   1  23
TORSDOF 26
ENDMDL
MODEL 2
REMARK VINA RESULT:      -9.2      2.392      9.084
REMARK SMILES CCN(CCC(=O)OCCOCCOCCOC(=O)c1ccc(-c2c3nc(c(-c4c(F)cc(S(=O)(=O)[O-])cc4F)c4ccc([nH]4)c(-c4c(F)cc(S(=O)(=O)[O-])cc4F)c4nc(c(-c5c(F)cc(S(=O)(=O)[O-])cc5F)c5ccc2[nH]5)C=C4)C=C3)cc1)S(=O)(=O)c1cn(CC)cn1
REMARK SMILES IDX 12 1 11 2 10 3 9 4 8 5 6 6 7 7 5 8 4 9 3 10 2 11 1 12 86 13
REMARK SMILES IDX 87 14 88 15 89 16 90 17 95 18 91 19 94 20 92 21 93 22 13 23
REMARK SMILES IDX 14 24 15 25 16 26 17 27 18 28 19 29 20 30 21 31 85 32 22 33
REMARK SMILES IDX 84 34 23 35 24 36 25 37 78 38 26 39 83 40 77 41 79 42 27 43
REMARK SMILES IDX 82 44 76 45 75 46 28 48 62 49 41 50 61 51 42 52 45 53 60 54
REMARK SMILES IDX 80 55 43 56 44 57 59 59 81 60 46 61 29 62 30 63 39 64 31 65
REMARK SMILES IDX 32 66 38 67 40 68 33 69 34 70 35 71 36 72 37 73 63 74 64 75
REMARK SMILES IDX 73 76 65 77 66 78 72 79 74 80 67 81 68 82 69 83 70 84 71 85
REMARK SMILES IDX 47 86 48 87 57 88 49 89 50 90 56 91 58 92 51 93 52 94 53 95
REMARK SMILES IDX 54 96 55 97
REMARK H PARENT 79 47 45 58
REMARK Flexibility Score: inf
ROOT
ATOM      1  C   UNL A   1      33.287  28.737  26.122  1.00  0.00     0.188 C 
ENDROOT
BRANCH   1   2
ATOM      2  O   UNL A   1      32.508  29.268  25.051  1.00  0.00    -0.376 OA
BRANCH   2   3
ATOM      3  C   UNL A   1      31.855  28.383  24.145  1.00  0.00     0.202 C 
BRANCH   3   4
ATOM      4  C   UNL A   1      32.410  26.959  24.028  1.00  0.00     0.261 C 
BRANCH   4   5
ATOM      5  O   UNL A   1      33.589  26.836  23.201  1.00  0.00    -0.463 OA
BRANCH   5   6
ATOM      6  C   UNL A   1      33.636  25.763  22.383  1.00  0.00     0.307 C 
ATOM      7  O   UNL A   1      33.532  25.828  21.160  1.00  0.00    -0.252 OA
BRANCH   6   8
ATOM      8  C   UNL A   1      33.879  24.426  23.054  1.00  0.00     0.139 C 
BRANCH   8   9
ATOM      9  C   UNL A   1      34.740  24.255  24.304  1.00  0.00     0.114 C 
BRANCH   9  10
ATOM     10  N   UNL A   1      35.125  22.885  24.741  1.00  0.00    -0.196 NA
BRANCH  10  11
ATOM     11  C   UNL A   1      36.139  22.210  23.892  1.00  0.00     0.099 C 
ATOM     12  C   UNL A   1      37.403  21.747  24.589  1.00  0.00     0.022 C 
ENDBRANCH  10  11
BRANCH  10  13
ATOM     13  S   UNL A   1      33.978  21.952  25.591  1.00  0.00     0.262 S 
ATOM     14  O   UNL A   1      34.635  21.411  26.763  1.00  0.00    -0.205 OA
ATOM     15  O   UNL A   1      32.769  22.741  25.733  1.00  0.00    -0.205 OA
BRANCH  13  16
ATOM     16  C   UNL A   1      33.393  20.534  24.735  1.00  0.00     0.188 A 
ATOM     17  C   UNL A   1      34.037  19.308  24.733  1.00  0.00     0.129 A 
ATOM     18  N   UNL A   1      32.247  20.464  23.954  1.00  0.00    -0.224 NA
ATOM     19  N   UNL A   1      33.302  18.503  23.899  1.00  0.00    -0.336 N 
ATOM     20  C   UNL A   1      32.231  19.237  23.469  1.00  0.00     0.201 A 
BRANCH  19  21
ATOM     21  C   UNL A   1      33.722  17.181  23.472  1.00  0.00     0.120 C 
ATOM     22  C   UNL A   1      33.813  16.100  24.538  1.00  0.00     0.027 C 
ENDBRANCH  19  21
ENDBRANCH  13  16
ENDBRANCH  10  13
ENDBRANCH   9  10
ENDBRANCH   8   9
ENDBRANCH   6   8
ENDBRANCH   5   6
ENDBRANCH   4   5
ENDBRANCH   3   4
ENDBRANCH   2   3
ENDBRANCH   1   2
BRANCH   1  23
ATOM     23  C   UNL A   1      33.733  29.682  27.244  1.00  0.00     0.188 C 
BRANCH  23  24
ATOM     24  O   UNL A   1      32.960  30.859  27.306  1.00  0.00    -0.376 OA
BRANCH  24  25
ATOM     25  C   UNL A   1      33.604  32.082  27.551  1.00  0.00     0.202 C 
BRANCH  25  26
ATOM     26  C   UNL A   1      32.714  33.318  27.647  1.00  0.00     0.261 C 
BRANCH  26  27
ATOM     27  O   UNL A   1      33.414  34.562  27.797  1.00  0.00    -0.460 OA
BRANCH  27  28
ATOM     28  C   UNL A   1      33.372  35.137  29.020  1.00  0.00     0.338 C 
ATOM     29  O   UNL A   1      32.554  35.932  29.433  1.00  0.00    -0.246 OA
BRANCH  28  30
ATOM     30  C   UNL A   1      34.466  34.557  29.816  1.00  0.00     0.060 A 
ATOM     31  C   UNL A   1      35.780  34.561  29.331  1.00  0.00     0.016 A 
ATOM     32  C   UNL A   1      34.154  33.987  31.050  1.00  0.00     0.016 A 
ATOM     33  C   UNL A   1      36.795  33.967  30.084  1.00  0.00     0.010 A 
ATOM     34  C   UNL A   1      35.162  33.383  31.791  1.00  0.00     0.010 A 
ATOM     35  C   UNL A   1      36.479  33.347  31.300  1.00  0.00    -0.014 A 
BRANCH  35  36
ATOM     36  C   UNL A   1      37.464  32.520  32.026  1.00  0.00     0.031 A 
ATOM     37  C   UNL A   1      37.974  33.023  33.345  1.00  0.00     0.074 A 
ATOM     38  C   UNL A   1      37.960  31.408  31.457  1.00  0.00     0.049 A 
ATOM     39  N   UNL A   1      38.977  32.602  34.064  1.00  0.00    -0.248 NA
ATOM     40  C   UNL A   1      37.265  34.181  33.915  1.00  0.00     0.031 C 
ATOM     41  C   UNL A   1      37.506  30.836  30.189  1.00  0.00     0.029 A 
ATOM     42  N   UNL A   1      38.978  30.584  31.856  1.00  0.00    -0.354 N 
ATOM     43  C   UNL A   1      39.043  33.460  35.157  1.00  0.00     0.074 A 
ATOM     44  C   UNL A   1      37.986  34.433  34.997  1.00  0.00     0.031 C 
ATOM     45  C   UNL A   1      38.264  29.764  29.900  1.00  0.00     0.029 A 
ATOM     46  C   UNL A   1      39.276  29.604  30.940  1.00  0.00     0.049 A 
ATOM     47  H   UNL A   1      39.450  30.684  32.714  1.00  0.00     0.167 HD
ATOM     48  C   UNL A   1      39.916  33.436  36.191  1.00  0.00     0.037 A 
ATOM     49  C   UNL A   1      40.277  28.702  30.935  1.00  0.00     0.037 A 
ATOM     50  C   UNL A   1      40.966  32.457  36.313  1.00  0.00     0.049 A 
ATOM     51  C   UNL A   1      41.249  28.703  32.084  1.00  0.00     0.074 A 
ATOM     52  C   UNL A   1      41.904  32.313  37.319  1.00  0.00     0.029 A 
ATOM     53  N   UNL A   1      41.217  31.453  35.384  1.00  0.00    -0.354 N 
ATOM     54  N   UNL A   1      41.302  29.511  33.119  1.00  0.00    -0.248 NA
ATOM     55  C   UNL A   1      42.294  27.673  32.070  1.00  0.00     0.031 C 
ATOM     56  C   UNL A   1      42.746  31.247  36.978  1.00  0.00     0.029 A 
ATOM     57  C   UNL A   1      42.301  30.694  35.786  1.00  0.00     0.049 A 
ATOM     58  H   UNL A   1      40.699  31.306  34.561  1.00  0.00     0.167 HD
ATOM     59  C   UNL A   1      42.361  29.064  33.899  1.00  0.00     0.074 A 
ATOM     60  C   UNL A   1      42.921  27.915  33.214  1.00  0.00     0.031 C 
ATOM     61  C   UNL A   1      42.826  29.550  35.078  1.00  0.00     0.037 A 
BRANCH  48  62
ATOM     62  C   UNL A   1      39.794  34.520  37.229  1.00  0.00     0.058 A 
ATOM     63  C   UNL A   1      39.058  34.338  38.413  1.00  0.00     0.135 A 
ATOM     64  C   UNL A   1      40.402  35.770  37.028  1.00  0.00     0.135 A 
ATOM     65  F   UNL A   1      38.438  33.172  38.650  1.00  0.00    -0.206 F 
ATOM     66  C   UNL A   1      38.892  35.368  39.335  1.00  0.00     0.059 A 
ATOM     67  C   UNL A   1      40.274  36.806  37.952  1.00  0.00     0.059 A 
ATOM     68  F   UNL A   1      41.115  36.004  35.915  1.00  0.00    -0.206 F 
ATOM     69  C   UNL A   1      39.497  36.602  39.090  1.00  0.00     0.060 A 
BRANCH  69  70
ATOM     70  S   UNL A   1      39.244  37.940  40.276  1.00  0.00     0.124 S 
ATOM     71  O   UNL A   1      40.550  38.592  40.261  1.00  0.00    -0.237 OA
ATOM     72  O   UNL A   1      38.153  38.697  39.669  1.00  0.00    -0.237 OA
ATOM     73  O   UNL A   1      38.906  37.241  41.512  1.00  0.00    -0.744 OA
ENDBRANCH  69  70
ENDBRANCH  48  62
BRANCH  49  74
ATOM     74  C   UNL A   1      40.380  27.720  29.825  1.00  0.00     0.058 A 
ATOM     75  C   UNL A   1      39.467  26.661  29.722  1.00  0.00     0.135 A 
ATOM     76  C   UNL A   1      41.345  27.851  28.813  1.00  0.00     0.135 A 
ATOM     77  F   UNL A   1      38.531  26.490  30.667  1.00  0.00    -0.206 F 
ATOM     78  C   UNL A   1      39.503  25.766  28.657  1.00  0.00     0.059 A 
ATOM     79  C   UNL A   1      41.388  26.981  27.726  1.00  0.00     0.059 A 
ATOM     80  F   UNL A   1      42.233  28.856  28.858  1.00  0.00    -0.206 F 
ATOM     81  C   UNL A   1      40.463  25.941  27.659  1.00  0.00     0.060 A 
BRANCH  81  82
ATOM     82  S   UNL A   1      40.445  24.821  26.240  1.00  0.00     0.124 S 
ATOM     83  O   UNL A   1      39.024  24.515  26.126  1.00  0.00    -0.237 OA
ATOM     84  O   UNL A   1      41.005  25.659  25.183  1.00  0.00    -0.237 OA
ATOM     85  O   UNL A   1      41.297  23.717  26.673  1.00  0.00    -0.744 OA
ENDBRANCH  81  82
ENDBRANCH  49  74
BRANCH  61  86
ATOM     86  C   UNL A   1      43.959  28.802  35.723  1.00  0.00     0.058 A 
ATOM     87  C   UNL A   1      43.738  27.747  36.619  1.00  0.00     0.135 A 
ATOM     88  C   UNL A   1      45.288  29.132  35.406  1.00  0.00     0.135 A 
ATOM     89  F   UNL A   1      42.487  27.398  36.958  1.00  0.00    -0.206 F 
ATOM     90  C   UNL A   1      44.797  27.062  37.206  1.00  0.00     0.059 A 
ATOM     91  C   UNL A   1      46.361  28.442  35.959  1.00  0.00     0.059 A 
ATOM     92  F   UNL A   1      45.551  30.125  34.543  1.00  0.00    -0.206 F 
ATOM     93  C   UNL A   1      46.104  27.419  36.871  1.00  0.00     0.060 A 
BRANCH  93  94
ATOM     94  S   UNL A   1      47.471  26.514  37.625  1.00  0.00     0.124 S 
ATOM     95  O   UNL A   1      48.435  26.473  36.531  1.00  0.00    -0.237 OA
ATOM     96  O   UNL A   1      47.828  27.368  38.754  1.00  0.00    -0.237 OA
ATOM     97  O   UNL A   1      46.872  25.231  37.983  1.00  0.00    -0.744 OA
ENDBRANCH  93  94
ENDBRANCH  61  86
ENDBRANCH  35  36
ENDBRANCH  28  30
ENDBRANCH  27  28
ENDBRANCH  26  27
ENDBRANCH  25  26
ENDBRANCH  24  25
ENDBRANCH  23  24
ENDBRANCH   1  23
TORSDOF 26
ENDMDL
MODEL 3
REMARK VINA RESULT:      -8.9      6.281     11.960
REMARK SMILES CCN(CCC(=O)OCCOCCOCCOC(=O)c1ccc(-c2c3nc(c(-c4c(F)cc(S(=O)(=O)[O-])cc4F)c4ccc([nH]4)c(-c4c(F)cc(S(=O)(=O)[O-])cc4F)c4nc(c(-c5c(F)cc(S(=O)(=O)[O-])cc5F)c5ccc2[nH]5)C=C4)C=C3)cc1)S(=O)(=O)c1cn(CC)cn1
REMARK SMILES IDX 12 1 11 2 10 3 9 4 8 5 6 6 7 7 5 8 4 9 3 10 2 11 1 12 86 13
REMARK SMILES IDX 87 14 88 15 89 16 90 17 95 18 91 19 94 20 92 21 93 22 13 23
REMARK SMILES IDX 14 24 15 25 16 26 17 27 18 28 19 29 20 30 21 31 85 32 22 33
REMARK SMILES IDX 84 34 23 35 24 36 25 37 78 38 26 39 83 40 77 41 79 42 27 43
REMARK SMILES IDX 82 44 76 45 75 46 28 48 62 49 41 50 61 51 42 52 45 53 60 54
REMARK SMILES IDX 80 55 43 56 44 57 59 59 81 60 46 61 29 62 30 63 39 64 31 65
REMARK SMILES IDX 32 66 38 67 40 68 33 69 34 70 35 71 36 72 37 73 63 74 64 75
REMARK SMILES IDX 73 76 65 77 66 78 72 79 74 80 67 81 68 82 69 83 70 84 71 85
REMARK SMILES IDX 47 86 48 87 57 88 49 89 50 90 56 91 58 92 51 93 52 94 53 95
REMARK SMILES IDX 54 96 55 97
REMARK H PARENT 79 47 45 58
REMARK Flexibility Score: inf
ROOT
ATOM      1  C   UNL A   1      33.513  29.215  26.013  1.00  0.00     0.188 C 
ENDROOT
BRANCH   1   2
ATOM      2  O   UNL A   1      32.407  29.902  25.430  1.00  0.00    -0.376 OA
BRANCH   2   3
ATOM      3  C   UNL A   1      31.337  29.159  24.854  1.00  0.00     0.202 C 
BRANCH   3   4
ATOM      4  C   UNL A   1      31.496  27.637  24.779  1.00  0.00     0.261 C 
BRANCH   4   5
ATOM      5  O   UNL A   1      30.669  26.897  25.704  1.00  0.00    -0.463 OA
BRANCH   5   6
ATOM      6  C   UNL A   1      30.926  25.575  25.809  1.00  0.00     0.307 C 
ATOM      7  O   UNL A   1      30.534  24.872  26.738  1.00  0.00    -0.252 OA
BRANCH   6   8
ATOM      8  C   UNL A   1      31.707  24.957  24.667  1.00  0.00     0.139 C 
BRANCH   8   9
ATOM      9  C   UNL A   1      33.043  24.239  24.850  1.00  0.00     0.114 C 
BRANCH   9  10
ATOM     10  N   UNL A   1      33.059  22.870  25.434  1.00  0.00    -0.196 NA
BRANCH  10  11
ATOM     11  C   UNL A   1      34.255  22.546  26.253  1.00  0.00     0.099 C 
ATOM     12  C   UNL A   1      34.029  22.390  27.744  1.00  0.00     0.022 C 
ENDBRANCH  10  11
BRANCH  10  13
ATOM     13  S   UNL A   1      32.239  21.625  24.608  1.00  0.00     0.262 S 
ATOM     14  O   UNL A   1      31.050  21.302  25.371  1.00  0.00    -0.205 OA
ATOM     15  O   UNL A   1      32.126  22.006  23.213  1.00  0.00    -0.205 OA
BRANCH  13  16
ATOM     16  C   UNL A   1      33.108  20.102  24.504  1.00  0.00     0.188 A 
ATOM     17  C   UNL A   1      32.526  18.899  24.145  1.00  0.00     0.129 A 
ATOM     18  N   UNL A   1      34.456  19.909  24.780  1.00  0.00    -0.224 NA
ATOM     19  N   UNL A   1      33.518  17.957  24.256  1.00  0.00    -0.336 N 
ATOM     20  C   UNL A   1      34.659  18.614  24.624  1.00  0.00     0.201 A 
BRANCH  19  21
ATOM     21  C   UNL A   1      33.294  16.527  24.141  1.00  0.00     0.120 C 
ATOM     22  C   UNL A   1      33.580  15.676  25.368  1.00  0.00     0.027 C 
ENDBRANCH  19  21
ENDBRANCH  13  16
ENDBRANCH  10  13
ENDBRANCH   9  10
ENDBRANCH   8   9
ENDBRANCH   6   8
ENDBRANCH   5   6
ENDBRANCH   4   5
ENDBRANCH   3   4
ENDBRANCH   2   3
ENDBRANCH   1   2
BRANCH   1  23
ATOM     23  C   UNL A   1      34.189  29.825  27.246  1.00  0.00     0.188 C 
BRANCH  23  24
ATOM     24  O   UNL A   1      33.655  31.081  27.597  1.00  0.00    -0.376 OA
BRANCH  24  25
ATOM     25  C   UNL A   1      34.535  32.139  27.880  1.00  0.00     0.202 C 
BRANCH  25  26
ATOM     26  C   UNL A   1      34.822  32.415  29.353  1.00  0.00     0.261 C 
BRANCH  26  27
ATOM     27  O   UNL A   1      36.195  32.271  29.742  1.00  0.00    -0.460 OA
BRANCH  27  28
ATOM     28  C   UNL A   1      36.457  31.370  30.715  1.00  0.00     0.338 C 
ATOM     29  O   UNL A   1      35.756  31.082  31.663  1.00  0.00    -0.246 OA
BRANCH  28  30
ATOM     30  C   UNL A   1      37.733  30.717  30.378  1.00  0.00     0.060 A 
ATOM     31  C   UNL A   1      38.540  30.166  31.382  1.00  0.00     0.016 A 
ATOM     32  C   UNL A   1      38.123  30.684  29.039  1.00  0.00     0.016 A 
ATOM     33  C   UNL A   1      39.766  29.590  31.043  1.00  0.00     0.010 A 
ATOM     34  C   UNL A   1      39.350  30.124  28.706  1.00  0.00     0.010 A 
ATOM     35  C   UNL A   1      40.186  29.600  29.707  1.00  0.00    -0.014 A 
BRANCH  35  36
ATOM     36  C   UNL A   1      41.558  29.207  29.324  1.00  0.00     0.031 A 
ATOM     37  C   UNL A   1      42.606  30.279  29.252  1.00  0.00     0.074 A 
ATOM     38  C   UNL A   1      41.817  27.943  28.949  1.00  0.00     0.049 A 
ATOM     39  N   UNL A   1      43.808  30.235  28.746  1.00  0.00    -0.248 NA
ATOM     40  C   UNL A   1      42.230  31.591  29.804  1.00  0.00     0.031 C 
ATOM     41  C   UNL A   1      40.864  26.835  29.009  1.00  0.00     0.029 A 
ATOM     42  N   UNL A   1      42.947  27.390  28.411  1.00  0.00    -0.354 N 
ATOM     43  C   UNL A   1      44.324  31.519  28.889  1.00  0.00     0.074 A 
ATOM     44  C   UNL A   1      43.298  32.321  29.517  1.00  0.00     0.031 C 
ATOM     45  C   UNL A   1      41.444  25.734  28.500  1.00  0.00     0.029 A 
ATOM     46  C   UNL A   1      42.789  26.075  28.043  1.00  0.00     0.049 A 
ATOM     47  H   UNL A   1      43.790  27.885  28.297  1.00  0.00     0.167 HD
ATOM     48  C   UNL A   1      45.542  31.980  28.520  1.00  0.00     0.037 A 
ATOM     49  C   UNL A   1      43.630  25.255  27.384  1.00  0.00     0.037 A 
ATOM     50  C   UNL A   1      46.537  31.153  27.886  1.00  0.00     0.049 A 
ATOM     51  C   UNL A   1      44.972  25.791  26.964  1.00  0.00     0.074 A 
ATOM     52  C   UNL A   1      47.814  31.494  27.479  1.00  0.00     0.029 A 
ATOM     53  N   UNL A   1      46.356  29.813  27.561  1.00  0.00    -0.354 N 
ATOM     54  N   UNL A   1      45.458  27.003  27.110  1.00  0.00    -0.248 NA
ATOM     55  C   UNL A   1      45.881  24.853  26.295  1.00  0.00     0.031 C 
ATOM     56  C   UNL A   1      48.390  30.370  26.872  1.00  0.00     0.029 A 
ATOM     57  C   UNL A   1      47.492  29.315  26.949  1.00  0.00     0.049 A 
ATOM     58  H   UNL A   1      45.539  29.296  27.742  1.00  0.00     0.167 HD
ATOM     59  C   UNL A   1      46.744  26.964  26.585  1.00  0.00     0.074 A 
ATOM     60  C   UNL A   1      46.958  25.608  26.117  1.00  0.00     0.031 C 
ATOM     61  C   UNL A   1      47.670  27.953  26.503  1.00  0.00     0.037 A 
BRANCH  48  62
ATOM     62  C   UNL A   1      45.832  33.439  28.751  1.00  0.00     0.058 A 
ATOM     63  C   UNL A   1      46.418  33.902  29.942  1.00  0.00     0.135 A 
ATOM     64  C   UNL A   1      45.498  34.394  27.778  1.00  0.00     0.135 A 
ATOM     65  F   UNL A   1      46.740  33.038  30.917  1.00  0.00    -0.206 F 
ATOM     66  C   UNL A   1      46.620  35.259  30.177  1.00  0.00     0.059 A 
ATOM     67  C   UNL A   1      45.718  35.756  27.979  1.00  0.00     0.059 A 
ATOM     68  F   UNL A   1      44.933  34.013  26.621  1.00  0.00    -0.206 F 
ATOM     69  C   UNL A   1      46.258  36.180  29.192  1.00  0.00     0.060 A 
BRANCH  69  70
ATOM     70  S   UNL A   1      46.491  37.939  29.523  1.00  0.00     0.124 S 
ATOM     71  O   UNL A   1      45.188  38.306  30.073  1.00  0.00    -0.237 OA
ATOM     72  O   UNL A   1      47.600  37.937  30.473  1.00  0.00    -0.237 OA
ATOM     73  O   UNL A   1      46.796  38.496  28.209  1.00  0.00    -0.744 OA
ENDBRANCH  69  70
ENDBRANCH  48  62
BRANCH  49  74
ATOM     74  C   UNL A   1      43.230  23.849  27.116  1.00  0.00     0.058 A 
ATOM     75  C   UNL A   1      43.193  22.907  28.154  1.00  0.00     0.135 A 
ATOM     76  C   UNL A   1      42.821  23.430  25.839  1.00  0.00     0.135 A 
ATOM     77  F   UNL A   1      43.581  23.258  29.389  1.00  0.00    -0.206 F 
ATOM     78  C   UNL A   1      42.761  21.602  27.941  1.00  0.00     0.059 A 
ATOM     79  C   UNL A   1      42.364  22.136  25.606  1.00  0.00     0.059 A 
ATOM     80  F   UNL A   1      42.825  24.297  24.815  1.00  0.00    -0.206 F 
ATOM     81  C   UNL A   1      42.340  21.228  26.664  1.00  0.00     0.060 A 
BRANCH  81  82
ATOM     82  S   UNL A   1      41.704  19.554  26.421  1.00  0.00     0.124 S 
ATOM     83  O   UNL A   1      40.264  19.783  26.428  1.00  0.00    -0.237 OA
ATOM     84  O   UNL A   1      42.287  19.191  25.132  1.00  0.00    -0.237 OA
ATOM     85  O   UNL A   1      42.234  18.824  27.569  1.00  0.00    -0.744 OA
ENDBRANCH  81  82
ENDBRANCH  49  74
BRANCH  61  86
ATOM     86  C   UNL A   1      49.012  27.584  25.937  1.00  0.00     0.058 A 
ATOM     87  C   UNL A   1      50.120  27.329  26.759  1.00  0.00     0.135 A 
ATOM     88  C   UNL A   1      49.176  27.451  24.548  1.00  0.00     0.135 A 
ATOM     89  F   UNL A   1      50.015  27.448  28.091  1.00  0.00    -0.206 F 
ATOM     90  C   UNL A   1      51.356  26.985  26.221  1.00  0.00     0.059 A 
ATOM     91  C   UNL A   1      50.395  27.081  23.990  1.00  0.00     0.059 A 
ATOM     92  F   UNL A   1      48.142  27.671  23.721  1.00  0.00    -0.206 F 
ATOM     93  C   UNL A   1      51.483  26.867  24.835  1.00  0.00     0.060 A 
BRANCH  93  94
ATOM     94  S   UNL A   1      53.087  26.405  24.148  1.00  0.00     0.124 S 
ATOM     95  O   UNL A   1      53.963  27.399  24.756  1.00  0.00    -0.237 OA
ATOM     96  O   UNL A   1      53.250  25.036  24.627  1.00  0.00    -0.237 OA
ATOM     97  O   UNL A   1      52.889  26.538  22.707  1.00  0.00    -0.744 OA
ENDBRANCH  93  94
ENDBRANCH  61  86
ENDBRANCH  35  36
ENDBRANCH  28  30
ENDBRANCH  27  28
ENDBRANCH  26  27
ENDBRANCH  25  26
ENDBRANCH  24  25
ENDBRANCH  23  24
ENDBRANCH   1  23
TORSDOF 26
ENDMDL
