MODEL 1
REMARK VINA RESULT:     -10.4      0.000      0.000
REMARK SMILES CCCCCNC(=O)N1Cc2nc[nH]c2C[C@@H]1C(=O)OCCOCCOCCOC(=O)c1ccc(-c2c3nc(c(-c4c(F)cc(S(=O)(=O)[O-])cc4F)c4ccc([nH]4)c(-c4c(F)cc(S(=O)(=O)[O-])cc4F)c4nc(c(-c5c(F)cc(S(=O)(=O)[O-])cc5F)c5ccc2[nH]5)C=C4)C=C3)cc1
REMARK SMILES IDX 24 1 23 2 22 3 21 4 20 5 18 6 19 7 17 8 9 9 10 10 11 11
REMARK SMILES IDX 16 12 12 13 15 14 13 15 14 16 7 18 6 19 8 21 5 22 4 23 3 24
REMARK SMILES IDX 2 25 1 26 25 27 26 28 27 29 28 30 29 31 30 32 31 33 32 34
REMARK SMILES IDX 33 35 97 36 34 37 96 38 35 39 36 40 37 41 90 42 38 43 95 44
REMARK SMILES IDX 89 45 91 46 39 47 94 48 88 49 87 50 40 52 74 53 53 54 73 55
REMARK SMILES IDX 54 56 57 57 72 58 92 59 55 60 56 61 71 63 93 64 58 65 41 66
REMARK SMILES IDX 42 67 51 68 43 69 44 70 50 71 52 72 45 73 46 74 47 75 48 76
REMARK SMILES IDX 49 77 75 78 76 79 85 80 77 81 78 82 84 83 86 84 79 85 80 86
REMARK SMILES IDX 81 87 82 88 83 89 59 90 60 91 69 92 61 93 62 94 68 95 70 96
REMARK SMILES IDX 63 97 64 98 65 99 66 100 67 101
REMARK H PARENT 14 17 6 20 91 51 57 62
REMARK Flexibility Score: inf
ROOT
ATOM      1  C   UNL A   1      31.697  28.547  23.479  1.00  0.00     0.188 C 
ENDROOT
BRANCH   1   2
ATOM      2  O   UNL A   1      32.247  27.318  23.908  1.00  0.00    -0.376 OA
BRANCH   2   3
ATOM      3  C   UNL A   1      31.461  26.613  24.854  1.00  0.00     0.202 C 
BRANCH   3   4
ATOM      4  C   UNL A   1      32.142  25.466  25.618  1.00  0.00     0.261 C 
BRANCH   4   5
ATOM      5  O   UNL A   1      33.502  25.078  25.340  1.00  0.00    -0.462 OA
BRANCH   5   6
ATOM      6  C   UNL A   1      33.802  24.175  24.377  1.00  0.00     0.329 C 
ATOM      7  O   UNL A   1      33.157  24.009  23.348  1.00  0.00    -0.250 OA
BRANCH   6   8
ATOM      8  C   UNL A   1      34.996  23.301  24.765  1.00  0.00     0.203 C 
ATOM      9  N   UNL A   1      34.690  21.939  25.318  1.00  0.00    -0.305 N 
ATOM     10  C   UNL A   1      35.862  21.029  25.464  1.00  0.00     0.180 C 
ATOM     11  C   UNL A   1      37.135  21.786  25.698  1.00  0.00     0.081 A 
ATOM     12  C   UNL A   1      36.077  24.071  25.582  1.00  0.00     0.093 C 
ATOM     13  N   UNL A   1      38.390  21.233  25.752  1.00  0.00    -0.240 NA
ATOM     14  C   UNL A   1      37.224  23.155  25.745  1.00  0.00     0.042 A 
ATOM     15  C   UNL A   1      39.218  22.257  25.824  1.00  0.00     0.197 A 
ATOM     16  N   UNL A   1      38.551  23.455  25.823  1.00  0.00    -0.348 N 
ATOM     17  H   UNL A   1      38.953  24.354  25.869  1.00  0.00     0.167 HD
BRANCH   9  18
ATOM     18  C   UNL A   1      33.673  21.758  26.229  1.00  0.00     0.318 C 
ATOM     19  N   UNL A   1      32.648  20.912  25.895  1.00  0.00    -0.338 N 
ATOM     20  H   UNL A   1      31.943  20.820  26.574  1.00  0.00     0.165 HD
ATOM     21  O   UNL A   1      33.694  22.224  27.366  1.00  0.00    -0.249 OA
BRANCH  19  22
ATOM     22  C   UNL A   1      32.448  20.132  24.687  1.00  0.00     0.117 C 
BRANCH  22  23
ATOM     23  C   UNL A   1      32.713  18.636  24.755  1.00  0.00     0.021 C 
BRANCH  23  24
ATOM     24  C   UNL A   1      34.093  18.172  24.271  1.00  0.00     0.002 C 
BRANCH  24  25
ATOM     25  C   UNL A   1      34.294  16.678  23.981  1.00  0.00    -0.003 C 
ATOM     26  C   UNL A   1      34.711  15.824  25.169  1.00  0.00     0.004 C 
ENDBRANCH  24  25
ENDBRANCH  23  24
ENDBRANCH  22  23
ENDBRANCH  19  22
ENDBRANCH   9  18
ENDBRANCH   6   8
ENDBRANCH   5   6
ENDBRANCH   4   5
ENDBRANCH   3   4
ENDBRANCH   2   3
ENDBRANCH   1   2
BRANCH   1  27
ATOM     27  C   UNL A   1      31.577  29.606  24.582  1.00  0.00     0.188 C 
BRANCH  27  28
ATOM     28  O   UNL A   1      32.617  29.851  25.527  1.00  0.00    -0.376 OA
BRANCH  28  29
ATOM     29  C   UNL A   1      32.351  30.315  26.851  1.00  0.00     0.202 C 
BRANCH  29  30
ATOM     30  C   UNL A   1      33.312  31.268  27.557  1.00  0.00     0.261 C 
BRANCH  30  31
ATOM     31  O   UNL A   1      34.663  30.928  27.359  1.00  0.00    -0.460 OA
BRANCH  31  32
ATOM     32  C   UNL A   1      35.520  31.796  27.917  1.00  0.00     0.338 C 
ATOM     33  O   UNL A   1      35.695  32.979  27.614  1.00  0.00    -0.246 OA
BRANCH  32  34
ATOM     34  C   UNL A   1      36.239  31.106  28.983  1.00  0.00     0.060 A 
ATOM     35  C   UNL A   1      37.139  31.888  29.699  1.00  0.00     0.016 A 
ATOM     36  C   UNL A   1      36.303  29.705  28.937  1.00  0.00     0.016 A 
ATOM     37  C   UNL A   1      38.337  31.308  29.999  1.00  0.00     0.010 A 
ATOM     38  C   UNL A   1      37.505  29.131  29.217  1.00  0.00     0.010 A 
ATOM     39  C   UNL A   1      38.532  29.977  29.610  1.00  0.00    -0.014 A 
BRANCH  39  40
ATOM     40  C   UNL A   1      39.867  29.456  29.689  1.00  0.00     0.031 A 
ATOM     41  C   UNL A   1      40.257  29.249  31.091  1.00  0.00     0.074 A 
ATOM     42  C   UNL A   1      40.572  29.159  28.583  1.00  0.00     0.049 A 
ATOM     43  N   UNL A   1      41.072  29.964  31.788  1.00  0.00    -0.248 NA
ATOM     44  C   UNL A   1      39.435  28.318  31.885  1.00  0.00     0.031 C 
ATOM     45  C   UNL A   1      40.112  29.102  27.192  1.00  0.00     0.029 A 
ATOM     46  N   UNL A   1      41.855  28.738  28.492  1.00  0.00    -0.354 N 
ATOM     47  C   UNL A   1      41.071  29.372  33.042  1.00  0.00     0.074 A 
ATOM     48  C   UNL A   1      39.874  28.581  33.115  1.00  0.00     0.031 C 
ATOM     49  C   UNL A   1      41.033  28.443  26.448  1.00  0.00     0.029 A 
ATOM     50  C   UNL A   1      42.188  28.150  27.278  1.00  0.00     0.049 A 
ATOM     51  H   UNL A   1      42.501  28.840  29.228  1.00  0.00     0.167 HD
ATOM     52  C   UNL A   1      42.221  29.303  33.761  1.00  0.00     0.037 A 
ATOM     53  C   UNL A   1      43.299  27.400  27.051  1.00  0.00     0.037 A 
ATOM     54  C   UNL A   1      43.168  30.294  33.303  1.00  0.00     0.049 A 
ATOM     55  C   UNL A   1      44.261  27.722  28.145  1.00  0.00     0.074 A 
ATOM     56  C   UNL A   1      43.140  31.670  33.180  1.00  0.00     0.029 A 
ATOM     57  N   UNL A   1      44.201  29.864  32.503  1.00  0.00    -0.354 N 
ATOM     58  N   UNL A   1      44.840  28.884  28.286  1.00  0.00    -0.248 NA
ATOM     59  C   UNL A   1      44.212  26.905  29.350  1.00  0.00     0.031 C 
ATOM     60  C   UNL A   1      43.852  31.955  31.980  1.00  0.00     0.029 A 
ATOM     61  C   UNL A   1      44.341  30.752  31.468  1.00  0.00     0.049 A 
ATOM     62  H   UNL A   1      44.746  29.056  32.649  1.00  0.00     0.167 HD
ATOM     63  C   UNL A   1      44.845  29.119  29.656  1.00  0.00     0.074 A 
ATOM     64  C   UNL A   1      44.517  27.831  30.263  1.00  0.00     0.031 C 
ATOM     65  C   UNL A   1      44.824  30.391  30.152  1.00  0.00     0.037 A 
BRANCH  52  66
ATOM     66  C   UNL A   1      42.625  28.076  34.547  1.00  0.00     0.058 A 
ATOM     67  C   UNL A   1      42.779  28.196  35.942  1.00  0.00     0.135 A 
ATOM     68  C   UNL A   1      43.129  26.879  33.983  1.00  0.00     0.135 A 
ATOM     69  F   UNL A   1      42.341  29.288  36.587  1.00  0.00    -0.206 F 
ATOM     70  C   UNL A   1      43.456  27.243  36.701  1.00  0.00     0.059 A 
ATOM     71  C   UNL A   1      43.755  25.893  34.730  1.00  0.00     0.059 A 
ATOM     72  F   UNL A   1      43.129  26.628  32.670  1.00  0.00    -0.206 F 
ATOM     73  C   UNL A   1      43.954  26.102  36.081  1.00  0.00     0.060 A 
BRANCH  73  74
ATOM     74  S   UNL A   1      44.904  24.912  37.035  1.00  0.00     0.124 S 
ATOM     75  O   UNL A   1      44.383  25.139  38.377  1.00  0.00    -0.237 OA
ATOM     76  O   UNL A   1      44.526  23.653  36.401  1.00  0.00    -0.237 OA
ATOM     77  O   UNL A   1      46.285  25.329  36.811  1.00  0.00    -0.744 OA
ENDBRANCH  73  74
ENDBRANCH  52  66
BRANCH  53  78
ATOM     78  C   UNL A   1      43.434  26.171  26.218  1.00  0.00     0.058 A 
ATOM     79  C   UNL A   1      44.586  25.965  25.434  1.00  0.00     0.135 A 
ATOM     80  C   UNL A   1      42.602  25.049  26.398  1.00  0.00     0.135 A 
ATOM     81  F   UNL A   1      45.442  26.975  25.214  1.00  0.00    -0.206 F 
ATOM     82  C   UNL A   1      44.931  24.708  24.925  1.00  0.00     0.059 A 
ATOM     83  C   UNL A   1      42.918  23.788  25.889  1.00  0.00     0.059 A 
ATOM     84  F   UNL A   1      41.499  25.113  27.156  1.00  0.00    -0.206 F 
ATOM     85  C   UNL A   1      44.103  23.617  25.183  1.00  0.00     0.060 A 
BRANCH  85  86
ATOM     86  S   UNL A   1      44.645  21.957  24.713  1.00  0.00     0.124 S 
ATOM     87  O   UNL A   1      45.939  21.862  25.381  1.00  0.00    -0.237 OA
ATOM     88  O   UNL A   1      43.583  21.120  25.259  1.00  0.00    -0.237 OA
ATOM     89  O   UNL A   1      44.698  22.019  23.254  1.00  0.00    -0.744 OA
ENDBRANCH  85  86
ENDBRANCH  53  78
BRANCH  65  90
ATOM     90  C   UNL A   1      45.132  31.530  29.214  1.00  0.00     0.058 A 
ATOM     91  C   UNL A   1      46.417  32.047  28.967  1.00  0.00     0.135 A 
ATOM     92  C   UNL A   1      44.083  32.011  28.413  1.00  0.00     0.135 A 
ATOM     93  F   UNL A   1      47.488  31.572  29.619  1.00  0.00    -0.206 F 
ATOM     94  C   UNL A   1      46.639  33.022  27.991  1.00  0.00     0.059 A 
ATOM     95  C   UNL A   1      44.288  32.955  27.414  1.00  0.00     0.059 A 
ATOM     96  F   UNL A   1      42.843  31.514  28.561  1.00  0.00    -0.206 F 
ATOM     97  C   UNL A   1      45.568  33.467  27.215  1.00  0.00     0.060 A 
BRANCH  97  98
ATOM     98  S   UNL A   1      45.864  34.665  25.896  1.00  0.00     0.124 S 
ATOM     99  O   UNL A   1      44.619  34.602  25.139  1.00  0.00    -0.237 OA
ATOM    100  O   UNL A   1      46.095  35.902  26.636  1.00  0.00    -0.237 OA
ATOM    101  O   UNL A   1      47.039  34.133  25.209  1.00  0.00    -0.744 OA
ENDBRANCH  97  98
ENDBRANCH  65  90
ENDBRANCH  39  40
ENDBRANCH  32  34
ENDBRANCH  31  32
ENDBRANCH  30  31
ENDBRANCH  29  30
ENDBRANCH  28  29
ENDBRANCH  27  28
ENDBRANCH   1  27
TORSDOF 25
ENDMDL
MODEL 2
REMARK VINA RESULT:     -10.3      1.274      3.032
REMARK SMILES CCCCCNC(=O)N1Cc2nc[nH]c2C[C@@H]1C(=O)OCCOCCOCCOC(=O)c1ccc(-c2c3nc(c(-c4c(F)cc(S(=O)(=O)[O-])cc4F)c4ccc([nH]4)c(-c4c(F)cc(S(=O)(=O)[O-])cc4F)c4nc(c(-c5c(F)cc(S(=O)(=O)[O-])cc5F)c5ccc2[nH]5)C=C4)C=C3)cc1
REMARK SMILES IDX 24 1 23 2 22 3 21 4 20 5 18 6 19 7 17 8 9 9 10 10 11 11
REMARK SMILES IDX 16 12 12 13 15 14 13 15 14 16 7 18 6 19 8 21 5 22 4 23 3 24
REMARK SMILES IDX 2 25 1 26 25 27 26 28 27 29 28 30 29 31 30 32 31 33 32 34
REMARK SMILES IDX 33 35 97 36 34 37 96 38 35 39 36 40 37 41 90 42 38 43 95 44
REMARK SMILES IDX 89 45 91 46 39 47 94 48 88 49 87 50 40 52 74 53 53 54 73 55
REMARK SMILES IDX 54 56 57 57 72 58 92 59 55 60 56 61 71 63 93 64 58 65 41 66
REMARK SMILES IDX 42 67 51 68 43 69 44 70 50 71 52 72 45 73 46 74 47 75 48 76
REMARK SMILES IDX 49 77 75 78 76 79 85 80 77 81 78 82 84 83 86 84 79 85 80 86
REMARK SMILES IDX 81 87 82 88 83 89 59 90 60 91 69 92 61 93 62 94 68 95 70 96
REMARK SMILES IDX 63 97 64 98 65 99 66 100 67 101
REMARK H PARENT 14 17 6 20 91 51 57 62
REMARK Flexibility Score: inf
ROOT
ATOM      1  C   UNL A   1      33.193  28.443  22.719  1.00  0.00     0.188 C 
ENDROOT
BRANCH   1   2
ATOM      2  O   UNL A   1      33.832  27.222  23.026  1.00  0.00    -0.376 OA
BRANCH   2   3
ATOM      3  C   UNL A   1      33.142  26.063  22.587  1.00  0.00     0.202 C 
BRANCH   3   4
ATOM      4  C   UNL A   1      33.722  24.701  23.003  1.00  0.00     0.261 C 
BRANCH   4   5
ATOM      5  O   UNL A   1      34.149  24.444  24.356  1.00  0.00    -0.462 OA
BRANCH   5   6
ATOM      6  C   UNL A   1      34.951  23.399  24.662  1.00  0.00     0.329 C 
ATOM      7  O   UNL A   1      36.167  23.468  24.806  1.00  0.00    -0.250 OA
BRANCH   6   8
ATOM      8  C   UNL A   1      34.178  22.081  24.715  1.00  0.00     0.203 C 
ATOM      9  N   UNL A   1      32.862  22.093  25.440  1.00  0.00    -0.305 N 
ATOM     10  C   UNL A   1      32.028  20.868  25.275  1.00  0.00     0.180 C 
ATOM     11  C   UNL A   1      32.865  19.648  25.033  1.00  0.00     0.081 A 
ATOM     12  C   UNL A   1      35.075  20.860  25.084  1.00  0.00     0.093 C 
ATOM     13  N   UNL A   1      32.381  18.400  24.726  1.00  0.00    -0.240 NA
ATOM     14  C   UNL A   1      34.235  19.653  24.943  1.00  0.00     0.042 A 
ATOM     15  C   UNL A   1      33.446  17.672  24.452  1.00  0.00     0.197 A 
ATOM     16  N   UNL A   1      34.605  18.395  24.571  1.00  0.00    -0.348 N 
ATOM     17  H   UNL A   1      35.522  18.069  24.418  1.00  0.00     0.167 HD
BRANCH   9  18
ATOM     18  C   UNL A   1      32.722  22.757  26.639  1.00  0.00     0.318 C 
ATOM     19  N   UNL A   1      31.790  23.758  26.718  1.00  0.00    -0.338 N 
ATOM     20  H   UNL A   1      31.731  24.206  27.592  1.00  0.00     0.165 HD
ATOM     21  O   UNL A   1      33.306  22.423  27.668  1.00  0.00    -0.249 OA
BRANCH  19  22
ATOM     22  C   UNL A   1      30.877  24.255  25.706  1.00  0.00     0.117 C 
BRANCH  22  23
ATOM     23  C   UNL A   1      30.062  25.498  26.033  1.00  0.00     0.021 C 
BRANCH  23  24
ATOM     24  C   UNL A   1      30.369  26.746  25.197  1.00  0.00     0.002 C 
BRANCH  24  25
ATOM     25  C   UNL A   1      29.705  26.877  23.818  1.00  0.00    -0.003 C 
ATOM     26  C   UNL A   1      28.185  26.796  23.807  1.00  0.00     0.004 C 
ENDBRANCH  24  25
ENDBRANCH  23  24
ENDBRANCH  22  23
ENDBRANCH  19  22
ENDBRANCH   9  18
ENDBRANCH   6   8
ENDBRANCH   5   6
ENDBRANCH   4   5
ENDBRANCH   3   4
ENDBRANCH   2   3
ENDBRANCH   1   2
BRANCH   1  27
ATOM     27  C   UNL A   1      32.581  29.159  23.930  1.00  0.00     0.188 C 
BRANCH  27  28
ATOM     28  O   UNL A   1      33.371  29.651  25.010  1.00  0.00    -0.376 OA
BRANCH  28  29
ATOM     29  C   UNL A   1      32.805  29.995  26.275  1.00  0.00     0.202 C 
BRANCH  29  30
ATOM     30  C   UNL A   1      33.555  30.898  27.252  1.00  0.00     0.261 C 
BRANCH  30  31
ATOM     31  O   UNL A   1      34.892  30.503  27.445  1.00  0.00    -0.460 OA
BRANCH  31  32
ATOM     32  C   UNL A   1      35.672  31.479  27.931  1.00  0.00     0.338 C 
ATOM     33  O   UNL A   1      35.730  32.652  27.555  1.00  0.00    -0.246 OA
BRANCH  32  34
ATOM     34  C   UNL A   1      36.472  30.925  29.020  1.00  0.00     0.060 A 
ATOM     35  C   UNL A   1      37.441  31.775  29.541  1.00  0.00     0.016 A 
ATOM     36  C   UNL A   1      36.512  29.530  29.166  1.00  0.00     0.016 A 
ATOM     37  C   UNL A   1      38.652  31.212  29.818  1.00  0.00     0.010 A 
ATOM     38  C   UNL A   1      37.725  28.969  29.422  1.00  0.00     0.010 A 
ATOM     39  C   UNL A   1      38.794  29.836  29.605  1.00  0.00    -0.014 A 
BRANCH  39  40
ATOM     40  C   UNL A   1      40.123  29.296  29.644  1.00  0.00     0.031 A 
ATOM     41  C   UNL A   1      40.616  29.239  31.028  1.00  0.00     0.074 A 
ATOM     42  C   UNL A   1      40.739  28.861  28.531  1.00  0.00     0.049 A 
ATOM     43  N   UNL A   1      41.490  30.009  31.578  1.00  0.00    -0.248 NA
ATOM     44  C   UNL A   1      39.843  28.422  31.981  1.00  0.00     0.031 C 
ATOM     45  C   UNL A   1      40.174  28.659  27.192  1.00  0.00     0.029 A 
ATOM     46  N   UNL A   1      42.005  28.404  28.394  1.00  0.00    -0.354 N 
ATOM     47  C   UNL A   1      41.576  29.561  32.888  1.00  0.00     0.074 A 
ATOM     48  C   UNL A   1      40.377  28.810  33.137  1.00  0.00     0.031 C 
ATOM     49  C   UNL A   1      41.027  27.901  26.462  1.00  0.00     0.029 A 
ATOM     50  C   UNL A   1      42.237  27.676  27.233  1.00  0.00     0.049 A 
ATOM     51  H   UNL A   1      42.706  28.573  29.064  1.00  0.00     0.167 HD
ATOM     52  C   UNL A   1      42.776  29.547  33.524  1.00  0.00     0.037 A 
ATOM     53  C   UNL A   1      43.317  26.880  27.012  1.00  0.00     0.037 A 
ATOM     54  C   UNL A   1      43.700  30.457  32.888  1.00  0.00     0.049 A 
ATOM     55  C   UNL A   1      44.363  27.300  27.989  1.00  0.00     0.074 A 
ATOM     56  C   UNL A   1      43.682  31.812  32.613  1.00  0.00     0.029 A 
ATOM     57  N   UNL A   1      44.663  29.917  32.069  1.00  0.00    -0.354 N 
ATOM     58  N   UNL A   1      44.968  28.458  27.955  1.00  0.00    -0.248 NA
ATOM     59  C   UNL A   1      44.393  26.624  29.279  1.00  0.00     0.031 C 
ATOM     60  C   UNL A   1      44.306  31.944  31.339  1.00  0.00     0.029 A 
ATOM     61  C   UNL A   1      44.737  30.681  30.932  1.00  0.00     0.049 A 
ATOM     62  H   UNL A   1      45.206  29.119  32.265  1.00  0.00     0.167 HD
ATOM     63  C   UNL A   1      45.079  28.844  29.285  1.00  0.00     0.074 A 
ATOM     64  C   UNL A   1      44.779  27.640  30.056  1.00  0.00     0.031 C 
ATOM     65  C   UNL A   1      45.114  30.164  29.633  1.00  0.00     0.037 A 
BRANCH  52  66
ATOM     66  C   UNL A   1      43.219  28.407  34.412  1.00  0.00     0.058 A 
ATOM     67  C   UNL A   1      43.626  28.702  35.728  1.00  0.00     0.135 A 
ATOM     68  C   UNL A   1      43.526  27.099  33.964  1.00  0.00     0.135 A 
ATOM     69  F   UNL A   1      43.390  29.911  36.261  1.00  0.00    -0.206 F 
ATOM     70  C   UNL A   1      44.353  27.802  36.504  1.00  0.00     0.059 A 
ATOM     71  C   UNL A   1      44.200  26.168  34.741  1.00  0.00     0.059 A 
ATOM     72  F   UNL A   1      43.277  26.670  32.723  1.00  0.00    -0.206 F 
ATOM     73  C   UNL A   1      44.649  26.542  35.992  1.00  0.00     0.060 A 
BRANCH  73  74
ATOM     74  S   UNL A   1      45.661  25.407  36.950  1.00  0.00     0.124 S 
ATOM     75  O   UNL A   1      46.218  24.563  35.901  1.00  0.00    -0.237 OA
ATOM     76  O   UNL A   1      46.592  26.320  37.605  1.00  0.00    -0.237 OA
ATOM     77  O   UNL A   1      44.695  24.764  37.836  1.00  0.00    -0.744 OA
ENDBRANCH  73  74
ENDBRANCH  52  66
BRANCH  53  78
ATOM     78  C   UNL A   1      43.371  25.563  26.316  1.00  0.00     0.058 A 
ATOM     79  C   UNL A   1      44.321  25.331  25.303  1.00  0.00     0.135 A 
ATOM     80  C   UNL A   1      42.716  24.421  26.820  1.00  0.00     0.135 A 
ATOM     81  F   UNL A   1      45.000  26.357  24.767  1.00  0.00    -0.206 F 
ATOM     82  C   UNL A   1      44.657  24.043  24.871  1.00  0.00     0.059 A 
ATOM     83  C   UNL A   1      43.025  23.128  26.396  1.00  0.00     0.059 A 
ATOM     84  F   UNL A   1      41.821  24.513  27.813  1.00  0.00    -0.206 F 
ATOM     85  C   UNL A   1      44.022  22.944  25.446  1.00  0.00     0.060 A 
BRANCH  85  86
ATOM     86  S   UNL A   1      44.597  21.275  25.048  1.00  0.00     0.124 S 
ATOM     87  O   UNL A   1      43.574  20.447  25.677  1.00  0.00    -0.237 OA
ATOM     88  O   UNL A   1      44.600  21.289  23.590  1.00  0.00    -0.237 OA
ATOM     89  O   UNL A   1      45.918  21.216  25.670  1.00  0.00    -0.744 OA
ENDBRANCH  85  86
ENDBRANCH  53  78
BRANCH  65  90
ATOM     90  C   UNL A   1      45.367  31.183  28.552  1.00  0.00     0.058 A 
ATOM     91  C   UNL A   1      44.369  31.796  27.772  1.00  0.00     0.135 A 
ATOM     92  C   UNL A   1      46.676  31.671  28.416  1.00  0.00     0.135 A 
ATOM     93  F   UNL A   1      43.079  31.457  27.912  1.00  0.00    -0.206 F 
ATOM     94  C   UNL A   1      44.670  32.823  26.873  1.00  0.00     0.059 A 
ATOM     95  C   UNL A   1      46.992  32.715  27.553  1.00  0.00     0.059 A 
ATOM     96  F   UNL A   1      47.663  31.167  29.176  1.00  0.00    -0.206 F 
ATOM     97  C   UNL A   1      45.985  33.280  26.774  1.00  0.00     0.060 A 
BRANCH  97  98
ATOM     98  S   UNL A   1      46.365  34.663  25.677  1.00  0.00     0.124 S 
ATOM     99  O   UNL A   1      47.787  34.466  25.416  1.00  0.00    -0.237 OA
ATOM    100  O   UNL A   1      45.473  34.426  24.546  1.00  0.00    -0.237 OA
ATOM    101  O   UNL A   1      46.036  35.838  26.481  1.00  0.00    -0.744 OA
ENDBRANCH  97  98
ENDBRANCH  65  90
ENDBRANCH  39  40
ENDBRANCH  32  34
ENDBRANCH  31  32
ENDBRANCH  30  31
ENDBRANCH  29  30
ENDBRANCH  28  29
ENDBRANCH  27  28
ENDBRANCH   1  27
TORSDOF 25
ENDMDL
MODEL 3
REMARK VINA RESULT:      -8.9      2.182      3.052
REMARK SMILES CCCCCNC(=O)N1Cc2nc[nH]c2C[C@@H]1C(=O)OCCOCCOCCOC(=O)c1ccc(-c2c3nc(c(-c4c(F)cc(S(=O)(=O)[O-])cc4F)c4ccc([nH]4)c(-c4c(F)cc(S(=O)(=O)[O-])cc4F)c4nc(c(-c5c(F)cc(S(=O)(=O)[O-])cc5F)c5ccc2[nH]5)C=C4)C=C3)cc1
REMARK SMILES IDX 24 1 23 2 22 3 21 4 20 5 18 6 19 7 17 8 9 9 10 10 11 11
REMARK SMILES IDX 16 12 12 13 15 14 13 15 14 16 7 18 6 19 8 21 5 22 4 23 3 24
REMARK SMILES IDX 2 25 1 26 25 27 26 28 27 29 28 30 29 31 30 32 31 33 32 34
REMARK SMILES IDX 33 35 97 36 34 37 96 38 35 39 36 40 37 41 90 42 38 43 95 44
REMARK SMILES IDX 89 45 91 46 39 47 94 48 88 49 87 50 40 52 74 53 53 54 73 55
REMARK SMILES IDX 54 56 57 57 72 58 92 59 55 60 56 61 71 63 93 64 58 65 41 66
REMARK SMILES IDX 42 67 51 68 43 69 44 70 50 71 52 72 45 73 46 74 47 75 48 76
REMARK SMILES IDX 49 77 75 78 76 79 85 80 77 81 78 82 84 83 86 84 79 85 80 86
REMARK SMILES IDX 81 87 82 88 83 89 59 90 60 91 69 92 61 93 62 94 68 95 70 96
REMARK SMILES IDX 63 97 64 98 65 99 66 100 67 101
REMARK H PARENT 14 17 6 20 91 51 57 62
REMARK Flexibility Score: inf
ROOT
ATOM      1  C   UNL A   1      33.524  28.634  26.463  1.00  0.00     0.188 C 
ENDROOT
BRANCH   1   2
ATOM      2  O   UNL A   1      32.904  27.472  26.974  1.00  0.00    -0.376 OA
BRANCH   2   3
ATOM      3  C   UNL A   1      31.979  26.856  26.094  1.00  0.00     0.202 C 
BRANCH   3   4
ATOM      4  C   UNL A   1      32.554  26.130  24.867  1.00  0.00     0.261 C 
BRANCH   4   5
ATOM      5  O   UNL A   1      32.829  24.715  24.889  1.00  0.00    -0.462 OA
BRANCH   5   6
ATOM      6  C   UNL A   1      33.493  24.103  23.880  1.00  0.00     0.329 C 
ATOM      7  O   UNL A   1      33.128  24.088  22.710  1.00  0.00    -0.250 OA
BRANCH   6   8
ATOM      8  C   UNL A   1      34.717  23.338  24.383  1.00  0.00     0.203 C 
ATOM      9  N   UNL A   1      34.514  21.894  24.746  1.00  0.00    -0.305 N 
ATOM     10  C   UNL A   1      35.761  21.118  25.005  1.00  0.00     0.180 C 
ATOM     11  C   UNL A   1      36.867  21.987  25.524  1.00  0.00     0.081 A 
ATOM     12  C   UNL A   1      35.541  24.131  25.443  1.00  0.00     0.093 C 
ATOM     13  N   UNL A   1      38.161  21.583  25.740  1.00  0.00    -0.240 NA
ATOM     14  C   UNL A   1      36.762  23.343  25.713  1.00  0.00     0.042 A 
ATOM     15  C   UNL A   1      38.820  22.682  26.049  1.00  0.00     0.197 A 
ATOM     16  N   UNL A   1      38.007  23.786  26.046  1.00  0.00    -0.348 N 
ATOM     17  H   UNL A   1      38.271  24.714  26.244  1.00  0.00     0.167 HD
BRANCH   9  18
ATOM     18  C   UNL A   1      33.400  21.492  25.448  1.00  0.00     0.318 C 
ATOM     19  N   UNL A   1      32.591  20.539  24.886  1.00  0.00    -0.338 N 
ATOM     20  H   UNL A   1      31.805  20.289  25.422  1.00  0.00     0.165 HD
ATOM     21  O   UNL A   1      33.157  21.857  26.596  1.00  0.00    -0.249 OA
BRANCH  19  22
ATOM     22  C   UNL A   1      32.721  19.845  23.618  1.00  0.00     0.117 C 
BRANCH  22  23
ATOM     23  C   UNL A   1      32.159  18.434  23.519  1.00  0.00     0.021 C 
BRANCH  23  24
ATOM     24  C   UNL A   1      32.917  17.351  24.296  1.00  0.00     0.002 C 
BRANCH  24  25
ATOM     25  C   UNL A   1      34.446  17.463  24.392  1.00  0.00    -0.003 C 
ATOM     26  C   UNL A   1      35.148  16.320  25.110  1.00  0.00     0.004 C 
ENDBRANCH  24  25
ENDBRANCH  23  24
ENDBRANCH  22  23
ENDBRANCH  19  22
ENDBRANCH   9  18
ENDBRANCH   6   8
ENDBRANCH   5   6
ENDBRANCH   4   5
ENDBRANCH   3   4
ENDBRANCH   2   3
ENDBRANCH   1   2
BRANCH   1  27
ATOM     27  C   UNL A   1      34.250  29.480  27.516  1.00  0.00     0.188 C 
BRANCH  27  28
ATOM     28  O   UNL A   1      34.787  30.769  27.228  1.00  0.00    -0.376 OA
BRANCH  28  29
ATOM     29  C   UNL A   1      36.111  31.147  27.609  1.00  0.00     0.202 C 
BRANCH  29  30
ATOM     30  C   UNL A   1      36.858  30.394  28.706  1.00  0.00     0.261 C 
BRANCH  30  31
ATOM     31  O   UNL A   1      37.784  31.202  29.391  1.00  0.00    -0.460 OA
BRANCH  31  32
ATOM     32  C   UNL A   1      37.390  31.536  30.628  1.00  0.00     0.338 C 
ATOM     33  O   UNL A   1      36.504  32.333  30.944  1.00  0.00    -0.246 OA
BRANCH  32  34
ATOM     34  C   UNL A   1      38.195  30.781  31.584  1.00  0.00     0.060 A 
ATOM     35  C   UNL A   1      39.442  31.324  31.874  1.00  0.00     0.016 A 
ATOM     36  C   UNL A   1      37.873  29.432  31.797  1.00  0.00     0.016 A 
ATOM     37  C   UNL A   1      40.479  30.441  31.958  1.00  0.00     0.010 A 
ATOM     38  C   UNL A   1      38.909  28.552  31.860  1.00  0.00     0.010 A 
ATOM     39  C   UNL A   1      40.191  29.081  31.799  1.00  0.00    -0.014 A 
BRANCH  39  40
ATOM     40  C   UNL A   1      41.301  28.187  31.627  1.00  0.00     0.031 A 
ATOM     41  C   UNL A   1      41.914  27.871  32.925  1.00  0.00     0.074 A 
ATOM     42  C   UNL A   1      41.629  27.697  30.419  1.00  0.00     0.049 A 
ATOM     43  N   UNL A   1      43.033  28.312  33.388  1.00  0.00    -0.248 NA
ATOM     44  C   UNL A   1      41.054  27.224  33.932  1.00  0.00     0.031 C 
ATOM     45  C   UNL A   1      40.878  27.782  29.162  1.00  0.00     0.029 A 
ATOM     46  N   UNL A   1      42.683  26.916  30.086  1.00  0.00    -0.354 N 
ATOM     47  C   UNL A   1      43.137  27.743  34.649  1.00  0.00     0.074 A 
ATOM     48  C   UNL A   1      41.809  27.341  35.023  1.00  0.00     0.031 C 
ATOM     49  C   UNL A   1      41.381  26.882  28.284  1.00  0.00     0.029 A 
ATOM     50  C   UNL A   1      42.556  26.259  28.868  1.00  0.00     0.049 A 
ATOM     51  H   UNL A   1      43.476  26.820  30.661  1.00  0.00     0.167 HD
ATOM     52  C   UNL A   1      44.347  27.335  35.113  1.00  0.00     0.037 A 
ATOM     53  C   UNL A   1      43.323  25.213  28.459  1.00  0.00     0.037 A 
ATOM     54  C   UNL A   1      45.415  28.002  34.403  1.00  0.00     0.049 A 
ATOM     55  C   UNL A   1      44.553  25.233  29.304  1.00  0.00     0.074 A 
ATOM     56  C   UNL A   1      45.759  29.326  34.203  1.00  0.00     0.029 A 
ATOM     57  N   UNL A   1      46.076  27.287  33.433  1.00  0.00    -0.354 N 
ATOM     58  N   UNL A   1      45.460  26.172  29.246  1.00  0.00    -0.248 NA
ATOM     59  C   UNL A   1      44.536  24.465  30.541  1.00  0.00     0.031 C 
ATOM     60  C   UNL A   1      46.241  29.389  32.864  1.00  0.00     0.029 A 
ATOM     61  C   UNL A   1      46.236  28.097  32.337  1.00  0.00     0.049 A 
ATOM     62  H   UNL A   1      46.383  26.354  33.511  1.00  0.00     0.167 HD
ATOM     63  C   UNL A   1      45.834  26.392  30.566  1.00  0.00     0.074 A 
ATOM     64  C   UNL A   1      45.289  25.257  31.309  1.00  0.00     0.031 C 
ATOM     65  C   UNL A   1      46.291  27.612  30.974  1.00  0.00     0.037 A 
BRANCH  52  66
ATOM     66  C   UNL A   1      44.541  26.042  35.872  1.00  0.00     0.058 A 
ATOM     67  C   UNL A   1      45.258  26.078  37.083  1.00  0.00     0.135 A 
ATOM     68  C   UNL A   1      44.305  24.748  35.347  1.00  0.00     0.135 A 
ATOM     69  F   UNL A   1      45.542  27.249  37.675  1.00  0.00    -0.206 F 
ATOM     70  C   UNL A   1      45.773  24.928  37.679  1.00  0.00     0.059 A 
ATOM     71  C   UNL A   1      44.761  23.587  35.953  1.00  0.00     0.059 A 
ATOM     72  F   UNL A   1      43.702  24.530  34.174  1.00  0.00    -0.206 F 
ATOM     73  C   UNL A   1      45.531  23.689  37.095  1.00  0.00     0.060 A 
BRANCH  73  74
ATOM     74  S   UNL A   1      46.265  22.211  37.807  1.00  0.00     0.124 S 
ATOM     75  O   UNL A   1      45.900  21.204  36.819  1.00  0.00    -0.237 OA
ATOM     76  O   UNL A   1      47.677  22.577  37.862  1.00  0.00    -0.237 OA
ATOM     77  O   UNL A   1      45.602  22.099  39.103  1.00  0.00    -0.744 OA
ENDBRANCH  73  74
ENDBRANCH  52  66
BRANCH  53  78
ATOM     78  C   UNL A   1      42.911  24.002  27.696  1.00  0.00     0.058 A 
ATOM     79  C   UNL A   1      43.676  23.554  26.602  1.00  0.00     0.135 A 
ATOM     80  C   UNL A   1      41.953  23.094  28.191  1.00  0.00     0.135 A 
ATOM     81  F   UNL A   1      44.618  24.346  26.068  1.00  0.00    -0.206 F 
ATOM     82  C   UNL A   1      43.554  22.261  26.082  1.00  0.00     0.059 A 
ATOM     83  C   UNL A   1      41.804  21.805  27.679  1.00  0.00     0.059 A 
ATOM     84  F   UNL A   1      41.192  23.394  29.253  1.00  0.00    -0.206 F 
ATOM     85  C   UNL A   1      42.632  21.382  26.647  1.00  0.00     0.060 A 
BRANCH  85  86
ATOM     86  S   UNL A   1      42.615  19.651  26.123  1.00  0.00     0.124 S 
ATOM     87  O   UNL A   1      42.494  18.951  27.398  1.00  0.00    -0.237 OA
ATOM     88  O   UNL A   1      41.444  19.603  25.255  1.00  0.00    -0.237 OA
ATOM     89  O   UNL A   1      43.898  19.491  25.443  1.00  0.00    -0.744 OA
ENDBRANCH  85  86
ENDBRANCH  53  78
BRANCH  65  90
ATOM     90  C   UNL A   1      46.701  28.611  29.923  1.00  0.00     0.058 A 
ATOM     91  C   UNL A   1      45.852  29.576  29.351  1.00  0.00     0.135 A 
ATOM     92  C   UNL A   1      48.065  28.686  29.598  1.00  0.00     0.135 A 
ATOM     93  F   UNL A   1      44.554  29.635  29.684  1.00  0.00    -0.206 F 
ATOM     94  C   UNL A   1      46.335  30.549  28.472  1.00  0.00     0.059 A 
ATOM     95  C   UNL A   1      48.572  29.667  28.753  1.00  0.00     0.059 A 
ATOM     96  F   UNL A   1      48.937  27.830  30.157  1.00  0.00    -0.206 F 
ATOM     97  C   UNL A   1      47.699  30.589  28.182  1.00  0.00     0.060 A 
BRANCH  97  98
ATOM     98  S   UNL A   1      48.342  31.895  27.113  1.00  0.00     0.124 S 
ATOM     99  O   UNL A   1      48.556  32.987  28.056  1.00  0.00    -0.237 OA
ATOM    100  O   UNL A   1      49.548  31.288  26.559  1.00  0.00    -0.237 OA
ATOM    101  O   UNL A   1      47.264  32.108  26.148  1.00  0.00    -0.744 OA
ENDBRANCH  97  98
ENDBRANCH  65  90
ENDBRANCH  39  40
ENDBRANCH  32  34
ENDBRANCH  31  32
ENDBRANCH  30  31
ENDBRANCH  29  30
ENDBRANCH  28  29
ENDBRANCH  27  28
ENDBRANCH   1  27
TORSDOF 25
ENDMDL
