MODEL 1
REMARK VINA RESULT:      -8.9      0.000      0.000
REMARK SMILES C[C@H](C[N@H+](C)[C@H]1CC[C@H]([NH3+])CC1)C(=O)OCCOCCOCCOC(=O)c1ccc(-c2c3nc(c(-c4c(F)cc(S(=O)(=O)[O-])cc4F)c4ccc([nH]4)c(-c4c(F)cc(S(=O)(=O)[O-])cc4F)c4nc(c(-c5c(F)cc(S(=O)(=O)[O-])cc5F)c5ccc2[nH]5)C=C4)C=C3)cc1
REMARK SMILES IDX 19 1 18 2 17 3 16 4 15 5 13 6 14 7 2 8 1 9 3 10 4 11 5 12
REMARK SMILES IDX 6 14 7 15 12 16 8 17 11 18 9 19 10 20 20 24 21 25 22 26
REMARK SMILES IDX 23 27 24 28 25 29 26 30 27 31 28 32 92 33 29 34 91 35 30 36
REMARK SMILES IDX 31 37 32 38 85 39 33 40 90 41 84 42 86 43 34 44 89 45 83 46
REMARK SMILES IDX 82 47 35 49 69 50 48 51 68 52 49 53 52 54 67 55 87 56 50 57
REMARK SMILES IDX 51 58 66 60 88 61 53 62 36 63 37 64 46 65 38 66 39 67 45 68
REMARK SMILES IDX 47 69 40 70 41 71 42 72 43 73 44 74 70 75 71 76 80 77 72 78
REMARK SMILES IDX 73 79 79 80 81 81 74 82 75 83 76 84 77 85 78 86 54 87 55 88
REMARK SMILES IDX 64 89 56 90 57 91 63 92 65 93 58 94 59 95 60 96 61 97 62 98
REMARK H PARENT 4 13 10 21 10 22 10 23 86 48 52 59
REMARK Flexibility Score: inf
ROOT
ATOM      1  C   UNL A   1      34.568  21.643  26.856  1.00  0.00     0.188 C 
ENDROOT
BRANCH   1   2
ATOM      2  O   UNL A   1      33.216  21.219  26.735  1.00  0.00    -0.376 OA
BRANCH   2   3
ATOM      3  C   UNL A   1      32.660  21.050  25.435  1.00  0.00     0.202 C 
BRANCH   3   4
ATOM      4  C   UNL A   1      31.539  22.003  24.991  1.00  0.00     0.261 C 
BRANCH   4   5
ATOM      5  O   UNL A   1      32.008  23.277  24.499  1.00  0.00    -0.463 OA
BRANCH   5   6
ATOM      6  C   UNL A   1      31.093  24.120  23.952  1.00  0.00     0.314 C 
ATOM      7  O   UNL A   1      30.244  23.753  23.147  1.00  0.00    -0.252 OA
BRANCH   6   8
ATOM      8  C   UNL A   1      31.134  25.551  24.531  1.00  0.00     0.151 C 
ATOM      9  C   UNL A   1      29.731  26.182  24.575  1.00  0.00     0.026 C 
BRANCH   8  10
ATOM     10  C   UNL A   1      32.208  26.570  24.042  1.00  0.00     0.277 C 
BRANCH  10  11
ATOM     11  N   UNL A   1      32.039  28.026  23.980  1.00  0.00    -0.334 N 
ATOM     12  C   UNL A   1      31.780  28.567  22.661  1.00  0.00     0.332 C 
ATOM     13  H   UNL A   1      31.121  28.151  24.406  1.00  0.00     0.348 HD
BRANCH  11  14
ATOM     14  C   UNL A   1      32.736  28.844  24.961  1.00  0.00     0.184 C 
ATOM     15  C   UNL A   1      33.751  28.074  25.836  1.00  0.00     0.071 C 
ATOM     16  C   UNL A   1      31.795  29.616  25.893  1.00  0.00     0.071 C 
ATOM     17  C   UNL A   1      34.523  29.031  26.761  1.00  0.00     0.071 C 
ATOM     18  C   UNL A   1      32.580  30.642  26.694  1.00  0.00     0.071 C 
ATOM     19  C   UNL A   1      33.588  29.928  27.587  1.00  0.00     0.181 C 
BRANCH  19  20
ATOM     20  N   UNL A   1      34.337  30.923  28.348  1.00  0.00    -0.355 N 
ATOM     21  H   UNL A   1      35.066  31.324  27.759  1.00  0.00     0.344 HD
ATOM     22  H   UNL A   1      34.763  30.480  29.162  1.00  0.00     0.344 HD
ATOM     23  H   UNL A   1      33.704  31.663  28.656  1.00  0.00     0.344 HD
ENDBRANCH  19  20
ENDBRANCH  11  14
ENDBRANCH  10  11
ENDBRANCH   8  10
ENDBRANCH   6   8
ENDBRANCH   5   6
ENDBRANCH   4   5
ENDBRANCH   3   4
ENDBRANCH   2   3
ENDBRANCH   1   2
BRANCH   1  24
ATOM     24  C   UNL A   1      34.942  23.029  26.316  1.00  0.00     0.188 C 
BRANCH  24  25
ATOM     25  O   UNL A   1      35.516  23.024  25.028  1.00  0.00    -0.376 OA
BRANCH  25  26
ATOM     26  C   UNL A   1      36.214  21.856  24.641  1.00  0.00     0.202 C 
BRANCH  26  27
ATOM     27  C   UNL A   1      37.695  21.729  25.041  1.00  0.00     0.261 C 
BRANCH  27  28
ATOM     28  O   UNL A   1      38.367  22.934  25.457  1.00  0.00    -0.460 OA
BRANCH  28  29
ATOM     29  C   UNL A   1      39.428  22.814  26.295  1.00  0.00     0.338 C 
ATOM     30  O   UNL A   1      40.232  21.905  26.316  1.00  0.00    -0.246 OA
BRANCH  29  31
ATOM     31  C   UNL A   1      39.596  24.122  26.990  1.00  0.00     0.060 A 
ATOM     32  C   UNL A   1      40.273  25.164  26.335  1.00  0.00     0.016 A 
ATOM     33  C   UNL A   1      39.041  24.339  28.252  1.00  0.00     0.016 A 
ATOM     34  C   UNL A   1      40.416  26.413  26.950  1.00  0.00     0.010 A 
ATOM     35  C   UNL A   1      39.210  25.580  28.878  1.00  0.00     0.010 A 
ATOM     36  C   UNL A   1      39.922  26.616  28.245  1.00  0.00    -0.014 A 
BRANCH  36  37
ATOM     37  C   UNL A   1      40.322  27.818  29.025  1.00  0.00     0.031 A 
ATOM     38  C   UNL A   1      41.655  27.792  29.727  1.00  0.00     0.074 A 
ATOM     39  C   UNL A   1      39.534  28.905  29.124  1.00  0.00     0.049 A 
ATOM     40  N   UNL A   1      42.185  28.664  30.545  1.00  0.00    -0.248 NA
ATOM     41  C   UNL A   1      42.502  26.614  29.472  1.00  0.00     0.031 C 
ATOM     42  C   UNL A   1      38.245  29.082  28.461  1.00  0.00     0.029 A 
ATOM     43  N   UNL A   1      39.703  30.065  29.843  1.00  0.00    -0.354 N 
ATOM     44  C   UNL A   1      43.417  28.137  30.913  1.00  0.00     0.074 A 
ATOM     45  C   UNL A   1      43.546  26.856  30.250  1.00  0.00     0.031 C 
ATOM     46  C   UNL A   1      37.728  30.272  28.820  1.00  0.00     0.029 A 
ATOM     47  C   UNL A   1      38.632  30.925  29.768  1.00  0.00     0.049 A 
ATOM     48  H   UNL A   1      40.516  30.262  30.362  1.00  0.00     0.167 HD
ATOM     49  C   UNL A   1      44.360  28.670  31.725  1.00  0.00     0.037 A 
ATOM     50  C   UNL A   1      38.395  32.087  30.413  1.00  0.00     0.037 A 
ATOM     51  C   UNL A   1      44.230  29.942  32.386  1.00  0.00     0.049 A 
ATOM     52  C   UNL A   1      39.427  32.627  31.375  1.00  0.00     0.074 A 
ATOM     53  C   UNL A   1      45.137  30.575  33.218  1.00  0.00     0.029 A 
ATOM     54  N   UNL A   1      43.121  30.771  32.301  1.00  0.00    -0.354 N 
ATOM     55  N   UNL A   1      40.596  32.129  31.701  1.00  0.00    -0.248 NA
ATOM     56  C   UNL A   1      39.107  33.891  32.058  1.00  0.00     0.031 C 
ATOM     57  C   UNL A   1      44.554  31.758  33.680  1.00  0.00     0.029 A 
ATOM     58  C   UNL A   1      43.310  31.896  33.087  1.00  0.00     0.049 A 
ATOM     59  H   UNL A   1      42.318  30.586  31.762  1.00  0.00     0.167 HD
ATOM     60  C   UNL A   1      41.162  33.032  32.598  1.00  0.00     0.074 A 
ATOM     61  C   UNL A   1      40.212  34.112  32.756  1.00  0.00     0.031 C 
ATOM     62  C   UNL A   1      42.362  32.974  33.228  1.00  0.00     0.037 A 
BRANCH  49  63
ATOM     63  C   UNL A   1      45.606  27.863  31.970  1.00  0.00     0.058 A 
ATOM     64  C   UNL A   1      46.758  28.020  31.184  1.00  0.00     0.135 A 
ATOM     65  C   UNL A   1      45.658  26.942  33.030  1.00  0.00     0.135 A 
ATOM     66  F   UNL A   1      46.758  28.871  30.146  1.00  0.00    -0.206 F 
ATOM     67  C   UNL A   1      47.909  27.276  31.424  1.00  0.00     0.059 A 
ATOM     68  C   UNL A   1      46.809  26.209  33.307  1.00  0.00     0.059 A 
ATOM     69  F   UNL A   1      44.583  26.748  33.810  1.00  0.00    -0.206 F 
ATOM     70  C   UNL A   1      47.925  26.374  32.490  1.00  0.00     0.060 A 
BRANCH  70  71
ATOM     71  S   UNL A   1      49.430  25.425  32.792  1.00  0.00     0.124 S 
ATOM     72  O   UNL A   1      49.819  25.056  31.434  1.00  0.00    -0.237 OA
ATOM     73  O   UNL A   1      50.288  26.403  33.452  1.00  0.00    -0.237 OA
ATOM     74  O   UNL A   1      48.974  24.324  33.635  1.00  0.00    -0.744 OA
ENDBRANCH  70  71
ENDBRANCH  49  63
BRANCH  50  75
ATOM     75  C   UNL A   1      37.116  32.820  30.191  1.00  0.00     0.058 A 
ATOM     76  C   UNL A   1      36.978  33.740  29.140  1.00  0.00     0.135 A 
ATOM     77  C   UNL A   1      36.012  32.632  31.038  1.00  0.00     0.135 A 
ATOM     78  F   UNL A   1      38.009  33.972  28.313  1.00  0.00    -0.206 F 
ATOM     79  C   UNL A   1      35.800  34.457  28.946  1.00  0.00     0.059 A 
ATOM     80  C   UNL A   1      34.814  33.314  30.847  1.00  0.00     0.059 A 
ATOM     81  F   UNL A   1      36.089  31.763  32.059  1.00  0.00    -0.206 F 
ATOM     82  C   UNL A   1      34.722  34.234  29.803  1.00  0.00     0.060 A 
BRANCH  82  83
ATOM     83  S   UNL A   1      33.185  35.138  29.514  1.00  0.00     0.124 S 
ATOM     84  O   UNL A   1      33.684  36.448  29.115  1.00  0.00    -0.237 OA
ATOM     85  O   UNL A   1      32.559  34.345  28.460  1.00  0.00    -0.237 OA
ATOM     86  O   UNL A   1      32.515  35.086  30.810  1.00  0.00    -0.744 OA
ENDBRANCH  82  83
ENDBRANCH  50  75
BRANCH  62  87
ATOM     87  C   UNL A   1      42.748  34.131  34.114  1.00  0.00     0.058 A 
ATOM     88  C   UNL A   1      42.501  34.127  35.495  1.00  0.00     0.135 A 
ATOM     89  C   UNL A   1      43.436  35.233  33.577  1.00  0.00     0.135 A 
ATOM     90  F   UNL A   1      41.845  33.102  36.061  1.00  0.00    -0.206 F 
ATOM     91  C   UNL A   1      42.898  35.185  36.309  1.00  0.00     0.059 A 
ATOM     92  C   UNL A   1      43.871  36.286  34.377  1.00  0.00     0.059 A 
ATOM     93  F   UNL A   1      43.713  35.284  32.265  1.00  0.00    -0.206 F 
ATOM     94  C   UNL A   1      43.585  36.259  35.741  1.00  0.00     0.060 A 
BRANCH  94  95
ATOM     95  S   UNL A   1      44.125  37.608  36.814  1.00  0.00     0.124 S 
ATOM     96  O   UNL A   1      44.140  38.733  35.887  1.00  0.00    -0.237 OA
ATOM     97  O   UNL A   1      43.077  37.635  37.830  1.00  0.00    -0.237 OA
ATOM     98  O   UNL A   1      45.435  37.165  37.285  1.00  0.00    -0.744 OA
ENDBRANCH  94  95
ENDBRANCH  62  87
ENDBRANCH  36  37
ENDBRANCH  29  31
ENDBRANCH  28  29
ENDBRANCH  27  28
ENDBRANCH  26  27
ENDBRANCH  25  26
ENDBRANCH  24  25
ENDBRANCH   1  24
TORSDOF 24
ENDMDL
MODEL 2
REMARK VINA RESULT:      -8.8      2.677      3.702
REMARK SMILES C[C@H](C[N@H+](C)[C@H]1CC[C@H]([NH3+])CC1)C(=O)OCCOCCOCCOC(=O)c1ccc(-c2c3nc(c(-c4c(F)cc(S(=O)(=O)[O-])cc4F)c4ccc([nH]4)c(-c4c(F)cc(S(=O)(=O)[O-])cc4F)c4nc(c(-c5c(F)cc(S(=O)(=O)[O-])cc5F)c5ccc2[nH]5)C=C4)C=C3)cc1
REMARK SMILES IDX 19 1 18 2 17 3 16 4 15 5 13 6 14 7 2 8 1 9 3 10 4 11 5 12
REMARK SMILES IDX 6 14 7 15 12 16 8 17 11 18 9 19 10 20 20 24 21 25 22 26
REMARK SMILES IDX 23 27 24 28 25 29 26 30 27 31 28 32 92 33 29 34 91 35 30 36
REMARK SMILES IDX 31 37 32 38 85 39 33 40 90 41 84 42 86 43 34 44 89 45 83 46
REMARK SMILES IDX 82 47 35 49 69 50 48 51 68 52 49 53 52 54 67 55 87 56 50 57
REMARK SMILES IDX 51 58 66 60 88 61 53 62 36 63 37 64 46 65 38 66 39 67 45 68
REMARK SMILES IDX 47 69 40 70 41 71 42 72 43 73 44 74 70 75 71 76 80 77 72 78
REMARK SMILES IDX 73 79 79 80 81 81 74 82 75 83 76 84 77 85 78 86 54 87 55 88
REMARK SMILES IDX 64 89 56 90 57 91 63 92 65 93 58 94 59 95 60 96 61 97 62 98
REMARK H PARENT 4 13 10 21 10 22 10 23 86 48 52 59
REMARK Flexibility Score: inf
ROOT
ATOM      1  C   UNL A   1      35.997  23.452  24.149  1.00  0.00     0.188 C 
ENDROOT
BRANCH   1   2
ATOM      2  O   UNL A   1      35.307  23.186  22.933  1.00  0.00    -0.376 OA
BRANCH   2   3
ATOM      3  C   UNL A   1      33.976  22.683  22.991  1.00  0.00     0.202 C 
BRANCH   3   4
ATOM      4  C   UNL A   1      32.946  23.224  21.987  1.00  0.00     0.261 C 
BRANCH   4   5
ATOM      5  O   UNL A   1      32.423  24.528  22.323  1.00  0.00    -0.463 OA
BRANCH   5   6
ATOM      6  C   UNL A   1      32.803  25.579  21.550  1.00  0.00     0.314 C 
ATOM      7  O   UNL A   1      33.041  25.475  20.352  1.00  0.00    -0.252 OA
BRANCH   6   8
ATOM      8  C   UNL A   1      32.783  26.937  22.285  1.00  0.00     0.151 C 
ATOM      9  C   UNL A   1      34.092  27.180  23.055  1.00  0.00     0.026 C 
BRANCH   8  10
ATOM     10  C   UNL A   1      31.536  27.365  23.118  1.00  0.00     0.277 C 
BRANCH  10  11
ATOM     11  N   UNL A   1      31.323  27.084  24.542  1.00  0.00    -0.334 N 
ATOM     12  C   UNL A   1      30.224  26.189  24.843  1.00  0.00     0.332 C 
ATOM     13  H   UNL A   1      32.112  26.474  24.758  1.00  0.00     0.348 HD
BRANCH  11  14
ATOM     14  C   UNL A   1      31.696  28.105  25.511  1.00  0.00     0.184 C 
ATOM     15  C   UNL A   1      31.933  29.508  24.907  1.00  0.00     0.071 C 
ATOM     16  C   UNL A   1      32.925  27.733  26.349  1.00  0.00     0.071 C 
ATOM     17  C   UNL A   1      32.207  30.546  26.009  1.00  0.00     0.071 C 
ATOM     18  C   UNL A   1      33.082  28.709  27.504  1.00  0.00     0.071 C 
ATOM     19  C   UNL A   1      33.334  30.110  26.958  1.00  0.00     0.181 C 
BRANCH  19  20
ATOM     20  N   UNL A   1      33.480  31.036  28.076  1.00  0.00    -0.355 N 
ATOM     21  H   UNL A   1      32.572  31.439  28.305  1.00  0.00     0.344 HD
ATOM     22  H   UNL A   1      34.128  31.781  27.819  1.00  0.00     0.344 HD
ATOM     23  H   UNL A   1      33.844  30.535  28.888  1.00  0.00     0.344 HD
ENDBRANCH  19  20
ENDBRANCH  11  14
ENDBRANCH  10  11
ENDBRANCH   8  10
ENDBRANCH   6   8
ENDBRANCH   5   6
ENDBRANCH   4   5
ENDBRANCH   3   4
ENDBRANCH   2   3
ENDBRANCH   1   2
BRANCH   1  24
ATOM     24  C   UNL A   1      37.210  22.581  24.497  1.00  0.00     0.188 C 
BRANCH  24  25
ATOM     25  O   UNL A   1      37.665  22.708  25.826  1.00  0.00    -0.376 OA
BRANCH  25  26
ATOM     26  C   UNL A   1      39.016  22.370  26.076  1.00  0.00     0.202 C 
BRANCH  26  27
ATOM     27  C   UNL A   1      39.773  23.163  27.156  1.00  0.00     0.261 C 
BRANCH  27  28
ATOM     28  O   UNL A   1      41.046  23.727  26.784  1.00  0.00    -0.460 OA
BRANCH  28  29
ATOM     29  C   UNL A   1      41.064  25.000  26.311  1.00  0.00     0.338 C 
ATOM     30  O   UNL A   1      40.900  25.344  25.159  1.00  0.00    -0.246 OA
BRANCH  29  31
ATOM     31  C   UNL A   1      41.039  25.912  27.489  1.00  0.00     0.060 A 
ATOM     32  C   UNL A   1      39.898  25.944  28.308  1.00  0.00     0.016 A 
ATOM     33  C   UNL A   1      42.152  26.688  27.819  1.00  0.00     0.016 A 
ATOM     34  C   UNL A   1      39.860  26.767  29.440  1.00  0.00     0.010 A 
ATOM     35  C   UNL A   1      42.101  27.532  28.935  1.00  0.00     0.010 A 
ATOM     36  C   UNL A   1      40.946  27.599  29.736  1.00  0.00    -0.014 A 
BRANCH  36  37
ATOM     37  C   UNL A   1      40.811  28.687  30.742  1.00  0.00     0.031 A 
ATOM     38  C   UNL A   1      41.711  28.647  31.951  1.00  0.00     0.074 A 
ATOM     39  C   UNL A   1      39.915  29.683  30.608  1.00  0.00     0.049 A 
ATOM     40  N   UNL A   1      41.720  29.413  33.010  1.00  0.00    -0.248 NA
ATOM     41  C   UNL A   1      42.738  27.591  31.962  1.00  0.00     0.031 C 
ATOM     42  C   UNL A   1      39.017  29.868  29.470  1.00  0.00     0.029 A 
ATOM     43  N   UNL A   1      39.604  30.721  31.453  1.00  0.00    -0.354 N 
ATOM     44  C   UNL A   1      42.740  28.926  33.820  1.00  0.00     0.074 A 
ATOM     45  C   UNL A   1      43.310  27.781  33.141  1.00  0.00     0.031 C 
ATOM     46  C   UNL A   1      38.241  30.943  29.698  1.00  0.00     0.029 A 
ATOM     47  C   UNL A   1      38.560  31.501  31.013  1.00  0.00     0.049 A 
ATOM     48  H   UNL A   1      40.085  30.892  32.295  1.00  0.00     0.167 HD
ATOM     49  C   UNL A   1      43.168  29.390  35.017  1.00  0.00     0.037 A 
ATOM     50  C   UNL A   1      37.916  32.524  31.615  1.00  0.00     0.037 A 
ATOM     51  C   UNL A   1      42.598  30.527  35.693  1.00  0.00     0.049 A 
ATOM     52  C   UNL A   1      38.359  32.977  32.986  1.00  0.00     0.074 A 
ATOM     53  C   UNL A   1      42.972  31.084  36.903  1.00  0.00     0.029 A 
ATOM     54  N   UNL A   1      41.528  31.274  35.224  1.00  0.00    -0.354 N 
ATOM     55  N   UNL A   1      39.336  32.521  33.733  1.00  0.00    -0.248 NA
ATOM     56  C   UNL A   1      37.611  34.088  33.596  1.00  0.00     0.031 C 
ATOM     57  C   UNL A   1      42.093  32.131  37.192  1.00  0.00     0.029 A 
ATOM     58  C   UNL A   1      41.212  32.270  36.133  1.00  0.00     0.049 A 
ATOM     59  H   UNL A   1      41.062  31.120  34.370  1.00  0.00     0.167 HD
ATOM     60  C   UNL A   1      39.340  33.308  34.882  1.00  0.00     0.074 A 
ATOM     61  C   UNL A   1      38.275  34.275  34.728  1.00  0.00     0.031 C 
ATOM     62  C   UNL A   1      40.156  33.238  35.965  1.00  0.00     0.037 A 
BRANCH  49  63
ATOM     63  C   UNL A   1      44.290  28.649  35.691  1.00  0.00     0.058 A 
ATOM     64  C   UNL A   1      45.632  29.029  35.532  1.00  0.00     0.135 A 
ATOM     65  C   UNL A   1      44.014  27.561  36.537  1.00  0.00     0.135 A 
ATOM     66  F   UNL A   1      45.955  30.048  34.720  1.00  0.00    -0.206 F 
ATOM     67  C   UNL A   1      46.662  28.343  36.167  1.00  0.00     0.059 A 
ATOM     68  C   UNL A   1      45.027  26.879  37.206  1.00  0.00     0.059 A 
ATOM     69  F   UNL A   1      42.749  27.152  36.721  1.00  0.00    -0.206 F 
ATOM     70  C   UNL A   1      46.349  27.270  37.004  1.00  0.00     0.060 A 
BRANCH  70  71
ATOM     71  S   UNL A   1      47.697  26.398  37.827  1.00  0.00     0.124 S 
ATOM     72  O   UNL A   1      48.564  27.505  38.219  1.00  0.00    -0.237 OA
ATOM     73  O   UNL A   1      47.008  25.718  38.919  1.00  0.00    -0.237 OA
ATOM     74  O   UNL A   1      48.226  25.526  36.784  1.00  0.00    -0.744 OA
ENDBRANCH  70  71
ENDBRANCH  49  63
BRANCH  50  75
ATOM     75  C   UNL A   1      36.764  33.187  30.938  1.00  0.00     0.058 A 
ATOM     76  C   UNL A   1      35.443  32.937  31.341  1.00  0.00     0.135 A 
ATOM     77  C   UNL A   1      36.959  34.066  29.861  1.00  0.00     0.135 A 
ATOM     78  F   UNL A   1      35.199  32.090  32.352  1.00  0.00    -0.206 F 
ATOM     79  C   UNL A   1      34.359  33.522  30.693  1.00  0.00     0.059 A 
ATOM     80  C   UNL A   1      35.894  34.686  29.216  1.00  0.00     0.059 A 
ATOM     81  F   UNL A   1      38.203  34.341  29.435  1.00  0.00    -0.206 F 
ATOM     82  C   UNL A   1      34.595  34.399  29.633  1.00  0.00     0.060 A 
BRANCH  82  83
ATOM     83  S   UNL A   1      33.181  35.185  28.829  1.00  0.00     0.124 S 
ATOM     84  O   UNL A   1      32.665  34.096  28.008  1.00  0.00    -0.237 OA
ATOM     85  O   UNL A   1      32.357  35.571  29.970  1.00  0.00    -0.237 OA
ATOM     86  O   UNL A   1      33.785  36.295  28.097  1.00  0.00    -0.744 OA
ENDBRANCH  82  83
ENDBRANCH  50  75
BRANCH  62  87
ATOM     87  C   UNL A   1      39.969  34.263  37.053  1.00  0.00     0.058 A 
ATOM     88  C   UNL A   1      40.505  35.558  36.958  1.00  0.00     0.135 A 
ATOM     89  C   UNL A   1      39.185  33.963  38.180  1.00  0.00     0.135 A 
ATOM     90  F   UNL A   1      41.264  35.898  35.906  1.00  0.00    -0.206 F 
ATOM     91  C   UNL A   1      40.292  36.508  37.953  1.00  0.00     0.059 A 
ATOM     92  C   UNL A   1      38.932  34.908  39.171  1.00  0.00     0.059 A 
ATOM     93  F   UNL A   1      38.636  32.746  38.318  1.00  0.00    -0.206 F 
ATOM     94  C   UNL A   1      39.501  36.175  39.054  1.00  0.00     0.060 A 
BRANCH  94  95
ATOM     95  S   UNL A   1      39.205  37.429  40.319  1.00  0.00     0.124 S 
ATOM     96  O   UNL A   1      38.630  36.631  41.396  1.00  0.00    -0.237 OA
ATOM     97  O   UNL A   1      40.546  37.951  40.561  1.00  0.00    -0.237 OA
ATOM     98  O   UNL A   1      38.285  38.359  39.668  1.00  0.00    -0.744 OA
ENDBRANCH  94  95
ENDBRANCH  62  87
ENDBRANCH  36  37
ENDBRANCH  29  31
ENDBRANCH  28  29
ENDBRANCH  27  28
ENDBRANCH  26  27
ENDBRANCH  25  26
ENDBRANCH  24  25
ENDBRANCH   1  24
TORSDOF 24
ENDMDL
MODEL 3
REMARK VINA RESULT:      -8.5      1.419      2.363
REMARK SMILES C[C@H](C[N@H+](C)[C@H]1CC[C@H]([NH3+])CC1)C(=O)OCCOCCOCCOC(=O)c1ccc(-c2c3nc(c(-c4c(F)cc(S(=O)(=O)[O-])cc4F)c4ccc([nH]4)c(-c4c(F)cc(S(=O)(=O)[O-])cc4F)c4nc(c(-c5c(F)cc(S(=O)(=O)[O-])cc5F)c5ccc2[nH]5)C=C4)C=C3)cc1
REMARK SMILES IDX 19 1 18 2 17 3 16 4 15 5 13 6 14 7 2 8 1 9 3 10 4 11 5 12
REMARK SMILES IDX 6 14 7 15 12 16 8 17 11 18 9 19 10 20 20 24 21 25 22 26
REMARK SMILES IDX 23 27 24 28 25 29 26 30 27 31 28 32 92 33 29 34 91 35 30 36
REMARK SMILES IDX 31 37 32 38 85 39 33 40 90 41 84 42 86 43 34 44 89 45 83 46
REMARK SMILES IDX 82 47 35 49 69 50 48 51 68 52 49 53 52 54 67 55 87 56 50 57
REMARK SMILES IDX 51 58 66 60 88 61 53 62 36 63 37 64 46 65 38 66 39 67 45 68
REMARK SMILES IDX 47 69 40 70 41 71 42 72 43 73 44 74 70 75 71 76 80 77 72 78
REMARK SMILES IDX 73 79 79 80 81 81 74 82 75 83 76 84 77 85 78 86 54 87 55 88
REMARK SMILES IDX 64 89 56 90 57 91 63 92 65 93 58 94 59 95 60 96 61 97 62 98
REMARK H PARENT 4 13 10 21 10 22 10 23 86 48 52 59
REMARK Flexibility Score: inf
ROOT
ATOM      1  C   UNL A   1      34.021  23.202  24.594  1.00  0.00     0.188 C 
ENDROOT
BRANCH   1   2
ATOM      2  O   UNL A   1      33.666  22.876  25.933  1.00  0.00    -0.376 OA
BRANCH   2   3
ATOM      3  C   UNL A   1      32.839  23.775  26.665  1.00  0.00     0.202 C 
BRANCH   3   4
ATOM      4  C   UNL A   1      31.314  23.631  26.539  1.00  0.00     0.261 C 
BRANCH   4   5
ATOM      5  O   UNL A   1      30.579  24.828  26.878  1.00  0.00    -0.463 OA
BRANCH   5   6
ATOM      6  C   UNL A   1      30.487  25.802  25.935  1.00  0.00     0.314 C 
ATOM      7  O   UNL A   1      29.505  25.943  25.214  1.00  0.00    -0.252 OA
BRANCH   6   8
ATOM      8  C   UNL A   1      31.672  26.792  25.939  1.00  0.00     0.151 C 
ATOM      9  C   UNL A   1      31.595  27.759  27.134  1.00  0.00     0.026 C 
BRANCH   8  10
ATOM     10  C   UNL A   1      32.090  27.528  24.629  1.00  0.00     0.277 C 
BRANCH  10  11
ATOM     11  N   UNL A   1      31.303  27.582  23.392  1.00  0.00    -0.334 N 
ATOM     12  C   UNL A   1      31.850  26.842  22.274  1.00  0.00     0.332 C 
ATOM     13  H   UNL A   1      30.504  26.991  23.623  1.00  0.00     0.348 HD
BRANCH  11  14
ATOM     14  C   UNL A   1      30.500  28.769  23.136  1.00  0.00     0.184 C 
ATOM     15  C   UNL A   1      30.513  29.812  24.276  1.00  0.00     0.071 C 
ATOM     16  C   UNL A   1      29.038  28.456  22.793  1.00  0.00     0.071 C 
ATOM     17  C   UNL A   1      29.737  31.080  23.876  1.00  0.00     0.071 C 
ATOM     18  C   UNL A   1      28.345  29.707  22.278  1.00  0.00     0.071 C 
ATOM     19  C   UNL A   1      28.319  30.765  23.376  1.00  0.00     0.181 C 
BRANCH  19  20
ATOM     20  N   UNL A   1      27.654  31.961  22.868  1.00  0.00    -0.355 N 
ATOM     21  H   UNL A   1      26.654  31.780  22.774  1.00  0.00     0.344 HD
ATOM     22  H   UNL A   1      28.043  32.205  21.957  1.00  0.00     0.344 HD
ATOM     23  H   UNL A   1      27.800  32.733  23.519  1.00  0.00     0.344 HD
ENDBRANCH  19  20
ENDBRANCH  11  14
ENDBRANCH  10  11
ENDBRANCH   8  10
ENDBRANCH   6   8
ENDBRANCH   5   6
ENDBRANCH   4   5
ENDBRANCH   3   4
ENDBRANCH   2   3
ENDBRANCH   1   2
BRANCH   1  24
ATOM     24  C   UNL A   1      34.782  22.153  23.773  1.00  0.00     0.188 C 
BRANCH  24  25
ATOM     25  O   UNL A   1      36.114  21.938  24.181  1.00  0.00    -0.376 OA
BRANCH  25  26
ATOM     26  C   UNL A   1      36.990  23.048  24.126  1.00  0.00     0.202 C 
BRANCH  26  27
ATOM     27  C   UNL A   1      37.668  23.503  25.430  1.00  0.00     0.261 C 
BRANCH  27  28
ATOM     28  O   UNL A   1      38.496  22.540  26.110  1.00  0.00    -0.460 OA
BRANCH  28  29
ATOM     29  C   UNL A   1      39.820  22.812  26.232  1.00  0.00     0.338 C 
ATOM     30  O   UNL A   1      40.729  22.250  25.657  1.00  0.00    -0.246 OA
BRANCH  29  31
ATOM     31  C   UNL A   1      39.942  24.099  26.974  1.00  0.00     0.060 A 
ATOM     32  C   UNL A   1      40.833  25.080  26.505  1.00  0.00     0.016 A 
ATOM     33  C   UNL A   1      39.144  24.362  28.089  1.00  0.00     0.016 A 
ATOM     34  C   UNL A   1      40.943  26.310  27.162  1.00  0.00     0.010 A 
ATOM     35  C   UNL A   1      39.277  25.582  28.763  1.00  0.00     0.010 A 
ATOM     36  C   UNL A   1      40.196  26.553  28.322  1.00  0.00    -0.014 A 
BRANCH  36  37
ATOM     37  C   UNL A   1      40.516  27.714  29.195  1.00  0.00     0.031 A 
ATOM     38  C   UNL A   1      41.787  27.660  30.004  1.00  0.00     0.074 A 
ATOM     39  C   UNL A   1      39.711  28.789  29.286  1.00  0.00     0.049 A 
ATOM     40  N   UNL A   1      42.236  28.490  30.909  1.00  0.00    -0.248 NA
ATOM     41  C   UNL A   1      42.665  26.503  29.759  1.00  0.00     0.031 C 
ATOM     42  C   UNL A   1      38.479  28.992  28.528  1.00  0.00     0.029 A 
ATOM     43  N   UNL A   1      39.806  29.909  30.078  1.00  0.00    -0.354 N 
ATOM     44  C   UNL A   1      43.440  27.952  31.350  1.00  0.00     0.074 A 
ATOM     45  C   UNL A   1      43.638  26.710  30.633  1.00  0.00     0.031 C 
ATOM     46  C   UNL A   1      37.921  30.157  28.905  1.00  0.00     0.029 A 
ATOM     47  C   UNL A   1      38.735  30.764  29.959  1.00  0.00     0.049 A 
ATOM     48  H   UNL A   1      40.570  30.083  30.673  1.00  0.00     0.167 HD
ATOM     49  C   UNL A   1      44.306  28.447  32.265  1.00  0.00     0.037 A 
ATOM     50  C   UNL A   1      38.432  31.888  30.643  1.00  0.00     0.037 A 
ATOM     51  C   UNL A   1      44.107  29.681  32.980  1.00  0.00     0.049 A 
ATOM     52  C   UNL A   1      39.374  32.382  31.715  1.00  0.00     0.074 A 
ATOM     53  C   UNL A   1      44.934  30.274  33.917  1.00  0.00     0.029 A 
ATOM     54  N   UNL A   1      42.999  30.505  32.847  1.00  0.00    -0.354 N 
ATOM     55  N   UNL A   1      40.517  31.875  32.111  1.00  0.00    -0.248 NA
ATOM     56  C   UNL A   1      38.984  33.605  32.436  1.00  0.00     0.031 C 
ATOM     57  C   UNL A   1      44.301  31.426  34.392  1.00  0.00     0.029 A 
ATOM     58  C   UNL A   1      43.110  31.587  33.704  1.00  0.00     0.049 A 
ATOM     59  H   UNL A   1      42.246  30.344  32.234  1.00  0.00     0.167 HD
ATOM     60  C   UNL A   1      40.997  32.733  33.098  1.00  0.00     0.074 A 
ATOM     61  C   UNL A   1      40.024  33.796  33.234  1.00  0.00     0.031 C 
ATOM     62  C   UNL A   1      42.141  32.649  33.823  1.00  0.00     0.037 A 
BRANCH  49  63
ATOM     63  C   UNL A   1      45.537  27.636  32.570  1.00  0.00     0.058 A 
ATOM     64  C   UNL A   1      45.522  26.587  33.502  1.00  0.00     0.135 A 
ATOM     65  C   UNL A   1      46.741  27.895  31.894  1.00  0.00     0.135 A 
ATOM     66  F   UNL A   1      44.405  26.310  34.192  1.00  0.00    -0.206 F 
ATOM     67  C   UNL A   1      46.663  25.838  33.771  1.00  0.00     0.059 A 
ATOM     68  C   UNL A   1      47.886  27.138  32.125  1.00  0.00     0.059 A 
ATOM     69  F   UNL A   1      46.812  28.890  30.997  1.00  0.00    -0.206 F 
ATOM     70  C   UNL A   1      47.841  26.120  33.075  1.00  0.00     0.060 A 
BRANCH  70  71
ATOM     71  S   UNL A   1      49.308  25.131  33.430  1.00  0.00     0.124 S 
ATOM     72  O   UNL A   1      49.735  24.751  32.087  1.00  0.00    -0.237 OA
ATOM     73  O   UNL A   1      50.168  26.088  34.119  1.00  0.00    -0.237 OA
ATOM     74  O   UNL A   1      48.795  24.044  34.257  1.00  0.00    -0.744 OA
ENDBRANCH  70  71
ENDBRANCH  49  63
BRANCH  50  75
ATOM     75  C   UNL A   1      37.167  32.623  30.354  1.00  0.00     0.058 A 
ATOM     76  C   UNL A   1      37.105  33.594  29.343  1.00  0.00     0.135 A 
ATOM     77  C   UNL A   1      36.001  32.386  31.099  1.00  0.00     0.135 A 
ATOM     78  F   UNL A   1      38.197  33.874  28.615  1.00  0.00    -0.206 F 
ATOM     79  C   UNL A   1      35.940  34.312  29.089  1.00  0.00     0.059 A 
ATOM     80  C   UNL A   1      34.815  33.069  30.845  1.00  0.00     0.059 A 
ATOM     81  F   UNL A   1      36.003  31.467  32.077  1.00  0.00    -0.206 F 
ATOM     82  C   UNL A   1      34.798  34.039  29.843  1.00  0.00     0.060 A 
BRANCH  82  83
ATOM     83  S   UNL A   1      33.280  34.947  29.475  1.00  0.00     0.124 S 
ATOM     84  O   UNL A   1      32.694  35.093  30.802  1.00  0.00    -0.237 OA
ATOM     85  O   UNL A   1      33.796  36.169  28.866  1.00  0.00    -0.237 OA
ATOM     86  O   UNL A   1      32.567  34.055  28.566  1.00  0.00    -0.744 OA
ENDBRANCH  82  83
ENDBRANCH  50  75
BRANCH  62  87
ATOM     87  C   UNL A   1      42.439  33.759  34.798  1.00  0.00     0.058 A 
ATOM     88  C   UNL A   1      43.023  34.970  34.393  1.00  0.00     0.135 A 
ATOM     89  C   UNL A   1      42.073  33.631  36.149  1.00  0.00     0.135 A 
ATOM     90  F   UNL A   1      43.395  35.146  33.116  1.00  0.00    -0.206 F 
ATOM     91  C   UNL A   1      43.256  36.003  35.298  1.00  0.00     0.059 A 
ATOM     92  C   UNL A   1      42.267  34.663  37.063  1.00  0.00     0.059 A 
ATOM     93  F   UNL A   1      41.498  32.501  36.590  1.00  0.00    -0.206 F 
ATOM     94  C   UNL A   1      42.872  35.841  36.629  1.00  0.00     0.060 A 
BRANCH  94  95
ATOM     95  S   UNL A   1      43.150  37.204  37.783  1.00  0.00     0.124 S 
ATOM     96  O   UNL A   1      43.755  38.206  36.913  1.00  0.00    -0.237 OA
ATOM     97  O   UNL A   1      41.798  37.498  38.247  1.00  0.00    -0.237 OA
ATOM     98  O   UNL A   1      44.039  36.624  38.786  1.00  0.00    -0.744 OA
ENDBRANCH  94  95
ENDBRANCH  62  87
ENDBRANCH  36  37
ENDBRANCH  29  31
ENDBRANCH  28  29
ENDBRANCH  27  28
ENDBRANCH  26  27
ENDBRANCH  25  26
ENDBRANCH  24  25
ENDBRANCH   1  24
TORSDOF 24
ENDMDL
