MODEL 1
REMARK VINA RESULT:      -8.0      0.000      0.000
REMARK SMILES C[C@@H](C(=O)OCCOCCOCCOC(=O)c1ccc(-c2c3nc(c(-c4c(F)cc(S(=O)(=O)[O-])cc4F)c4ccc([nH]4)c(-c4c(F)cc(S(=O)(=O)[O-])cc4F)c4nc(c(-c5c(F)cc(S(=O)(=O)[O-])cc5F)c5ccc2[nH]5)C=C4)C=C3)cc1)c1cc(/C=C/S(C)(=O)=O)cc(C(=O)c2ccccc2)c1
REMARK SMILES IDX 9 1 8 2 7 3 6 4 5 5 3 6 4 7 2 8 1 9 83 10 84 11 102 12 85 13
REMARK SMILES IDX 93 14 92 15 86 16 87 17 88 18 89 19 90 20 91 21 94 22 95 23
REMARK SMILES IDX 96 24 97 25 101 26 98 27 100 28 99 29 10 30 11 31 12 32
REMARK SMILES IDX 13 33 14 34 15 35 16 36 17 37 18 38 82 39 19 40 81 41 20 42
REMARK SMILES IDX 21 43 22 44 75 45 23 46 80 47 74 48 76 49 24 50 79 51 73 52
REMARK SMILES IDX 72 53 25 55 59 56 38 57 58 58 39 59 42 60 57 61 77 62 40 63
REMARK SMILES IDX 41 64 56 66 78 67 43 68 26 69 27 70 36 71 28 72 29 73 35 74
REMARK SMILES IDX 37 75 30 76 31 77 32 78 33 79 34 80 60 81 61 82 70 83 62 84
REMARK SMILES IDX 63 85 69 86 71 87 64 88 65 89 66 90 67 91 68 92 44 93 45 94
REMARK SMILES IDX 54 95 46 96 47 97 53 98 55 99 48 100 49 101 50 102 51 103
REMARK SMILES IDX 52 104
REMARK H PARENT 76 54 42 65
REMARK Flexibility Score: inf
ROOT
ATOM      1  C   UNL A   1      36.952  33.983  29.502  1.00  0.00     0.188 C 
ENDROOT
BRANCH   1   2
ATOM      2  O   UNL A   1      37.983  33.685  30.429  1.00  0.00    -0.376 OA
BRANCH   2   3
ATOM      3  C   UNL A   1      39.065  34.595  30.591  1.00  0.00     0.202 C 
BRANCH   3   4
ATOM      4  C   UNL A   1      40.355  34.293  29.830  1.00  0.00     0.261 C 
BRANCH   4   5
ATOM      5  O   UNL A   1      40.611  35.280  28.820  1.00  0.00    -0.463 OA
BRANCH   5   6
ATOM      6  C   UNL A   1      41.858  35.812  28.854  1.00  0.00     0.313 C 
ATOM      7  O   UNL A   1      42.659  35.611  29.760  1.00  0.00    -0.252 OA
BRANCH   6   8
ATOM      8  C   UNL A   1      42.217  36.584  27.587  1.00  0.00     0.126 C 
ATOM      9  C   UNL A   1      42.766  35.753  26.420  1.00  0.00     0.025 C 
BRANCH   8  10
ATOM     10  C   UNL A   1      43.045  37.837  27.845  1.00  0.00    -0.033 A 
ATOM     11  C   UNL A   1      42.722  38.804  28.809  1.00  0.00     0.012 A 
ATOM     12  C   UNL A   1      44.153  38.076  27.030  1.00  0.00     0.016 A 
ATOM     13  C   UNL A   1      43.483  39.975  28.972  1.00  0.00    -0.024 A 
ATOM     14  C   UNL A   1      44.837  39.296  27.078  1.00  0.00     0.023 A 
ATOM     15  C   UNL A   1      44.531  40.231  28.075  1.00  0.00     0.020 A 
BRANCH  13  16
ATOM     16  C   UNL A   1      43.149  40.945  30.033  1.00  0.00     0.020 C 
ATOM     17  C   UNL A   1      44.066  41.774  30.562  1.00  0.00     0.106 C 
BRANCH  17  18
ATOM     18  S   UNL A   1      43.606  43.074  31.626  1.00  0.00     0.168 S 
ATOM     19  C   UNL A   1      42.934  42.216  33.017  1.00  0.00     0.163 C 
ATOM     20  O   UNL A   1      44.822  43.711  32.089  1.00  0.00    -0.225 OA
ATOM     21  O   UNL A   1      42.523  43.843  31.046  1.00  0.00    -0.225 OA
ENDBRANCH  17  18
ENDBRANCH  13  16
BRANCH  14  22
ATOM     22  C   UNL A   1      45.847  39.606  26.025  1.00  0.00     0.193 C 
ATOM     23  O   UNL A   1      45.550  40.303  25.063  1.00  0.00    -0.289 OA
BRANCH  22  24
ATOM     24  C   UNL A   1      47.240  39.090  26.171  1.00  0.00     0.022 A 
ATOM     25  C   UNL A   1      48.085  39.676  27.117  1.00  0.00     0.012 A 
ATOM     26  C   UNL A   1      47.683  37.982  25.432  1.00  0.00     0.012 A 
ATOM     27  C   UNL A   1      49.339  39.115  27.369  1.00  0.00     0.001 A 
ATOM     28  C   UNL A   1      48.929  37.415  25.699  1.00  0.00     0.001 A 
ATOM     29  C   UNL A   1      49.752  37.975  26.675  1.00  0.00     0.000 A 
ENDBRANCH  22  24
ENDBRANCH  14  22
ENDBRANCH   8  10
ENDBRANCH   6   8
ENDBRANCH   5   6
ENDBRANCH   4   5
ENDBRANCH   3   4
ENDBRANCH   2   3
ENDBRANCH   1   2
BRANCH   1  30
ATOM     30  C   UNL A   1      35.486  33.630  29.800  1.00  0.00     0.188 C 
BRANCH  30  31
ATOM     31  O   UNL A   1      35.040  33.407  31.124  1.00  0.00    -0.376 OA
BRANCH  31  32
ATOM     32  C   UNL A   1      35.050  32.082  31.622  1.00  0.00     0.202 C 
BRANCH  32  33
ATOM     33  C   UNL A   1      36.361  31.294  31.552  1.00  0.00     0.261 C 
BRANCH  33  34
ATOM     34  O   UNL A   1      36.241  29.986  30.968  1.00  0.00    -0.460 OA
BRANCH  34  35
ATOM     35  C   UNL A   1      36.421  29.946  29.621  1.00  0.00     0.338 C 
ATOM     36  O   UNL A   1      35.659  30.381  28.773  1.00  0.00    -0.246 OA
BRANCH  35  37
ATOM     37  C   UNL A   1      37.769  29.435  29.290  1.00  0.00     0.060 A 
ATOM     38  C   UNL A   1      38.517  28.832  30.312  1.00  0.00     0.016 A 
ATOM     39  C   UNL A   1      38.332  29.622  28.028  1.00  0.00     0.016 A 
ATOM     40  C   UNL A   1      39.848  28.464  30.093  1.00  0.00     0.010 A 
ATOM     41  C   UNL A   1      39.670  29.262  27.815  1.00  0.00     0.010 A 
ATOM     42  C   UNL A   1      40.450  28.720  28.855  1.00  0.00    -0.014 A 
BRANCH  42  43
ATOM     43  C   UNL A   1      41.920  28.571  28.674  1.00  0.00     0.031 A 
ATOM     44  C   UNL A   1      42.802  29.768  28.850  1.00  0.00     0.074 A 
ATOM     45  C   UNL A   1      42.485  27.392  28.358  1.00  0.00     0.049 A 
ATOM     46  N   UNL A   1      44.089  29.877  28.653  1.00  0.00    -0.248 NA
ATOM     47  C   UNL A   1      42.156  30.994  29.344  1.00  0.00     0.031 C 
ATOM     48  C   UNL A   1      41.769  26.133  28.280  1.00  0.00     0.029 A 
ATOM     49  N   UNL A   1      43.770  27.062  28.002  1.00  0.00    -0.354 N 
ATOM     50  C   UNL A   1      44.419  31.166  29.038  1.00  0.00     0.074 A 
ATOM     51  C   UNL A   1      43.186  31.824  29.419  1.00  0.00     0.031 C 
ATOM     52  C   UNL A   1      42.581  25.185  27.784  1.00  0.00     0.029 A 
ATOM     53  C   UNL A   1      43.887  25.775  27.526  1.00  0.00     0.049 A 
ATOM     54  H   UNL A   1      44.531  27.683  28.080  1.00  0.00     0.167 HD
ATOM     55  C   UNL A   1      45.646  31.735  29.100  1.00  0.00     0.037 A 
ATOM     56  C   UNL A   1      44.914  25.146  26.923  1.00  0.00     0.037 A 
ATOM     57  C   UNL A   1      46.864  31.084  28.694  1.00  0.00     0.049 A 
ATOM     58  C   UNL A   1      46.232  25.852  26.825  1.00  0.00     0.074 A 
ATOM     59  C   UNL A   1      48.155  31.581  28.724  1.00  0.00     0.029 A 
ATOM     60  N   UNL A   1      46.942  29.804  28.166  1.00  0.00    -0.354 N 
ATOM     61  N   UNL A   1      46.541  27.066  27.214  1.00  0.00    -0.248 NA
ATOM     62  C   UNL A   1      47.354  25.097  26.252  1.00  0.00     0.031 C 
ATOM     63  C   UNL A   1      49.008  30.620  28.170  1.00  0.00     0.029 A 
ATOM     64  C   UNL A   1      48.256  29.504  27.838  1.00  0.00     0.049 A 
ATOM     65  H   UNL A   1      46.178  29.196  28.041  1.00  0.00     0.167 HD
ATOM     66  C   UNL A   1      47.903  27.202  26.986  1.00  0.00     0.074 A 
ATOM     67  C   UNL A   1      48.356  25.953  26.406  1.00  0.00     0.031 C 
ATOM     68  C   UNL A   1      48.703  28.260  27.259  1.00  0.00     0.037 A 
BRANCH  55  69
ATOM     69  C   UNL A   1      45.713  33.140  29.621  1.00  0.00     0.058 A 
ATOM     70  C   UNL A   1      45.745  34.242  28.751  1.00  0.00     0.135 A 
ATOM     71  C   UNL A   1      45.745  33.389  31.001  1.00  0.00     0.135 A 
ATOM     72  F   UNL A   1      45.740  34.056  27.422  1.00  0.00    -0.206 F 
ATOM     73  C   UNL A   1      45.834  35.543  29.232  1.00  0.00     0.059 A 
ATOM     74  C   UNL A   1      45.811  34.683  31.505  1.00  0.00     0.059 A 
ATOM     75  F   UNL A   1      45.725  32.368  31.873  1.00  0.00    -0.206 F 
ATOM     76  C   UNL A   1      45.870  35.753  30.611  1.00  0.00     0.060 A 
BRANCH  76  77
ATOM     77  S   UNL A   1      45.993  37.446  31.222  1.00  0.00     0.124 S 
ATOM     78  O   UNL A   1      46.951  37.293  32.313  1.00  0.00    -0.237 OA
ATOM     79  O   UNL A   1      46.479  38.168  30.050  1.00  0.00    -0.237 OA
ATOM     80  O   UNL A   1      44.628  37.763  31.627  1.00  0.00    -0.744 OA
ENDBRANCH  76  77
ENDBRANCH  55  69
BRANCH  56  81
ATOM     81  C   UNL A   1      44.732  23.779  26.364  1.00  0.00     0.058 A 
ATOM     82  C   UNL A   1      44.320  23.576  25.041  1.00  0.00     0.135 A 
ATOM     83  C   UNL A   1      44.966  22.645  27.157  1.00  0.00     0.135 A 
ATOM     84  F   UNL A   1      44.064  24.629  24.250  1.00  0.00    -0.206 F 
ATOM     85  C   UNL A   1      44.136  22.297  24.522  1.00  0.00     0.059 A 
ATOM     86  C   UNL A   1      44.811  21.354  26.655  1.00  0.00     0.059 A 
ATOM     87  F   UNL A   1      45.337  22.785  28.438  1.00  0.00    -0.206 F 
ATOM     88  C   UNL A   1      44.386  21.190  25.337  1.00  0.00     0.060 A 
BRANCH  88  89
ATOM     89  S   UNL A   1      44.178  19.535  24.642  1.00  0.00     0.124 S 
ATOM     90  O   UNL A   1      42.787  19.247  24.973  1.00  0.00    -0.237 OA
ATOM     91  O   UNL A   1      44.462  19.757  23.226  1.00  0.00    -0.237 OA
ATOM     92  O   UNL A   1      45.173  18.738  25.352  1.00  0.00    -0.744 OA
ENDBRANCH  88  89
ENDBRANCH  56  81
BRANCH  68  93
ATOM     93  C   UNL A   1      50.170  28.100  26.978  1.00  0.00     0.058 A 
ATOM     94  C   UNL A   1      51.085  27.765  27.988  1.00  0.00     0.135 A 
ATOM     95  C   UNL A   1      50.660  28.254  25.671  1.00  0.00     0.135 A 
ATOM     96  F   UNL A   1      50.669  27.621  29.256  1.00  0.00    -0.206 F 
ATOM     97  C   UNL A   1      52.439  27.605  27.714  1.00  0.00     0.059 A 
ATOM     98  C   UNL A   1      52.007  28.072  25.371  1.00  0.00     0.059 A 
ATOM     99  F   UNL A   1      49.827  28.569  24.668  1.00  0.00    -0.206 F 
ATOM    100  C   UNL A   1      52.890  27.759  26.402  1.00  0.00     0.060 A 
BRANCH 100 101
ATOM    101  S   UNL A   1      54.644  27.510  26.052  1.00  0.00     0.124 S 
ATOM    102  O   UNL A   1      54.591  26.666  24.864  1.00  0.00    -0.237 OA
ATOM    103  O   UNL A   1      55.118  28.875  25.841  1.00  0.00    -0.237 OA
ATOM    104  O   UNL A   1      55.143  26.863  27.262  1.00  0.00    -0.744 OA
ENDBRANCH 100 101
ENDBRANCH  68  93
ENDBRANCH  42  43
ENDBRANCH  35  37
ENDBRANCH  34  35
ENDBRANCH  33  34
ENDBRANCH  32  33
ENDBRANCH  31  32
ENDBRANCH  30  31
ENDBRANCH   1  30
TORSDOF 25
ENDMDL
MODEL 2
REMARK VINA RESULT:      -7.7      2.405      8.770
REMARK SMILES C[C@@H](C(=O)OCCOCCOCCOC(=O)c1ccc(-c2c3nc(c(-c4c(F)cc(S(=O)(=O)[O-])cc4F)c4ccc([nH]4)c(-c4c(F)cc(S(=O)(=O)[O-])cc4F)c4nc(c(-c5c(F)cc(S(=O)(=O)[O-])cc5F)c5ccc2[nH]5)C=C4)C=C3)cc1)c1cc(/C=C/S(C)(=O)=O)cc(C(=O)c2ccccc2)c1
REMARK SMILES IDX 9 1 8 2 7 3 6 4 5 5 3 6 4 7 2 8 1 9 83 10 84 11 102 12 85 13
REMARK SMILES IDX 93 14 92 15 86 16 87 17 88 18 89 19 90 20 91 21 94 22 95 23
REMARK SMILES IDX 96 24 97 25 101 26 98 27 100 28 99 29 10 30 11 31 12 32
REMARK SMILES IDX 13 33 14 34 15 35 16 36 17 37 18 38 82 39 19 40 81 41 20 42
REMARK SMILES IDX 21 43 22 44 75 45 23 46 80 47 74 48 76 49 24 50 79 51 73 52
REMARK SMILES IDX 72 53 25 55 59 56 38 57 58 58 39 59 42 60 57 61 77 62 40 63
REMARK SMILES IDX 41 64 56 66 78 67 43 68 26 69 27 70 36 71 28 72 29 73 35 74
REMARK SMILES IDX 37 75 30 76 31 77 32 78 33 79 34 80 60 81 61 82 70 83 62 84
REMARK SMILES IDX 63 85 69 86 71 87 64 88 65 89 66 90 67 91 68 92 44 93 45 94
REMARK SMILES IDX 54 95 46 96 47 97 53 98 55 99 48 100 49 101 50 102 51 103
REMARK SMILES IDX 52 104
REMARK H PARENT 76 54 42 65
REMARK Flexibility Score: inf
ROOT
ATOM      1  C   UNL A   1      47.698  39.252  26.332  1.00  0.00     0.188 C 
ENDROOT
BRANCH   1   2
ATOM      2  O   UNL A   1      46.545  39.630  25.596  1.00  0.00    -0.376 OA
BRANCH   2   3
ATOM      3  C   UNL A   1      45.262  39.534  26.204  1.00  0.00     0.202 C 
BRANCH   3   4
ATOM      4  C   UNL A   1      44.414  40.804  26.257  1.00  0.00     0.261 C 
BRANCH   4   5
ATOM      5  O   UNL A   1      44.178  41.221  27.609  1.00  0.00    -0.463 OA
BRANCH   5   6
ATOM      6  C   UNL A   1      43.042  40.728  28.163  1.00  0.00     0.313 C 
ATOM      7  O   UNL A   1      42.018  40.504  27.526  1.00  0.00    -0.252 OA
BRANCH   6   8
ATOM      8  C   UNL A   1      43.202  40.356  29.634  1.00  0.00     0.126 C 
ATOM      9  C   UNL A   1      44.060  41.302  30.483  1.00  0.00     0.025 C 
BRANCH   8  10
ATOM     10  C   UNL A   1      43.558  38.892  29.861  1.00  0.00    -0.033 A 
ATOM     11  C   UNL A   1      44.538  38.456  30.766  1.00  0.00     0.012 A 
ATOM     12  C   UNL A   1      42.926  37.929  29.074  1.00  0.00     0.016 A 
ATOM     13  C   UNL A   1      44.877  37.098  30.900  1.00  0.00    -0.024 A 
ATOM     14  C   UNL A   1      43.345  36.593  29.088  1.00  0.00     0.023 A 
ATOM     15  C   UNL A   1      44.292  36.167  30.028  1.00  0.00     0.020 A 
BRANCH  13  16
ATOM     16  C   UNL A   1      45.871  36.667  31.901  1.00  0.00     0.020 C 
ATOM     17  C   UNL A   1      45.843  37.099  33.173  1.00  0.00     0.106 C 
BRANCH  17  18
ATOM     18  S   UNL A   1      46.865  36.393  34.394  1.00  0.00     0.168 S 
ATOM     19  C   UNL A   1      45.821  35.156  35.104  1.00  0.00     0.163 C 
ATOM     20  O   UNL A   1      47.931  35.685  33.715  1.00  0.00    -0.225 OA
ATOM     21  O   UNL A   1      47.143  37.356  35.440  1.00  0.00    -0.225 OA
ENDBRANCH  17  18
ENDBRANCH  13  16
BRANCH  14  22
ATOM     22  C   UNL A   1      42.817  35.653  28.056  1.00  0.00     0.193 C 
ATOM     23  O   UNL A   1      41.624  35.384  28.011  1.00  0.00    -0.289 OA
BRANCH  22  24
ATOM     24  C   UNL A   1      43.753  35.070  27.050  1.00  0.00     0.022 A 
ATOM     25  C   UNL A   1      44.734  35.887  26.483  1.00  0.00     0.012 A 
ATOM     26  C   UNL A   1      43.710  33.705  26.726  1.00  0.00     0.012 A 
ATOM     27  C   UNL A   1      45.708  35.327  25.652  1.00  0.00     0.001 A 
ATOM     28  C   UNL A   1      44.693  33.147  25.909  1.00  0.00     0.001 A 
ATOM     29  C   UNL A   1      45.698  33.956  25.381  1.00  0.00     0.000 A 
ENDBRANCH  22  24
ENDBRANCH  14  22
ENDBRANCH   8  10
ENDBRANCH   6   8
ENDBRANCH   5   6
ENDBRANCH   4   5
ENDBRANCH   3   4
ENDBRANCH   2   3
ENDBRANCH   1   2
BRANCH   1  30
ATOM     30  C   UNL A   1      48.351  40.214  27.338  1.00  0.00     0.188 C 
BRANCH  30  31
ATOM     31  O   UNL A   1      47.869  40.328  28.663  1.00  0.00    -0.376 OA
BRANCH  31  32
ATOM     32  C   UNL A   1      47.784  39.154  29.450  1.00  0.00     0.202 C 
BRANCH  32  33
ATOM     33  C   UNL A   1      49.084  38.436  29.819  1.00  0.00     0.261 C 
BRANCH  33  34
ATOM     34  O   UNL A   1      49.208  37.110  29.279  1.00  0.00    -0.460 OA
BRANCH  34  35
ATOM     35  C   UNL A   1      49.406  36.134  30.205  1.00  0.00     0.338 C 
ATOM     36  O   UNL A   1      50.124  36.202  31.190  1.00  0.00    -0.246 OA
BRANCH  35  37
ATOM     37  C   UNL A   1      48.499  34.992  29.960  1.00  0.00     0.060 A 
ATOM     38  C   UNL A   1      48.533  33.917  30.860  1.00  0.00     0.016 A 
ATOM     39  C   UNL A   1      47.695  34.927  28.823  1.00  0.00     0.016 A 
ATOM     40  C   UNL A   1      47.807  32.751  30.598  1.00  0.00     0.010 A 
ATOM     41  C   UNL A   1      46.976  33.753  28.558  1.00  0.00     0.010 A 
ATOM     42  C   UNL A   1      47.058  32.642  29.420  1.00  0.00    -0.014 A 
BRANCH  42  43
ATOM     43  C   UNL A   1      46.483  31.336  28.998  1.00  0.00     0.031 A 
ATOM     44  C   UNL A   1      45.076  30.998  29.384  1.00  0.00     0.074 A 
ATOM     45  C   UNL A   1      47.188  30.444  28.278  1.00  0.00     0.049 A 
ATOM     46  N   UNL A   1      44.417  29.886  29.197  1.00  0.00    -0.248 NA
ATOM     47  C   UNL A   1      44.300  32.064  30.036  1.00  0.00     0.031 C 
ATOM     48  C   UNL A   1      48.509  30.691  27.732  1.00  0.00     0.029 A 
ATOM     49  N   UNL A   1      46.919  29.146  27.917  1.00  0.00    -0.354 N 
ATOM     50  C   UNL A   1      43.137  30.126  29.667  1.00  0.00     0.074 A 
ATOM     51  C   UNL A   1      43.128  31.470  30.208  1.00  0.00     0.031 C 
ATOM     52  C   UNL A   1      48.998  29.553  27.211  1.00  0.00     0.029 A 
ATOM     53  C   UNL A   1      48.008  28.499  27.374  1.00  0.00     0.049 A 
ATOM     54  H   UNL A   1      46.038  28.722  28.033  1.00  0.00     0.167 HD
ATOM     55  C   UNL A   1      42.058  29.310  29.618  1.00  0.00     0.037 A 
ATOM     56  C   UNL A   1      48.202  27.202  27.069  1.00  0.00     0.037 A 
ATOM     57  C   UNL A   1      42.080  27.966  29.104  1.00  0.00     0.049 A 
ATOM     58  C   UNL A   1      47.048  26.253  27.192  1.00  0.00     0.074 A 
ATOM     59  C   UNL A   1      41.034  27.064  29.010  1.00  0.00     0.029 A 
ATOM     60  N   UNL A   1      43.206  27.321  28.613  1.00  0.00    -0.354 N 
ATOM     61  N   UNL A   1      45.831  26.496  27.617  1.00  0.00    -0.248 NA
ATOM     62  C   UNL A   1      47.271  24.869  26.755  1.00  0.00     0.031 C 
ATOM     63  C   UNL A   1      41.538  25.859  28.508  1.00  0.00     0.029 A 
ATOM     64  C   UNL A   1      42.888  26.023  28.243  1.00  0.00     0.049 A 
ATOM     65  H   UNL A   1      44.101  27.725  28.539  1.00  0.00     0.167 HD
ATOM     66  C   UNL A   1      45.127  25.313  27.447  1.00  0.00     0.074 A 
ATOM     67  C   UNL A   1      46.059  24.348  26.897  1.00  0.00     0.031 C 
ATOM     68  C   UNL A   1      43.820  25.064  27.699  1.00  0.00     0.037 A 
BRANCH  55  69
ATOM     69  C   UNL A   1      40.768  29.862  30.149  1.00  0.00     0.058 A 
ATOM     70  C   UNL A   1      40.560  30.036  31.527  1.00  0.00     0.135 A 
ATOM     71  C   UNL A   1      39.732  30.221  29.276  1.00  0.00     0.135 A 
ATOM     72  F   UNL A   1      41.512  29.685  32.406  1.00  0.00    -0.206 F 
ATOM     73  C   UNL A   1      39.356  30.523  32.023  1.00  0.00     0.059 A 
ATOM     74  C   UNL A   1      38.528  30.732  29.747  1.00  0.00     0.059 A 
ATOM     75  F   UNL A   1      39.880  30.066  27.950  1.00  0.00    -0.206 F 
ATOM     76  C   UNL A   1      38.344  30.865  31.124  1.00  0.00     0.060 A 
BRANCH  76  77
ATOM     77  S   UNL A   1      36.783  31.488  31.780  1.00  0.00     0.124 S 
ATOM     78  O   UNL A   1      37.248  32.493  32.732  1.00  0.00    -0.237 OA
ATOM     79  O   UNL A   1      36.125  32.006  30.585  1.00  0.00    -0.237 OA
ATOM     80  O   UNL A   1      36.165  30.305  32.370  1.00  0.00    -0.744 OA
ENDBRANCH  76  77
ENDBRANCH  55  69
BRANCH  56  81
ATOM     81  C   UNL A   1      49.540  26.729  26.624  1.00  0.00     0.058 A 
ATOM     82  C   UNL A   1      50.496  26.264  27.537  1.00  0.00     0.135 A 
ATOM     83  C   UNL A   1      49.887  26.739  25.263  1.00  0.00     0.135 A 
ATOM     84  F   UNL A   1      50.219  26.255  28.850  1.00  0.00    -0.206 F 
ATOM     85  C   UNL A   1      51.753  25.835  27.121  1.00  0.00     0.059 A 
ATOM     86  C   UNL A   1      51.131  26.292  24.820  1.00  0.00     0.059 A 
ATOM     87  F   UNL A   1      49.017  27.197  24.352  1.00  0.00    -0.206 F 
ATOM     88  C   UNL A   1      52.062  25.850  25.759  1.00  0.00     0.060 A 
BRANCH  88  89
ATOM     89  S   UNL A   1      53.685  25.257  25.229  1.00  0.00     0.124 S 
ATOM     90  O   UNL A   1      53.712  25.678  23.833  1.00  0.00    -0.237 OA
ATOM     91  O   UNL A   1      54.585  25.976  26.128  1.00  0.00    -0.237 OA
ATOM     92  O   UNL A   1      53.612  23.817  25.452  1.00  0.00    -0.744 OA
ENDBRANCH  88  89
ENDBRANCH  56  81
BRANCH  68  93
ATOM     93  C   UNL A   1      43.299  23.701  27.340  1.00  0.00     0.058 A 
ATOM     94  C   UNL A   1      43.081  23.320  26.008  1.00  0.00     0.135 A 
ATOM     95  C   UNL A   1      43.047  22.754  28.346  1.00  0.00     0.135 A 
ATOM     96  F   UNL A   1      43.294  24.193  25.011  1.00  0.00    -0.206 F 
ATOM     97  C   UNL A   1      42.613  22.050  25.686  1.00  0.00     0.059 A 
ATOM     98  C   UNL A   1      42.604  21.470  28.044  1.00  0.00     0.059 A 
ATOM     99  F   UNL A   1      43.244  23.067  29.636  1.00  0.00    -0.206 F 
ATOM    100  C   UNL A   1      42.379  21.132  26.711  1.00  0.00     0.060 A 
BRANCH 100 101
ATOM    101  S   UNL A   1      41.809  19.474  26.278  1.00  0.00     0.124 S 
ATOM    102  O   UNL A   1      42.334  18.683  27.385  1.00  0.00    -0.237 OA
ATOM    103  O   UNL A   1      40.358  19.640  26.248  1.00  0.00    -0.237 OA
ATOM    104  O   UNL A   1      42.430  19.230  24.980  1.00  0.00    -0.744 OA
ENDBRANCH 100 101
ENDBRANCH  68  93
ENDBRANCH  42  43
ENDBRANCH  35  37
ENDBRANCH  34  35
ENDBRANCH  33  34
ENDBRANCH  32  33
ENDBRANCH  31  32
ENDBRANCH  30  31
ENDBRANCH   1  30
TORSDOF 25
ENDMDL
MODEL 3
REMARK VINA RESULT:      -7.6      2.154      4.100
REMARK SMILES C[C@@H](C(=O)OCCOCCOCCOC(=O)c1ccc(-c2c3nc(c(-c4c(F)cc(S(=O)(=O)[O-])cc4F)c4ccc([nH]4)c(-c4c(F)cc(S(=O)(=O)[O-])cc4F)c4nc(c(-c5c(F)cc(S(=O)(=O)[O-])cc5F)c5ccc2[nH]5)C=C4)C=C3)cc1)c1cc(/C=C/S(C)(=O)=O)cc(C(=O)c2ccccc2)c1
REMARK SMILES IDX 9 1 8 2 7 3 6 4 5 5 3 6 4 7 2 8 1 9 83 10 84 11 102 12 85 13
REMARK SMILES IDX 93 14 92 15 86 16 87 17 88 18 89 19 90 20 91 21 94 22 95 23
REMARK SMILES IDX 96 24 97 25 101 26 98 27 100 28 99 29 10 30 11 31 12 32
REMARK SMILES IDX 13 33 14 34 15 35 16 36 17 37 18 38 82 39 19 40 81 41 20 42
REMARK SMILES IDX 21 43 22 44 75 45 23 46 80 47 74 48 76 49 24 50 79 51 73 52
REMARK SMILES IDX 72 53 25 55 59 56 38 57 58 58 39 59 42 60 57 61 77 62 40 63
REMARK SMILES IDX 41 64 56 66 78 67 43 68 26 69 27 70 36 71 28 72 29 73 35 74
REMARK SMILES IDX 37 75 30 76 31 77 32 78 33 79 34 80 60 81 61 82 70 83 62 84
REMARK SMILES IDX 63 85 69 86 71 87 64 88 65 89 66 90 67 91 68 92 44 93 45 94
REMARK SMILES IDX 54 95 46 96 47 97 53 98 55 99 48 100 49 101 50 102 51 103
REMARK SMILES IDX 52 104
REMARK H PARENT 76 54 42 65
REMARK Flexibility Score: inf
ROOT
ATOM      1  C   UNL A   1      38.303  33.816  33.253  1.00  0.00     0.188 C 
ENDROOT
BRANCH   1   2
ATOM      2  O   UNL A   1      39.683  33.572  33.479  1.00  0.00    -0.376 OA
BRANCH   2   3
ATOM      3  C   UNL A   1      40.623  34.618  33.265  1.00  0.00     0.202 C 
BRANCH   3   4
ATOM      4  C   UNL A   1      42.074  34.214  33.004  1.00  0.00     0.261 C 
BRANCH   4   5
ATOM      5  O   UNL A   1      42.942  34.673  34.050  1.00  0.00    -0.463 OA
BRANCH   5   6
ATOM      6  C   UNL A   1      44.261  34.661  33.736  1.00  0.00     0.313 C 
ATOM      7  O   UNL A   1      44.809  33.740  33.139  1.00  0.00    -0.252 OA
BRANCH   6   8
ATOM      8  C   UNL A   1      44.975  35.965  34.081  1.00  0.00     0.126 C 
ATOM      9  C   UNL A   1      44.961  36.373  35.560  1.00  0.00     0.025 C 
BRANCH   8  10
ATOM     10  C   UNL A   1      44.617  37.124  33.158  1.00  0.00    -0.033 A 
ATOM     11  C   UNL A   1      44.295  36.972  31.801  1.00  0.00     0.012 A 
ATOM     12  C   UNL A   1      44.680  38.420  33.671  1.00  0.00     0.016 A 
ATOM     13  C   UNL A   1      44.029  38.076  30.971  1.00  0.00    -0.024 A 
ATOM     14  C   UNL A   1      44.560  39.536  32.834  1.00  0.00     0.023 A 
ATOM     15  C   UNL A   1      44.195  39.368  31.492  1.00  0.00     0.020 A 
BRANCH  13  16
ATOM     16  C   UNL A   1      43.639  37.879  29.563  1.00  0.00     0.020 C 
ATOM     17  C   UNL A   1      42.949  38.803  28.872  1.00  0.00     0.106 C 
BRANCH  17  18
ATOM     18  S   UNL A   1      42.716  38.664  27.152  1.00  0.00     0.168 S 
ATOM     19  C   UNL A   1      44.158  39.450  26.501  1.00  0.00     0.163 C 
ATOM     20  O   UNL A   1      42.826  37.260  26.808  1.00  0.00    -0.225 OA
ATOM     21  O   UNL A   1      41.580  39.459  26.730  1.00  0.00    -0.225 OA
ENDBRANCH  17  18
ENDBRANCH  13  16
BRANCH  14  22
ATOM     22  C   UNL A   1      44.884  40.889  33.373  1.00  0.00     0.193 C 
ATOM     23  O   UNL A   1      45.565  41.010  34.383  1.00  0.00    -0.289 OA
BRANCH  22  24
ATOM     24  C   UNL A   1      44.400  42.101  32.649  1.00  0.00     0.022 A 
ATOM     25  C   UNL A   1      45.184  42.636  31.624  1.00  0.00     0.012 A 
ATOM     26  C   UNL A   1      43.143  42.659  32.928  1.00  0.00     0.012 A 
ATOM     27  C   UNL A   1      44.684  43.679  30.840  1.00  0.00     0.001 A 
ATOM     28  C   UNL A   1      42.641  43.689  32.133  1.00  0.00     0.001 A 
ATOM     29  C   UNL A   1      43.406  44.191  31.082  1.00  0.00     0.000 A 
ENDBRANCH  22  24
ENDBRANCH  14  22
ENDBRANCH   8  10
ENDBRANCH   6   8
ENDBRANCH   5   6
ENDBRANCH   4   5
ENDBRANCH   3   4
ENDBRANCH   2   3
ENDBRANCH   1   2
BRANCH   1  30
ATOM     30  C   UNL A   1      37.706  33.762  31.837  1.00  0.00     0.188 C 
BRANCH  30  31
ATOM     31  O   UNL A   1      36.328  33.992  31.613  1.00  0.00    -0.376 OA
BRANCH  31  32
ATOM     32  C   UNL A   1      35.438  32.896  31.717  1.00  0.00     0.202 C 
BRANCH  32  33
ATOM     33  C   UNL A   1      34.870  32.302  30.425  1.00  0.00     0.261 C 
BRANCH  33  34
ATOM     34  O   UNL A   1      35.817  31.554  29.645  1.00  0.00    -0.460 OA
BRANCH  34  35
ATOM     35  C   UNL A   1      36.406  30.520  30.301  1.00  0.00     0.338 C 
ATOM     36  O   UNL A   1      35.845  29.683  30.991  1.00  0.00    -0.246 OA
BRANCH  35  37
ATOM     37  C   UNL A   1      37.839  30.425  29.946  1.00  0.00     0.060 A 
ATOM     38  C   UNL A   1      38.173  30.203  28.603  1.00  0.00     0.016 A 
ATOM     39  C   UNL A   1      38.837  30.459  30.919  1.00  0.00     0.016 A 
ATOM     40  C   UNL A   1      39.500  29.959  28.234  1.00  0.00     0.010 A 
ATOM     41  C   UNL A   1      40.165  30.204  30.548  1.00  0.00     0.010 A 
ATOM     42  C   UNL A   1      40.501  29.912  29.212  1.00  0.00    -0.014 A 
BRANCH  42  43
ATOM     43  C   UNL A   1      41.865  29.413  28.886  1.00  0.00     0.031 A 
ATOM     44  C   UNL A   1      42.985  30.395  28.736  1.00  0.00     0.074 A 
ATOM     45  C   UNL A   1      42.126  28.104  28.722  1.00  0.00     0.049 A 
ATOM     46  N   UNL A   1      44.221  30.183  28.369  1.00  0.00    -0.248 NA
ATOM     47  C   UNL A   1      42.683  31.794  29.075  1.00  0.00     0.031 C 
ATOM     48  C   UNL A   1      41.170  27.039  28.959  1.00  0.00     0.029 A 
ATOM     49  N   UNL A   1      43.248  27.445  28.279  1.00  0.00    -0.354 N 
ATOM     50  C   UNL A   1      44.858  31.408  28.474  1.00  0.00     0.074 A 
ATOM     51  C   UNL A   1      43.857  32.375  28.875  1.00  0.00     0.031 C 
ATOM     52  C   UNL A   1      41.688  25.871  28.548  1.00  0.00     0.029 A 
ATOM     53  C   UNL A   1      43.029  26.108  28.033  1.00  0.00     0.049 A 
ATOM     54  H   UNL A   1      44.120  27.885  28.152  1.00  0.00     0.167 HD
ATOM     55  C   UNL A   1      46.168  31.691  28.284  1.00  0.00     0.037 A 
ATOM     56  C   UNL A   1      43.802  25.182  27.434  1.00  0.00     0.037 A 
ATOM     57  C   UNL A   1      47.153  30.731  27.858  1.00  0.00     0.049 A 
ATOM     58  C   UNL A   1      45.203  25.552  27.052  1.00  0.00     0.074 A 
ATOM     59  C   UNL A   1      48.506  30.926  27.643  1.00  0.00     0.029 A 
ATOM     60  N   UNL A   1      46.891  29.401  27.564  1.00  0.00    -0.354 N 
ATOM     61  N   UNL A   1      45.806  26.711  27.176  1.00  0.00    -0.248 NA
ATOM     62  C   UNL A   1      46.048  24.489  26.494  1.00  0.00     0.031 C 
ATOM     63  C   UNL A   1      49.052  29.726  27.174  1.00  0.00     0.029 A 
ATOM     64  C   UNL A   1      48.050  28.770  27.140  1.00  0.00     0.049 A 
ATOM     65  H   UNL A   1      46.010  28.968  27.644  1.00  0.00     0.167 HD
ATOM     66  C   UNL A   1      47.114  26.504  26.766  1.00  0.00     0.074 A 
ATOM     67  C   UNL A   1      47.213  25.112  26.371  1.00  0.00     0.031 C 
ATOM     68  C   UNL A   1      48.143  27.385  26.745  1.00  0.00     0.037 A 
BRANCH  55  69
ATOM     69  C   UNL A   1      46.596  33.108  28.532  1.00  0.00     0.058 A 
ATOM     70  C   UNL A   1      46.755  33.605  29.835  1.00  0.00     0.135 A 
ATOM     71  C   UNL A   1      46.851  33.975  27.459  1.00  0.00     0.135 A 
ATOM     72  F   UNL A   1      46.502  32.822  30.895  1.00  0.00    -0.206 F 
ATOM     73  C   UNL A   1      47.127  34.925  30.067  1.00  0.00     0.059 A 
ATOM     74  C   UNL A   1      47.245  35.292  27.668  1.00  0.00     0.059 A 
ATOM     75  F   UNL A   1      46.704  33.548  26.195  1.00  0.00    -0.206 F 
ATOM     76  C   UNL A   1      47.366  35.761  28.976  1.00  0.00     0.060 A 
BRANCH  76  77
ATOM     77  S   UNL A   1      47.839  37.474  29.291  1.00  0.00     0.124 S 
ATOM     78  O   UNL A   1      47.917  37.491  30.748  1.00  0.00    -0.237 OA
ATOM     79  O   UNL A   1      49.114  37.581  28.587  1.00  0.00    -0.237 OA
ATOM     80  O   UNL A   1      46.741  38.242  28.713  1.00  0.00    -0.744 OA
ENDBRANCH  76  77
ENDBRANCH  55  69
BRANCH  56  81
ATOM     81  C   UNL A   1      43.266  23.823  27.157  1.00  0.00     0.058 A 
ATOM     82  C   UNL A   1      43.129  22.867  28.172  1.00  0.00     0.135 A 
ATOM     83  C   UNL A   1      42.882  23.455  25.857  1.00  0.00     0.135 A 
ATOM     84  F   UNL A   1      43.501  23.163  29.426  1.00  0.00    -0.206 F 
ATOM     85  C   UNL A   1      42.640  21.589  27.910  1.00  0.00     0.059 A 
ATOM     86  C   UNL A   1      42.368  22.191  25.574  1.00  0.00     0.059 A 
ATOM     87  F   UNL A   1      43.016  24.326  24.846  1.00  0.00    -0.206 F 
ATOM     88  C   UNL A   1      42.260  21.260  26.607  1.00  0.00     0.060 A 
BRANCH  88  89
ATOM     89  S   UNL A   1      41.594  19.611  26.286  1.00  0.00     0.124 S 
ATOM     90  O   UNL A   1      42.356  19.208  25.109  1.00  0.00    -0.237 OA
ATOM     91  O   UNL A   1      41.914  18.903  27.523  1.00  0.00    -0.237 OA
ATOM     92  O   UNL A   1      40.172  19.853  26.064  1.00  0.00    -0.744 OA
ENDBRANCH  88  89
ENDBRANCH  56  81
BRANCH  68  93
ATOM     93  C   UNL A   1      49.487  26.861  26.324  1.00  0.00     0.058 A 
ATOM     94  C   UNL A   1      50.286  26.096  27.186  1.00  0.00     0.135 A 
ATOM     95  C   UNL A   1      49.963  27.102  25.025  1.00  0.00     0.135 A 
ATOM     96  F   UNL A   1      49.882  25.849  28.443  1.00  0.00    -0.206 F 
ATOM     97  C   UNL A   1      51.522  25.603  26.781  1.00  0.00     0.059 A 
ATOM     98  C   UNL A   1      51.185  26.596  24.591  1.00  0.00     0.059 A 
ATOM     99  F   UNL A   1      49.235  27.824  24.160  1.00  0.00    -0.206 F 
ATOM    100  C   UNL A   1      51.962  25.857  25.480  1.00  0.00     0.060 A 
BRANCH 100 101
ATOM    101  S   UNL A   1      53.550  25.180  24.953  1.00  0.00     0.124 S 
ATOM    102  O   UNL A   1      54.488  25.997  25.715  1.00  0.00    -0.237 OA
ATOM    103  O   UNL A   1      53.447  23.783  25.365  1.00  0.00    -0.237 OA
ATOM    104  O   UNL A   1      53.552  25.401  23.510  1.00  0.00    -0.744 OA
ENDBRANCH 100 101
ENDBRANCH  68  93
ENDBRANCH  42  43
ENDBRANCH  35  37
ENDBRANCH  34  35
ENDBRANCH  33  34
ENDBRANCH  32  33
ENDBRANCH  31  32
ENDBRANCH  30  31
ENDBRANCH   1  30
TORSDOF 25
ENDMDL
