MODEL 1
REMARK VINA RESULT:     -10.6      0.000      0.000
REMARK SMILES CCCCc1cc(S(F)(F)(F)(F)F)cc2c1O[C@@H](C(F)(F)F)C(C(=O)OCCOCCOCCOC(=O)c1ccc(-c3c4nc(c(-c5c(F)cc(S(=O)(=O)[O-])cc5F)c5ccc([nH]5)c(-c5c(F)cc(S(=O)(=O)[O-])cc5F)c5nc(c(-c6c(F)cc(S(=O)(=O)[O-])cc6F)c6ccc3[nH]6)C=C5)C=C4)cc1)=C2
REMARK SMILES IDX 30 1 29 2 28 3 27 4 26 5 24 6 25 7 23 8 5 9 6 10 16 11 7 12
REMARK SMILES IDX 15 13 17 14 14 15 104 16 18 17 4 18 3 19 2 20 1 21 8 22 9 23
REMARK SMILES IDX 10 24 11 25 12 26 13 27 19 28 20 29 21 30 22 31 31 32 32 33
REMARK SMILES IDX 33 34 34 35 35 36 36 37 37 38 38 39 39 40 103 41 40 42
REMARK SMILES IDX 102 43 41 44 42 45 43 46 96 47 44 48 101 49 95 50 97 51
REMARK SMILES IDX 45 52 100 53 94 54 93 55 46 57 80 58 59 59 79 60 60 61 63 62
REMARK SMILES IDX 78 63 98 64 61 65 62 66 77 68 99 69 64 70 47 71 48 72 57 73
REMARK SMILES IDX 49 74 50 75 56 76 58 77 51 78 52 79 53 80 54 81 55 82 81 83
REMARK SMILES IDX 82 84 91 85 83 86 84 87 90 88 92 89 85 90 86 91 87 92 88 93
REMARK SMILES IDX 89 94 65 95 66 96 75 97 67 98 68 99 74 100 76 101 69 102
REMARK SMILES IDX 70 103 71 104 72 105 73 106
REMARK H PARENT 97 56 63 67
REMARK Flexibility Score: inf
ROOT
ATOM      1  C   UNL A   1      33.352  32.407  27.584  1.00  0.00     0.188 C 
ENDROOT
BRANCH   1   2
ATOM      2  O   UNL A   1      32.698  31.231  27.132  1.00  0.00    -0.376 OA
BRANCH   2   3
ATOM      3  C   UNL A   1      33.641  30.175  27.024  1.00  0.00     0.202 C 
BRANCH   3   4
ATOM      4  C   UNL A   1      32.979  28.862  27.406  1.00  0.00     0.261 C 
BRANCH   4   5
ATOM      5  O   UNL A   1      31.858  28.634  26.566  1.00  0.00    -0.460 OA
BRANCH   5   6
ATOM      6  C   UNL A   1      32.043  28.101  25.263  1.00  0.00     0.338 C 
ATOM      7  O   UNL A   1      31.901  28.848  24.245  1.00  0.00    -0.246 OA
BRANCH   6   8
ATOM      8  C   UNL A   1      32.411  26.638  25.085  1.00  0.00     0.087 C 
ATOM      9  C   UNL A   1      33.245  22.545  25.070  1.00  0.00    -0.004 A 
ATOM     10  C   UNL A   1      34.557  22.107  25.045  1.00  0.00     0.032 A 
ATOM     11  C   UNL A   1      33.000  23.895  25.128  1.00  0.00     0.131 A 
ATOM     12  C   UNL A   1      35.597  22.998  25.084  1.00  0.00     0.108 A 
ATOM     13  C   UNL A   1      34.024  24.825  25.149  1.00  0.00     0.019 A 
ATOM     14  O   UNL A   1      31.697  24.308  25.265  1.00  0.00    -0.475 OA
ATOM     15  C   UNL A   1      35.331  24.351  25.128  1.00  0.00     0.036 A 
ATOM     16  C   UNL A   1      33.662  26.228  25.250  1.00  0.00     0.027 C 
ATOM     17  C   UNL A   1      31.352  25.609  24.711  1.00  0.00     0.316 C 
BRANCH   9  18
ATOM     18  C   UNL A   1      32.096  21.550  25.033  1.00  0.00     0.039 C 
BRANCH  18  19
ATOM     19  C   UNL A   1      32.404  20.456  24.023  1.00  0.00     0.005 C 
BRANCH  19  20
ATOM     20  C   UNL A   1      32.535  19.124  24.743  1.00  0.00    -0.003 C 
ATOM     21  C   UNL A   1      33.249  18.129  23.843  1.00  0.00     0.004 C 
ENDBRANCH  19  20
ENDBRANCH  18  19
ENDBRANCH   9  18
BRANCH  12  22
ATOM     22  S   UNL A   1      37.306  22.404  25.075  1.00  0.00     0.310 S 
ATOM     23  F   UNL A   1      37.867  23.835  24.682  1.00  0.00    -0.094 F 
ATOM     24  F   UNL A   1      37.166  22.113  23.532  1.00  0.00    -0.094 F 
ATOM     25  F   UNL A   1      38.775  21.894  25.066  1.00  0.00    -0.094 F 
ATOM     26  F   UNL A   1      37.473  22.833  26.586  1.00  0.00    -0.094 F 
ATOM     27  F   UNL A   1      35.854  23.031  25.072  1.00  0.00    -0.094 F 
ENDBRANCH  12  22
BRANCH  17  28
ATOM     28  C   UNL A   1      30.012  26.050  25.277  1.00  0.00     0.430 C 
ATOM     29  F   UNL A   1      29.233  24.985  25.451  1.00  0.00    -0.167 F 
ATOM     30  F   UNL A   1      30.202  26.656  26.445  1.00  0.00    -0.167 F 
ATOM     31  F   UNL A   1      29.428  26.892  24.430  1.00  0.00    -0.167 F 
ENDBRANCH  17  28
ENDBRANCH   6   8
ENDBRANCH   5   6
ENDBRANCH   4   5
ENDBRANCH   3   4
ENDBRANCH   2   3
ENDBRANCH   1   2
BRANCH   1  32
ATOM     32  C   UNL A   1      34.599  32.024  28.364  1.00  0.00     0.188 C 
BRANCH  32  33
ATOM     33  O   UNL A   1      35.659  32.904  28.021  1.00  0.00    -0.376 OA
BRANCH  33  34
ATOM     34  C   UNL A   1      36.113  33.576  29.187  1.00  0.00     0.202 C 
BRANCH  34  35
ATOM     35  C   UNL A   1      35.505  32.923  30.417  1.00  0.00     0.261 C 
BRANCH  35  36
ATOM     36  O   UNL A   1      36.539  32.410  31.243  1.00  0.00    -0.460 OA
BRANCH  36  37
ATOM     37  C   UNL A   1      36.869  31.029  31.194  1.00  0.00     0.338 C 
ATOM     38  O   UNL A   1      36.038  30.164  31.614  1.00  0.00    -0.246 OA
BRANCH  37  39
ATOM     39  C   UNL A   1      38.213  30.589  30.641  1.00  0.00     0.060 A 
ATOM     40  C   UNL A   1      39.234  30.261  31.518  1.00  0.00     0.016 A 
ATOM     41  C   UNL A   1      38.389  30.524  29.326  1.00  0.00     0.016 A 
ATOM     42  C   UNL A   1      40.505  30.153  30.905  1.00  0.00     0.010 A 
ATOM     43  C   UNL A   1      39.632  30.279  28.797  1.00  0.00     0.010 A 
ATOM     44  C   UNL A   1      40.700  30.005  29.607  1.00  0.00    -0.014 A 
BRANCH  44  45
ATOM     45  C   UNL A   1      42.039  29.558  29.044  1.00  0.00     0.031 A 
ATOM     46  C   UNL A   1      43.055  30.508  28.932  1.00  0.00     0.074 A 
ATOM     47  C   UNL A   1      42.174  28.231  28.670  1.00  0.00     0.049 A 
ATOM     48  N   UNL A   1      44.302  30.317  28.497  1.00  0.00    -0.248 NA
ATOM     49  C   UNL A   1      42.903  31.924  29.296  1.00  0.00     0.031 C 
ATOM     50  C   UNL A   1      41.156  27.265  28.788  1.00  0.00     0.029 A 
ATOM     51  N   UNL A   1      43.280  27.614  28.132  1.00  0.00    -0.354 N 
ATOM     52  C   UNL A   1      44.988  31.461  28.553  1.00  0.00     0.074 A 
ATOM     53  C   UNL A   1      44.097  32.512  29.061  1.00  0.00     0.031 C 
ATOM     54  C   UNL A   1      41.638  26.085  28.316  1.00  0.00     0.029 A 
ATOM     55  C   UNL A   1      42.966  26.294  27.897  1.00  0.00     0.049 A 
ATOM     56  H   UNL A   1      44.148  28.042  27.946  1.00  0.00     0.167 HD
ATOM     57  C   UNL A   1      46.323  31.667  28.202  1.00  0.00     0.037 A 
ATOM     58  C   UNL A   1      43.775  25.313  27.347  1.00  0.00     0.037 A 
ATOM     59  C   UNL A   1      47.147  30.675  27.693  1.00  0.00     0.049 A 
ATOM     60  C   UNL A   1      45.094  25.532  26.941  1.00  0.00     0.074 A 
ATOM     61  C   UNL A   1      48.496  30.865  27.341  1.00  0.00     0.029 A 
ATOM     62  N   UNL A   1      46.824  29.361  27.435  1.00  0.00    -0.354 N 
ATOM     63  N   UNL A   1      45.792  26.665  27.034  1.00  0.00    -0.248 NA
ATOM     64  C   UNL A   1      45.950  24.510  26.327  1.00  0.00     0.031 C 
ATOM     65  C   UNL A   1      48.979  29.684  26.869  1.00  0.00     0.029 A 
ATOM     66  C   UNL A   1      47.938  28.738  26.917  1.00  0.00     0.049 A 
ATOM     67  H   UNL A   1      45.948  28.941  27.592  1.00  0.00     0.167 HD
ATOM     68  C   UNL A   1      47.026  26.485  26.560  1.00  0.00     0.074 A 
ATOM     69  C   UNL A   1      47.143  25.098  26.092  1.00  0.00     0.031 C 
ATOM     70  C   UNL A   1      48.060  27.421  26.502  1.00  0.00     0.037 A 
BRANCH  57  71
ATOM     71  C   UNL A   1      46.907  33.058  28.390  1.00  0.00     0.058 A 
ATOM     72  C   UNL A   1      47.540  33.344  29.587  1.00  0.00     0.135 A 
ATOM     73  C   UNL A   1      46.881  33.940  27.397  1.00  0.00     0.135 A 
ATOM     74  F   UNL A   1      47.812  32.418  30.504  1.00  0.00    -0.206 F 
ATOM     75  C   UNL A   1      47.871  34.711  29.749  1.00  0.00     0.059 A 
ATOM     76  C   UNL A   1      47.346  35.219  27.585  1.00  0.00     0.059 A 
ATOM     77  F   UNL A   1      46.400  33.581  26.210  1.00  0.00    -0.206 F 
ATOM     78  C   UNL A   1      47.930  35.589  28.765  1.00  0.00     0.060 A 
BRANCH  78  79
ATOM     79  S   UNL A   1      48.741  37.193  28.967  1.00  0.00     0.124 S 
ATOM     80  O   UNL A   1      49.842  37.080  30.023  1.00  0.00    -0.237 OA
ATOM     81  O   UNL A   1      49.355  37.627  27.634  1.00  0.00    -0.237 OA
ATOM     82  O   UNL A   1      47.590  38.355  29.468  1.00  0.00    -0.744 OA
ENDBRANCH  78  79
ENDBRANCH  57  71
BRANCH  58  83
ATOM     83  C   UNL A   1      43.196  23.918  27.175  1.00  0.00     0.058 A 
ATOM     84  C   UNL A   1      43.222  23.034  28.241  1.00  0.00     0.135 A 
ATOM     85  C   UNL A   1      42.750  23.545  25.981  1.00  0.00     0.135 A 
ATOM     86  F   UNL A   1      43.415  23.419  29.499  1.00  0.00    -0.206 F 
ATOM     87  C   UNL A   1      43.024  21.682  27.870  1.00  0.00     0.059 A 
ATOM     88  C   UNL A   1      42.446  22.229  25.728  1.00  0.00     0.059 A 
ATOM     89  F   UNL A   1      42.597  24.453  25.022  1.00  0.00    -0.206 F 
ATOM     90  C   UNL A   1      42.507  21.290  26.720  1.00  0.00     0.060 A 
BRANCH  90  91
ATOM     91  S   UNL A   1      41.910  19.599  26.471  1.00  0.00     0.124 S 
ATOM     92  O   UNL A   1      42.193  18.769  27.725  1.00  0.00    -0.237 OA
ATOM     93  O   UNL A   1      40.404  19.624  26.204  1.00  0.00    -0.237 OA
ATOM     94  O   UNL A   1      42.716  18.902  25.133  1.00  0.00    -0.744 OA
ENDBRANCH  90  91
ENDBRANCH  58  83
BRANCH  70  95
ATOM     95  C   UNL A   1      49.403  26.968  25.952  1.00  0.00     0.058 A 
ATOM     96  C   UNL A   1      50.319  26.373  26.804  1.00  0.00     0.135 A 
ATOM     97  C   UNL A   1      49.674  27.146  24.665  1.00  0.00     0.135 A 
ATOM     98  F   UNL A   1      50.006  25.947  28.024  1.00  0.00    -0.206 F 
ATOM     99  C   UNL A   1      51.620  26.262  26.258  1.00  0.00     0.059 A 
ATOM    100  C   UNL A   1      50.930  26.888  24.172  1.00  0.00     0.059 A 
ATOM    101  F   UNL A   1      48.721  27.579  23.845  1.00  0.00    -0.206 F 
ATOM    102  C   UNL A   1      51.903  26.356  24.972  1.00  0.00     0.060 A 
BRANCH 102 103
ATOM    103  S   UNL A   1      53.494  25.809  24.304  1.00  0.00     0.124 S 
ATOM    104  O   UNL A   1      53.508  26.013  22.787  1.00  0.00    -0.237 OA
ATOM    105  O   UNL A   1      54.623  26.624  24.939  1.00  0.00    -0.237 OA
ATOM    106  O   UNL A   1      53.720  24.151  24.658  1.00  0.00    -0.744 OA
ENDBRANCH 102 103
ENDBRANCH  70  95
ENDBRANCH  44  45
ENDBRANCH  37  39
ENDBRANCH  36  37
ENDBRANCH  35  36
ENDBRANCH  34  35
ENDBRANCH  33  34
ENDBRANCH  32  33
ENDBRANCH   1  32
TORSDOF 25
ENDMDL
MODEL 2
REMARK VINA RESULT:      -9.8      1.310      1.849
REMARK SMILES CCCCc1cc(S(F)(F)(F)(F)F)cc2c1O[C@@H](C(F)(F)F)C(C(=O)OCCOCCOCCOC(=O)c1ccc(-c3c4nc(c(-c5c(F)cc(S(=O)(=O)[O-])cc5F)c5ccc([nH]5)c(-c5c(F)cc(S(=O)(=O)[O-])cc5F)c5nc(c(-c6c(F)cc(S(=O)(=O)[O-])cc6F)c6ccc3[nH]6)C=C5)C=C4)cc1)=C2
REMARK SMILES IDX 30 1 29 2 28 3 27 4 26 5 24 6 25 7 23 8 5 9 6 10 16 11 7 12
REMARK SMILES IDX 15 13 17 14 14 15 104 16 18 17 4 18 3 19 2 20 1 21 8 22 9 23
REMARK SMILES IDX 10 24 11 25 12 26 13 27 19 28 20 29 21 30 22 31 31 32 32 33
REMARK SMILES IDX 33 34 34 35 35 36 36 37 37 38 38 39 39 40 103 41 40 42
REMARK SMILES IDX 102 43 41 44 42 45 43 46 96 47 44 48 101 49 95 50 97 51
REMARK SMILES IDX 45 52 100 53 94 54 93 55 46 57 80 58 59 59 79 60 60 61 63 62
REMARK SMILES IDX 78 63 98 64 61 65 62 66 77 68 99 69 64 70 47 71 48 72 57 73
REMARK SMILES IDX 49 74 50 75 56 76 58 77 51 78 52 79 53 80 54 81 55 82 81 83
REMARK SMILES IDX 82 84 91 85 83 86 84 87 90 88 92 89 85 90 86 91 87 92 88 93
REMARK SMILES IDX 89 94 65 95 66 96 75 97 67 98 68 99 74 100 76 101 69 102
REMARK SMILES IDX 70 103 71 104 72 105 73 106
REMARK H PARENT 97 56 63 67
REMARK Flexibility Score: inf
ROOT
ATOM      1  C   UNL A   1      33.202  32.481  27.670  1.00  0.00     0.188 C 
ENDROOT
BRANCH   1   2
ATOM      2  O   UNL A   1      32.447  31.437  27.072  1.00  0.00    -0.376 OA
BRANCH   2   3
ATOM      3  C   UNL A   1      33.302  30.343  26.778  1.00  0.00     0.202 C 
BRANCH   3   4
ATOM      4  C   UNL A   1      32.594  29.041  27.115  1.00  0.00     0.261 C 
BRANCH   4   5
ATOM      5  O   UNL A   1      31.616  28.763  26.125  1.00  0.00    -0.460 OA
BRANCH   5   6
ATOM      6  C   UNL A   1      32.015  28.313  24.838  1.00  0.00     0.338 C 
ATOM      7  O   UNL A   1      32.092  29.136  23.873  1.00  0.00    -0.246 OA
BRANCH   6   8
ATOM      8  C   UNL A   1      32.350  26.848  24.615  1.00  0.00     0.087 C 
ATOM      9  C   UNL A   1      33.054  22.733  24.458  1.00  0.00    -0.004 A 
ATOM     10  C   UNL A   1      34.350  22.252  24.512  1.00  0.00     0.032 A 
ATOM     11  C   UNL A   1      32.848  24.087  24.565  1.00  0.00     0.131 A 
ATOM     12  C   UNL A   1      35.411  23.103  24.675  1.00  0.00     0.108 A 
ATOM     13  C   UNL A   1      33.896  24.978  24.712  1.00  0.00     0.019 A 
ATOM     14  O   UNL A   1      31.552  24.539  24.622  1.00  0.00    -0.475 OA
ATOM     15  C   UNL A   1      35.185  24.460  24.768  1.00  0.00     0.036 A 
ATOM     16  C   UNL A   1      33.571  26.387  24.856  1.00  0.00     0.027 C 
ATOM     17  C   UNL A   1      31.293  25.876  24.109  1.00  0.00     0.316 C 
BRANCH   9  18
ATOM     18  C   UNL A   1      31.882  21.783  24.282  1.00  0.00     0.039 C 
BRANCH  18  19
ATOM     19  C   UNL A   1      32.335  20.556  23.507  1.00  0.00     0.005 C 
BRANCH  19  20
ATOM     20  C   UNL A   1      32.363  19.352  24.436  1.00  0.00    -0.003 C 
ATOM     21  C   UNL A   1      33.792  18.857  24.582  1.00  0.00     0.004 C 
ENDBRANCH  19  20
ENDBRANCH  18  19
ENDBRANCH   9  18
BRANCH  12  22
ATOM     22  S   UNL A   1      37.096  22.451  24.768  1.00  0.00     0.310 S 
ATOM     23  F   UNL A   1      37.676  23.843  25.259  1.00  0.00    -0.094 F 
ATOM     24  F   UNL A   1      37.339  22.949  23.292  1.00  0.00    -0.094 F 
ATOM     25  F   UNL A   1      38.545  21.891  24.847  1.00  0.00    -0.094 F 
ATOM     26  F   UNL A   1      36.882  22.085  26.289  1.00  0.00    -0.094 F 
ATOM     27  F   UNL A   1      35.663  23.116  24.740  1.00  0.00    -0.094 F 
ENDBRANCH  12  22
BRANCH  17  28
ATOM     28  C   UNL A   1      29.926  26.336  24.592  1.00  0.00     0.430 C 
ATOM     29  F   UNL A   1      29.007  25.443  24.235  1.00  0.00    -0.167 F 
ATOM     30  F   UNL A   1      29.941  26.452  25.917  1.00  0.00    -0.167 F 
ATOM     31  F   UNL A   1      29.636  27.513  24.047  1.00  0.00    -0.167 F 
ENDBRANCH  17  28
ENDBRANCH   6   8
ENDBRANCH   5   6
ENDBRANCH   4   5
ENDBRANCH   3   4
ENDBRANCH   2   3
ENDBRANCH   1   2
BRANCH   1  32
ATOM     32  C   UNL A   1      34.422  31.892  28.358  1.00  0.00     0.188 C 
BRANCH  32  33
ATOM     33  O   UNL A   1      35.449  32.871  28.417  1.00  0.00    -0.376 OA
BRANCH  33  34
ATOM     34  C   UNL A   1      36.211  32.688  29.601  1.00  0.00     0.202 C 
BRANCH  34  35
ATOM     35  C   UNL A   1      35.774  31.407  30.292  1.00  0.00     0.261 C 
BRANCH  35  36
ATOM     36  O   UNL A   1      36.878  30.521  30.392  1.00  0.00    -0.460 OA
BRANCH  36  37
ATOM     37  C   UNL A   1      37.233  29.699  29.289  1.00  0.00     0.338 C 
ATOM     38  O   UNL A   1      36.325  29.156  28.586  1.00  0.00    -0.246 OA
BRANCH  37  39
ATOM     39  C   UNL A   1      38.696  29.472  28.951  1.00  0.00     0.060 A 
ATOM     40  C   UNL A   1      39.620  29.356  29.977  1.00  0.00     0.016 A 
ATOM     41  C   UNL A   1      39.067  29.388  27.679  1.00  0.00     0.016 A 
ATOM     42  C   UNL A   1      40.966  29.441  29.549  1.00  0.00     0.010 A 
ATOM     43  C   UNL A   1      40.397  29.336  27.340  1.00  0.00     0.010 A 
ATOM     44  C   UNL A   1      41.367  29.278  28.301  1.00  0.00    -0.014 A 
BRANCH  44  45
ATOM     45  C   UNL A   1      42.828  29.043  27.954  1.00  0.00     0.031 A 
ATOM     46  C   UNL A   1      43.715  30.111  28.089  1.00  0.00     0.074 A 
ATOM     47  C   UNL A   1      43.195  27.780  27.518  1.00  0.00     0.049 A 
ATOM     48  N   UNL A   1      45.031  30.107  27.869  1.00  0.00    -0.248 NA
ATOM     49  C   UNL A   1      43.322  31.461  28.517  1.00  0.00     0.031 C 
ATOM     50  C   UNL A   1      42.306  26.695  27.388  1.00  0.00     0.029 A 
ATOM     51  N   UNL A   1      44.446  27.347  27.142  1.00  0.00    -0.354 N 
ATOM     52  C   UNL A   1      45.544  31.313  28.124  1.00  0.00     0.074 A 
ATOM     53  C   UNL A   1      44.452  32.203  28.539  1.00  0.00     0.031 C 
ATOM     54  C   UNL A   1      43.009  25.628  26.927  1.00  0.00     0.029 A 
ATOM     55  C   UNL A   1      44.350  26.027  26.764  1.00  0.00     0.049 A 
ATOM     56  H   UNL A   1      45.269  27.889  27.143  1.00  0.00     0.167 HD
ATOM     57  C   UNL A   1      46.880  31.704  28.029  1.00  0.00     0.037 A 
ATOM     58  C   UNL A   1      45.360  25.201  26.299  1.00  0.00     0.037 A 
ATOM     59  C   UNL A   1      47.899  30.865  27.605  1.00  0.00     0.049 A 
ATOM     60  C   UNL A   1      46.688  25.608  26.148  1.00  0.00     0.074 A 
ATOM     61  C   UNL A   1      49.252  31.242  27.511  1.00  0.00     0.029 A 
ATOM     62  N   UNL A   1      47.798  29.551  27.204  1.00  0.00    -0.354 N 
ATOM     63  N   UNL A   1      47.207  26.802  26.441  1.00  0.00    -0.248 NA
ATOM     64  C   UNL A   1      47.760  24.752  25.626  1.00  0.00     0.031 C 
ATOM     65  C   UNL A   1      49.956  30.173  27.050  1.00  0.00     0.029 A 
ATOM     66  C   UNL A   1      49.054  29.112  26.849  1.00  0.00     0.049 A 
ATOM     67  H   UNL A   1      46.971  29.019  27.175  1.00  0.00     0.167 HD
ATOM     68  C   UNL A   1      48.515  26.810  26.181  1.00  0.00     0.074 A 
ATOM     69  C   UNL A   1      48.889  25.494  25.646  1.00  0.00     0.031 C 
ATOM     70  C   UNL A   1      49.414  27.861  26.372  1.00  0.00     0.037 A 
BRANCH  57  71
ATOM     71  C   UNL A   1      47.239  33.131  28.412  1.00  0.00     0.058 A 
ATOM     72  C   UNL A   1      47.186  34.104  27.429  1.00  0.00     0.135 A 
ATOM     73  C   UNL A   1      47.513  33.441  29.674  1.00  0.00     0.135 A 
ATOM     74  F   UNL A   1      46.674  33.887  26.221  1.00  0.00    -0.206 F 
ATOM     75  C   UNL A   1      47.726  35.351  27.826  1.00  0.00     0.059 A 
ATOM     76  C   UNL A   1      47.904  34.714  30.013  1.00  0.00     0.059 A 
ATOM     77  F   UNL A   1      47.409  32.511  30.619  1.00  0.00    -0.206 F 
ATOM     78  C   UNL A   1      47.932  35.713  29.079  1.00  0.00     0.060 A 
BRANCH  78  79
ATOM     79  S   UNL A   1      48.234  37.437  29.536  1.00  0.00     0.124 S 
ATOM     80  O   UNL A   1      47.032  38.292  29.127  1.00  0.00    -0.237 OA
ATOM     81  O   UNL A   1      48.441  37.537  31.049  1.00  0.00    -0.237 OA
ATOM     82  O   UNL A   1      49.634  38.003  28.732  1.00  0.00    -0.744 OA
ENDBRANCH  78  79
ENDBRANCH  57  71
BRANCH  58  83
ATOM     83  C   UNL A   1      45.005  23.769  25.932  1.00  0.00     0.058 A 
ATOM     84  C   UNL A   1      45.236  22.754  26.845  1.00  0.00     0.135 A 
ATOM     85  C   UNL A   1      44.555  23.508  24.710  1.00  0.00     0.135 A 
ATOM     86  F   UNL A   1      45.439  22.976  28.140  1.00  0.00    -0.206 F 
ATOM     87  C   UNL A   1      45.237  21.458  26.275  1.00  0.00     0.059 A 
ATOM     88  C   UNL A   1      44.452  22.212  24.265  1.00  0.00     0.059 A 
ATOM     89  F   UNL A   1      44.200  24.509  23.910  1.00  0.00    -0.206 F 
ATOM     90  C   UNL A   1      44.723  21.159  25.096  1.00  0.00     0.060 A 
BRANCH  90  91
ATOM     91  S   UNL A   1      44.392  19.448  24.606  1.00  0.00     0.124 S 
ATOM     92  O   UNL A   1      45.448  18.528  25.225  1.00  0.00    -0.237 OA
ATOM     93  O   UNL A   1      43.004  19.035  25.098  1.00  0.00    -0.237 OA
ATOM     94  O   UNL A   1      44.455  19.321  22.902  1.00  0.00    -0.744 OA
ENDBRANCH  90  91
ENDBRANCH  58  83
BRANCH  70  95
ATOM     95  C   UNL A   1      50.877  27.619  26.037  1.00  0.00     0.058 A 
ATOM     96  C   UNL A   1      51.721  27.112  27.011  1.00  0.00     0.135 A 
ATOM     97  C   UNL A   1      51.321  27.895  24.816  1.00  0.00     0.135 A 
ATOM     98  F   UNL A   1      51.281  26.589  28.152  1.00  0.00    -0.206 F 
ATOM     99  C   UNL A   1      53.095  27.203  26.683  1.00  0.00     0.059 A 
ATOM    100  C   UNL A   1      52.663  27.831  24.529  1.00  0.00     0.059 A 
ATOM    101  F   UNL A   1      50.459  28.236  23.863  1.00  0.00    -0.206 F 
ATOM    102  C   UNL A   1      53.562  27.396  25.463  1.00  0.00     0.060 A 
BRANCH 102 103
ATOM    103  S   UNL A   1      55.299  27.100  25.050  1.00  0.00     0.124 S 
ATOM    104  O   UNL A   1      55.551  25.594  24.952  1.00  0.00    -0.237 OA
ATOM    105  O   UNL A   1      55.626  27.761  23.709  1.00  0.00    -0.237 OA
ATOM    106  O   UNL A   1      56.296  27.766  26.270  1.00  0.00    -0.744 OA
ENDBRANCH 102 103
ENDBRANCH  70  95
ENDBRANCH  44  45
ENDBRANCH  37  39
ENDBRANCH  36  37
ENDBRANCH  35  36
ENDBRANCH  34  35
ENDBRANCH  33  34
ENDBRANCH  32  33
ENDBRANCH   1  32
TORSDOF 25
ENDMDL
MODEL 3
REMARK VINA RESULT:      -9.5      5.005     10.203
REMARK SMILES CCCCc1cc(S(F)(F)(F)(F)F)cc2c1O[C@@H](C(F)(F)F)C(C(=O)OCCOCCOCCOC(=O)c1ccc(-c3c4nc(c(-c5c(F)cc(S(=O)(=O)[O-])cc5F)c5ccc([nH]5)c(-c5c(F)cc(S(=O)(=O)[O-])cc5F)c5nc(c(-c6c(F)cc(S(=O)(=O)[O-])cc6F)c6ccc3[nH]6)C=C5)C=C4)cc1)=C2
REMARK SMILES IDX 30 1 29 2 28 3 27 4 26 5 24 6 25 7 23 8 5 9 6 10 16 11 7 12
REMARK SMILES IDX 15 13 17 14 14 15 104 16 18 17 4 18 3 19 2 20 1 21 8 22 9 23
REMARK SMILES IDX 10 24 11 25 12 26 13 27 19 28 20 29 21 30 22 31 31 32 32 33
REMARK SMILES IDX 33 34 34 35 35 36 36 37 37 38 38 39 39 40 103 41 40 42
REMARK SMILES IDX 102 43 41 44 42 45 43 46 96 47 44 48 101 49 95 50 97 51
REMARK SMILES IDX 45 52 100 53 94 54 93 55 46 57 80 58 59 59 79 60 60 61 63 62
REMARK SMILES IDX 78 63 98 64 61 65 62 66 77 68 99 69 64 70 47 71 48 72 57 73
REMARK SMILES IDX 49 74 50 75 56 76 58 77 51 78 52 79 53 80 54 81 55 82 81 83
REMARK SMILES IDX 82 84 91 85 83 86 84 87 90 88 92 89 85 90 86 91 87 92 88 93
REMARK SMILES IDX 89 94 65 95 66 96 75 97 67 98 68 99 74 100 76 101 69 102
REMARK SMILES IDX 70 103 71 104 72 105 73 106
REMARK H PARENT 97 56 63 67
REMARK Flexibility Score: inf
ROOT
ATOM      1  C   UNL A   1      32.810  27.297  25.547  1.00  0.00     0.188 C 
ENDROOT
BRANCH   1   2
ATOM      2  O   UNL A   1      32.497  25.970  25.150  1.00  0.00    -0.376 OA
BRANCH   2   3
ATOM      3  C   UNL A   1      32.344  25.155  26.302  1.00  0.00     0.202 C 
BRANCH   3   4
ATOM      4  C   UNL A   1      33.093  23.847  26.101  1.00  0.00     0.261 C 
BRANCH   4   5
ATOM      5  O   UNL A   1      34.478  24.056  26.325  1.00  0.00    -0.460 OA
BRANCH   5   6
ATOM      6  C   UNL A   1      35.403  23.900  25.258  1.00  0.00     0.338 C 
ATOM      7  O   UNL A   1      35.066  24.218  24.075  1.00  0.00    -0.246 OA
BRANCH   6   8
ATOM      8  C   UNL A   1      36.794  23.354  25.531  1.00  0.00     0.087 C 
ATOM      9  C   UNL A   1      40.411  21.607  26.678  1.00  0.00    -0.004 A 
ATOM     10  C   UNL A   1      41.436  22.398  27.167  1.00  0.00     0.032 A 
ATOM     11  C   UNL A   1      39.214  22.201  26.358  1.00  0.00     0.131 A 
ATOM     12  C   UNL A   1      41.264  23.747  27.337  1.00  0.00     0.108 A 
ATOM     13  C   UNL A   1      39.011  23.562  26.499  1.00  0.00     0.019 A 
ATOM     14  O   UNL A   1      38.173  21.388  25.981  1.00  0.00    -0.475 OA
ATOM     15  C   UNL A   1      40.060  24.326  26.998  1.00  0.00     0.036 A 
ATOM     16  C   UNL A   1      37.697  24.087  26.170  1.00  0.00     0.027 C 
ATOM     17  C   UNL A   1      37.185  21.955  25.076  1.00  0.00     0.316 C 
BRANCH   9  18
ATOM     18  C   UNL A   1      40.607  20.111  26.497  1.00  0.00     0.039 C 
BRANCH  18  19
ATOM     19  C   UNL A   1      42.004  19.723  26.954  1.00  0.00     0.005 C 
BRANCH  19  20
ATOM     20  C   UNL A   1      42.774  19.134  25.784  1.00  0.00    -0.003 C 
ATOM     21  C   UNL A   1      43.866  20.102  25.357  1.00  0.00     0.004 C 
ENDBRANCH  19  20
ENDBRANCH  18  19
ENDBRANCH   9  18
BRANCH  12  22
ATOM     22  S   UNL A   1      42.609  24.759  28.000  1.00  0.00     0.310 S 
ATOM     23  F   UNL A   1      43.711  23.729  27.511  1.00  0.00    -0.094 F 
ATOM     24  F   UNL A   1      42.531  23.932  29.340  1.00  0.00    -0.094 F 
ATOM     25  F   UNL A   1      43.765  25.629  28.572  1.00  0.00    -0.094 F 
ATOM     26  F   UNL A   1      42.768  25.481  26.605  1.00  0.00    -0.094 F 
ATOM     27  F   UNL A   1      41.515  23.809  27.369  1.00  0.00    -0.094 F 
ENDBRANCH  12  22
BRANCH  17  28
ATOM     28  C   UNL A   1      35.947  21.071  25.077  1.00  0.00     0.430 C 
ATOM     29  F   UNL A   1      36.309  19.802  24.904  1.00  0.00    -0.167 F 
ATOM     30  F   UNL A   1      35.313  21.197  26.239  1.00  0.00    -0.167 F 
ATOM     31  F   UNL A   1      35.138  21.439  24.088  1.00  0.00    -0.167 F 
ENDBRANCH  17  28
ENDBRANCH   6   8
ENDBRANCH   5   6
ENDBRANCH   4   5
ENDBRANCH   3   4
ENDBRANCH   2   3
ENDBRANCH   1   2
BRANCH   1  32
ATOM     32  C   UNL A   1      31.945  27.688  26.733  1.00  0.00     0.188 C 
BRANCH  32  33
ATOM     33  O   UNL A   1      32.610  28.685  27.495  1.00  0.00    -0.376 OA
BRANCH  33  34
ATOM     34  C   UNL A   1      32.272  29.970  26.992  1.00  0.00     0.202 C 
BRANCH  34  35
ATOM     35  C   UNL A   1      33.523  30.829  26.918  1.00  0.00     0.261 C 
BRANCH  35  36
ATOM     36  O   UNL A   1      33.726  31.481  28.163  1.00  0.00    -0.460 OA
BRANCH  36  37
ATOM     37  C   UNL A   1      34.397  32.732  28.208  1.00  0.00     0.338 C 
ATOM     38  O   UNL A   1      33.803  33.785  27.817  1.00  0.00    -0.246 OA
BRANCH  37  39
ATOM     39  C   UNL A   1      35.824  32.810  28.725  1.00  0.00     0.060 A 
ATOM     40  C   UNL A   1      36.763  31.903  28.263  1.00  0.00     0.016 A 
ATOM     41  C   UNL A   1      36.147  33.745  29.610  1.00  0.00     0.016 A 
ATOM     42  C   UNL A   1      37.960  31.882  29.018  1.00  0.00     0.010 A 
ATOM     43  C   UNL A   1      37.384  33.745  30.207  1.00  0.00     0.010 A 
ATOM     44  C   UNL A   1      38.342  32.840  29.842  1.00  0.00    -0.014 A 
BRANCH  44  45
ATOM     45  C   UNL A   1      39.769  32.931  30.358  1.00  0.00     0.031 A 
ATOM     46  C   UNL A   1      40.203  31.961  31.262  1.00  0.00     0.074 A 
ATOM     47  C   UNL A   1      40.557  33.976  29.904  1.00  0.00     0.049 A 
ATOM     48  N   UNL A   1      41.415  31.841  31.807  1.00  0.00    -0.248 NA
ATOM     49  C   UNL A   1      39.357  30.872  31.772  1.00  0.00     0.031 C 
ATOM     50  C   UNL A   1      40.129  34.953  28.986  1.00  0.00     0.029 A 
ATOM     51  N   UNL A   1      41.861  34.258  30.242  1.00  0.00    -0.354 N 
ATOM     52  C   UNL A   1      41.456  30.776  32.610  1.00  0.00     0.074 A 
ATOM     53  C   UNL A   1      40.132  30.141  32.604  1.00  0.00     0.031 C 
ATOM     54  C   UNL A   1      41.155  35.820  28.783  1.00  0.00     0.029 A 
ATOM     55  C   UNL A   1      42.244  35.397  29.570  1.00  0.00     0.049 A 
ATOM     56  H   UNL A   1      42.425  33.736  30.859  1.00  0.00     0.167 HD
ATOM     57  C   UNL A   1      42.547  30.309  33.345  1.00  0.00     0.037 A 
ATOM     58  C   UNL A   1      43.466  36.047  29.627  1.00  0.00     0.037 A 
ATOM     59  C   UNL A   1      43.783  30.934  33.368  1.00  0.00     0.049 A 
ATOM     60  C   UNL A   1      44.540  35.613  30.408  1.00  0.00     0.074 A 
ATOM     61  C   UNL A   1      44.895  30.472  34.098  1.00  0.00     0.029 A 
ATOM     62  N   UNL A   1      44.158  32.087  32.714  1.00  0.00    -0.354 N 
ATOM     63  N   UNL A   1      44.593  34.526  31.179  1.00  0.00    -0.248 NA
ATOM     64  C   UNL A   1      45.828  36.311  30.502  1.00  0.00     0.031 C 
ATOM     65  C   UNL A   1      45.923  31.339  33.894  1.00  0.00     0.029 A 
ATOM     66  C   UNL A   1      45.470  32.357  33.036  1.00  0.00     0.049 A 
ATOM     67  H   UNL A   1      43.586  32.626  32.121  1.00  0.00     0.167 HD
ATOM     68  C   UNL A   1      45.792  34.430  31.756  1.00  0.00     0.074 A 
ATOM     69  C   UNL A   1      46.601  35.581  31.335  1.00  0.00     0.031 C 
ATOM     70  C   UNL A   1      46.245  33.426  32.615  1.00  0.00     0.037 A 
BRANCH  57  71
ATOM     71  C   UNL A   1      42.369  29.041  34.165  1.00  0.00     0.058 A 
ATOM     72  C   UNL A   1      41.864  29.160  35.449  1.00  0.00     0.135 A 
ATOM     73  C   UNL A   1      42.613  27.851  33.629  1.00  0.00     0.135 A 
ATOM     74  F   UNL A   1      41.370  30.297  35.932  1.00  0.00    -0.206 F 
ATOM     75  C   UNL A   1      41.923  27.963  36.201  1.00  0.00     0.059 A 
ATOM     76  C   UNL A   1      42.519  26.710  34.387  1.00  0.00     0.059 A 
ATOM     77  F   UNL A   1      42.953  27.764  32.346  1.00  0.00    -0.206 F 
ATOM     78  C   UNL A   1      42.084  26.759  35.683  1.00  0.00     0.060 A 
BRANCH  78  79
ATOM     79  S   UNL A   1      41.748  25.258  36.635  1.00  0.00     0.124 S 
ATOM     80  O   UNL A   1      41.580  24.074  35.680  1.00  0.00    -0.237 OA
ATOM     81  O   UNL A   1      42.914  24.984  37.588  1.00  0.00    -0.237 OA
ATOM     82  O   UNL A   1      40.311  25.467  37.540  1.00  0.00    -0.744 OA
ENDBRANCH  78  79
ENDBRANCH  57  71
BRANCH  58  83
ATOM     83  C   UNL A   1      43.649  37.305  28.793  1.00  0.00     0.058 A 
ATOM     84  C   UNL A   1      43.355  38.539  29.348  1.00  0.00     0.135 A 
ATOM     85  C   UNL A   1      44.009  37.190  27.520  1.00  0.00     0.135 A 
ATOM     86  F   UNL A   1      43.239  38.737  30.658  1.00  0.00    -0.206 F 
ATOM     87  C   UNL A   1      43.188  39.572  28.394  1.00  0.00     0.059 A 
ATOM     88  C   UNL A   1      43.952  38.273  26.676  1.00  0.00     0.059 A 
ATOM     89  F   UNL A   1      44.430  36.016  27.058  1.00  0.00    -0.206 F 
ATOM     90  C   UNL A   1      43.611  39.512  27.145  1.00  0.00     0.060 A 
BRANCH  90  91
ATOM     91  S   UNL A   1      43.733  40.990  26.108  1.00  0.00     0.124 S 
ATOM     92  O   UNL A   1      44.156  42.183  26.969  1.00  0.00    -0.237 OA
ATOM     93  O   UNL A   1      44.773  40.759  25.010  1.00  0.00    -0.237 OA
ATOM     94  O   UNL A   1      42.212  41.313  25.395  1.00  0.00    -0.744 OA
ENDBRANCH  90  91
ENDBRANCH  58  83
BRANCH  70  95
ATOM     95  C   UNL A   1      47.677  33.511  33.119  1.00  0.00     0.058 A 
ATOM     96  C   UNL A   1      47.939  34.175  34.306  1.00  0.00     0.135 A 
ATOM     97  C   UNL A   1      48.651  32.946  32.415  1.00  0.00     0.135 A 
ATOM     98  F   UNL A   1      46.989  34.531  35.164  1.00  0.00    -0.206 F 
ATOM     99  C   UNL A   1      49.313  34.440  34.522  1.00  0.00     0.059 A 
ATOM    100  C   UNL A   1      49.966  33.136  32.763  1.00  0.00     0.059 A 
ATOM    101  F   UNL A   1      48.351  32.190  31.364  1.00  0.00    -0.206 F 
ATOM    102  C   UNL A   1      50.301  33.832  33.891  1.00  0.00     0.060 A 
BRANCH 102 103
ATOM    103  S   UNL A   1      52.008  33.917  34.488  1.00  0.00     0.124 S 
ATOM    104  O   UNL A   1      52.888  32.985  33.653  1.00  0.00    -0.237 OA
ATOM    105  O   UNL A   1      52.522  35.353  34.363  1.00  0.00    -0.237 OA
ATOM    106  O   UNL A   1      52.061  33.434  36.128  1.00  0.00    -0.744 OA
ENDBRANCH 102 103
ENDBRANCH  70  95
ENDBRANCH  44  45
ENDBRANCH  37  39
ENDBRANCH  36  37
ENDBRANCH  35  36
ENDBRANCH  34  35
ENDBRANCH  33  34
ENDBRANCH  32  33
ENDBRANCH   1  32
TORSDOF 25
ENDMDL
