MODEL 1
REMARK VINA RESULT:      -9.8      0.000      0.000
REMARK SMILES O=C(OCCOCCOCCOC(=O)c1ccc(-c2c3nc(c(-c4c(F)cc(S(=O)(=O)[O-])cc4F)c4ccc([nH]4)c(-c4c(F)cc(S(=O)(=O)[O-])cc4F)c4nc(c(-c5c(F)cc(S(=O)(=O)[O-])cc5F)c5ccc2[nH]5)C=C4)C=C3)cc1)C(=O)N1CC[N@@H+]2CCC[C@H]2C1
REMARK SMILES IDX 8 1 7 2 6 3 5 4 4 5 3 6 2 7 1 8 81 9 82 10 83 11 84 12 91 13
REMARK SMILES IDX 85 14 90 15 86 16 89 17 87 18 88 20 9 21 10 22 11 23 12 24
REMARK SMILES IDX 13 25 14 26 15 27 16 28 80 29 17 30 79 31 18 32 19 33 20 34
REMARK SMILES IDX 73 35 21 36 78 37 72 38 74 39 22 40 77 41 71 42 70 43 23 45
REMARK SMILES IDX 57 46 36 47 56 48 37 49 40 50 55 51 75 52 38 53 39 54 54 56
REMARK SMILES IDX 76 57 41 58 24 59 25 60 34 61 26 62 27 63 33 64 35 65 28 66
REMARK SMILES IDX 29 67 30 68 31 69 32 70 58 71 59 72 68 73 60 74 61 75 67 76
REMARK SMILES IDX 69 77 62 78 63 79 64 80 65 81 66 82 42 83 43 84 52 85 44 86
REMARK SMILES IDX 45 87 51 88 53 89 46 90 47 91 48 92 49 93 50 94
REMARK H PARENT 86 19 74 44 40 55
REMARK Flexibility Score: inf
ROOT
ATOM      1  C   UNL A   1      38.041  21.796  25.490  1.00  0.00     0.188 C 
ENDROOT
BRANCH   1   2
ATOM      2  C   UNL A   1      37.697  23.252  25.811  1.00  0.00     0.188 C 
BRANCH   2   3
ATOM      3  O   UNL A   1      36.339  23.657  25.580  1.00  0.00    -0.376 OA
BRANCH   3   4
ATOM      4  C   UNL A   1      35.324  22.655  25.659  1.00  0.00     0.202 C 
BRANCH   4   5
ATOM      5  C   UNL A   1      34.026  22.951  24.890  1.00  0.00     0.262 C 
BRANCH   5   6
ATOM      6  O   UNL A   1      34.317  23.566  23.629  1.00  0.00    -0.456 OA
BRANCH   6   7
ATOM      7  C   UNL A   1      33.355  24.007  22.794  1.00  0.00     0.397 C 
ATOM      8  O   UNL A   1      32.526  23.241  22.317  1.00  0.00    -0.240 OA
BRANCH   7   9
ATOM      9  C   UNL A   1      33.191  25.518  22.571  1.00  0.00     0.332 C 
ATOM     10  O   UNL A   1      33.646  25.966  21.520  1.00  0.00    -0.261 OA
BRANCH   9  11
ATOM     11  N   UNL A   1      32.636  26.329  23.569  1.00  0.00    -0.321 N 
ATOM     12  C   UNL A   1      31.721  25.896  24.635  1.00  0.00     0.181 C 
ATOM     13  C   UNL A   1      32.494  27.753  23.269  1.00  0.00     0.185 C 
ATOM     14  C   UNL A   1      30.229  26.223  24.264  1.00  0.00     0.284 C 
ATOM     15  C   UNL A   1      31.077  27.941  22.740  1.00  0.00     0.204 C 
ATOM     16  N   UNL A   1      30.073  27.595  23.768  1.00  0.00    -0.330 N 
ATOM     17  C   UNL A   1      30.649  29.351  22.398  1.00  0.00     0.073 C 
ATOM     18  C   UNL A   1      28.805  27.917  23.125  1.00  0.00     0.262 C 
ATOM     19  H   UNL A   1      30.163  28.118  24.640  1.00  0.00     0.348 HD
ATOM     20  C   UNL A   1      29.118  29.274  22.480  1.00  0.00     0.068 C 
ENDBRANCH   9  11
ENDBRANCH   7   9
ENDBRANCH   6   7
ENDBRANCH   5   6
ENDBRANCH   4   5
ENDBRANCH   3   4
ENDBRANCH   2   3
ENDBRANCH   1   2
BRANCH   1  21
ATOM     21  O   UNL A   1      39.386  21.412  25.767  1.00  0.00    -0.376 OA
BRANCH  21  22
ATOM     22  C   UNL A   1      40.034  22.127  26.810  1.00  0.00     0.202 C 
BRANCH  22  23
ATOM     23  C   UNL A   1      41.487  22.507  26.471  1.00  0.00     0.261 C 
BRANCH  23  24
ATOM     24  O   UNL A   1      41.703  23.913  26.263  1.00  0.00    -0.460 OA
BRANCH  24  25
ATOM     25  C   UNL A   1      42.590  24.470  27.124  1.00  0.00     0.338 C 
ATOM     26  O   UNL A   1      43.746  24.115  27.319  1.00  0.00    -0.246 OA
BRANCH  25  27
ATOM     27  C   UNL A   1      41.999  25.642  27.796  1.00  0.00     0.060 A 
ATOM     28  C   UNL A   1      42.801  26.773  27.984  1.00  0.00     0.016 A 
ATOM     29  C   UNL A   1      40.730  25.572  28.380  1.00  0.00     0.016 A 
ATOM     30  C   UNL A   1      42.369  27.800  28.828  1.00  0.00     0.010 A 
ATOM     31  C   UNL A   1      40.302  26.603  29.227  1.00  0.00     0.010 A 
ATOM     32  C   UNL A   1      41.143  27.695  29.502  1.00  0.00    -0.014 A 
BRANCH  32  33
ATOM     33  C   UNL A   1      40.850  28.633  30.621  1.00  0.00     0.031 A 
ATOM     34  C   UNL A   1      41.678  28.551  31.881  1.00  0.00     0.074 A 
ATOM     35  C   UNL A   1      39.916  29.595  30.500  1.00  0.00     0.049 A 
ATOM     36  N   UNL A   1      41.647  29.310  32.948  1.00  0.00    -0.248 NA
ATOM     37  C   UNL A   1      42.677  27.471  31.946  1.00  0.00     0.031 C 
ATOM     38  C   UNL A   1      39.056  29.795  29.336  1.00  0.00     0.029 A 
ATOM     39  N   UNL A   1      39.544  30.590  31.371  1.00  0.00    -0.354 N 
ATOM     40  C   UNL A   1      42.630  28.814  33.798  1.00  0.00     0.074 A 
ATOM     41  C   UNL A   1      43.206  27.658  33.147  1.00  0.00     0.031 C 
ATOM     42  C   UNL A   1      38.252  30.850  29.566  1.00  0.00     0.029 A 
ATOM     43  C   UNL A   1      38.535  31.393  30.893  1.00  0.00     0.049 A 
ATOM     44  H   UNL A   1      39.961  30.718  32.254  1.00  0.00     0.167 HD
ATOM     45  C   UNL A   1      43.035  29.287  35.002  1.00  0.00     0.037 A 
ATOM     46  C   UNL A   1      37.909  32.444  31.461  1.00  0.00     0.037 A 
ATOM     47  C   UNL A   1      42.463  30.434  35.661  1.00  0.00     0.049 A 
ATOM     48  C   UNL A   1      38.350  32.930  32.819  1.00  0.00     0.074 A 
ATOM     49  C   UNL A   1      42.806  30.986  36.883  1.00  0.00     0.029 A 
ATOM     50  N   UNL A   1      41.429  31.205  35.153  1.00  0.00    -0.354 N 
ATOM     51  N   UNL A   1      39.298  32.462  33.598  1.00  0.00    -0.248 NA
ATOM     52  C   UNL A   1      37.646  34.098  33.368  1.00  0.00     0.031 C 
ATOM     53  C   UNL A   1      41.956  32.070  37.131  1.00  0.00     0.029 A 
ATOM     54  C   UNL A   1      41.112  32.219  36.043  1.00  0.00     0.049 A 
ATOM     55  H   UNL A   1      40.985  31.055  34.287  1.00  0.00     0.167 HD
ATOM     56  C   UNL A   1      39.311  33.287  34.719  1.00  0.00     0.074 A 
ATOM     57  C   UNL A   1      38.296  34.297  34.507  1.00  0.00     0.031 C 
ATOM     58  C   UNL A   1      40.092  33.214  35.826  1.00  0.00     0.037 A 
BRANCH  45  59
ATOM     59  C   UNL A   1      44.159  28.564  35.689  1.00  0.00     0.058 A 
ATOM     60  C   UNL A   1      43.913  27.509  36.585  1.00  0.00     0.135 A 
ATOM     61  C   UNL A   1      45.497  28.895  35.421  1.00  0.00     0.135 A 
ATOM     62  F   UNL A   1      42.652  27.164  36.889  1.00  0.00    -0.206 F 
ATOM     63  C   UNL A   1      44.952  26.823  37.204  1.00  0.00     0.059 A 
ATOM     64  C   UNL A   1      46.553  28.206  36.012  1.00  0.00     0.059 A 
ATOM     65  F   UNL A   1      45.789  29.895  34.575  1.00  0.00    -0.206 F 
ATOM     66  C   UNL A   1      46.270  27.177  36.911  1.00  0.00     0.060 A 
BRANCH  66  67
ATOM     67  S   UNL A   1      47.608  26.267  37.711  1.00  0.00     0.124 S 
ATOM     68  O   UNL A   1      48.707  26.481  36.776  1.00  0.00    -0.237 OA
ATOM     69  O   UNL A   1      47.726  26.949  38.996  1.00  0.00    -0.237 OA
ATOM     70  O   UNL A   1      47.097  24.901  37.777  1.00  0.00    -0.744 OA
ENDBRANCH  66  67
ENDBRANCH  45  59
BRANCH  46  71
ATOM     71  C   UNL A   1      36.784  33.110  30.753  1.00  0.00     0.058 A 
ATOM     72  C   UNL A   1      37.008  34.066  29.752  1.00  0.00     0.135 A 
ATOM     73  C   UNL A   1      35.452  32.815  31.086  1.00  0.00     0.135 A 
ATOM     74  F   UNL A   1      38.264  34.393  29.409  1.00  0.00    -0.206 F 
ATOM     75  C   UNL A   1      35.957  34.723  29.121  1.00  0.00     0.059 A 
ATOM     76  C   UNL A   1      34.383  33.439  30.452  1.00  0.00     0.059 A 
ATOM     77  F   UNL A   1      35.182  31.901  32.031  1.00  0.00    -0.206 F 
ATOM     78  C   UNL A   1      34.647  34.403  29.480  1.00  0.00     0.060 A 
BRANCH  78  79
ATOM     79  S   UNL A   1      33.281  35.234  28.637  1.00  0.00     0.124 S 
ATOM     80  O   UNL A   1      33.994  36.170  27.777  1.00  0.00    -0.237 OA
ATOM     81  O   UNL A   1      32.614  34.126  27.960  1.00  0.00    -0.237 OA
ATOM     82  O   UNL A   1      32.526  35.832  29.735  1.00  0.00    -0.744 OA
ENDBRANCH  78  79
ENDBRANCH  46  71
BRANCH  58  83
ATOM     83  C   UNL A   1      39.885  34.262  36.885  1.00  0.00     0.058 A 
ATOM     84  C   UNL A   1      40.570  35.488  36.850  1.00  0.00     0.135 A 
ATOM     85  C   UNL A   1      38.986  34.046  37.942  1.00  0.00     0.135 A 
ATOM     86  F   UNL A   1      41.442  35.746  35.863  1.00  0.00    -0.206 F 
ATOM     87  C   UNL A   1      40.400  36.446  37.846  1.00  0.00     0.059 A 
ATOM     88  C   UNL A   1      38.781  35.000  38.934  1.00  0.00     0.059 A 
ATOM     89  F   UNL A   1      38.293  32.898  38.016  1.00  0.00    -0.206 F 
ATOM     90  C   UNL A   1      39.509  36.188  38.889  1.00  0.00     0.060 A 
BRANCH  90  91
ATOM     91  S   UNL A   1      39.301  37.433  40.181  1.00  0.00     0.124 S 
ATOM     92  O   UNL A   1      40.637  38.018  40.243  1.00  0.00    -0.237 OA
ATOM     93  O   UNL A   1      38.258  38.292  39.629  1.00  0.00    -0.237 OA
ATOM     94  O   UNL A   1      38.905  36.648  41.346  1.00  0.00    -0.744 OA
ENDBRANCH  90  91
ENDBRANCH  58  83
ENDBRANCH  32  33
ENDBRANCH  25  27
ENDBRANCH  24  25
ENDBRANCH  23  24
ENDBRANCH  22  23
ENDBRANCH  21  22
ENDBRANCH   1  21
TORSDOF 21
ENDMDL
MODEL 2
REMARK VINA RESULT:      -9.6      6.089      8.388
REMARK SMILES O=C(OCCOCCOCCOC(=O)c1ccc(-c2c3nc(c(-c4c(F)cc(S(=O)(=O)[O-])cc4F)c4ccc([nH]4)c(-c4c(F)cc(S(=O)(=O)[O-])cc4F)c4nc(c(-c5c(F)cc(S(=O)(=O)[O-])cc5F)c5ccc2[nH]5)C=C4)C=C3)cc1)C(=O)N1CC[N@@H+]2CCC[C@H]2C1
REMARK SMILES IDX 8 1 7 2 6 3 5 4 4 5 3 6 2 7 1 8 81 9 82 10 83 11 84 12 91 13
REMARK SMILES IDX 85 14 90 15 86 16 89 17 87 18 88 20 9 21 10 22 11 23 12 24
REMARK SMILES IDX 13 25 14 26 15 27 16 28 80 29 17 30 79 31 18 32 19 33 20 34
REMARK SMILES IDX 73 35 21 36 78 37 72 38 74 39 22 40 77 41 71 42 70 43 23 45
REMARK SMILES IDX 57 46 36 47 56 48 37 49 40 50 55 51 75 52 38 53 39 54 54 56
REMARK SMILES IDX 76 57 41 58 24 59 25 60 34 61 26 62 27 63 33 64 35 65 28 66
REMARK SMILES IDX 29 67 30 68 31 69 32 70 58 71 59 72 68 73 60 74 61 75 67 76
REMARK SMILES IDX 69 77 62 78 63 79 64 80 65 81 66 82 42 83 43 84 52 85 44 86
REMARK SMILES IDX 45 87 51 88 53 89 46 90 47 91 48 92 49 93 50 94
REMARK H PARENT 86 19 74 44 40 55
REMARK Flexibility Score: inf
ROOT
ATOM      1  C   UNL A   1      37.030  22.346  25.446  1.00  0.00     0.188 C 
ENDROOT
BRANCH   1   2
ATOM      2  C   UNL A   1      35.913  23.072  26.200  1.00  0.00     0.188 C 
BRANCH   2   3
ATOM      3  O   UNL A   1      34.667  22.371  26.332  1.00  0.00    -0.376 OA
BRANCH   3   4
ATOM      4  C   UNL A   1      33.886  22.619  27.503  1.00  0.00     0.202 C 
BRANCH   4   5
ATOM      5  C   UNL A   1      32.363  22.518  27.329  1.00  0.00     0.262 C 
BRANCH   5   6
ATOM      6  O   UNL A   1      31.783  23.822  27.197  1.00  0.00    -0.456 OA
BRANCH   6   7
ATOM      7  C   UNL A   1      30.569  24.028  26.648  1.00  0.00     0.397 C 
ATOM      8  O   UNL A   1      29.542  23.854  27.292  1.00  0.00    -0.240 OA
BRANCH   7   9
ATOM      9  C   UNL A   1      30.477  24.654  25.249  1.00  0.00     0.332 C 
ATOM     10  O   UNL A   1      30.738  23.912  24.302  1.00  0.00    -0.261 OA
BRANCH   9  11
ATOM     11  N   UNL A   1      30.203  26.019  25.095  1.00  0.00    -0.321 N 
ATOM     12  C   UNL A   1      29.468  26.641  23.985  1.00  0.00     0.181 C 
ATOM     13  C   UNL A   1      31.116  26.959  25.744  1.00  0.00     0.185 C 
ATOM     14  C   UNL A   1      30.457  27.250  22.926  1.00  0.00     0.284 C 
ATOM     15  C   UNL A   1      32.149  27.350  24.693  1.00  0.00     0.204 C 
ATOM     16  N   UNL A   1      31.514  28.049  23.555  1.00  0.00    -0.330 N 
ATOM     17  C   UNL A   1      33.193  28.366  25.097  1.00  0.00     0.073 C 
ATOM     18  C   UNL A   1      32.645  28.418  22.712  1.00  0.00     0.262 C 
ATOM     19  H   UNL A   1      30.986  28.884  23.814  1.00  0.00     0.348 HD
ATOM     20  C   UNL A   1      33.648  28.944  23.749  1.00  0.00     0.068 C 
ENDBRANCH   9  11
ENDBRANCH   7   9
ENDBRANCH   6   7
ENDBRANCH   5   6
ENDBRANCH   4   5
ENDBRANCH   3   4
ENDBRANCH   2   3
ENDBRANCH   1   2
BRANCH   1  21
ATOM     21  O   UNL A   1      37.169  20.960  25.749  1.00  0.00    -0.376 OA
BRANCH  21  22
ATOM     22  C   UNL A   1      37.919  20.192  24.819  1.00  0.00     0.202 C 
BRANCH  22  23
ATOM     23  C   UNL A   1      39.076  19.413  25.470  1.00  0.00     0.261 C 
BRANCH  23  24
ATOM     24  O   UNL A   1      40.009  20.231  26.197  1.00  0.00    -0.460 OA
BRANCH  24  25
ATOM     25  C   UNL A   1      41.296  19.813  26.107  1.00  0.00     0.338 C 
ATOM     26  O   UNL A   1      41.686  18.702  25.770  1.00  0.00    -0.246 OA
BRANCH  25  27
ATOM     27  C   UNL A   1      42.225  20.914  26.426  1.00  0.00     0.060 A 
ATOM     28  C   UNL A   1      42.324  21.335  27.756  1.00  0.00     0.016 A 
ATOM     29  C   UNL A   1      42.863  21.632  25.409  1.00  0.00     0.016 A 
ATOM     30  C   UNL A   1      42.992  22.524  28.062  1.00  0.00     0.010 A 
ATOM     31  C   UNL A   1      43.530  22.825  25.720  1.00  0.00     0.010 A 
ATOM     32  C   UNL A   1      43.548  23.308  27.040  1.00  0.00    -0.014 A 
BRANCH  32  33
ATOM     33  C   UNL A   1      43.970  24.703  27.346  1.00  0.00     0.031 A 
ATOM     34  C   UNL A   1      45.417  25.089  27.157  1.00  0.00     0.074 A 
ATOM     35  C   UNL A   1      43.075  25.638  27.714  1.00  0.00     0.049 A 
ATOM     36  N   UNL A   1      45.991  26.258  27.293  1.00  0.00    -0.248 NA
ATOM     37  C   UNL A   1      46.341  24.014  26.760  1.00  0.00     0.031 C 
ATOM     38  C   UNL A   1      41.647  25.406  27.920  1.00  0.00     0.029 A 
ATOM     39  N   UNL A   1      43.239  26.978  27.971  1.00  0.00    -0.354 N 
ATOM     40  C   UNL A   1      47.332  26.065  26.980  1.00  0.00     0.074 A 
ATOM     41  C   UNL A   1      47.499  24.655  26.696  1.00  0.00     0.031 C 
ATOM     42  C   UNL A   1      41.064  26.566  28.275  1.00  0.00     0.029 A 
ATOM     43  C   UNL A   1      42.077  27.619  28.329  1.00  0.00     0.049 A 
ATOM     44  H   UNL A   1      44.108  27.437  27.904  1.00  0.00     0.167 HD
ATOM     45  C   UNL A   1      48.333  26.976  26.910  1.00  0.00     0.037 A 
ATOM     46  C   UNL A   1      41.854  28.906  28.663  1.00  0.00     0.037 A 
ATOM     47  C   UNL A   1      48.178  28.379  27.197  1.00  0.00     0.049 A 
ATOM     48  C   UNL A   1      42.991  29.897  28.617  1.00  0.00     0.074 A 
ATOM     49  C   UNL A   1      49.135  29.379  27.157  1.00  0.00     0.029 A 
ATOM     50  N   UNL A   1      46.989  28.983  27.576  1.00  0.00    -0.354 N 
ATOM     51  N   UNL A   1      44.248  29.698  28.295  1.00  0.00    -0.248 NA
ATOM     52  C   UNL A   1      42.674  31.289  28.964  1.00  0.00     0.031 C 
ATOM     53  C   UNL A   1      48.533  30.581  27.546  1.00  0.00     0.029 A 
ATOM     54  C   UNL A   1      47.191  30.338  27.787  1.00  0.00     0.049 A 
ATOM     55  H   UNL A   1      46.127  28.519  27.680  1.00  0.00     0.167 HD
ATOM     56  C   UNL A   1      44.865  30.942  28.388  1.00  0.00     0.074 A 
ATOM     57  C   UNL A   1      43.840  31.890  28.771  1.00  0.00     0.031 C 
ATOM     58  C   UNL A   1      46.165  31.271  28.178  1.00  0.00     0.037 A 
BRANCH  45  59
ATOM     59  C   UNL A   1      49.694  26.483  26.505  1.00  0.00     0.058 A 
ATOM     60  C   UNL A   1      50.555  25.866  27.428  1.00  0.00     0.135 A 
ATOM     61  C   UNL A   1      50.128  26.587  25.174  1.00  0.00     0.135 A 
ATOM     62  F   UNL A   1      50.195  25.756  28.717  1.00  0.00    -0.206 F 
ATOM     63  C   UNL A   1      51.805  25.387  27.050  1.00  0.00     0.059 A 
ATOM     64  C   UNL A   1      51.367  26.094  24.768  1.00  0.00     0.059 A 
ATOM     65  F   UNL A   1      49.346  27.169  24.251  1.00  0.00    -0.206 F 
ATOM     66  C   UNL A   1      52.203  25.506  25.717  1.00  0.00     0.060 A 
BRANCH  66  67
ATOM     67  S   UNL A   1      53.822  24.866  25.238  1.00  0.00     0.124 S 
ATOM     68  O   UNL A   1      53.541  23.443  25.085  1.00  0.00    -0.237 OA
ATOM     69  O   UNL A   1      54.094  25.596  24.004  1.00  0.00    -0.237 OA
ATOM     70  O   UNL A   1      54.674  25.219  26.370  1.00  0.00    -0.744 OA
ENDBRANCH  66  67
ENDBRANCH  45  59
BRANCH  46  71
ATOM     71  C   UNL A   1      40.495  29.340  29.084  1.00  0.00     0.058 A 
ATOM     72  C   UNL A   1      39.483  29.599  28.148  1.00  0.00     0.135 A 
ATOM     73  C   UNL A   1      40.191  29.527  30.442  1.00  0.00     0.135 A 
ATOM     74  F   UNL A   1      39.730  29.449  26.837  1.00  0.00    -0.206 F 
ATOM     75  C   UNL A   1      38.226  30.048  28.538  1.00  0.00     0.059 A 
ATOM     76  C   UNL A   1      38.934  29.951  30.859  1.00  0.00     0.059 A 
ATOM     77  F   UNL A   1      41.121  29.285  31.379  1.00  0.00    -0.206 F 
ATOM     78  C   UNL A   1      37.962  30.224  29.897  1.00  0.00     0.060 A 
BRANCH  78  79
ATOM     79  S   UNL A   1      36.319  30.778  30.405  1.00  0.00     0.124 S 
ATOM     80  O   UNL A   1      35.573  30.663  29.158  1.00  0.00    -0.237 OA
ATOM     81  O   UNL A   1      35.974  29.814  31.445  1.00  0.00    -0.237 OA
ATOM     82  O   UNL A   1      36.556  32.139  30.878  1.00  0.00    -0.744 OA
ENDBRANCH  78  79
ENDBRANCH  46  71
BRANCH  58  83
ATOM     83  C   UNL A   1      46.545  32.717  28.346  1.00  0.00     0.058 A 
ATOM     84  C   UNL A   1      46.433  33.635  27.289  1.00  0.00     0.135 A 
ATOM     85  C   UNL A   1      47.018  33.194  29.579  1.00  0.00     0.135 A 
ATOM     86  F   UNL A   1      45.988  33.231  26.089  1.00  0.00    -0.206 F 
ATOM     87  C   UNL A   1      46.813  34.966  27.437  1.00  0.00     0.059 A 
ATOM     88  C   UNL A   1      47.379  34.527  29.757  1.00  0.00     0.059 A 
ATOM     89  F   UNL A   1      47.130  32.364  30.628  1.00  0.00    -0.206 F 
ATOM     90  C   UNL A   1      47.293  35.400  28.675  1.00  0.00     0.060 A 
BRANCH  90  91
ATOM     91  S   UNL A   1      47.791  37.127  28.855  1.00  0.00     0.124 S 
ATOM     92  O   UNL A   1      49.197  36.990  29.223  1.00  0.00    -0.237 OA
ATOM     93  O   UNL A   1      47.534  37.671  27.525  1.00  0.00    -0.237 OA
ATOM     94  O   UNL A   1      46.911  37.624  29.909  1.00  0.00    -0.744 OA
ENDBRANCH  90  91
ENDBRANCH  58  83
ENDBRANCH  32  33
ENDBRANCH  25  27
ENDBRANCH  24  25
ENDBRANCH  23  24
ENDBRANCH  22  23
ENDBRANCH  21  22
ENDBRANCH   1  21
TORSDOF 21
ENDMDL
MODEL 3
REMARK VINA RESULT:      -9.6      6.390     12.110
REMARK SMILES O=C(OCCOCCOCCOC(=O)c1ccc(-c2c3nc(c(-c4c(F)cc(S(=O)(=O)[O-])cc4F)c4ccc([nH]4)c(-c4c(F)cc(S(=O)(=O)[O-])cc4F)c4nc(c(-c5c(F)cc(S(=O)(=O)[O-])cc5F)c5ccc2[nH]5)C=C4)C=C3)cc1)C(=O)N1CC[N@@H+]2CCC[C@H]2C1
REMARK SMILES IDX 8 1 7 2 6 3 5 4 4 5 3 6 2 7 1 8 81 9 82 10 83 11 84 12 91 13
REMARK SMILES IDX 85 14 90 15 86 16 89 17 87 18 88 20 9 21 10 22 11 23 12 24
REMARK SMILES IDX 13 25 14 26 15 27 16 28 80 29 17 30 79 31 18 32 19 33 20 34
REMARK SMILES IDX 73 35 21 36 78 37 72 38 74 39 22 40 77 41 71 42 70 43 23 45
REMARK SMILES IDX 57 46 36 47 56 48 37 49 40 50 55 51 75 52 38 53 39 54 54 56
REMARK SMILES IDX 76 57 41 58 24 59 25 60 34 61 26 62 27 63 33 64 35 65 28 66
REMARK SMILES IDX 29 67 30 68 31 69 32 70 58 71 59 72 68 73 60 74 61 75 67 76
REMARK SMILES IDX 69 77 62 78 63 79 64 80 65 81 66 82 42 83 43 84 52 85 44 86
REMARK SMILES IDX 45 87 51 88 53 89 46 90 47 91 48 92 49 93 50 94
REMARK H PARENT 86 19 74 44 40 55
REMARK Flexibility Score: inf
ROOT
ATOM      1  C   UNL A   1      32.290  29.428  26.844  1.00  0.00     0.188 C 
ENDROOT
BRANCH   1   2
ATOM      2  C   UNL A   1      31.893  29.500  25.368  1.00  0.00     0.188 C 
BRANCH   2   3
ATOM      3  O   UNL A   1      32.867  29.042  24.418  1.00  0.00    -0.376 OA
BRANCH   3   4
ATOM      4  C   UNL A   1      32.485  27.993  23.526  1.00  0.00     0.202 C 
BRANCH   4   5
ATOM      5  C   UNL A   1      33.634  27.157  22.939  1.00  0.00     0.262 C 
BRANCH   5   6
ATOM      6  O   UNL A   1      33.510  25.785  23.332  1.00  0.00    -0.456 OA
BRANCH   6   7
ATOM      7  C   UNL A   1      34.214  25.251  24.350  1.00  0.00     0.397 C 
ATOM      8  O   UNL A   1      34.252  25.790  25.449  1.00  0.00    -0.240 OA
BRANCH   7   9
ATOM      9  C   UNL A   1      34.839  23.858  24.179  1.00  0.00     0.332 C 
ATOM     10  O   UNL A   1      35.265  23.587  23.057  1.00  0.00    -0.261 OA
BRANCH   9  11
ATOM     11  N   UNL A   1      34.826  22.937  25.233  1.00  0.00    -0.321 N 
ATOM     12  C   UNL A   1      35.962  22.132  25.702  1.00  0.00     0.181 C 
ATOM     13  C   UNL A   1      33.542  22.317  25.560  1.00  0.00     0.185 C 
ATOM     14  C   UNL A   1      35.902  20.676  25.114  1.00  0.00     0.284 C 
ATOM     15  C   UNL A   1      33.496  20.998  24.797  1.00  0.00     0.204 C 
ATOM     16  N   UNL A   1      34.567  20.083  25.246  1.00  0.00    -0.330 N 
ATOM     17  C   UNL A   1      32.279  20.124  25.002  1.00  0.00     0.073 C 
ATOM     18  C   UNL A   1      34.313  18.866  24.485  1.00  0.00     0.262 C 
ATOM     19  H   UNL A   1      34.554  19.877  26.246  1.00  0.00     0.348 HD
ATOM     20  C   UNL A   1      32.789  18.729  24.614  1.00  0.00     0.068 C 
ENDBRANCH   9  11
ENDBRANCH   7   9
ENDBRANCH   6   7
ENDBRANCH   5   6
ENDBRANCH   4   5
ENDBRANCH   3   4
ENDBRANCH   2   3
ENDBRANCH   1   2
BRANCH   1  21
ATOM     21  O   UNL A   1      32.840  30.628  27.387  1.00  0.00    -0.376 OA
BRANCH  21  22
ATOM     22  C   UNL A   1      34.257  30.679  27.472  1.00  0.00     0.202 C 
BRANCH  22  23
ATOM     23  C   UNL A   1      34.764  31.708  28.498  1.00  0.00     0.261 C 
BRANCH  23  24
ATOM     24  O   UNL A   1      35.572  31.152  29.550  1.00  0.00    -0.460 OA
BRANCH  24  25
ATOM     25  C   UNL A   1      36.761  31.779  29.725  1.00  0.00     0.338 C 
ATOM     26  O   UNL A   1      36.935  32.944  30.061  1.00  0.00    -0.246 OA
BRANCH  25  27
ATOM     27  C   UNL A   1      37.881  30.844  29.506  1.00  0.00     0.060 A 
ATOM     28  C   UNL A   1      38.926  30.833  30.435  1.00  0.00     0.016 A 
ATOM     29  C   UNL A   1      37.983  30.111  28.319  1.00  0.00     0.016 A 
ATOM     30  C   UNL A   1      40.112  30.155  30.140  1.00  0.00     0.010 A 
ATOM     31  C   UNL A   1      39.175  29.434  28.027  1.00  0.00     0.010 A 
ATOM     32  C   UNL A   1      40.267  29.501  28.909  1.00  0.00    -0.014 A 
BRANCH  32  33
ATOM     33  C   UNL A   1      41.627  29.062  28.488  1.00  0.00     0.031 A 
ATOM     34  C   UNL A   1      42.753  30.068  28.486  1.00  0.00     0.074 A 
ATOM     35  C   UNL A   1      41.883  27.776  28.185  1.00  0.00     0.049 A 
ATOM     36  N   UNL A   1      44.025  29.892  28.227  1.00  0.00    -0.248 NA
ATOM     37  C   UNL A   1      42.399  31.457  28.822  1.00  0.00     0.031 C 
ATOM     38  C   UNL A   1      40.894  26.700  28.160  1.00  0.00     0.029 A 
ATOM     39  N   UNL A   1      43.062  27.157  27.846  1.00  0.00    -0.354 N 
ATOM     40  C   UNL A   1      44.623  31.137  28.389  1.00  0.00     0.074 A 
ATOM     41  C   UNL A   1      43.568  32.072  28.718  1.00  0.00     0.031 C 
ATOM     42  C   UNL A   1      41.508  25.552  27.822  1.00  0.00     0.029 A 
ATOM     43  C   UNL A   1      42.929  25.812  27.599  1.00  0.00     0.049 A 
ATOM     44  H   UNL A   1      43.923  27.633  27.788  1.00  0.00     0.167 HD
ATOM     45  C   UNL A   1      45.932  31.474  28.296  1.00  0.00     0.037 A 
ATOM     46  C   UNL A   1      43.848  24.894  27.232  1.00  0.00     0.037 A 
ATOM     47  C   UNL A   1      46.988  30.553  27.963  1.00  0.00     0.049 A 
ATOM     48  C   UNL A   1      45.294  25.299  27.096  1.00  0.00     0.074 A 
ATOM     49  C   UNL A   1      48.345  30.802  27.842  1.00  0.00     0.029 A 
ATOM     50  N   UNL A   1      46.808  29.204  27.699  1.00  0.00    -0.354 N 
ATOM     51  N   UNL A   1      45.844  26.477  27.276  1.00  0.00    -0.248 NA
ATOM     52  C   UNL A   1      46.247  24.244  26.722  1.00  0.00     0.031 C 
ATOM     53  C   UNL A   1      48.980  29.612  27.470  1.00  0.00     0.029 A 
ATOM     54  C   UNL A   1      48.026  28.612  27.401  1.00  0.00     0.049 A 
ATOM     55  H   UNL A   1      45.943  28.735  27.720  1.00  0.00     0.167 HD
ATOM     56  C   UNL A   1      47.206  26.301  27.051  1.00  0.00     0.074 A 
ATOM     57  C   UNL A   1      47.401  24.898  26.747  1.00  0.00     0.031 C 
ATOM     58  C   UNL A   1      48.206  27.216  27.091  1.00  0.00     0.037 A 
BRANCH  45  59
ATOM     59  C   UNL A   1      46.301  32.908  28.561  1.00  0.00     0.058 A 
ATOM     60  C   UNL A   1      46.612  33.357  29.855  1.00  0.00     0.135 A 
ATOM     61  C   UNL A   1      46.386  33.833  27.509  1.00  0.00     0.135 A 
ATOM     62  F   UNL A   1      46.529  32.517  30.899  1.00  0.00    -0.206 F 
ATOM     63  C   UNL A   1      46.977  34.677  30.099  1.00  0.00     0.059 A 
ATOM     64  C   UNL A   1      46.771  35.154  27.727  1.00  0.00     0.059 A 
ATOM     65  F   UNL A   1      46.099  33.457  26.253  1.00  0.00    -0.206 F 
ATOM     66  C   UNL A   1      47.054  35.569  29.028  1.00  0.00     0.060 A 
BRANCH  66  67
ATOM     67  S   UNL A   1      47.543  37.275  29.358  1.00  0.00     0.124 S 
ATOM     68  O   UNL A   1      46.944  37.976  28.227  1.00  0.00    -0.237 OA
ATOM     69  O   UNL A   1      46.930  37.530  30.658  1.00  0.00    -0.237 OA
ATOM     70  O   UNL A   1      49.002  37.217  29.359  1.00  0.00    -0.744 OA
ENDBRANCH  66  67
ENDBRANCH  45  59
BRANCH  46  71
ATOM     71  C   UNL A   1      43.429  23.494  26.954  1.00  0.00     0.058 A 
ATOM     72  C   UNL A   1      43.226  23.034  25.644  1.00  0.00     0.135 A 
ATOM     73  C   UNL A   1      43.200  22.592  28.006  1.00  0.00     0.135 A 
ATOM     74  F   UNL A   1      43.419  23.863  24.607  1.00  0.00    -0.206 F 
ATOM     75  C   UNL A   1      42.791  21.739  25.386  1.00  0.00     0.059 A 
ATOM     76  C   UNL A   1      42.789  21.285  27.771  1.00  0.00     0.059 A 
ATOM     77  F   UNL A   1      43.387  22.980  29.277  1.00  0.00    -0.206 F 
ATOM     78  C   UNL A   1      42.572  20.871  26.457  1.00  0.00     0.060 A 
BRANCH  78  79
ATOM     79  S   UNL A   1      42.037  19.179  26.118  1.00  0.00     0.124 S 
ATOM     80  O   UNL A   1      42.432  18.496  27.344  1.00  0.00    -0.237 OA
ATOM     81  O   UNL A   1      40.601  19.344  25.914  1.00  0.00    -0.237 OA
ATOM     82  O   UNL A   1      42.794  18.823  24.922  1.00  0.00    -0.744 OA
ENDBRANCH  78  79
ENDBRANCH  46  71
BRANCH  58  83
ATOM     83  C   UNL A   1      49.601  26.726  26.809  1.00  0.00     0.058 A 
ATOM     84  C   UNL A   1      50.094  26.626  25.498  1.00  0.00     0.135 A 
ATOM     85  C   UNL A   1      50.458  26.361  27.860  1.00  0.00     0.135 A 
ATOM     86  F   UNL A   1      49.317  26.961  24.457  1.00  0.00    -0.206 F 
ATOM     87  C   UNL A   1      51.374  26.145  25.237  1.00  0.00     0.059 A 
ATOM     88  C   UNL A   1      51.750  25.901  27.623  1.00  0.00     0.059 A 
ATOM     89  F   UNL A   1      50.043  26.451  29.133  1.00  0.00    -0.206 F 
ATOM     90  C   UNL A   1      52.192  25.777  26.307  1.00  0.00     0.060 A 
BRANCH  90  91
ATOM     91  S   UNL A   1      53.848  25.146  25.957  1.00  0.00     0.124 S 
ATOM     92  O   UNL A   1      54.473  25.220  27.274  1.00  0.00    -0.237 OA
ATOM     93  O   UNL A   1      53.576  23.801  25.460  1.00  0.00    -0.237 OA
ATOM     94  O   UNL A   1      54.363  26.082  24.963  1.00  0.00    -0.744 OA
ENDBRANCH  90  91
ENDBRANCH  58  83
ENDBRANCH  32  33
ENDBRANCH  25  27
ENDBRANCH  24  25
ENDBRANCH  23  24
ENDBRANCH  22  23
ENDBRANCH  21  22
ENDBRANCH   1  21
TORSDOF 21
ENDMDL
