MODEL 1
REMARK VINA RESULT:      -9.0      0.000      0.000
REMARK SMILES CC(C)C[C@H](NC(=O)[C@@H](NC(=O)[C@H](C)NC(=O)CNC(=O)OCc1ccccc1)C(C)C)C(=O)OCCOCCOCCOC(=O)c1ccc(-c2c3nc(c(-c4c(F)cc(S(=O)(=O)[O-])cc4F)c4ccc([nH]4)c(-c4c(F)cc(S(=O)(=O)[O-])cc4F)c4nc(c(-c5c(F)cc(S(=O)(=O)[O-])cc5F)c5ccc2[nH]5)C=C4)C=C3)cc1
REMARK SMILES IDX 36 1 35 2 33 3 34 4 5 5 4 6 2 7 1 8 3 9 6 10 7 11 8 13 9 14
REMARK SMILES IDX 10 15 11 16 12 18 13 19 14 20 15 21 16 22 17 24 18 25 19 26
REMARK SMILES IDX 20 27 21 29 22 30 23 31 24 32 25 33 29 34 26 35 28 36 27 37
REMARK SMILES IDX 30 38 31 39 32 40 37 41 38 42 39 43 40 44 41 45 42 46 43 47
REMARK SMILES IDX 44 48 45 49 46 50 47 51 48 52 112 53 49 54 111 55 50 56
REMARK SMILES IDX 51 57 52 58 105 59 53 60 110 61 104 62 106 63 54 64 109 65
REMARK SMILES IDX 103 66 102 67 55 69 89 70 68 71 88 72 69 73 72 74 87 75
REMARK SMILES IDX 107 76 70 77 71 78 86 80 108 81 73 82 56 83 57 84 66 85
REMARK SMILES IDX 58 86 59 87 65 88 67 89 60 90 61 91 62 92 63 93 64 94 90 95
REMARK SMILES IDX 91 96 100 97 92 98 93 99 99 100 101 101 94 102 95 103 96 104
REMARK SMILES IDX 97 105 98 106 74 107 75 108 84 109 76 110 77 111 83 112
REMARK SMILES IDX 85 113 78 114 79 115 80 116 81 117 82 118
REMARK H PARENT 6 12 10 17 15 23 19 28 106 68 72 79
REMARK Flexibility Score: inf
ROOT
ATOM      1  C   UNL A   1      33.120  28.567  27.074  1.00  0.00     0.261 C 
ENDROOT
BRANCH   1   2
ATOM      2  O   UNL A   1      33.541  27.294  25.868  1.00  0.00    -0.462 OA
BRANCH   2   3
ATOM      3  C   UNL A   1      33.748  25.820  25.631  1.00  0.00     0.328 C 
ATOM      4  O   UNL A   1      34.796  25.259  25.998  1.00  0.00    -0.250 OA
BRANCH   3   5
ATOM      5  C   UNL A   1      32.712  24.660  25.347  1.00  0.00     0.192 C 
BRANCH   5   6
ATOM      6  C   UNL A   1      31.307  25.356  25.266  1.00  0.00     0.040 C 
BRANCH   6   7
ATOM      7  C   UNL A   1      30.854  25.792  23.858  1.00  0.00    -0.015 C 
ATOM      8  C   UNL A   1      31.981  26.195  22.926  1.00  0.00     0.007 C 
ATOM      9  C   UNL A   1      30.065  24.690  23.161  1.00  0.00     0.007 C 
ENDBRANCH   6   7
ENDBRANCH   5   6
BRANCH   5  10
ATOM     10  N   UNL A   1      32.563  23.385  25.988  1.00  0.00    -0.341 N 
ATOM     11  C   UNL A   1      32.879  22.209  25.393  1.00  0.00     0.243 C 
ATOM     12  H   UNL A   1      32.213  23.364  26.908  1.00  0.00     0.164 HD
ATOM     13  O   UNL A   1      32.693  21.158  25.997  1.00  0.00    -0.273 OA
BRANCH  11  14
ATOM     14  C   UNL A   1      33.768  22.358  24.174  1.00  0.00     0.174 C 
BRANCH  14  15
ATOM     15  N   UNL A   1      35.192  21.256  24.471  1.00  0.00    -0.342 N 
ATOM     16  C   UNL A   1      36.601  21.058  25.018  1.00  0.00     0.242 C 
ATOM     17  H   UNL A   1      34.926  20.380  24.109  1.00  0.00     0.164 HD
ATOM     18  O   UNL A   1      36.931  19.860  25.100  1.00  0.00    -0.273 OA
BRANCH  16  19
ATOM     19  C   UNL A   1      37.840  22.247  25.706  1.00  0.00     0.168 C 
ATOM     20  C   UNL A   1      37.724  23.759  25.390  1.00  0.00     0.041 C 
BRANCH  19  21
ATOM     21  N   UNL A   1      39.370  22.095  25.757  1.00  0.00    -0.343 N 
ATOM     22  C   UNL A   1      40.293  22.529  26.692  1.00  0.00     0.240 C 
ATOM     23  H   UNL A   1      39.758  21.605  24.997  1.00  0.00     0.164 HD
ATOM     24  O   UNL A   1      41.379  21.946  26.773  1.00  0.00    -0.273 OA
BRANCH  22  25
ATOM     25  C   UNL A   1      39.965  23.725  27.584  1.00  0.00     0.219 C 
BRANCH  25  26
ATOM     26  N   UNL A   1      40.842  24.733  27.047  1.00  0.00    -0.312 N 
ATOM     27  C   UNL A   1      40.448  26.027  26.967  1.00  0.00     0.407 C 
ATOM     28  H   UNL A   1      41.740  24.478  26.732  1.00  0.00     0.167 HD
ATOM     29  O   UNL A   1      40.733  26.710  25.994  1.00  0.00    -0.225 OA
BRANCH  27  30
ATOM     30  O   UNL A   1      39.761  26.422  28.067  1.00  0.00    -0.445 OA
BRANCH  30  31
ATOM     31  C   UNL A   1      40.018  27.750  28.547  1.00  0.00     0.270 C 
BRANCH  31  32
ATOM     32  C   UNL A   1      39.204  28.130  29.760  1.00  0.00    -0.011 A 
ATOM     33  C   UNL A   1      39.438  27.475  30.973  1.00  0.00     0.007 A 
ATOM     34  C   UNL A   1      38.150  29.055  29.692  1.00  0.00     0.007 A 
ATOM     35  C   UNL A   1      38.585  27.688  32.058  1.00  0.00     0.000 A 
ATOM     36  C   UNL A   1      37.265  29.219  30.747  1.00  0.00     0.000 A 
ATOM     37  C   UNL A   1      37.481  28.531  31.931  1.00  0.00     0.000 A 
ENDBRANCH  31  32
ENDBRANCH  30  31
ENDBRANCH  27  30
ENDBRANCH  25  26
ENDBRANCH  22  25
ENDBRANCH  19  21
ENDBRANCH  16  19
ENDBRANCH  14  15
BRANCH  14  38
ATOM     38  C   UNL A   1      32.609  22.426  22.817  1.00  0.00     0.015 C 
ATOM     39  C   UNL A   1      33.106  23.109  21.518  1.00  0.00     0.010 C 
ATOM     40  C   UNL A   1      31.974  21.109  22.245  1.00  0.00     0.010 C 
ENDBRANCH  14  38
ENDBRANCH  11  14
ENDBRANCH   5  10
ENDBRANCH   3   5
ENDBRANCH   2   3
ENDBRANCH   1   2
BRANCH   1  41
ATOM     41  C   UNL A   1      33.318  30.232  27.152  1.00  0.00     0.202 C 
BRANCH  41  42
ATOM     42  O   UNL A   1      34.689  30.668  27.244  1.00  0.00    -0.376 OA
BRANCH  42  43
ATOM     43  C   UNL A   1      35.150  31.248  28.473  1.00  0.00     0.188 C 
BRANCH  43  44
ATOM     44  C   UNL A   1      36.188  32.354  28.229  1.00  0.00     0.188 C 
BRANCH  44  45
ATOM     45  O   UNL A   1      35.743  33.597  27.713  1.00  0.00    -0.376 OA
BRANCH  45  46
ATOM     46  C   UNL A   1      34.426  34.072  27.982  1.00  0.00     0.202 C 
BRANCH  46  47
ATOM     47  C   UNL A   1      33.928  34.009  29.424  1.00  0.00     0.261 C 
BRANCH  47  48
ATOM     48  O   UNL A   1      34.844  34.507  30.394  1.00  0.00    -0.460 OA
BRANCH  48  49
ATOM     49  C   UNL A   1      34.413  34.493  31.692  1.00  0.00     0.338 C 
ATOM     50  O   UNL A   1      33.290  34.583  32.085  1.00  0.00    -0.246 OA
BRANCH  49  51
ATOM     51  C   UNL A   1      35.605  34.046  32.474  1.00  0.00     0.060 A 
ATOM     52  C   UNL A   1      36.820  34.716  32.270  1.00  0.00     0.016 A 
ATOM     53  C   UNL A   1      35.460  33.150  33.545  1.00  0.00     0.016 A 
ATOM     54  C   UNL A   1      37.906  34.457  33.111  1.00  0.00     0.010 A 
ATOM     55  C   UNL A   1      36.540  32.891  34.384  1.00  0.00     0.010 A 
ATOM     56  C   UNL A   1      37.782  33.499  34.130  1.00  0.00    -0.014 A 
BRANCH  56  57
ATOM     57  C   UNL A   1      38.988  32.789  34.615  1.00  0.00     0.031 A 
ATOM     58  C   UNL A   1      39.374  33.090  36.042  1.00  0.00     0.074 A 
ATOM     59  C   UNL A   1      39.739  31.985  33.844  1.00  0.00     0.049 A 
ATOM     60  N   UNL A   1      40.442  32.753  36.708  1.00  0.00    -0.248 NA
ATOM     61  C   UNL A   1      38.420  33.912  36.812  1.00  0.00     0.031 C 
ATOM     62  C   UNL A   1      39.446  31.600  32.465  1.00  0.00     0.029 A 
ATOM     63  N   UNL A   1      40.930  31.360  34.122  1.00  0.00    -0.354 N 
ATOM     64  C   UNL A   1      40.287  33.330  37.964  1.00  0.00     0.074 A 
ATOM     65  C   UNL A   1      39.049  34.066  37.962  1.00  0.00     0.031 C 
ATOM     66  C   UNL A   1      40.445  30.817  32.010  1.00  0.00     0.029 A 
ATOM     67  C   UNL A   1      41.464  30.682  33.050  1.00  0.00     0.049 A 
ATOM     68  H   UNL A   1      41.361  31.394  35.006  1.00  0.00     0.167 HD
ATOM     69  C   UNL A   1      41.107  33.255  39.035  1.00  0.00     0.037 A 
ATOM     70  C   UNL A   1      42.655  30.058  32.929  1.00  0.00     0.037 A 
ATOM     71  C   UNL A   1      42.352  32.545  39.019  1.00  0.00     0.049 A 
ATOM     72  C   UNL A   1      43.594  30.043  34.115  1.00  0.00     0.074 A 
ATOM     73  C   UNL A   1      43.270  32.399  40.040  1.00  0.00     0.029 A 
ATOM     74  N   UNL A   1      42.857  31.876  37.914  1.00  0.00    -0.354 N 
ATOM     75  N   UNL A   1      43.428  30.569  35.308  1.00  0.00    -0.248 NA
ATOM     76  C   UNL A   1      44.881  29.356  33.941  1.00  0.00     0.031 C 
ATOM     77  C   UNL A   1      44.361  31.686  39.533  1.00  0.00     0.029 A 
ATOM     78  C   UNL A   1      44.090  31.333  38.219  1.00  0.00     0.049 A 
ATOM     79  H   UNL A   1      42.406  31.800  37.043  1.00  0.00     0.167 HD
ATOM     80  C   UNL A   1      44.574  30.248  36.032  1.00  0.00     0.074 A 
ATOM     81  C   UNL A   1      45.420  29.476  35.147  1.00  0.00     0.031 C 
ATOM     82  C   UNL A   1      44.900  30.556  37.314  1.00  0.00     0.037 A 
BRANCH  69  83
ATOM     83  C   UNL A   1      40.692  33.998  40.271  1.00  0.00     0.058 A 
ATOM     84  C   UNL A   1      41.172  35.287  40.559  1.00  0.00     0.135 A 
ATOM     85  C   UNL A   1      39.819  33.401  41.194  1.00  0.00     0.135 A 
ATOM     86  F   UNL A   1      42.042  35.886  39.731  1.00  0.00    -0.206 F 
ATOM     87  C   UNL A   1      40.820  35.948  41.730  1.00  0.00     0.059 A 
ATOM     88  C   UNL A   1      39.427  34.058  42.355  1.00  0.00     0.059 A 
ATOM     89  F   UNL A   1      39.350  32.163  40.979  1.00  0.00    -0.206 F 
ATOM     90  C   UNL A   1      39.942  35.326  42.621  1.00  0.00     0.060 A 
BRANCH  90  91
ATOM     91  S   UNL A   1      39.480  36.204  44.127  1.00  0.00     0.124 S 
ATOM     92  O   UNL A   1      40.479  35.711  45.071  1.00  0.00    -0.237 OA
ATOM     93  O   UNL A   1      39.621  37.600  43.727  1.00  0.00    -0.237 OA
ATOM     94  O   UNL A   1      38.112  35.760  44.374  1.00  0.00    -0.744 OA
ENDBRANCH  90  91
ENDBRANCH  69  83
BRANCH  70  95
ATOM     95  C   UNL A   1      43.045  29.414  31.641  1.00  0.00     0.058 A 
ATOM     96  C   UNL A   1      43.515  30.173  30.559  1.00  0.00     0.135 A 
ATOM     97  C   UNL A   1      42.938  28.025  31.459  1.00  0.00     0.135 A 
ATOM     98  F   UNL A   1      43.618  31.506  30.670  1.00  0.00    -0.206 F 
ATOM     99  C   UNL A   1      43.855  29.585  29.343  1.00  0.00     0.059 A 
ATOM    100  C   UNL A   1      43.298  27.410  30.263  1.00  0.00     0.059 A 
ATOM    101  F   UNL A   1      42.495  27.248  32.460  1.00  0.00    -0.206 F 
ATOM    102  C   UNL A   1      43.747  28.200  29.206  1.00  0.00     0.060 A 
BRANCH 102 103
ATOM    103  S   UNL A   1      44.239  27.442  27.641  1.00  0.00     0.124 S 
ATOM    104  O   UNL A   1      43.489  28.239  26.677  1.00  0.00    -0.237 OA
ATOM    105  O   UNL A   1      45.684  27.642  27.648  1.00  0.00    -0.237 OA
ATOM    106  O   UNL A   1      43.803  26.056  27.788  1.00  0.00    -0.744 OA
ENDBRANCH 102 103
ENDBRANCH  70  95
BRANCH  82 107
ATOM    107  C   UNL A   1      46.198  30.023  37.855  1.00  0.00     0.058 A 
ATOM    108  C   UNL A   1      47.384  30.770  37.806  1.00  0.00     0.135 A 
ATOM    109  C   UNL A   1      46.228  28.782  38.513  1.00  0.00     0.135 A 
ATOM    110  F   UNL A   1      47.408  31.962  37.190  1.00  0.00    -0.206 F 
ATOM    111  C   UNL A   1      48.562  30.296  38.373  1.00  0.00     0.059 A 
ATOM    112  C   UNL A   1      47.386  28.303  39.116  1.00  0.00     0.059 A 
ATOM    113  F   UNL A   1      45.114  28.037  38.605  1.00  0.00    -0.206 F 
ATOM    114  C   UNL A   1      48.551  29.063  39.031  1.00  0.00     0.060 A 
BRANCH 114 115
ATOM    115  S   UNL A   1      50.076  28.479  39.799  1.00  0.00     0.124 S 
ATOM    116  O   UNL A   1      51.067  28.832  38.788  1.00  0.00    -0.237 OA
ATOM    117  O   UNL A   1      50.122  29.258  41.033  1.00  0.00    -0.237 OA
ATOM    118  O   UNL A   1      49.843  27.049  39.976  1.00  0.00    -0.744 OA
ENDBRANCH 114 115
ENDBRANCH  82 107
ENDBRANCH  56  57
ENDBRANCH  49  51
ENDBRANCH  48  49
ENDBRANCH  47  48
ENDBRANCH  46  47
ENDBRANCH  45  46
ENDBRANCH  44  45
ENDBRANCH  43  44
ENDBRANCH  42  43
ENDBRANCH  41  42
ENDBRANCH   1  41
TORSDOF 33
ENDMDL
MODEL 2
REMARK VINA RESULT:      -8.4      3.750      5.691
REMARK SMILES CC(C)C[C@H](NC(=O)[C@@H](NC(=O)[C@H](C)NC(=O)CNC(=O)OCc1ccccc1)C(C)C)C(=O)OCCOCCOCCOC(=O)c1ccc(-c2c3nc(c(-c4c(F)cc(S(=O)(=O)[O-])cc4F)c4ccc([nH]4)c(-c4c(F)cc(S(=O)(=O)[O-])cc4F)c4nc(c(-c5c(F)cc(S(=O)(=O)[O-])cc5F)c5ccc2[nH]5)C=C4)C=C3)cc1
REMARK SMILES IDX 36 1 35 2 33 3 34 4 5 5 4 6 2 7 1 8 3 9 6 10 7 11 8 13 9 14
REMARK SMILES IDX 10 15 11 16 12 18 13 19 14 20 15 21 16 22 17 24 18 25 19 26
REMARK SMILES IDX 20 27 21 29 22 30 23 31 24 32 25 33 29 34 26 35 28 36 27 37
REMARK SMILES IDX 30 38 31 39 32 40 37 41 38 42 39 43 40 44 41 45 42 46 43 47
REMARK SMILES IDX 44 48 45 49 46 50 47 51 48 52 112 53 49 54 111 55 50 56
REMARK SMILES IDX 51 57 52 58 105 59 53 60 110 61 104 62 106 63 54 64 109 65
REMARK SMILES IDX 103 66 102 67 55 69 89 70 68 71 88 72 69 73 72 74 87 75
REMARK SMILES IDX 107 76 70 77 71 78 86 80 108 81 73 82 56 83 57 84 66 85
REMARK SMILES IDX 58 86 59 87 65 88 67 89 60 90 61 91 62 92 63 93 64 94 90 95
REMARK SMILES IDX 91 96 100 97 92 98 93 99 99 100 101 101 94 102 95 103 96 104
REMARK SMILES IDX 97 105 98 106 74 107 75 108 84 109 76 110 77 111 83 112
REMARK SMILES IDX 85 113 78 114 79 115 80 116 81 117 82 118
REMARK H PARENT 6 12 10 17 15 23 19 28 106 68 72 79
REMARK Flexibility Score: inf
ROOT
ATOM      1  C   UNL A   1      32.518  28.759  27.101  1.00  0.00     0.261 C 
ENDROOT
BRANCH   1   2
ATOM      2  O   UNL A   1      32.683  27.552  25.771  1.00  0.00    -0.462 OA
BRANCH   2   3
ATOM      3  C   UNL A   1      33.218  26.201  25.373  1.00  0.00     0.328 C 
ATOM      4  O   UNL A   1      34.377  25.862  25.674  1.00  0.00    -0.250 OA
BRANCH   3   5
ATOM      5  C   UNL A   1      32.472  24.868  24.963  1.00  0.00     0.192 C 
BRANCH   5   6
ATOM      6  C   UNL A   1      31.104  25.323  24.339  1.00  0.00     0.040 C 
BRANCH   6   7
ATOM      7  C   UNL A   1      31.146  26.617  23.502  1.00  0.00    -0.015 C 
ATOM      8  C   UNL A   1      31.367  26.404  22.016  1.00  0.00     0.007 C 
ATOM      9  C   UNL A   1      29.859  27.420  23.655  1.00  0.00     0.007 C 
ENDBRANCH   6   7
ENDBRANCH   5   6
BRANCH   5  10
ATOM     10  N   UNL A   1      32.262  23.666  25.717  1.00  0.00    -0.341 N 
ATOM     11  C   UNL A   1      32.592  22.432  25.261  1.00  0.00     0.243 C 
ATOM     12  H   UNL A   1      31.856  23.740  26.610  1.00  0.00     0.164 HD
ATOM     13  O   UNL A   1      32.350  21.449  25.953  1.00  0.00    -0.273 OA
BRANCH  11  14
ATOM     14  C   UNL A   1      33.555  22.449  24.091  1.00  0.00     0.174 C 
BRANCH  14  15
ATOM     15  N   UNL A   1      34.836  21.214  24.496  1.00  0.00    -0.342 N 
ATOM     16  C   UNL A   1      36.224  20.901  25.040  1.00  0.00     0.242 C 
ATOM     17  H   UNL A   1      34.449  20.344  24.247  1.00  0.00     0.164 HD
ATOM     18  O   UNL A   1      36.402  19.688  25.262  1.00  0.00    -0.273 OA
BRANCH  16  19
ATOM     19  C   UNL A   1      37.626  21.991  25.558  1.00  0.00     0.168 C 
ATOM     20  C   UNL A   1      37.570  23.514  25.278  1.00  0.00     0.041 C 
BRANCH  19  21
ATOM     21  N   UNL A   1      39.134  21.738  25.392  1.00  0.00    -0.343 N 
ATOM     22  C   UNL A   1      40.189  21.942  26.263  1.00  0.00     0.240 C 
ATOM     23  H   UNL A   1      39.392  21.366  24.517  1.00  0.00     0.164 HD
ATOM     24  O   UNL A   1      41.226  21.287  26.108  1.00  0.00    -0.273 OA
BRANCH  22  25
ATOM     25  C   UNL A   1      40.064  22.980  27.377  1.00  0.00     0.219 C 
BRANCH  25  26
ATOM     26  N   UNL A   1      41.377  23.573  27.365  1.00  0.00    -0.312 N 
ATOM     27  C   UNL A   1      41.676  24.580  26.509  1.00  0.00     0.407 C 
ATOM     28  H   UNL A   1      42.065  23.242  27.986  1.00  0.00     0.167 HD
ATOM     29  O   UNL A   1      42.764  24.627  25.952  1.00  0.00    -0.225 OA
BRANCH  27  30
ATOM     30  O   UNL A   1      40.664  25.475  26.396  1.00  0.00    -0.445 OA
BRANCH  30  31
ATOM     31  C   UNL A   1      40.999  26.857  26.589  1.00  0.00     0.270 C 
BRANCH  31  32
ATOM     32  C   UNL A   1      40.491  27.433  27.888  1.00  0.00    -0.011 A 
ATOM     33  C   UNL A   1      39.848  26.594  28.803  1.00  0.00     0.007 A 
ATOM     34  C   UNL A   1      40.557  28.807  28.173  1.00  0.00     0.007 A 
ATOM     35  C   UNL A   1      39.222  27.136  29.928  1.00  0.00     0.000 A 
ATOM     36  C   UNL A   1      39.882  29.353  29.254  1.00  0.00     0.000 A 
ATOM     37  C   UNL A   1      39.209  28.516  30.131  1.00  0.00     0.000 A 
ENDBRANCH  31  32
ENDBRANCH  30  31
ENDBRANCH  27  30
ENDBRANCH  25  26
ENDBRANCH  22  25
ENDBRANCH  19  21
ENDBRANCH  16  19
ENDBRANCH  14  15
BRANCH  14  38
ATOM     38  C   UNL A   1      32.484  22.594  22.669  1.00  0.00     0.015 C 
ATOM     39  C   UNL A   1      33.059  23.350  21.445  1.00  0.00     0.010 C 
ATOM     40  C   UNL A   1      31.890  21.313  21.984  1.00  0.00     0.010 C 
ENDBRANCH  14  38
ENDBRANCH  11  14
ENDBRANCH   5  10
ENDBRANCH   3   5
ENDBRANCH   2   3
ENDBRANCH   1   2
BRANCH   1  41
ATOM     41  C   UNL A   1      33.130  30.297  27.382  1.00  0.00     0.202 C 
BRANCH  41  42
ATOM     42  O   UNL A   1      34.537  30.441  27.107  1.00  0.00    -0.376 OA
BRANCH  42  43
ATOM     43  C   UNL A   1      35.484  29.979  28.081  1.00  0.00     0.188 C 
BRANCH  43  44
ATOM     44  C   UNL A   1      36.670  30.945  28.229  1.00  0.00     0.188 C 
BRANCH  44  45
ATOM     45  O   UNL A   1      36.594  31.962  29.213  1.00  0.00    -0.376 OA
BRANCH  45  46
ATOM     46  C   UNL A   1      35.963  31.721  30.468  1.00  0.00     0.202 C 
BRANCH  46  47
ATOM     47  C   UNL A   1      36.792  31.059  31.566  1.00  0.00     0.261 C 
BRANCH  47  48
ATOM     48  O   UNL A   1      38.193  31.304  31.485  1.00  0.00    -0.460 OA
BRANCH  48  49
ATOM     49  C   UNL A   1      38.746  31.990  32.530  1.00  0.00     0.338 C 
ATOM     50  O   UNL A   1      38.260  32.888  33.148  1.00  0.00    -0.246 OA
BRANCH  49  51
ATOM     51  C   UNL A   1      39.944  31.184  32.912  1.00  0.00     0.060 A 
ATOM     52  C   UNL A   1      41.190  31.828  32.954  1.00  0.00     0.016 A 
ATOM     53  C   UNL A   1      39.796  29.891  33.439  1.00  0.00     0.016 A 
ATOM     54  C   UNL A   1      42.298  31.162  33.485  1.00  0.00     0.010 A 
ATOM     55  C   UNL A   1      40.899  29.227  33.968  1.00  0.00     0.010 A 
ATOM     56  C   UNL A   1      42.163  29.839  33.936  1.00  0.00    -0.014 A 
BRANCH  56  57
ATOM     57  C   UNL A   1      43.343  28.943  33.931  1.00  0.00     0.031 A 
ATOM     58  C   UNL A   1      43.979  28.720  35.280  1.00  0.00     0.074 A 
ATOM     59  C   UNL A   1      43.867  28.408  32.815  1.00  0.00     0.049 A 
ATOM     60  N   UNL A   1      45.094  28.120  35.590  1.00  0.00    -0.248 NA
ATOM     61  C   UNL A   1      43.258  29.282  36.438  1.00  0.00     0.031 C 
ATOM     62  C   UNL A   1      43.319  28.530  31.466  1.00  0.00     0.029 A 
ATOM     63  N   UNL A   1      45.009  27.663  32.649  1.00  0.00    -0.354 N 
ATOM     64  C   UNL A   1      45.205  28.244  36.971  1.00  0.00     0.074 A 
ATOM     65  C   UNL A   1      44.073  29.002  37.438  1.00  0.00     0.031 C 
ATOM     66  C   UNL A   1      44.139  27.896  30.604  1.00  0.00     0.029 A 
ATOM     67  C   UNL A   1      45.288  27.361  31.335  1.00  0.00     0.049 A 
ATOM     68  H   UNL A   1      45.575  27.371  33.400  1.00  0.00     0.167 HD
ATOM     69  C   UNL A   1      46.169  27.766  37.787  1.00  0.00     0.037 A 
ATOM     70  C   UNL A   1      46.366  26.751  30.800  1.00  0.00     0.037 A 
ATOM     71  C   UNL A   1      47.307  27.037  37.310  1.00  0.00     0.049 A 
ATOM     72  C   UNL A   1      47.472  26.284  31.720  1.00  0.00     0.074 A 
ATOM     73  C   UNL A   1      48.352  26.504  38.039  1.00  0.00     0.029 A 
ATOM     74  N   UNL A   1      47.553  26.757  35.975  1.00  0.00    -0.354 N 
ATOM     75  N   UNL A   1      47.557  26.382  33.028  1.00  0.00    -0.248 NA
ATOM     76  C   UNL A   1      48.630  25.629  31.096  1.00  0.00     0.031 C 
ATOM     77  C   UNL A   1      49.262  25.948  37.135  1.00  0.00     0.029 A 
ATOM     78  C   UNL A   1      48.749  26.076  35.853  1.00  0.00     0.049 A 
ATOM     79  H   UNL A   1      46.965  27.005  35.226  1.00  0.00     0.167 HD
ATOM     80  C   UNL A   1      48.758  25.773  33.382  1.00  0.00     0.074 A 
ATOM     81  C   UNL A   1      49.362  25.303  32.153  1.00  0.00     0.031 C 
ATOM     82  C   UNL A   1      49.314  25.610  34.610  1.00  0.00     0.037 A 
BRANCH  69  83
ATOM     83  C   UNL A   1      46.039  28.067  39.252  1.00  0.00     0.058 A 
ATOM     84  C   UNL A   1      45.361  27.205  40.130  1.00  0.00     0.135 A 
ATOM     85  C   UNL A   1      46.581  29.249  39.781  1.00  0.00     0.135 A 
ATOM     86  F   UNL A   1      44.788  26.083  39.668  1.00  0.00    -0.206 F 
ATOM     87  C   UNL A   1      45.204  27.516  41.476  1.00  0.00     0.059 A 
ATOM     88  C   UNL A   1      46.464  29.564  41.129  1.00  0.00     0.059 A 
ATOM     89  F   UNL A   1      47.217  30.119  38.981  1.00  0.00    -0.206 F 
ATOM     90  C   UNL A   1      45.764  28.697  41.967  1.00  0.00     0.060 A 
BRANCH  90  91
ATOM     91  S   UNL A   1      45.567  29.077  43.719  1.00  0.00     0.124 S 
ATOM     92  O   UNL A   1      46.916  28.834  44.224  1.00  0.00    -0.237 OA
ATOM     93  O   UNL A   1      45.144  30.472  43.688  1.00  0.00    -0.237 OA
ATOM     94  O   UNL A   1      44.553  28.126  44.162  1.00  0.00    -0.744 OA
ENDBRANCH  90  91
ENDBRANCH  69  83
BRANCH  70  95
ATOM     95  C   UNL A   1      46.473  26.562  29.323  1.00  0.00     0.058 A 
ATOM     96  C   UNL A   1      46.084  25.361  28.711  1.00  0.00     0.135 A 
ATOM     97  C   UNL A   1      46.985  27.574  28.494  1.00  0.00     0.135 A 
ATOM     98  F   UNL A   1      45.606  24.353  29.457  1.00  0.00    -0.206 F 
ATOM     99  C   UNL A   1      46.206  25.164  27.338  1.00  0.00     0.059 A 
ATOM    100  C   UNL A   1      47.091  27.411  27.115  1.00  0.00     0.059 A 
ATOM    101  F   UNL A   1      47.373  28.745  29.023  1.00  0.00    -0.206 F 
ATOM    102  C   UNL A   1      46.707  26.199  26.547  1.00  0.00     0.060 A 
BRANCH 102 103
ATOM    103  S   UNL A   1      46.814  25.951  24.760  1.00  0.00     0.124 S 
ATOM    104  O   UNL A   1      46.383  27.250  24.254  1.00  0.00    -0.237 OA
ATOM    105  O   UNL A   1      48.227  25.633  24.581  1.00  0.00    -0.237 OA
ATOM    106  O   UNL A   1      45.893  24.844  24.520  1.00  0.00    -0.744 OA
ENDBRANCH 102 103
ENDBRANCH  70  95
BRANCH  82 107
ATOM    107  C   UNL A   1      50.612  24.856  34.698  1.00  0.00     0.058 A 
ATOM    108  C   UNL A   1      50.655  23.455  34.736  1.00  0.00     0.135 A 
ATOM    109  C   UNL A   1      51.833  25.551  34.651  1.00  0.00     0.135 A 
ATOM    110  F   UNL A   1      49.517  22.744  34.780  1.00  0.00    -0.206 F 
ATOM    111  C   UNL A   1      51.863  22.768  34.745  1.00  0.00     0.059 A 
ATOM    112  C   UNL A   1      53.052  24.883  34.626  1.00  0.00     0.059 A 
ATOM    113  F   UNL A   1      51.846  26.893  34.594  1.00  0.00    -0.206 F 
ATOM    114  C   UNL A   1      53.057  23.491  34.685  1.00  0.00     0.060 A 
BRANCH 114 115
ATOM    115  S   UNL A   1      54.617  22.584  34.656  1.00  0.00     0.124 S 
ATOM    116  O   UNL A   1      54.358  21.586  33.624  1.00  0.00    -0.237 OA
ATOM    117  O   UNL A   1      55.577  23.627  34.304  1.00  0.00    -0.237 OA
ATOM    118  O   UNL A   1      54.735  22.066  36.015  1.00  0.00    -0.744 OA
ENDBRANCH 114 115
ENDBRANCH  82 107
ENDBRANCH  56  57
ENDBRANCH  49  51
ENDBRANCH  48  49
ENDBRANCH  47  48
ENDBRANCH  46  47
ENDBRANCH  45  46
ENDBRANCH  44  45
ENDBRANCH  43  44
ENDBRANCH  42  43
ENDBRANCH  41  42
ENDBRANCH   1  41
TORSDOF 33
ENDMDL
MODEL 3
REMARK VINA RESULT:      -7.4      2.763      3.673
REMARK SMILES CC(C)C[C@H](NC(=O)[C@@H](NC(=O)[C@H](C)NC(=O)CNC(=O)OCc1ccccc1)C(C)C)C(=O)OCCOCCOCCOC(=O)c1ccc(-c2c3nc(c(-c4c(F)cc(S(=O)(=O)[O-])cc4F)c4ccc([nH]4)c(-c4c(F)cc(S(=O)(=O)[O-])cc4F)c4nc(c(-c5c(F)cc(S(=O)(=O)[O-])cc5F)c5ccc2[nH]5)C=C4)C=C3)cc1
REMARK SMILES IDX 36 1 35 2 33 3 34 4 5 5 4 6 2 7 1 8 3 9 6 10 7 11 8 13 9 14
REMARK SMILES IDX 10 15 11 16 12 18 13 19 14 20 15 21 16 22 17 24 18 25 19 26
REMARK SMILES IDX 20 27 21 29 22 30 23 31 24 32 25 33 29 34 26 35 28 36 27 37
REMARK SMILES IDX 30 38 31 39 32 40 37 41 38 42 39 43 40 44 41 45 42 46 43 47
REMARK SMILES IDX 44 48 45 49 46 50 47 51 48 52 112 53 49 54 111 55 50 56
REMARK SMILES IDX 51 57 52 58 105 59 53 60 110 61 104 62 106 63 54 64 109 65
REMARK SMILES IDX 103 66 102 67 55 69 89 70 68 71 88 72 69 73 72 74 87 75
REMARK SMILES IDX 107 76 70 77 71 78 86 80 108 81 73 82 56 83 57 84 66 85
REMARK SMILES IDX 58 86 59 87 65 88 67 89 60 90 61 91 62 92 63 93 64 94 90 95
REMARK SMILES IDX 91 96 100 97 92 98 93 99 99 100 101 101 94 102 95 103 96 104
REMARK SMILES IDX 97 105 98 106 74 107 75 108 84 109 76 110 77 111 83 112
REMARK SMILES IDX 85 113 78 114 79 115 80 116 81 117 82 118
REMARK H PARENT 6 12 10 17 15 23 19 28 106 68 72 79
REMARK Flexibility Score: inf
ROOT
ATOM      1  C   UNL A   1      31.727  28.423  27.064  1.00  0.00     0.261 C 
ENDROOT
BRANCH   1   2
ATOM      2  O   UNL A   1      31.816  26.911  26.083  1.00  0.00    -0.462 OA
BRANCH   2   3
ATOM      3  C   UNL A   1      32.629  25.686  25.751  1.00  0.00     0.328 C 
ATOM      4  O   UNL A   1      33.778  25.543  26.206  1.00  0.00    -0.250 OA
BRANCH   3   5
ATOM      5  C   UNL A   1      32.189  24.259  25.232  1.00  0.00     0.192 C 
BRANCH   5   6
ATOM      6  C   UNL A   1      30.756  24.454  24.619  1.00  0.00     0.040 C 
BRANCH   6   7
ATOM      7  C   UNL A   1      30.681  25.330  23.353  1.00  0.00    -0.015 C 
ATOM      8  C   UNL A   1      29.747  26.521  23.461  1.00  0.00     0.007 C 
ATOM      9  C   UNL A   1      32.054  25.868  22.967  1.00  0.00     0.007 C 
ENDBRANCH   6   7
ENDBRANCH   5   6
BRANCH   5  10
ATOM     10  N   UNL A   1      32.244  22.986  25.891  1.00  0.00    -0.341 N 
ATOM     11  C   UNL A   1      32.791  21.879  25.332  1.00  0.00     0.243 C 
ATOM     12  H   UNL A   1      31.863  22.913  26.796  1.00  0.00     0.164 HD
ATOM     13  O   UNL A   1      32.770  20.818  25.948  1.00  0.00    -0.273 OA
BRANCH  11  14
ATOM     14  C   UNL A   1      33.691  22.172  24.148  1.00  0.00     0.174 C 
BRANCH  14  15
ATOM     15  N   UNL A   1      35.195  21.176  24.420  1.00  0.00    -0.342 N 
ATOM     16  C   UNL A   1      36.605  21.065  24.988  1.00  0.00     0.242 C 
ATOM     17  H   UNL A   1      35.010  20.302  24.007  1.00  0.00     0.164 HD
ATOM     18  O   UNL A   1      37.032  19.895  25.016  1.00  0.00    -0.273 OA
BRANCH  16  19
ATOM     19  C   UNL A   1      37.729  22.313  25.764  1.00  0.00     0.168 C 
ATOM     20  C   UNL A   1      37.399  23.823  25.663  1.00  0.00     0.041 C 
BRANCH  19  21
ATOM     21  N   UNL A   1      39.265  22.364  25.713  1.00  0.00    -0.343 N 
ATOM     22  C   UNL A   1      40.180  22.961  26.561  1.00  0.00     0.240 C 
ATOM     23  H   UNL A   1      39.665  21.891  24.948  1.00  0.00     0.164 HD
ATOM     24  O   UNL A   1      41.338  22.529  26.589  1.00  0.00    -0.273 OA
BRANCH  22  25
ATOM     25  C   UNL A   1      39.755  24.147  27.425  1.00  0.00     0.219 C 
BRANCH  25  26
ATOM     26  N   UNL A   1      40.833  24.209  28.378  1.00  0.00    -0.312 N 
ATOM     27  C   UNL A   1      41.809  25.142  28.263  1.00  0.00     0.407 C 
ATOM     28  H   UNL A   1      40.860  23.566  29.122  1.00  0.00     0.167 HD
ATOM     29  O   UNL A   1      42.976  24.858  28.496  1.00  0.00    -0.225 OA
BRANCH  27  30
ATOM     30  O   UNL A   1      41.322  26.354  27.901  1.00  0.00    -0.445 OA
BRANCH  30  31
ATOM     31  C   UNL A   1      41.560  27.442  28.806  1.00  0.00     0.270 C 
BRANCH  31  32
ATOM     32  C   UNL A   1      40.302  28.046  29.381  1.00  0.00    -0.011 A 
ATOM     33  C   UNL A   1      40.111  28.037  30.765  1.00  0.00     0.007 A 
ATOM     34  C   UNL A   1      39.267  28.533  28.566  1.00  0.00     0.007 A 
ATOM     35  C   UNL A   1      38.884  28.432  31.304  1.00  0.00     0.000 A 
ATOM     36  C   UNL A   1      38.029  28.865  29.094  1.00  0.00     0.000 A 
ATOM     37  C   UNL A   1      37.836  28.810  30.466  1.00  0.00     0.000 A 
ENDBRANCH  31  32
ENDBRANCH  30  31
ENDBRANCH  27  30
ENDBRANCH  25  26
ENDBRANCH  22  25
ENDBRANCH  19  21
ENDBRANCH  16  19
ENDBRANCH  14  15
BRANCH  14  38
ATOM     38  C   UNL A   1      32.560  22.223  22.765  1.00  0.00     0.015 C 
ATOM     39  C   UNL A   1      33.090  22.872  21.463  1.00  0.00     0.010 C 
ATOM     40  C   UNL A   1      31.922  20.901  22.209  1.00  0.00     0.010 C 
ENDBRANCH  14  38
ENDBRANCH  11  14
ENDBRANCH   5  10
ENDBRANCH   3   5
ENDBRANCH   2   3
ENDBRANCH   1   2
BRANCH   1  41
ATOM     41  C   UNL A   1      32.359  29.970  26.908  1.00  0.00     0.202 C 
BRANCH  41  42
ATOM     42  O   UNL A   1      33.756  30.014  26.560  1.00  0.00    -0.376 OA
BRANCH  42  43
ATOM     43  C   UNL A   1      34.734  29.956  27.610  1.00  0.00     0.188 C 
BRANCH  43  44
ATOM     44  C   UNL A   1      35.647  31.192  27.610  1.00  0.00     0.188 C 
BRANCH  44  45
ATOM     45  O   UNL A   1      35.234  32.337  28.337  1.00  0.00    -0.376 OA
BRANCH  45  46
ATOM     46  C   UNL A   1      34.563  32.208  29.587  1.00  0.00     0.202 C 
BRANCH  46  47
ATOM     47  C   UNL A   1      35.417  32.011  30.837  1.00  0.00     0.261 C 
BRANCH  47  48
ATOM     48  O   UNL A   1      36.822  32.100  30.619  1.00  0.00    -0.460 OA
BRANCH  48  49
ATOM     49  C   UNL A   1      37.380  33.338  30.787  1.00  0.00     0.338 C 
ATOM     50  O   UNL A   1      37.068  34.354  30.244  1.00  0.00    -0.246 OA
BRANCH  49  51
ATOM     51  C   UNL A   1      38.245  33.195  31.996  1.00  0.00     0.060 A 
ATOM     52  C   UNL A   1      39.595  33.562  31.891  1.00  0.00     0.016 A 
ATOM     53  C   UNL A   1      37.678  32.930  33.252  1.00  0.00     0.016 A 
ATOM     54  C   UNL A   1      40.390  33.622  33.039  1.00  0.00     0.010 A 
ATOM     55  C   UNL A   1      38.468  32.990  34.397  1.00  0.00     0.010 A 
ATOM     56  C   UNL A   1      39.839  33.276  34.284  1.00  0.00    -0.014 A 
BRANCH  56  57
ATOM     57  C   UNL A   1      40.722  32.761  35.355  1.00  0.00     0.031 A 
ATOM     58  C   UNL A   1      41.069  33.760  36.430  1.00  0.00     0.074 A 
ATOM     59  C   UNL A   1      41.244  31.523  35.358  1.00  0.00     0.049 A 
ATOM     60  N   UNL A   1      41.923  33.672  37.411  1.00  0.00    -0.248 NA
ATOM     61  C   UNL A   1      40.360  35.053  36.367  1.00  0.00     0.031 C 
ATOM     62  C   UNL A   1      40.955  30.468  34.390  1.00  0.00     0.029 A 
ATOM     63  N   UNL A   1      42.156  30.955  36.214  1.00  0.00    -0.354 N 
ATOM     64  C   UNL A   1      41.857  34.896  38.066  1.00  0.00     0.074 A 
ATOM     65  C   UNL A   1      40.913  35.724  37.360  1.00  0.00     0.031 C 
ATOM     66  C   UNL A   1      41.695  29.382  34.696  1.00  0.00     0.029 A 
ATOM     67  C   UNL A   1      42.536  29.682  35.854  1.00  0.00     0.049 A 
ATOM     68  H   UNL A   1      42.506  31.415  37.011  1.00  0.00     0.167 HD
ATOM     69  C   UNL A   1      42.526  35.302  39.167  1.00  0.00     0.037 A 
ATOM     70  C   UNL A   1      43.479  28.878  36.389  1.00  0.00     0.037 A 
ATOM     71  C   UNL A   1      43.485  34.482  39.846  1.00  0.00     0.049 A 
ATOM     72  C   UNL A   1      44.271  29.374  37.579  1.00  0.00     0.074 A 
ATOM     73  C   UNL A   1      44.229  34.782  40.970  1.00  0.00     0.029 A 
ATOM     74  N   UNL A   1      43.843  33.203  39.448  1.00  0.00    -0.354 N 
ATOM     75  N   UNL A   1      44.183  30.524  38.209  1.00  0.00    -0.248 NA
ATOM     76  C   UNL A   1      45.290  28.470  38.129  1.00  0.00     0.031 C 
ATOM     77  C   UNL A   1      45.081  33.702  41.219  1.00  0.00     0.029 A 
ATOM     78  C   UNL A   1      44.818  32.706  40.291  1.00  0.00     0.049 A 
ATOM     79  H   UNL A   1      43.461  32.721  38.680  1.00  0.00     0.167 HD
ATOM     80  C   UNL A   1      45.111  30.466  39.246  1.00  0.00     0.074 A 
ATOM     81  C   UNL A   1      45.743  29.166  39.163  1.00  0.00     0.031 C 
ATOM     82  C   UNL A   1      45.415  31.397  40.186  1.00  0.00     0.037 A 
BRANCH  69  83
ATOM     83  C   UNL A   1      42.266  36.698  39.652  1.00  0.00     0.058 A 
ATOM     84  C   UNL A   1      41.256  36.984  40.587  1.00  0.00     0.135 A 
ATOM     85  C   UNL A   1      43.022  37.771  39.155  1.00  0.00     0.135 A 
ATOM     86  F   UNL A   1      40.476  36.000  41.061  1.00  0.00    -0.206 F 
ATOM     87  C   UNL A   1      40.990  38.286  40.993  1.00  0.00     0.059 A 
ATOM     88  C   UNL A   1      42.796  39.077  39.573  1.00  0.00     0.059 A 
ATOM     89  F   UNL A   1      43.983  37.557  38.243  1.00  0.00    -0.206 F 
ATOM     90  C   UNL A   1      41.769  39.327  40.484  1.00  0.00     0.060 A 
BRANCH  90  91
ATOM     91  S   UNL A   1      41.424  41.009  41.035  1.00  0.00     0.124 S 
ATOM     92  O   UNL A   1      40.109  40.851  41.651  1.00  0.00    -0.237 OA
ATOM     93  O   UNL A   1      42.527  41.266  41.954  1.00  0.00    -0.237 OA
ATOM     94  O   UNL A   1      41.447  41.784  39.799  1.00  0.00    -0.744 OA
ENDBRANCH  90  91
ENDBRANCH  69  83
BRANCH  70  95
ATOM     95  C   UNL A   1      43.750  27.533  35.802  1.00  0.00     0.058 A 
ATOM     96  C   UNL A   1      43.076  26.389  36.258  1.00  0.00     0.135 A 
ATOM     97  C   UNL A   1      44.702  27.361  34.784  1.00  0.00     0.135 A 
ATOM     98  F   UNL A   1      42.170  26.492  37.242  1.00  0.00    -0.206 F 
ATOM     99  C   UNL A   1      43.342  25.125  35.736  1.00  0.00     0.059 A 
ATOM    100  C   UNL A   1      44.965  26.112  34.227  1.00  0.00     0.059 A 
ATOM    101  F   UNL A   1      45.377  28.418  34.308  1.00  0.00    -0.206 F 
ATOM    102  C   UNL A   1      44.286  24.998  34.716  1.00  0.00     0.060 A 
BRANCH 102 103
ATOM    103  S   UNL A   1      44.586  23.361  34.011  1.00  0.00     0.124 S 
ATOM    104  O   UNL A   1      46.037  23.253  34.119  1.00  0.00    -0.237 OA
ATOM    105  O   UNL A   1      43.815  22.500  34.903  1.00  0.00    -0.237 OA
ATOM    106  O   UNL A   1      44.061  23.479  32.654  1.00  0.00    -0.744 OA
ENDBRANCH 102 103
ENDBRANCH  70  95
BRANCH  82 107
ATOM    107  C   UNL A   1      46.436  31.035  41.229  1.00  0.00     0.058 A 
ATOM    108  C   UNL A   1      47.797  31.339  41.072  1.00  0.00     0.135 A 
ATOM    109  C   UNL A   1      46.027  30.455  42.441  1.00  0.00     0.135 A 
ATOM    110  F   UNL A   1      48.239  31.894  39.933  1.00  0.00    -0.206 F 
ATOM    111  C   UNL A   1      48.720  31.062  42.074  1.00  0.00     0.059 A 
ATOM    112  C   UNL A   1      46.927  30.200  43.470  1.00  0.00     0.059 A 
ATOM    113  F   UNL A   1      44.732  30.162  42.649  1.00  0.00    -0.206 F 
ATOM    114  C   UNL A   1      48.274  30.497  43.272  1.00  0.00     0.060 A 
BRANCH 114 115
ATOM    115  S   UNL A   1      49.478  30.181  44.580  1.00  0.00     0.124 S 
ATOM    116  O   UNL A   1      48.704  30.503  45.774  1.00  0.00    -0.237 OA
ATOM    117  O   UNL A   1      49.785  28.767  44.385  1.00  0.00    -0.237 OA
ATOM    118  O   UNL A   1      50.567  31.102  44.270  1.00  0.00    -0.744 OA
ENDBRANCH 114 115
ENDBRANCH  82 107
ENDBRANCH  56  57
ENDBRANCH  49  51
ENDBRANCH  48  49
ENDBRANCH  47  48
ENDBRANCH  46  47
ENDBRANCH  45  46
ENDBRANCH  44  45
ENDBRANCH  43  44
ENDBRANCH  42  43
ENDBRANCH  41  42
ENDBRANCH   1  41
TORSDOF 33
ENDMDL
