MODEL 1
REMARK VINA RESULT:     -11.2      0.000      0.000
REMARK SMILES CC1(C)[C@@]2(C(=O)OCCOCCOCCOC(=O)c3ccc(-c4c5nc(c(-c6c(F)cc(S(=O)(=O)[O-])cc6F)c6ccc([nH]6)c(-c6c(F)cc(S(=O)(=O)[O-])cc6F)c6nc(c(-c7c(F)cc(S(=O)(=O)[O-])cc7F)c7ccc4[nH]7)C=C6)C=C5)cc3)CC[C@]1(C)/C(=N/NC(=O)c1ccc(Cl)cc1)C2
REMARK SMILES IDX 12 1 11 2 10 3 9 4 8 5 7 6 5 7 6 8 4 9 1 10 2 11 3 12 87 13
REMARK SMILES IDX 85 14 101 15 86 16 88 17 89 18 90 19 91 20 92 21 93 23 94 24
REMARK SMILES IDX 95 25 100 26 96 27 99 28 97 29 98 30 13 31 14 32 15 33 16 34
REMARK SMILES IDX 17 35 18 36 19 37 20 38 84 39 21 40 83 41 22 42 23 43 24 44
REMARK SMILES IDX 77 45 25 46 82 47 76 48 78 49 26 50 81 51 75 52 74 53 27 55
REMARK SMILES IDX 61 56 40 57 60 58 41 59 44 60 59 61 79 62 42 63 43 64 58 66
REMARK SMILES IDX 80 67 45 68 28 69 29 70 38 71 30 72 31 73 37 74 39 75 32 76
REMARK SMILES IDX 33 77 34 78 35 79 36 80 62 81 63 82 72 83 64 84 65 85 71 86
REMARK SMILES IDX 73 87 66 88 67 89 68 90 69 91 70 92 46 93 47 94 56 95 48 96
REMARK SMILES IDX 49 97 55 98 57 99 50 100 51 101 52 102 53 103 54 104
REMARK H PARENT 91 22 78 54 44 65
REMARK Flexibility Score: inf
ROOT
ATOM      1  C   UNL A   1      35.989  33.139  28.421  1.00  0.00     0.188 C 
ENDROOT
BRANCH   1   2
ATOM      2  C   UNL A   1      34.892  32.065  28.439  1.00  0.00     0.188 C 
BRANCH   2   3
ATOM      3  O   UNL A   1      35.281  30.697  28.459  1.00  0.00    -0.376 OA
BRANCH   3   4
ATOM      4  C   UNL A   1      34.587  29.772  27.634  1.00  0.00     0.202 C 
BRANCH   4   5
ATOM      5  C   UNL A   1      33.412  30.270  26.781  1.00  0.00     0.261 C 
BRANCH   5   6
ATOM      6  O   UNL A   1      32.329  29.347  26.554  1.00  0.00    -0.463 OA
BRANCH   6   7
ATOM      7  C   UNL A   1      31.592  29.548  25.421  1.00  0.00     0.313 C 
ATOM      8  O   UNL A   1      31.018  30.593  25.156  1.00  0.00    -0.252 OA
BRANCH   7   9
ATOM      9  C   UNL A   1      31.458  28.277  24.589  1.00  0.00     0.079 C 
ATOM     10  C   UNL A   1      33.344  28.774  22.858  1.00  0.00     0.013 C 
ATOM     11  C   UNL A   1      32.701  27.743  23.816  1.00  0.00    -0.008 C 
ATOM     12  C   UNL A   1      33.826  27.167  24.702  1.00  0.00     0.013 C 
ATOM     13  C   UNL A   1      31.844  26.637  23.089  1.00  0.00     0.014 C 
ATOM     14  C   UNL A   1      30.431  28.540  23.433  1.00  0.00     0.021 C 
ATOM     15  C   UNL A   1      31.000  27.021  25.365  1.00  0.00     0.073 C 
ATOM     16  C   UNL A   1      30.739  27.445  22.393  1.00  0.00     0.014 C 
ATOM     17  C   UNL A   1      32.603  25.657  22.220  1.00  0.00     0.018 C 
ATOM     18  C   UNL A   1      31.100  25.995  24.280  1.00  0.00     0.046 C 
ATOM     19  N   UNL A   1      30.712  24.760  24.241  1.00  0.00    -0.181 NA
BRANCH  19  20
ATOM     20  N   UNL A   1      30.162  24.058  25.270  1.00  0.00    -0.243 N 
ATOM     21  C   UNL A   1      30.607  23.111  26.169  1.00  0.00     0.271 C 
ATOM     22  H   UNL A   1      29.213  24.282  25.407  1.00  0.00     0.194 HD
ATOM     23  O   UNL A   1      29.824  22.621  26.985  1.00  0.00    -0.267 OA
BRANCH  21  24
ATOM     24  C   UNL A   1      32.000  22.652  26.221  1.00  0.00     0.041 A 
ATOM     25  C   UNL A   1      32.288  21.387  25.680  1.00  0.00     0.015 A 
ATOM     26  C   UNL A   1      33.023  23.467  26.715  1.00  0.00     0.015 A 
ATOM     27  C   UNL A   1      33.615  20.988  25.523  1.00  0.00     0.021 A 
ATOM     28  C   UNL A   1      34.351  23.050  26.576  1.00  0.00     0.021 A 
ATOM     29  C   UNL A   1      34.641  21.831  25.952  1.00  0.00     0.041 A 
ATOM     30  Cl  UNL A   1      36.278  21.397  25.654  1.00  0.00    -0.084 Cl
ENDBRANCH  21  24
ENDBRANCH  19  20
ENDBRANCH   7   9
ENDBRANCH   6   7
ENDBRANCH   5   6
ENDBRANCH   4   5
ENDBRANCH   3   4
ENDBRANCH   2   3
ENDBRANCH   1   2
BRANCH   1  31
ATOM     31  O   UNL A   1      35.930  33.995  29.534  1.00  0.00    -0.376 OA
BRANCH  31  32
ATOM     32  C   UNL A   1      35.180  33.661  30.678  1.00  0.00     0.202 C 
BRANCH  32  33
ATOM     33  C   UNL A   1      35.792  32.778  31.778  1.00  0.00     0.261 C 
BRANCH  33  34
ATOM     34  O   UNL A   1      37.068  32.179  31.514  1.00  0.00    -0.460 OA
BRANCH  34  35
ATOM     35  C   UNL A   1      37.184  30.839  31.735  1.00  0.00     0.338 C 
ATOM     36  O   UNL A   1      36.349  30.113  32.211  1.00  0.00    -0.246 OA
BRANCH  35  37
ATOM     37  C   UNL A   1      38.408  30.393  31.001  1.00  0.00     0.060 A 
ATOM     38  C   UNL A   1      39.427  29.756  31.728  1.00  0.00     0.016 A 
ATOM     39  C   UNL A   1      38.509  30.509  29.614  1.00  0.00     0.016 A 
ATOM     40  C   UNL A   1      40.555  29.255  31.069  1.00  0.00     0.010 A 
ATOM     41  C   UNL A   1      39.647  30.025  28.959  1.00  0.00     0.010 A 
ATOM     42  C   UNL A   1      40.689  29.419  29.683  1.00  0.00    -0.014 A 
BRANCH  42  43
ATOM     43  C   UNL A   1      42.005  29.203  29.026  1.00  0.00     0.031 A 
ATOM     44  C   UNL A   1      42.296  27.824  28.495  1.00  0.00     0.074 A 
ATOM     45  C   UNL A   1      42.928  30.176  28.901  1.00  0.00     0.049 A 
ATOM     46  N   UNL A   1      43.398  27.340  27.987  1.00  0.00    -0.248 NA
ATOM     47  C   UNL A   1      41.185  26.860  28.558  1.00  0.00     0.031 C 
ATOM     48  C   UNL A   1      42.760  31.567  29.314  1.00  0.00     0.029 A 
ATOM     49  N   UNL A   1      44.207  30.125  28.396  1.00  0.00    -0.354 N 
ATOM     50  C   UNL A   1      43.118  26.013  27.682  1.00  0.00     0.074 A 
ATOM     51  C   UNL A   1      41.752  25.763  28.086  1.00  0.00     0.031 C 
ATOM     52  C   UNL A   1      43.903  32.235  29.065  1.00  0.00     0.029 A 
ATOM     53  C   UNL A   1      44.897  31.311  28.515  1.00  0.00     0.049 A 
ATOM     54  H   UNL A   1      44.594  29.317  27.989  1.00  0.00     0.167 HD
ATOM     55  C   UNL A   1      43.924  25.084  27.115  1.00  0.00     0.037 A 
ATOM     56  C   UNL A   1      46.186  31.604  28.242  1.00  0.00     0.037 A 
ATOM     57  C   UNL A   1      45.287  25.326  26.726  1.00  0.00     0.049 A 
ATOM     58  C   UNL A   1      47.097  30.529  27.693  1.00  0.00     0.074 A 
ATOM     59  C   UNL A   1      46.183  24.448  26.144  1.00  0.00     0.029 A 
ATOM     60  N   UNL A   1      45.955  26.529  26.891  1.00  0.00    -0.354 N 
ATOM     61  N   UNL A   1      46.821  29.279  27.402  1.00  0.00    -0.248 NA
ATOM     62  C   UNL A   1      48.496  30.905  27.437  1.00  0.00     0.031 C 
ATOM     63  C   UNL A   1      47.411  25.103  26.010  1.00  0.00     0.029 A 
ATOM     64  C   UNL A   1      47.262  26.410  26.447  1.00  0.00     0.049 A 
ATOM     65  H   UNL A   1      45.560  27.349  27.268  1.00  0.00     0.167 HD
ATOM     66  C   UNL A   1      48.001  28.732  26.903  1.00  0.00     0.074 A 
ATOM     67  C   UNL A   1      48.991  29.787  26.923  1.00  0.00     0.031 C 
ATOM     68  C   UNL A   1      48.240  27.470  26.462  1.00  0.00     0.037 A 
BRANCH  55  69
ATOM     69  C   UNL A   1      43.355  23.703  26.933  1.00  0.00     0.058 A 
ATOM     70  C   UNL A   1      43.249  22.796  28.000  1.00  0.00     0.135 A 
ATOM     71  C   UNL A   1      42.916  23.281  25.668  1.00  0.00     0.135 A 
ATOM     72  F   UNL A   1      43.677  23.140  29.225  1.00  0.00    -0.206 F 
ATOM     73  C   UNL A   1      42.764  21.506  27.810  1.00  0.00     0.059 A 
ATOM     74  C   UNL A   1      42.396  22.007  25.463  1.00  0.00     0.059 A 
ATOM     75  F   UNL A   1      42.999  24.106  24.613  1.00  0.00    -0.206 F 
ATOM     76  C   UNL A   1      42.343  21.120  26.537  1.00  0.00     0.060 A 
BRANCH  76  77
ATOM     77  S   UNL A   1      41.733  19.439  26.303  1.00  0.00     0.124 S 
ATOM     78  O   UNL A   1      42.515  19.005  25.148  1.00  0.00    -0.237 OA
ATOM     79  O   UNL A   1      42.073  18.804  27.572  1.00  0.00    -0.237 OA
ATOM     80  O   UNL A   1      40.306  19.625  26.060  1.00  0.00    -0.744 OA
ENDBRANCH  76  77
ENDBRANCH  55  69
BRANCH  56  81
ATOM     81  C   UNL A   1      46.712  32.974  28.504  1.00  0.00     0.058 A 
ATOM     82  C   UNL A   1      46.678  33.969  27.516  1.00  0.00     0.135 A 
ATOM     83  C   UNL A   1      47.269  33.313  29.749  1.00  0.00     0.135 A 
ATOM     84  F   UNL A   1      46.179  33.691  26.301  1.00  0.00    -0.206 F 
ATOM     85  C   UNL A   1      47.176  35.248  27.747  1.00  0.00     0.059 A 
ATOM     86  C   UNL A   1      47.749  34.592  30.014  1.00  0.00     0.059 A 
ATOM     87  F   UNL A   1      47.330  32.399  30.728  1.00  0.00    -0.206 F 
ATOM     88  C   UNL A   1      47.703  35.553  29.005  1.00  0.00     0.060 A 
BRANCH  88  89
ATOM     89  S   UNL A   1      48.282  37.236  29.315  1.00  0.00     0.124 S 
ATOM     90  O   UNL A   1      47.029  37.935  29.578  1.00  0.00    -0.237 OA
ATOM     91  O   UNL A   1      49.161  37.048  30.465  1.00  0.00    -0.237 OA
ATOM     92  O   UNL A   1      48.955  37.594  28.071  1.00  0.00    -0.744 OA
ENDBRANCH  88  89
ENDBRANCH  56  81
BRANCH  68  93
ATOM     93  C   UNL A   1      49.611  27.158  25.919  1.00  0.00     0.058 A 
ATOM     94  C   UNL A   1      50.636  26.646  26.729  1.00  0.00     0.135 A 
ATOM     95  C   UNL A   1      49.878  27.306  24.547  1.00  0.00     0.135 A 
ATOM     96  F   UNL A   1      50.439  26.486  28.047  1.00  0.00    -0.206 F 
ATOM     97  C   UNL A   1      51.882  26.312  26.204  1.00  0.00     0.059 A 
ATOM     98  C   UNL A   1      51.106  26.950  23.995  1.00  0.00     0.059 A 
ATOM     99  F   UNL A   1      48.931  27.778  23.721  1.00  0.00    -0.206 F 
ATOM    100  C   UNL A   1      52.106  26.464  24.834  1.00  0.00     0.060 A 
BRANCH 100 101
ATOM    101  S   UNL A   1      53.713  25.990  24.161  1.00  0.00     0.124 S 
ATOM    102  O   UNL A   1      53.920  24.686  24.782  1.00  0.00    -0.237 OA
ATOM    103  O   UNL A   1      53.459  25.976  22.724  1.00  0.00    -0.237 OA
ATOM    104  O   UNL A   1      54.602  27.053  24.622  1.00  0.00    -0.744 OA
ENDBRANCH 100 101
ENDBRANCH  68  93
ENDBRANCH  42  43
ENDBRANCH  35  37
ENDBRANCH  34  35
ENDBRANCH  33  34
ENDBRANCH  32  33
ENDBRANCH  31  32
ENDBRANCH   1  31
TORSDOF 22
ENDMDL
MODEL 2
REMARK VINA RESULT:     -11.0      1.740      8.415
REMARK SMILES CC1(C)[C@@]2(C(=O)OCCOCCOCCOC(=O)c3ccc(-c4c5nc(c(-c6c(F)cc(S(=O)(=O)[O-])cc6F)c6ccc([nH]6)c(-c6c(F)cc(S(=O)(=O)[O-])cc6F)c6nc(c(-c7c(F)cc(S(=O)(=O)[O-])cc7F)c7ccc4[nH]7)C=C6)C=C5)cc3)CC[C@]1(C)/C(=N/NC(=O)c1ccc(Cl)cc1)C2
REMARK SMILES IDX 12 1 11 2 10 3 9 4 8 5 7 6 5 7 6 8 4 9 1 10 2 11 3 12 87 13
REMARK SMILES IDX 85 14 101 15 86 16 88 17 89 18 90 19 91 20 92 21 93 23 94 24
REMARK SMILES IDX 95 25 100 26 96 27 99 28 97 29 98 30 13 31 14 32 15 33 16 34
REMARK SMILES IDX 17 35 18 36 19 37 20 38 84 39 21 40 83 41 22 42 23 43 24 44
REMARK SMILES IDX 77 45 25 46 82 47 76 48 78 49 26 50 81 51 75 52 74 53 27 55
REMARK SMILES IDX 61 56 40 57 60 58 41 59 44 60 59 61 79 62 42 63 43 64 58 66
REMARK SMILES IDX 80 67 45 68 28 69 29 70 38 71 30 72 31 73 37 74 39 75 32 76
REMARK SMILES IDX 33 77 34 78 35 79 36 80 62 81 63 82 72 83 64 84 65 85 71 86
REMARK SMILES IDX 73 87 66 88 67 89 68 90 69 91 70 92 46 93 47 94 56 95 48 96
REMARK SMILES IDX 49 97 55 98 57 99 50 100 51 101 52 102 53 103 54 104
REMARK H PARENT 91 22 78 54 44 65
REMARK Flexibility Score: inf
ROOT
ATOM      1  C   UNL A   1      31.805  30.538  25.938  1.00  0.00     0.188 C 
ENDROOT
BRANCH   1   2
ATOM      2  C   UNL A   1      31.776  29.513  24.796  1.00  0.00     0.188 C 
BRANCH   2   3
ATOM      3  O   UNL A   1      30.665  29.514  23.909  1.00  0.00    -0.376 OA
BRANCH   3   4
ATOM      4  C   UNL A   1      30.825  28.979  22.603  1.00  0.00     0.202 C 
BRANCH   4   5
ATOM      5  C   UNL A   1      32.045  28.097  22.305  1.00  0.00     0.261 C 
BRANCH   5   6
ATOM      6  O   UNL A   1      31.899  26.680  22.522  1.00  0.00    -0.463 OA
BRANCH   6   7
ATOM      7  C   UNL A   1      33.057  25.962  22.627  1.00  0.00     0.313 C 
ATOM      8  O   UNL A   1      33.817  25.752  21.694  1.00  0.00    -0.252 OA
BRANCH   7   9
ATOM      9  C   UNL A   1      33.227  25.343  24.010  1.00  0.00     0.079 C 
ATOM     10  C   UNL A   1      30.703  25.159  24.639  1.00  0.00     0.013 C 
ATOM     11  C   UNL A   1      32.082  24.459  24.590  1.00  0.00    -0.008 C 
ATOM     12  C   UNL A   1      31.887  23.097  23.890  1.00  0.00     0.013 C 
ATOM     13  C   UNL A   1      32.798  24.350  25.989  1.00  0.00     0.014 C 
ATOM     14  C   UNL A   1      33.329  26.496  25.068  1.00  0.00     0.021 C 
ATOM     15  C   UNL A   1      34.457  24.423  24.178  1.00  0.00     0.073 C 
ATOM     16  C   UNL A   1      32.984  25.816  26.408  1.00  0.00     0.014 C 
ATOM     17  C   UNL A   1      32.149  23.442  27.012  1.00  0.00     0.018 C 
ATOM     18  C   UNL A   1      34.224  23.929  25.571  1.00  0.00     0.046 C 
ATOM     19  N   UNL A   1      34.979  23.238  26.365  1.00  0.00    -0.181 NA
BRANCH  19  20
ATOM     20  N   UNL A   1      36.196  22.709  26.058  1.00  0.00    -0.243 N 
ATOM     21  C   UNL A   1      36.649  21.530  25.504  1.00  0.00     0.271 C 
ATOM     22  H   UNL A   1      36.934  23.320  26.286  1.00  0.00     0.194 HD
ATOM     23  O   UNL A   1      37.860  21.329  25.391  1.00  0.00    -0.267 OA
BRANCH  21  24
ATOM     24  C   UNL A   1      35.749  20.479  25.015  1.00  0.00     0.041 A 
ATOM     25  C   UNL A   1      36.297  19.202  24.805  1.00  0.00     0.015 A 
ATOM     26  C   UNL A   1      34.382  20.707  24.839  1.00  0.00     0.015 A 
ATOM     27  C   UNL A   1      35.453  18.124  24.536  1.00  0.00     0.021 A 
ATOM     28  C   UNL A   1      33.544  19.627  24.545  1.00  0.00     0.021 A 
ATOM     29  C   UNL A   1      34.079  18.338  24.428  1.00  0.00     0.041 A 
ATOM     30  Cl  UNL A   1      33.024  16.997  24.213  1.00  0.00    -0.084 Cl
ENDBRANCH  21  24
ENDBRANCH  19  20
ENDBRANCH   7   9
ENDBRANCH   6   7
ENDBRANCH   5   6
ENDBRANCH   4   5
ENDBRANCH   3   4
ENDBRANCH   2   3
ENDBRANCH   1   2
BRANCH   1  31
ATOM     31  O   UNL A   1      32.477  30.065  27.078  1.00  0.00    -0.376 OA
BRANCH  31  32
ATOM     32  C   UNL A   1      33.875  30.176  27.204  1.00  0.00     0.202 C 
BRANCH  32  33
ATOM     33  C   UNL A   1      34.494  31.349  27.982  1.00  0.00     0.261 C 
BRANCH  33  34
ATOM     34  O   UNL A   1      35.923  31.462  27.985  1.00  0.00    -0.460 OA
BRANCH  34  35
ATOM     35  C   UNL A   1      36.549  31.418  29.195  1.00  0.00     0.338 C 
ATOM     36  O   UNL A   1      36.068  31.695  30.264  1.00  0.00    -0.246 OA
BRANCH  35  37
ATOM     37  C   UNL A   1      37.830  30.678  28.984  1.00  0.00     0.060 A 
ATOM     38  C   UNL A   1      38.710  30.543  30.070  1.00  0.00     0.016 A 
ATOM     39  C   UNL A   1      38.117  30.046  27.772  1.00  0.00     0.016 A 
ATOM     40  C   UNL A   1      39.885  29.794  29.937  1.00  0.00     0.010 A 
ATOM     41  C   UNL A   1      39.301  29.314  27.634  1.00  0.00     0.010 A 
ATOM     42  C   UNL A   1      40.206  29.205  28.706  1.00  0.00    -0.014 A 
BRANCH  42  43
ATOM     43  C   UNL A   1      41.582  28.703  28.450  1.00  0.00     0.031 A 
ATOM     44  C   UNL A   1      42.699  29.713  28.450  1.00  0.00     0.074 A 
ATOM     45  C   UNL A   1      41.854  27.405  28.215  1.00  0.00     0.049 A 
ATOM     46  N   UNL A   1      43.960  29.564  28.145  1.00  0.00    -0.248 NA
ATOM     47  C   UNL A   1      42.330  31.083  28.844  1.00  0.00     0.031 C 
ATOM     48  C   UNL A   1      40.885  26.313  28.241  1.00  0.00     0.029 A 
ATOM     49  N   UNL A   1      43.043  26.794  27.888  1.00  0.00    -0.354 N 
ATOM     50  C   UNL A   1      44.533  30.821  28.295  1.00  0.00     0.074 A 
ATOM     51  C   UNL A   1      43.477  31.725  28.695  1.00  0.00     0.031 C 
ATOM     52  C   UNL A   1      41.514  25.165  27.922  1.00  0.00     0.029 A 
ATOM     53  C   UNL A   1      42.921  25.447  27.629  1.00  0.00     0.049 A 
ATOM     54  H   UNL A   1      43.901  27.274  27.844  1.00  0.00     0.167 HD
ATOM     55  C   UNL A   1      45.823  31.193  28.119  1.00  0.00     0.037 A 
ATOM     56  C   UNL A   1      43.830  24.558  27.175  1.00  0.00     0.037 A 
ATOM     57  C   UNL A   1      46.873  30.300  27.709  1.00  0.00     0.049 A 
ATOM     58  C   UNL A   1      45.245  25.010  26.898  1.00  0.00     0.074 A 
ATOM     59  C   UNL A   1      48.211  30.583  27.504  1.00  0.00     0.029 A 
ATOM     60  N   UNL A   1      46.700  28.953  27.427  1.00  0.00    -0.354 N 
ATOM     61  N   UNL A   1      45.778  26.200  27.050  1.00  0.00    -0.248 NA
ATOM     62  C   UNL A   1      46.182  23.999  26.386  1.00  0.00     0.031 C 
ATOM     63  C   UNL A   1      48.837  29.421  27.042  1.00  0.00     0.029 A 
ATOM     64  C   UNL A   1      47.903  28.396  27.024  1.00  0.00     0.049 A 
ATOM     65  H   UNL A   1      45.849  28.464  27.503  1.00  0.00     0.167 HD
ATOM     66  C   UNL A   1      47.116  26.071  26.681  1.00  0.00     0.074 A 
ATOM     67  C   UNL A   1      47.313  24.687  26.307  1.00  0.00     0.031 C 
ATOM     68  C   UNL A   1      48.093  27.014  26.660  1.00  0.00     0.037 A 
BRANCH  55  69
ATOM     69  C   UNL A   1      46.151  32.647  28.325  1.00  0.00     0.058 A 
ATOM     70  C   UNL A   1      46.074  33.581  27.280  1.00  0.00     0.135 A 
ATOM     71  C   UNL A   1      46.555  33.109  29.588  1.00  0.00     0.135 A 
ATOM     72  F   UNL A   1      45.716  33.189  26.046  1.00  0.00    -0.206 F 
ATOM     73  C   UNL A   1      46.424  34.914  27.470  1.00  0.00     0.059 A 
ATOM     74  C   UNL A   1      46.878  34.444  29.808  1.00  0.00     0.059 A 
ATOM     75  F   UNL A   1      46.650  32.257  30.621  1.00  0.00    -0.206 F 
ATOM     76  C   UNL A   1      46.828  35.335  28.738  1.00  0.00     0.060 A 
BRANCH  76  77
ATOM     77  S   UNL A   1      47.295  37.062  28.965  1.00  0.00     0.124 S 
ATOM     78  O   UNL A   1      48.673  37.056  28.481  1.00  0.00    -0.237 OA
ATOM     79  O   UNL A   1      46.331  37.760  28.121  1.00  0.00    -0.237 OA
ATOM     80  O   UNL A   1      47.136  37.272  30.400  1.00  0.00    -0.744 OA
ENDBRANCH  76  77
ENDBRANCH  55  69
BRANCH  56  81
ATOM     81  C   UNL A   1      43.430  23.143  26.928  1.00  0.00     0.058 A 
ATOM     82  C   UNL A   1      43.253  22.653  25.625  1.00  0.00     0.135 A 
ATOM     83  C   UNL A   1      43.208  22.254  27.992  1.00  0.00     0.135 A 
ATOM     84  F   UNL A   1      43.428  23.468  24.573  1.00  0.00    -0.206 F 
ATOM     85  C   UNL A   1      42.869  21.337  25.384  1.00  0.00     0.059 A 
ATOM     86  C   UNL A   1      42.851  20.926  27.777  1.00  0.00     0.059 A 
ATOM     87  F   UNL A   1      43.360  22.670  29.258  1.00  0.00    -0.206 F 
ATOM     88  C   UNL A   1      42.678  20.477  26.468  1.00  0.00     0.060 A 
BRANCH  88  89
ATOM     89  S   UNL A   1      42.249  18.753  26.140  1.00  0.00     0.124 S 
ATOM     90  O   UNL A   1      42.456  18.143  27.448  1.00  0.00    -0.237 OA
ATOM     91  O   UNL A   1      40.862  18.864  25.699  1.00  0.00    -0.237 OA
ATOM     92  O   UNL A   1      43.200  18.362  25.104  1.00  0.00    -0.744 OA
ENDBRANCH  88  89
ENDBRANCH  56  81
BRANCH  68  93
ATOM     93  C   UNL A   1      49.482  26.584  26.265  1.00  0.00     0.058 A 
ATOM     94  C   UNL A   1      49.963  26.732  24.954  1.00  0.00     0.135 A 
ATOM     95  C   UNL A   1      50.371  26.084  27.232  1.00  0.00     0.135 A 
ATOM     96  F   UNL A   1      49.159  27.202  23.988  1.00  0.00    -0.206 F 
ATOM     97  C   UNL A   1      51.267  26.380  24.613  1.00  0.00     0.059 A 
ATOM     98  C   UNL A   1      51.687  25.755  26.919  1.00  0.00     0.059 A 
ATOM     99  F   UNL A   1      49.970  25.934  28.504  1.00  0.00    -0.206 F 
ATOM    100  C   UNL A   1      52.124  25.896  25.604  1.00  0.00     0.060 A 
BRANCH 100 101
ATOM    101  S   UNL A   1      53.822  25.481  25.155  1.00  0.00     0.124 S 
ATOM    102  O   UNL A   1      53.810  24.026  25.268  1.00  0.00    -0.237 OA
ATOM    103  O   UNL A   1      53.927  26.011  23.800  1.00  0.00    -0.237 OA
ATOM    104  O   UNL A   1      54.620  26.180  26.159  1.00  0.00    -0.744 OA
ENDBRANCH 100 101
ENDBRANCH  68  93
ENDBRANCH  42  43
ENDBRANCH  35  37
ENDBRANCH  34  35
ENDBRANCH  33  34
ENDBRANCH  32  33
ENDBRANCH  31  32
ENDBRANCH   1  31
TORSDOF 22
ENDMDL
MODEL 3
REMARK VINA RESULT:     -10.8      6.319     12.022
REMARK SMILES CC1(C)[C@@]2(C(=O)OCCOCCOCCOC(=O)c3ccc(-c4c5nc(c(-c6c(F)cc(S(=O)(=O)[O-])cc6F)c6ccc([nH]6)c(-c6c(F)cc(S(=O)(=O)[O-])cc6F)c6nc(c(-c7c(F)cc(S(=O)(=O)[O-])cc7F)c7ccc4[nH]7)C=C6)C=C5)cc3)CC[C@]1(C)/C(=N/NC(=O)c1ccc(Cl)cc1)C2
REMARK SMILES IDX 12 1 11 2 10 3 9 4 8 5 7 6 5 7 6 8 4 9 1 10 2 11 3 12 87 13
REMARK SMILES IDX 85 14 101 15 86 16 88 17 89 18 90 19 91 20 92 21 93 23 94 24
REMARK SMILES IDX 95 25 100 26 96 27 99 28 97 29 98 30 13 31 14 32 15 33 16 34
REMARK SMILES IDX 17 35 18 36 19 37 20 38 84 39 21 40 83 41 22 42 23 43 24 44
REMARK SMILES IDX 77 45 25 46 82 47 76 48 78 49 26 50 81 51 75 52 74 53 27 55
REMARK SMILES IDX 61 56 40 57 60 58 41 59 44 60 59 61 79 62 42 63 43 64 58 66
REMARK SMILES IDX 80 67 45 68 28 69 29 70 38 71 30 72 31 73 37 74 39 75 32 76
REMARK SMILES IDX 33 77 34 78 35 79 36 80 62 81 63 82 72 83 64 84 65 85 71 86
REMARK SMILES IDX 73 87 66 88 67 89 68 90 69 91 70 92 46 93 47 94 56 95 48 96
REMARK SMILES IDX 49 97 55 98 57 99 50 100 51 101 52 102 53 103 54 104
REMARK H PARENT 91 22 78 54 44 65
REMARK Flexibility Score: inf
ROOT
ATOM      1  C   UNL A   1      38.974  20.804  25.675  1.00  0.00     0.188 C 
ENDROOT
BRANCH   1   2
ATOM      2  C   UNL A   1      37.739  21.423  25.005  1.00  0.00     0.188 C 
BRANCH   2   3
ATOM      3  O   UNL A   1      36.607  21.725  25.813  1.00  0.00    -0.376 OA
BRANCH   3   4
ATOM      4  C   UNL A   1      35.390  21.031  25.580  1.00  0.00     0.202 C 
BRANCH   4   5
ATOM      5  C   UNL A   1      34.381  21.613  24.580  1.00  0.00     0.261 C 
BRANCH   5   6
ATOM      6  O   UNL A   1      34.060  23.011  24.711  1.00  0.00    -0.463 OA
BRANCH   6   7
ATOM      7  C   UNL A   1      34.430  23.815  23.670  1.00  0.00     0.313 C 
ATOM      8  O   UNL A   1      35.422  23.629  22.982  1.00  0.00    -0.252 OA
BRANCH   7   9
ATOM      9  C   UNL A   1      33.538  25.046  23.549  1.00  0.00     0.079 C 
ATOM     10  C   UNL A   1      32.826  24.734  21.059  1.00  0.00     0.013 C 
ATOM     11  C   UNL A   1      32.378  25.040  22.508  1.00  0.00    -0.008 C 
ATOM     12  C   UNL A   1      31.204  24.095  22.840  1.00  0.00     0.013 C 
ATOM     13  C   UNL A   1      32.056  26.560  22.775  1.00  0.00     0.014 C 
ATOM     14  C   UNL A   1      34.414  26.255  23.069  1.00  0.00     0.021 C 
ATOM     15  C   UNL A   1      32.805  25.465  24.843  1.00  0.00     0.073 C 
ATOM     16  C   UNL A   1      33.395  27.260  22.496  1.00  0.00     0.014 C 
ATOM     17  C   UNL A   1      30.846  27.129  22.066  1.00  0.00     0.018 C 
ATOM     18  C   UNL A   1      31.969  26.589  24.316  1.00  0.00     0.046 C 
ATOM     19  N   UNL A   1      31.235  27.462  24.930  1.00  0.00    -0.181 NA
BRANCH  19  20
ATOM     20  N   UNL A   1      30.987  27.504  26.268  1.00  0.00    -0.243 N 
ATOM     21  C   UNL A   1      31.555  28.126  27.360  1.00  0.00     0.271 C 
ATOM     22  H   UNL A   1      30.209  26.954  26.518  1.00  0.00     0.194 HD
ATOM     23  O   UNL A   1      31.105  27.921  28.488  1.00  0.00    -0.267 OA
BRANCH  21  24
ATOM     24  C   UNL A   1      32.686  29.054  27.250  1.00  0.00     0.041 A 
ATOM     25  C   UNL A   1      32.402  30.431  27.271  1.00  0.00     0.015 A 
ATOM     26  C   UNL A   1      34.007  28.600  27.207  1.00  0.00     0.015 A 
ATOM     27  C   UNL A   1      33.444  31.351  27.372  1.00  0.00     0.021 A 
ATOM     28  C   UNL A   1      35.049  29.529  27.283  1.00  0.00     0.021 A 
ATOM     29  C   UNL A   1      34.763  30.894  27.399  1.00  0.00     0.041 A 
ATOM     30  Cl  UNL A   1      36.045  32.015  27.640  1.00  0.00    -0.084 Cl
ENDBRANCH  21  24
ENDBRANCH  19  20
ENDBRANCH   7   9
ENDBRANCH   6   7
ENDBRANCH   5   6
ENDBRANCH   4   5
ENDBRANCH   3   4
ENDBRANCH   2   3
ENDBRANCH   1   2
BRANCH   1  31
ATOM     31  O   UNL A   1      39.711  21.736  26.424  1.00  0.00    -0.376 OA
BRANCH  31  32
ATOM     32  C   UNL A   1      41.117  21.786  26.354  1.00  0.00     0.202 C 
BRANCH  32  33
ATOM     33  C   UNL A   1      41.846  23.140  26.352  1.00  0.00     0.261 C 
BRANCH  33  34
ATOM     34  O   UNL A   1      41.042  24.327  26.317  1.00  0.00    -0.460 OA
BRANCH  34  35
ATOM     35  C   UNL A   1      41.686  25.509  26.110  1.00  0.00     0.338 C 
ATOM     36  O   UNL A   1      42.206  25.876  25.087  1.00  0.00    -0.246 OA
BRANCH  35  37
ATOM     37  C   UNL A   1      41.364  26.380  27.281  1.00  0.00     0.060 A 
ATOM     38  C   UNL A   1      42.119  27.547  27.475  1.00  0.00     0.016 A 
ATOM     39  C   UNL A   1      40.278  26.106  28.115  1.00  0.00     0.016 A 
ATOM     40  C   UNL A   1      41.802  28.429  28.514  1.00  0.00     0.010 A 
ATOM     41  C   UNL A   1      39.973  26.979  29.166  1.00  0.00     0.010 A 
ATOM     42  C   UNL A   1      40.749  28.131  29.390  1.00  0.00    -0.014 A 
BRANCH  42  43
ATOM     43  C   UNL A   1      40.613  28.863  30.677  1.00  0.00     0.031 A 
ATOM     44  C   UNL A   1      39.568  29.945  30.751  1.00  0.00     0.074 A 
ATOM     45  C   UNL A   1      41.383  28.603  31.750  1.00  0.00     0.049 A 
ATOM     46  N   UNL A   1      39.321  30.804  31.704  1.00  0.00    -0.248 NA
ATOM     47  C   UNL A   1      38.687  30.074  29.578  1.00  0.00     0.031 C 
ATOM     48  C   UNL A   1      42.390  27.549  31.840  1.00  0.00     0.029 A 
ATOM     49  N   UNL A   1      41.439  29.229  32.974  1.00  0.00    -0.354 N 
ATOM     50  C   UNL A   1      38.267  31.584  31.241  1.00  0.00     0.074 A 
ATOM     51  C   UNL A   1      37.940  31.112  29.914  1.00  0.00     0.031 C 
ATOM     52  C   UNL A   1      42.981  27.615  33.049  1.00  0.00     0.029 A 
ATOM     53  C   UNL A   1      42.424  28.740  33.802  1.00  0.00     0.049 A 
ATOM     54  H   UNL A   1      40.833  29.959  33.234  1.00  0.00     0.167 HD
ATOM     55  C   UNL A   1      37.627  32.602  31.864  1.00  0.00     0.037 A 
ATOM     56  C   UNL A   1      42.847  29.173  35.010  1.00  0.00     0.037 A 
ATOM     57  C   UNL A   1      37.960  33.082  33.178  1.00  0.00     0.049 A 
ATOM     58  C   UNL A   1      42.178  30.367  35.652  1.00  0.00     0.074 A 
ATOM     59  C   UNL A   1      37.369  34.107  33.893  1.00  0.00     0.029 A 
ATOM     60  N   UNL A   1      38.982  32.580  33.968  1.00  0.00    -0.354 N 
ATOM     61  N   UNL A   1      41.179  31.094  35.209  1.00  0.00    -0.248 NA
ATOM     62  C   UNL A   1      42.698  30.802  36.957  1.00  0.00     0.031 C 
ATOM     63  C   UNL A   1      38.070  34.264  35.092  1.00  0.00     0.029 A 
ATOM     64  C   UNL A   1      39.057  33.292  35.154  1.00  0.00     0.049 A 
ATOM     65  H   UNL A   1      39.569  31.828  33.724  1.00  0.00     0.167 HD
ATOM     66  C   UNL A   1      40.932  32.049  36.193  1.00  0.00     0.074 A 
ATOM     67  C   UNL A   1      41.882  31.804  37.258  1.00  0.00     0.031 C 
ATOM     68  C   UNL A   1      40.000  33.036  36.214  1.00  0.00     0.037 A 
BRANCH  55  69
ATOM     69  C   UNL A   1      36.532  33.292  31.098  1.00  0.00     0.058 A 
ATOM     70  C   UNL A   1      36.803  34.290  30.149  1.00  0.00     0.135 A 
ATOM     71  C   UNL A   1      35.188  32.952  31.325  1.00  0.00     0.135 A 
ATOM     72  F   UNL A   1      38.069  34.671  29.911  1.00  0.00    -0.206 F 
ATOM     73  C   UNL A   1      35.780  34.954  29.480  1.00  0.00     0.059 A 
ATOM     74  C   UNL A   1      34.151  33.580  30.643  1.00  0.00     0.059 A 
ATOM     75  F   UNL A   1      34.872  32.008  32.224  1.00  0.00    -0.206 F 
ATOM     76  C   UNL A   1      34.456  34.594  29.737  1.00  0.00     0.060 A 
BRANCH  76  77
ATOM     77  S   UNL A   1      33.140  35.476  28.875  1.00  0.00     0.124 S 
ATOM     78  O   UNL A   1      32.438  36.110  29.989  1.00  0.00    -0.237 OA
ATOM     79  O   UNL A   1      33.886  36.377  28.003  1.00  0.00    -0.237 OA
ATOM     80  O   UNL A   1      32.406  34.414  28.196  1.00  0.00    -0.744 OA
ENDBRANCH  76  77
ENDBRANCH  55  69
BRANCH  56  81
ATOM     81  C   UNL A   1      43.981  28.488  35.692  1.00  0.00     0.058 A 
ATOM     82  C   UNL A   1      43.759  27.455  36.615  1.00  0.00     0.135 A 
ATOM     83  C   UNL A   1      45.312  28.861  35.443  1.00  0.00     0.135 A 
ATOM     84  F   UNL A   1      42.506  27.075  36.909  1.00  0.00    -0.206 F 
ATOM     85  C   UNL A   1      44.811  26.817  37.266  1.00  0.00     0.059 A 
ATOM     86  C   UNL A   1      46.382  28.220  36.060  1.00  0.00     0.059 A 
ATOM     87  F   UNL A   1      45.581  29.846  34.572  1.00  0.00    -0.206 F 
ATOM     88  C   UNL A   1      46.122  27.202  36.975  1.00  0.00     0.060 A 
BRANCH  88  89
ATOM     89  S   UNL A   1      47.480  26.318  37.774  1.00  0.00     0.124 S 
ATOM     90  O   UNL A   1      48.453  26.230  36.690  1.00  0.00    -0.237 OA
ATOM     91  O   UNL A   1      47.826  27.219  38.870  1.00  0.00    -0.237 OA
ATOM     92  O   UNL A   1      46.869  25.056  38.178  1.00  0.00    -0.744 OA
ENDBRANCH  88  89
ENDBRANCH  56  81
BRANCH  68  93
ATOM     93  C   UNL A   1      39.918  33.905  37.443  1.00  0.00     0.058 A 
ATOM     94  C   UNL A   1      40.640  35.103  37.557  1.00  0.00     0.135 A 
ATOM     95  C   UNL A   1      39.045  33.568  38.491  1.00  0.00     0.135 A 
ATOM     96  F   UNL A   1      41.491  35.475  36.589  1.00  0.00    -0.206 F 
ATOM     97  C   UNL A   1      40.515  35.925  38.675  1.00  0.00     0.059 A 
ATOM     98  C   UNL A   1      38.882  34.389  39.603  1.00  0.00     0.059 A 
ATOM     99  F   UNL A   1      38.319  32.440  38.430  1.00  0.00    -0.206 F 
ATOM    100  C   UNL A   1      39.629  35.561  39.692  1.00  0.00     0.060 A 
BRANCH 100 101
ATOM    101  S   UNL A   1      39.448  36.654  41.118  1.00  0.00     0.124 S 
ATOM    102  O   UNL A   1      38.769  37.802  40.524  1.00  0.00    -0.237 OA
ATOM    103  O   UNL A   1      38.649  35.846  42.033  1.00  0.00    -0.237 OA
ATOM    104  O   UNL A   1      40.826  36.892  41.542  1.00  0.00    -0.744 OA
ENDBRANCH 100 101
ENDBRANCH  68  93
ENDBRANCH  42  43
ENDBRANCH  35  37
ENDBRANCH  34  35
ENDBRANCH  33  34
ENDBRANCH  32  33
ENDBRANCH  31  32
ENDBRANCH   1  31
TORSDOF 22
ENDMDL
