MODEL 1
REMARK VINA RESULT:     -10.6      0.000      0.000
REMARK SMILES C[C@H]1[C@@H](C(=O)OCCOCCOCCOC(=O)c2ccc(-c3c4nc(c(-c5c(F)cc(S(=O)(=O)[O-])cc5F)c5ccc([nH]5)c(-c5c(F)cc(S(=O)(=O)[O-])cc5F)c5nc(c(-c6c(F)cc(S(=O)(=O)[O-])cc6F)c6ccc3[nH]6)C=C5)C=C4)cc2)CCN1C(=O)c1cc2cc(F)ccc2s1
REMARK SMILES IDX 11 1 10 2 9 3 8 4 7 5 6 6 4 7 5 8 3 9 1 10 2 11 86 12 84 13
REMARK SMILES IDX 85 14 87 15 88 16 89 17 90 18 98 19 91 20 97 21 92 22 96 23
REMARK SMILES IDX 93 24 95 25 94 26 12 27 13 28 14 29 15 30 16 31 17 32 18 33
REMARK SMILES IDX 19 34 83 35 20 36 82 37 21 38 22 39 23 40 76 41 24 42 81 43
REMARK SMILES IDX 75 44 77 45 25 46 80 47 74 48 73 49 26 51 60 52 39 53 59 54
REMARK SMILES IDX 40 55 43 56 58 57 78 58 41 59 42 60 57 62 79 63 44 64 27 65
REMARK SMILES IDX 28 66 37 67 29 68 30 69 36 70 38 71 31 72 32 73 33 74 34 75
REMARK SMILES IDX 35 76 61 77 62 78 71 79 63 80 64 81 70 82 72 83 65 84 66 85
REMARK SMILES IDX 67 86 68 87 69 88 45 89 46 90 55 91 47 92 48 93 54 94 56 95
REMARK SMILES IDX 49 96 50 97 51 98 52 99 53 100
REMARK H PARENT 77 50 43 61
REMARK Flexibility Score: inf
ROOT
ATOM      1  C   UNL A   1      42.071  21.431  27.007  1.00  0.00     0.188 C 
ENDROOT
BRANCH   1   2
ATOM      2  C   UNL A   1      40.810  21.190  26.156  1.00  0.00     0.188 C 
BRANCH   2   3
ATOM      3  O   UNL A   1      39.745  22.118  26.204  1.00  0.00    -0.376 OA
BRANCH   3   4
ATOM      4  C   UNL A   1      38.506  21.781  25.599  1.00  0.00     0.202 C 
BRANCH   4   5
ATOM      5  C   UNL A   1      37.426  22.855  25.450  1.00  0.00     0.261 C 
BRANCH   5   6
ATOM      6  O   UNL A   1      36.193  22.529  26.124  1.00  0.00    -0.463 OA
BRANCH   6   7
ATOM      7  C   UNL A   1      35.088  22.488  25.345  1.00  0.00     0.311 C 
ATOM      8  O   UNL A   1      34.104  21.796  25.596  1.00  0.00    -0.252 OA
BRANCH   7   9
ATOM      9  C   UNL A   1      35.076  23.434  24.156  1.00  0.00     0.123 C 
ATOM     10  C   UNL A   1      34.259  25.512  25.545  1.00  0.00     0.032 C 
ATOM     11  C   UNL A   1      34.619  24.911  24.194  1.00  0.00     0.096 C 
ATOM     12  N   UNL A   1      33.605  25.034  23.142  1.00  0.00    -0.334 N 
ATOM     13  C   UNL A   1      34.331  22.771  22.990  1.00  0.00     0.039 C 
ATOM     14  C   UNL A   1      33.362  23.790  22.449  1.00  0.00     0.121 C 
BRANCH  12  15
ATOM     15  C   UNL A   1      33.161  26.181  22.499  1.00  0.00     0.264 C 
ATOM     16  O   UNL A   1      33.841  26.687  21.603  1.00  0.00    -0.268 OA
BRANCH  15  17
ATOM     17  C   UNL A   1      31.853  26.735  22.793  1.00  0.00     0.093 A 
ATOM     18  C   UNL A   1      31.024  26.331  23.831  1.00  0.00     0.034 A 
ATOM     19  S   UNL A   1      31.724  28.459  22.687  1.00  0.00    -0.130 S 
ATOM     20  C   UNL A   1      31.203  27.287  24.908  1.00  0.00    -0.004 A 
ATOM     21  C   UNL A   1      31.697  28.506  24.422  1.00  0.00     0.035 A 
ATOM     22  C   UNL A   1      31.089  27.125  26.307  1.00  0.00     0.048 A 
ATOM     23  C   UNL A   1      32.119  29.541  25.273  1.00  0.00     0.022 A 
ATOM     24  C   UNL A   1      31.572  28.124  27.150  1.00  0.00     0.123 A 
ATOM     25  C   UNL A   1      32.093  29.308  26.650  1.00  0.00     0.041 A 
ATOM     26  F   UNL A   1      31.570  27.916  28.474  1.00  0.00    -0.207 F 
ENDBRANCH  15  17
ENDBRANCH  12  15
ENDBRANCH   7   9
ENDBRANCH   6   7
ENDBRANCH   5   6
ENDBRANCH   4   5
ENDBRANCH   3   4
ENDBRANCH   2   3
ENDBRANCH   1   2
BRANCH   1  27
ATOM     27  O   UNL A   1      43.366  21.402  26.444  1.00  0.00    -0.376 OA
BRANCH  27  28
ATOM     28  C   UNL A   1      44.038  22.611  26.142  1.00  0.00     0.202 C 
BRANCH  28  29
ATOM     29  C   UNL A   1      43.368  23.733  25.340  1.00  0.00     0.261 C 
BRANCH  29  30
ATOM     30  O   UNL A   1      42.657  24.707  26.109  1.00  0.00    -0.460 OA
BRANCH  30  31
ATOM     31  C   UNL A   1      43.214  25.948  26.116  1.00  0.00     0.338 C 
ATOM     32  O   UNL A   1      43.939  26.438  25.276  1.00  0.00    -0.246 OA
BRANCH  31  33
ATOM     33  C   UNL A   1      42.652  26.701  27.252  1.00  0.00     0.060 A 
ATOM     34  C   UNL A   1      43.136  27.989  27.525  1.00  0.00     0.016 A 
ATOM     35  C   UNL A   1      41.679  26.118  28.059  1.00  0.00     0.016 A 
ATOM     36  C   UNL A   1      42.644  28.704  28.617  1.00  0.00     0.010 A 
ATOM     37  C   UNL A   1      41.212  26.819  29.168  1.00  0.00     0.010 A 
ATOM     38  C   UNL A   1      41.705  28.105  29.463  1.00  0.00    -0.014 A 
BRANCH  38  39
ATOM     39  C   UNL A   1      41.355  28.711  30.767  1.00  0.00     0.031 A 
ATOM     40  C   UNL A   1      40.208  29.679  30.804  1.00  0.00     0.074 A 
ATOM     41  C   UNL A   1      42.079  28.462  31.872  1.00  0.00     0.049 A 
ATOM     42  N   UNL A   1      39.863  30.521  31.739  1.00  0.00    -0.248 NA
ATOM     43  C   UNL A   1      39.342  29.708  29.613  1.00  0.00     0.031 C 
ATOM     44  C   UNL A   1      43.165  27.489  31.972  1.00  0.00     0.029 A 
ATOM     45  N   UNL A   1      42.027  29.042  33.115  1.00  0.00    -0.354 N 
ATOM     46  C   UNL A   1      38.762  31.205  31.239  1.00  0.00     0.074 A 
ATOM     47  C   UNL A   1      38.501  30.686  29.915  1.00  0.00     0.031 C 
ATOM     48  C   UNL A   1      43.703  27.564  33.202  1.00  0.00     0.029 A 
ATOM     49  C   UNL A   1      43.039  28.629  33.952  1.00  0.00     0.049 A 
ATOM     50  H   UNL A   1      41.336  29.689  33.382  1.00  0.00     0.167 HD
ATOM     51  C   UNL A   1      38.041  32.185  31.832  1.00  0.00     0.037 A 
ATOM     52  C   UNL A   1      43.415  29.100  35.159  1.00  0.00     0.037 A 
ATOM     53  C   UNL A   1      38.319  32.689  33.151  1.00  0.00     0.049 A 
ATOM     54  C   UNL A   1      42.654  30.252  35.768  1.00  0.00     0.074 A 
ATOM     55  C   UNL A   1      37.650  33.678  33.850  1.00  0.00     0.029 A 
ATOM     56  N   UNL A   1      39.351  32.247  33.965  1.00  0.00    -0.354 N 
ATOM     57  N   UNL A   1      41.623  30.907  35.287  1.00  0.00    -0.248 NA
ATOM     58  C   UNL A   1      43.110  30.738  37.079  1.00  0.00     0.031 C 
ATOM     59  C   UNL A   1      38.315  33.874  35.064  1.00  0.00     0.029 A 
ATOM     60  C   UNL A   1      39.352  32.958  35.152  1.00  0.00     0.049 A 
ATOM     61  H   UNL A   1      39.988  31.533  33.735  1.00  0.00     0.167 HD
ATOM     62  C   UNL A   1      41.281  31.848  36.253  1.00  0.00     0.074 A 
ATOM     63  C   UNL A   1      42.220  31.686  37.344  1.00  0.00     0.031 C 
ATOM     64  C   UNL A   1      40.275  32.757  36.243  1.00  0.00     0.037 A 
BRANCH  51  65
ATOM     65  C   UNL A   1      36.922  32.806  31.046  1.00  0.00     0.058 A 
ATOM     66  C   UNL A   1      37.154  33.760  30.043  1.00  0.00     0.135 A 
ATOM     67  C   UNL A   1      35.592  32.416  31.283  1.00  0.00     0.135 A 
ATOM     68  F   UNL A   1      38.402  34.186  29.790  1.00  0.00    -0.206 F 
ATOM     69  C   UNL A   1      36.107  34.323  29.320  1.00  0.00     0.059 A 
ATOM     70  C   UNL A   1      34.533  32.942  30.549  1.00  0.00     0.059 A 
ATOM     71  F   UNL A   1      35.312  31.511  32.233  1.00  0.00    -0.206 F 
ATOM     72  C   UNL A   1      34.800  33.907  29.579  1.00  0.00     0.060 A 
BRANCH  72  73
ATOM     73  S   UNL A   1      33.455  34.642  28.627  1.00  0.00     0.124 S 
ATOM     74  O   UNL A   1      34.140  35.744  27.959  1.00  0.00    -0.237 OA
ATOM     75  O   UNL A   1      33.044  33.537  27.767  1.00  0.00    -0.237 OA
ATOM     76  O   UNL A   1      32.488  35.032  29.648  1.00  0.00    -0.744 OA
ENDBRANCH  72  73
ENDBRANCH  51  65
BRANCH  52  77
ATOM     77  C   UNL A   1      44.588  28.506  35.858  1.00  0.00     0.058 A 
ATOM     78  C   UNL A   1      45.880  29.015  35.662  1.00  0.00     0.135 A 
ATOM     79  C   UNL A   1      44.444  27.417  36.733  1.00  0.00     0.135 A 
ATOM     80  F   UNL A   1      46.075  30.045  34.825  1.00  0.00    -0.206 F 
ATOM     81  C   UNL A   1      46.987  28.460  36.297  1.00  0.00     0.059 A 
ATOM     82  C   UNL A   1      45.531  26.864  37.402  1.00  0.00     0.059 A 
ATOM     83  F   UNL A   1      43.228  26.894  36.962  1.00  0.00    -0.206 F 
ATOM     84  C   UNL A   1      46.802  27.388  37.170  1.00  0.00     0.060 A 
BRANCH  84  85
ATOM     85  S   UNL A   1      48.241  26.707  38.022  1.00  0.00     0.124 S 
ATOM     86  O   UNL A   1      47.799  26.730  39.411  1.00  0.00    -0.237 OA
ATOM     87  O   UNL A   1      48.362  25.388  37.410  1.00  0.00    -0.237 OA
ATOM     88  O   UNL A   1      49.307  27.647  37.685  1.00  0.00    -0.744 OA
ENDBRANCH  84  85
ENDBRANCH  52  77
BRANCH  64  89
ATOM     89  C   UNL A   1      40.069  33.606  37.469  1.00  0.00     0.058 A 
ATOM     90  C   UNL A   1      40.753  34.815  37.662  1.00  0.00     0.135 A 
ATOM     91  C   UNL A   1      39.073  33.258  38.397  1.00  0.00     0.135 A 
ATOM     92  F   UNL A   1      41.719  35.190  36.809  1.00  0.00    -0.206 F 
ATOM     93  C   UNL A   1      40.452  35.654  38.732  1.00  0.00     0.059 A 
ATOM     94  C   UNL A   1      38.737  34.094  39.456  1.00  0.00     0.059 A 
ATOM     95  F   UNL A   1      38.384  32.115  38.252  1.00  0.00    -0.206 F 
ATOM     96  C   UNL A   1      39.432  35.291  39.615  1.00  0.00     0.060 A 
BRANCH  96  97
ATOM     97  S   UNL A   1      38.988  36.434  40.941  1.00  0.00     0.124 S 
ATOM     98  O   UNL A   1      40.255  36.569  41.651  1.00  0.00    -0.237 OA
ATOM     99  O   UNL A   1      38.548  37.613  40.200  1.00  0.00    -0.237 OA
ATOM    100  O   UNL A   1      37.936  35.727  41.664  1.00  0.00    -0.744 OA
ENDBRANCH  96  97
ENDBRANCH  64  89
ENDBRANCH  38  39
ENDBRANCH  31  33
ENDBRANCH  30  31
ENDBRANCH  29  30
ENDBRANCH  28  29
ENDBRANCH  27  28
ENDBRANCH   1  27
TORSDOF 22
ENDMDL
MODEL 2
REMARK VINA RESULT:     -10.6      1.476      2.364
REMARK SMILES C[C@H]1[C@@H](C(=O)OCCOCCOCCOC(=O)c2ccc(-c3c4nc(c(-c5c(F)cc(S(=O)(=O)[O-])cc5F)c5ccc([nH]5)c(-c5c(F)cc(S(=O)(=O)[O-])cc5F)c5nc(c(-c6c(F)cc(S(=O)(=O)[O-])cc6F)c6ccc3[nH]6)C=C5)C=C4)cc2)CCN1C(=O)c1cc2cc(F)ccc2s1
REMARK SMILES IDX 11 1 10 2 9 3 8 4 7 5 6 6 4 7 5 8 3 9 1 10 2 11 86 12 84 13
REMARK SMILES IDX 85 14 87 15 88 16 89 17 90 18 98 19 91 20 97 21 92 22 96 23
REMARK SMILES IDX 93 24 95 25 94 26 12 27 13 28 14 29 15 30 16 31 17 32 18 33
REMARK SMILES IDX 19 34 83 35 20 36 82 37 21 38 22 39 23 40 76 41 24 42 81 43
REMARK SMILES IDX 75 44 77 45 25 46 80 47 74 48 73 49 26 51 60 52 39 53 59 54
REMARK SMILES IDX 40 55 43 56 58 57 78 58 41 59 42 60 57 62 79 63 44 64 27 65
REMARK SMILES IDX 28 66 37 67 29 68 30 69 36 70 38 71 31 72 32 73 33 74 34 75
REMARK SMILES IDX 35 76 61 77 62 78 71 79 63 80 64 81 70 82 72 83 65 84 66 85
REMARK SMILES IDX 67 86 68 87 69 88 45 89 46 90 55 91 47 92 48 93 54 94 56 95
REMARK SMILES IDX 49 96 50 97 51 98 52 99 53 100
REMARK H PARENT 77 50 43 61
REMARK Flexibility Score: inf
ROOT
ATOM      1  C   UNL A   1      42.373  21.447  25.800  1.00  0.00     0.188 C 
ENDROOT
BRANCH   1   2
ATOM      2  C   UNL A   1      41.946  21.632  27.268  1.00  0.00     0.188 C 
BRANCH   2   3
ATOM      3  O   UNL A   1      40.600  21.937  27.573  1.00  0.00    -0.376 OA
BRANCH   3   4
ATOM      4  C   UNL A   1      40.193  23.296  27.626  1.00  0.00     0.202 C 
BRANCH   4   5
ATOM      5  C   UNL A   1      39.401  23.889  26.460  1.00  0.00     0.261 C 
BRANCH   5   6
ATOM      6  O   UNL A   1      37.972  23.853  26.657  1.00  0.00    -0.463 OA
BRANCH   6   7
ATOM      7  C   UNL A   1      37.280  23.061  25.807  1.00  0.00     0.311 C 
ATOM      8  O   UNL A   1      37.680  21.966  25.419  1.00  0.00    -0.252 OA
BRANCH   7   9
ATOM      9  C   UNL A   1      35.899  23.556  25.410  1.00  0.00     0.123 C 
ATOM     10  C   UNL A   1      34.633  22.127  27.219  1.00  0.00     0.032 C 
ATOM     11  C   UNL A   1      34.566  23.081  26.035  1.00  0.00     0.096 C 
ATOM     12  N   UNL A   1      33.737  22.649  24.904  1.00  0.00    -0.334 N 
ATOM     13  C   UNL A   1      35.739  23.443  23.889  1.00  0.00     0.039 C 
ATOM     14  C   UNL A   1      34.407  22.789  23.632  1.00  0.00     0.121 C 
BRANCH  12  15
ATOM     15  C   UNL A   1      32.358  22.505  24.849  1.00  0.00     0.264 C 
ATOM     16  O   UNL A   1      31.856  21.378  24.869  1.00  0.00    -0.268 OA
BRANCH  15  17
ATOM     17  C   UNL A   1      31.490  23.666  24.877  1.00  0.00     0.093 A 
ATOM     18  C   UNL A   1      31.774  24.866  25.515  1.00  0.00     0.034 A 
ATOM     19  S   UNL A   1      30.715  24.063  23.380  1.00  0.00    -0.130 S 
ATOM     20  C   UNL A   1      32.258  25.780  24.497  1.00  0.00    -0.004 A 
ATOM     21  C   UNL A   1      31.825  25.388  23.223  1.00  0.00     0.035 A 
ATOM     22  C   UNL A   1      33.165  26.860  24.590  1.00  0.00     0.048 A 
ATOM     23  C   UNL A   1      32.293  26.000  22.047  1.00  0.00     0.022 A 
ATOM     24  C   UNL A   1      33.680  27.418  23.422  1.00  0.00     0.123 A 
ATOM     25  C   UNL A   1      33.268  26.992  22.169  1.00  0.00     0.041 A 
ATOM     26  F   UNL A   1      34.627  28.362  23.515  1.00  0.00    -0.207 F 
ENDBRANCH  15  17
ENDBRANCH  12  15
ENDBRANCH   7   9
ENDBRANCH   6   7
ENDBRANCH   5   6
ENDBRANCH   4   5
ENDBRANCH   3   4
ENDBRANCH   2   3
ENDBRANCH   1   2
BRANCH   1  27
ATOM     27  O   UNL A   1      42.865  22.520  25.026  1.00  0.00    -0.376 OA
BRANCH  27  28
ATOM     28  C   UNL A   1      43.488  23.625  25.655  1.00  0.00     0.202 C 
BRANCH  28  29
ATOM     29  C   UNL A   1      43.390  25.044  25.084  1.00  0.00     0.261 C 
BRANCH  29  30
ATOM     30  O   UNL A   1      42.219  25.781  25.448  1.00  0.00    -0.460 OA
BRANCH  30  31
ATOM     31  C   UNL A   1      42.390  27.129  25.516  1.00  0.00     0.338 C 
ATOM     32  O   UNL A   1      42.530  27.904  24.593  1.00  0.00    -0.246 OA
BRANCH  31  33
ATOM     33  C   UNL A   1      42.205  27.549  26.917  1.00  0.00     0.060 A 
ATOM     34  C   UNL A   1      41.434  26.750  27.774  1.00  0.00     0.016 A 
ATOM     35  C   UNL A   1      42.761  28.744  27.363  1.00  0.00     0.016 A 
ATOM     36  C   UNL A   1      41.216  27.148  29.093  1.00  0.00     0.010 A 
ATOM     37  C   UNL A   1      42.516  29.157  28.671  1.00  0.00     0.010 A 
ATOM     38  C   UNL A   1      41.728  28.372  29.534  1.00  0.00    -0.014 A 
BRANCH  38  39
ATOM     39  C   UNL A   1      41.305  28.956  30.827  1.00  0.00     0.031 A 
ATOM     40  C   UNL A   1      40.129  29.891  30.822  1.00  0.00     0.074 A 
ATOM     41  C   UNL A   1      41.988  28.717  31.960  1.00  0.00     0.049 A 
ATOM     42  N   UNL A   1      39.720  30.713  31.748  1.00  0.00    -0.248 NA
ATOM     43  C   UNL A   1      39.316  29.906  29.595  1.00  0.00     0.031 C 
ATOM     44  C   UNL A   1      43.096  27.774  32.098  1.00  0.00     0.029 A 
ATOM     45  N   UNL A   1      41.866  29.283  33.205  1.00  0.00    -0.354 N 
ATOM     46  C   UNL A   1      38.622  31.370  31.207  1.00  0.00     0.074 A 
ATOM     47  C   UNL A   1      38.435  30.856  29.868  1.00  0.00     0.031 C 
ATOM     48  C   UNL A   1      43.578  27.853  33.351  1.00  0.00     0.029 A 
ATOM     49  C   UNL A   1      42.852  28.892  34.080  1.00  0.00     0.049 A 
ATOM     50  H   UNL A   1      41.145  29.908  33.447  1.00  0.00     0.167 HD
ATOM     51  C   UNL A   1      37.849  32.324  31.776  1.00  0.00     0.037 A 
ATOM     52  C   UNL A   1      43.162  29.362  35.306  1.00  0.00     0.037 A 
ATOM     53  C   UNL A   1      38.055  32.823  33.110  1.00  0.00     0.049 A 
ATOM     54  C   UNL A   1      42.343  30.486  35.892  1.00  0.00     0.074 A 
ATOM     55  C   UNL A   1      37.329  33.785  33.788  1.00  0.00     0.029 A 
ATOM     56  N   UNL A   1      39.064  32.403  33.964  1.00  0.00    -0.354 N 
ATOM     57  N   UNL A   1      41.315  31.116  35.372  1.00  0.00    -0.248 NA
ATOM     58  C   UNL A   1      42.728  30.973  37.225  1.00  0.00     0.031 C 
ATOM     59  C   UNL A   1      37.934  33.989  35.031  1.00  0.00     0.029 A 
ATOM     60  C   UNL A   1      38.993  33.102  35.156  1.00  0.00     0.049 A 
ATOM     61  H   UNL A   1      39.731  31.710  33.755  1.00  0.00     0.167 HD
ATOM     62  C   UNL A   1      40.904  32.038  36.330  1.00  0.00     0.074 A 
ATOM     63  C   UNL A   1      41.800  31.893  37.459  1.00  0.00     0.031 C 
ATOM     64  C   UNL A   1      39.874  32.918  36.283  1.00  0.00     0.037 A 
BRANCH  51  65
ATOM     65  C   UNL A   1      36.747  32.919  30.948  1.00  0.00     0.058 A 
ATOM     66  C   UNL A   1      35.406  32.537  31.106  1.00  0.00     0.135 A 
ATOM     67  C   UNL A   1      37.036  33.912  29.996  1.00  0.00     0.135 A 
ATOM     68  F   UNL A   1      35.074  31.578  31.985  1.00  0.00    -0.206 F 
ATOM     69  C   UNL A   1      34.393  33.100  30.335  1.00  0.00     0.059 A 
ATOM     70  C   UNL A   1      36.036  34.512  29.236  1.00  0.00     0.059 A 
ATOM     71  F   UNL A   1      38.302  34.311  29.799  1.00  0.00    -0.206 F 
ATOM     72  C   UNL A   1      34.719  34.088  29.403  1.00  0.00     0.060 A 
BRANCH  72  73
ATOM     73  S   UNL A   1      33.393  34.813  28.416  1.00  0.00     0.124 S 
ATOM     74  O   UNL A   1      32.530  35.369  29.453  1.00  0.00    -0.237 OA
ATOM     75  O   UNL A   1      34.111  35.786  27.600  1.00  0.00    -0.237 OA
ATOM     76  O   UNL A   1      32.846  33.672  27.690  1.00  0.00    -0.744 OA
ENDBRANCH  72  73
ENDBRANCH  51  65
BRANCH  52  77
ATOM     77  C   UNL A   1      44.321  28.795  36.051  1.00  0.00     0.058 A 
ATOM     78  C   UNL A   1      45.607  29.337  35.907  1.00  0.00     0.135 A 
ATOM     79  C   UNL A   1      44.169  27.701  36.918  1.00  0.00     0.135 A 
ATOM     80  F   UNL A   1      45.809  30.373  35.079  1.00  0.00    -0.206 F 
ATOM     81  C   UNL A   1      46.701  28.808  36.584  1.00  0.00     0.059 A 
ATOM     82  C   UNL A   1      45.242  27.174  37.629  1.00  0.00     0.059 A 
ATOM     83  F   UNL A   1      42.958  27.148  37.098  1.00  0.00    -0.206 F 
ATOM     84  C   UNL A   1      46.508  27.729  37.448  1.00  0.00     0.060 A 
BRANCH  84  85
ATOM     85  S   UNL A   1      47.929  27.082  38.355  1.00  0.00     0.124 S 
ATOM     86  O   UNL A   1      47.777  25.645  38.156  1.00  0.00    -0.237 OA
ATOM     87  O   UNL A   1      49.047  27.709  37.659  1.00  0.00    -0.237 OA
ATOM     88  O   UNL A   1      47.702  27.556  39.718  1.00  0.00    -0.744 OA
ENDBRANCH  84  85
ENDBRANCH  52  77
BRANCH  64  89
ATOM     89  C   UNL A   1      39.591  33.749  37.506  1.00  0.00     0.058 A 
ATOM     90  C   UNL A   1      38.751  33.300  38.535  1.00  0.00     0.135 A 
ATOM     91  C   UNL A   1      40.281  34.958  37.701  1.00  0.00     0.135 A 
ATOM     92  F   UNL A   1      38.063  32.156  38.396  1.00  0.00    -0.206 F 
ATOM     93  C   UNL A   1      38.607  34.019  39.719  1.00  0.00     0.059 A 
ATOM     94  C   UNL A   1      40.175  35.677  38.886  1.00  0.00     0.059 A 
ATOM     95  F   UNL A   1      41.104  35.427  36.750  1.00  0.00    -0.206 F 
ATOM     96  C   UNL A   1      39.335  35.199  39.891  1.00  0.00     0.060 A 
BRANCH  96  97
ATOM     97  S   UNL A   1      39.212  36.069  41.468  1.00  0.00     0.124 S 
ATOM     98  O   UNL A   1      39.190  37.462  41.036  1.00  0.00    -0.237 OA
ATOM     99  O   UNL A   1      37.959  35.553  42.011  1.00  0.00    -0.237 OA
ATOM    100  O   UNL A   1      40.415  35.653  42.182  1.00  0.00    -0.744 OA
ENDBRANCH  96  97
ENDBRANCH  64  89
ENDBRANCH  38  39
ENDBRANCH  31  33
ENDBRANCH  30  31
ENDBRANCH  29  30
ENDBRANCH  28  29
ENDBRANCH  27  28
ENDBRANCH   1  27
TORSDOF 22
ENDMDL
MODEL 3
REMARK VINA RESULT:     -10.6      6.205     11.921
REMARK SMILES C[C@H]1[C@@H](C(=O)OCCOCCOCCOC(=O)c2ccc(-c3c4nc(c(-c5c(F)cc(S(=O)(=O)[O-])cc5F)c5ccc([nH]5)c(-c5c(F)cc(S(=O)(=O)[O-])cc5F)c5nc(c(-c6c(F)cc(S(=O)(=O)[O-])cc6F)c6ccc3[nH]6)C=C5)C=C4)cc2)CCN1C(=O)c1cc2cc(F)ccc2s1
REMARK SMILES IDX 11 1 10 2 9 3 8 4 7 5 6 6 4 7 5 8 3 9 1 10 2 11 86 12 84 13
REMARK SMILES IDX 85 14 87 15 88 16 89 17 90 18 98 19 91 20 97 21 92 22 96 23
REMARK SMILES IDX 93 24 95 25 94 26 12 27 13 28 14 29 15 30 16 31 17 32 18 33
REMARK SMILES IDX 19 34 83 35 20 36 82 37 21 38 22 39 23 40 76 41 24 42 81 43
REMARK SMILES IDX 75 44 77 45 25 46 80 47 74 48 73 49 26 51 60 52 39 53 59 54
REMARK SMILES IDX 40 55 43 56 58 57 78 58 41 59 42 60 57 62 79 63 44 64 27 65
REMARK SMILES IDX 28 66 37 67 29 68 30 69 36 70 38 71 31 72 32 73 33 74 34 75
REMARK SMILES IDX 35 76 61 77 62 78 71 79 63 80 64 81 70 82 72 83 65 84 66 85
REMARK SMILES IDX 67 86 68 87 69 88 45 89 46 90 55 91 47 92 48 93 54 94 56 95
REMARK SMILES IDX 49 96 50 97 51 98 52 99 53 100
REMARK H PARENT 77 50 43 61
REMARK Flexibility Score: inf
ROOT
ATOM      1  C   UNL A   1      33.632  32.040  27.618  1.00  0.00     0.188 C 
ENDROOT
BRANCH   1   2
ATOM      2  C   UNL A   1      33.336  30.532  27.518  1.00  0.00     0.188 C 
BRANCH   2   3
ATOM      3  O   UNL A   1      33.729  29.815  26.364  1.00  0.00    -0.376 OA
BRANCH   3   4
ATOM      4  C   UNL A   1      32.860  29.777  25.243  1.00  0.00     0.202 C 
BRANCH   4   5
ATOM      5  C   UNL A   1      33.303  29.047  23.973  1.00  0.00     0.261 C 
BRANCH   5   6
ATOM      6  O   UNL A   1      32.208  28.483  23.222  1.00  0.00    -0.463 OA
BRANCH   6   7
ATOM      7  C   UNL A   1      32.214  27.137  23.093  1.00  0.00     0.311 C 
ATOM      8  O   UNL A   1      32.814  26.542  22.200  1.00  0.00    -0.252 OA
BRANCH   7   9
ATOM      9  C   UNL A   1      31.502  26.359  24.186  1.00  0.00     0.123 C 
ATOM     10  C   UNL A   1      33.661  26.017  25.647  1.00  0.00     0.032 C 
ATOM     11  C   UNL A   1      32.181  25.738  25.429  1.00  0.00     0.096 C 
ATOM     12  N   UNL A   1      31.784  24.326  25.427  1.00  0.00    -0.334 N 
ATOM     13  C   UNL A   1      30.652  25.253  23.547  1.00  0.00     0.039 C 
ATOM     14  C   UNL A   1      30.935  23.984  24.310  1.00  0.00     0.121 C 
BRANCH  12  15
ATOM     15  C   UNL A   1      31.784  23.427  26.484  1.00  0.00     0.264 C 
ATOM     16  O   UNL A   1      30.952  23.538  27.387  1.00  0.00    -0.268 OA
BRANCH  15  17
ATOM     17  C   UNL A   1      32.685  22.290  26.488  1.00  0.00     0.093 A 
ATOM     18  C   UNL A   1      33.150  21.630  25.358  1.00  0.00     0.034 A 
ATOM     19  S   UNL A   1      34.010  22.382  27.599  1.00  0.00    -0.130 S 
ATOM     20  C   UNL A   1      34.480  22.144  25.089  1.00  0.00    -0.004 A 
ATOM     21  C   UNL A   1      35.049  22.698  26.245  1.00  0.00     0.035 A 
ATOM     22  C   UNL A   1      35.181  22.281  23.870  1.00  0.00     0.048 A 
ATOM     23  C   UNL A   1      36.257  23.415  26.220  1.00  0.00     0.022 A 
ATOM     24  C   UNL A   1      36.342  23.052  23.836  1.00  0.00     0.123 A 
ATOM     25  C   UNL A   1      36.869  23.624  24.983  1.00  0.00     0.041 A 
ATOM     26  F   UNL A   1      36.939  23.277  22.657  1.00  0.00    -0.207 F 
ENDBRANCH  15  17
ENDBRANCH  12  15
ENDBRANCH   7   9
ENDBRANCH   6   7
ENDBRANCH   5   6
ENDBRANCH   4   5
ENDBRANCH   3   4
ENDBRANCH   2   3
ENDBRANCH   1   2
BRANCH   1  27
ATOM     27  O   UNL A   1      34.365  32.586  28.694  1.00  0.00    -0.376 OA
BRANCH  27  28
ATOM     28  C   UNL A   1      35.380  31.824  29.322  1.00  0.00     0.202 C 
BRANCH  28  29
ATOM     29  C   UNL A   1      35.546  31.796  30.846  1.00  0.00     0.261 C 
BRANCH  29  30
ATOM     30  O   UNL A   1      36.848  31.446  31.323  1.00  0.00    -0.460 OA
BRANCH  30  31
ATOM     31  C   UNL A   1      37.194  30.143  31.140  1.00  0.00     0.338 C 
ATOM     32  O   UNL A   1      36.507  29.162  31.332  1.00  0.00    -0.246 OA
BRANCH  31  33
ATOM     33  C   UNL A   1      38.516  30.103  30.489  1.00  0.00     0.060 A 
ATOM     34  C   UNL A   1      38.588  30.061  29.089  1.00  0.00     0.016 A 
ATOM     35  C   UNL A   1      39.671  30.069  31.265  1.00  0.00     0.016 A 
ATOM     36  C   UNL A   1      39.828  29.985  28.455  1.00  0.00     0.010 A 
ATOM     37  C   UNL A   1      40.908  29.960  30.632  1.00  0.00     0.010 A 
ATOM     38  C   UNL A   1      40.991  29.898  29.228  1.00  0.00    -0.014 A 
BRANCH  38  39
ATOM     39  C   UNL A   1      42.293  29.552  28.614  1.00  0.00     0.031 A 
ATOM     40  C   UNL A   1      42.513  28.127  28.197  1.00  0.00     0.074 A 
ATOM     41  C   UNL A   1      43.274  30.463  28.495  1.00  0.00     0.049 A 
ATOM     42  N   UNL A   1      43.622  27.519  27.876  1.00  0.00    -0.248 NA
ATOM     43  C   UNL A   1      41.316  27.270  28.151  1.00  0.00     0.031 C 
ATOM     44  C   UNL A   1      43.150  31.887  28.797  1.00  0.00     0.029 A 
ATOM     45  N   UNL A   1      44.586  30.308  28.119  1.00  0.00    -0.354 N 
ATOM     46  C   UNL A   1      43.265  26.200  27.623  1.00  0.00     0.074 A 
ATOM     47  C   UNL A   1      41.839  26.094  27.836  1.00  0.00     0.031 C 
ATOM     48  C   UNL A   1      44.350  32.472  28.630  1.00  0.00     0.029 A 
ATOM     49  C   UNL A   1      45.334  31.453  28.268  1.00  0.00     0.049 A 
ATOM     50  H   UNL A   1      44.955  29.462  27.778  1.00  0.00     0.167 HD
ATOM     51  C   UNL A   1      44.063  25.170  27.256  1.00  0.00     0.037 A 
ATOM     52  C   UNL A   1      46.667  31.638  28.175  1.00  0.00     0.037 A 
ATOM     53  C   UNL A   1      45.481  25.296  27.051  1.00  0.00     0.049 A 
ATOM     54  C   UNL A   1      47.552  30.460  27.850  1.00  0.00     0.074 A 
ATOM     55  C   UNL A   1      46.385  24.319  26.674  1.00  0.00     0.029 A 
ATOM     56  N   UNL A   1      46.202  26.470  27.212  1.00  0.00    -0.354 N 
ATOM     57  N   UNL A   1      47.215  29.211  27.626  1.00  0.00    -0.248 NA
ATOM     58  C   UNL A   1      48.999  30.709  27.773  1.00  0.00     0.031 C 
ATOM     59  C   UNL A   1      47.661  24.889  26.664  1.00  0.00     0.029 A 
ATOM     60  C   UNL A   1      47.543  26.238  26.964  1.00  0.00     0.049 A 
ATOM     61  H   UNL A   1      45.818  27.340  27.465  1.00  0.00     0.167 HD
ATOM     62  C   UNL A   1      48.399  28.538  27.338  1.00  0.00     0.074 A 
ATOM     63  C   UNL A   1      49.464  29.515  27.426  1.00  0.00     0.031 C 
ATOM     64  C   UNL A   1      48.585  27.234  27.021  1.00  0.00     0.037 A 
BRANCH  51  65
ATOM     65  C   UNL A   1      43.431  23.816  27.099  1.00  0.00     0.058 A 
ATOM     66  C   UNL A   1      43.114  23.283  25.840  1.00  0.00     0.135 A 
ATOM     67  C   UNL A   1      43.164  23.026  28.230  1.00  0.00     0.135 A 
ATOM     68  F   UNL A   1      43.328  24.002  24.726  1.00  0.00    -0.206 F 
ATOM     69  C   UNL A   1      42.534  22.025  25.708  1.00  0.00     0.059 A 
ATOM     70  C   UNL A   1      42.614  21.753  28.120  1.00  0.00     0.059 A 
ATOM     71  F   UNL A   1      43.442  23.489  29.458  1.00  0.00    -0.206 F 
ATOM     72  C   UNL A   1      42.289  21.267  26.855  1.00  0.00     0.060 A 
BRANCH  72  73
ATOM     73  S   UNL A   1      41.542  19.635  26.667  1.00  0.00     0.124 S 
ATOM     74  O   UNL A   1      40.128  19.937  26.866  1.00  0.00    -0.237 OA
ATOM     75  O   UNL A   1      41.927  19.272  25.307  1.00  0.00    -0.237 OA
ATOM     76  O   UNL A   1      42.169  18.848  27.724  1.00  0.00    -0.744 OA
ENDBRANCH  72  73
ENDBRANCH  51  65
BRANCH  52  77
ATOM     77  C   UNL A   1      47.252  32.984  28.426  1.00  0.00     0.058 A 
ATOM     78  C   UNL A   1      47.457  33.890  27.375  1.00  0.00     0.135 A 
ATOM     79  C   UNL A   1      47.622  33.392  29.718  1.00  0.00     0.135 A 
ATOM     80  F   UNL A   1      47.135  33.545  26.119  1.00  0.00    -0.206 F 
ATOM     81  C   UNL A   1      48.017  35.145  27.593  1.00  0.00     0.059 A 
ATOM     82  C   UNL A   1      48.155  34.653  29.965  1.00  0.00     0.059 A 
ATOM     83  F   UNL A   1      47.442  32.566  30.762  1.00  0.00    -0.206 F 
ATOM     84  C   UNL A   1      48.358  35.520  28.893  1.00  0.00     0.060 A 
BRANCH  84  85
ATOM     85  S   UNL A   1      49.041  37.169  29.167  1.00  0.00     0.124 S 
ATOM     86  O   UNL A   1      47.864  38.010  28.984  1.00  0.00    -0.237 OA
ATOM     87  O   UNL A   1      49.548  37.066  30.531  1.00  0.00    -0.237 OA
ATOM     88  O   UNL A   1      50.066  37.285  28.132  1.00  0.00    -0.744 OA
ENDBRANCH  84  85
ENDBRANCH  52  77
BRANCH  64  89
ATOM     89  C   UNL A   1      49.976  26.779  26.665  1.00  0.00     0.058 A 
ATOM     90  C   UNL A   1      50.863  26.269  27.623  1.00  0.00     0.135 A 
ATOM     91  C   UNL A   1      50.370  26.737  25.316  1.00  0.00     0.135 A 
ATOM     92  F   UNL A   1      50.538  26.293  28.926  1.00  0.00    -0.206 F 
ATOM     93  C   UNL A   1      52.092  25.727  27.258  1.00  0.00     0.059 A 
ATOM     94  C   UNL A   1      51.580  26.175  24.926  1.00  0.00     0.059 A 
ATOM     95  F   UNL A   1      49.554  27.205  24.359  1.00  0.00    -0.206 F 
ATOM     96  C   UNL A   1      52.435  25.671  25.905  1.00  0.00     0.060 A 
BRANCH  96  97
ATOM     97  S   UNL A   1      53.989  24.880  25.438  1.00  0.00     0.124 S 
ATOM     98  O   UNL A   1      54.759  24.990  26.672  1.00  0.00    -0.237 OA
ATOM     99  O   UNL A   1      53.556  23.532  25.080  1.00  0.00    -0.237 OA
ATOM    100  O   UNL A   1      54.467  25.694  24.325  1.00  0.00    -0.744 OA
ENDBRANCH  96  97
ENDBRANCH  64  89
ENDBRANCH  38  39
ENDBRANCH  31  33
ENDBRANCH  30  31
ENDBRANCH  29  30
ENDBRANCH  28  29
ENDBRANCH  27  28
ENDBRANCH   1  27
TORSDOF 22
ENDMDL
