MODEL 1
REMARK VINA RESULT:     -10.5      0.000      0.000
REMARK SMILES O=C(OCCOCCOCCOC(=O)c1nnn(-c2ccc(C(F)(F)F)cc2)c1-c1cccc(Cl)c1)c1ccc(-c2c3nc(c(-c4c(F)cc(S(=O)(=O)[O-])cc4F)c4ccc([nH]4)c(-c4c(F)cc(S(=O)(=O)[O-])cc4F)c4nc(c(-c5c(F)cc(S(=O)(=O)[O-])cc5F)c5ccc2[nH]5)C=C4)C=C3)cc1
REMARK SMILES IDX 7 1 6 2 5 3 4 4 3 5 2 6 1 7 37 8 38 9 102 10 39 11 101 12
REMARK SMILES IDX 40 13 41 14 42 15 95 16 43 17 100 18 94 19 96 20 44 21 99 22
REMARK SMILES IDX 93 23 92 24 45 26 79 27 58 28 78 29 59 30 62 31 77 32 97 33
REMARK SMILES IDX 60 34 61 35 76 37 98 38 63 39 46 40 47 41 56 42 48 43 49 44
REMARK SMILES IDX 55 45 57 46 50 47 51 48 52 49 53 50 54 51 80 52 81 53 90 54
REMARK SMILES IDX 82 55 83 56 89 57 91 58 84 59 85 60 86 61 87 62 88 63 64 64
REMARK SMILES IDX 65 65 74 66 66 67 67 68 73 69 75 70 68 71 69 72 70 73 71 74
REMARK SMILES IDX 72 75 8 76 9 77 10 78 11 79 12 80 13 81 14 82 15 83 16 84
REMARK SMILES IDX 29 85 17 86 18 87 30 88 31 89 36 90 32 91 34 92 33 93 35 94
REMARK SMILES IDX 19 95 20 96 28 97 21 98 27 99 22 100 23 101 24 102 25 103
REMARK SMILES IDX 26 104
REMARK H PARENT 96 25 62 36
REMARK Flexibility Score: inf
ROOT
ATOM      1  C   UNL A   1      49.515  20.923  38.066  1.00  0.00     0.188 C 
ENDROOT
BRANCH   1   2
ATOM      2  O   UNL A   1      50.399  22.005  37.809  1.00  0.00    -0.376 OA
BRANCH   2   3
ATOM      3  C   UNL A   1      51.086  21.969  36.571  1.00  0.00     0.202 C 
BRANCH   3   4
ATOM      4  C   UNL A   1      50.742  23.111  35.614  1.00  0.00     0.261 C 
BRANCH   4   5
ATOM      5  O   UNL A   1      51.619  23.286  34.488  1.00  0.00    -0.460 OA
BRANCH   5   6
ATOM      6  C   UNL A   1      51.419  23.218  33.159  1.00  0.00     0.338 C 
ATOM      7  O   UNL A   1      51.961  22.315  32.523  1.00  0.00    -0.246 OA
BRANCH   6   8
ATOM      8  C   UNL A   1      50.713  24.268  32.390  1.00  0.00     0.060 A 
ATOM      9  C   UNL A   1      49.355  24.552  32.505  1.00  0.00     0.016 A 
ATOM     10  C   UNL A   1      51.479  24.912  31.395  1.00  0.00     0.016 A 
ATOM     11  C   UNL A   1      48.742  25.348  31.551  1.00  0.00     0.010 A 
ATOM     12  C   UNL A   1      50.868  25.708  30.439  1.00  0.00     0.010 A 
ATOM     13  C   UNL A   1      49.486  25.840  30.477  1.00  0.00    -0.014 A 
BRANCH  13  14
ATOM     14  C   UNL A   1      48.737  26.382  29.353  1.00  0.00     0.031 A 
ATOM     15  C   UNL A   1      47.621  27.293  29.694  1.00  0.00     0.074 A 
ATOM     16  C   UNL A   1      49.056  26.057  28.084  1.00  0.00     0.049 A 
ATOM     17  N   UNL A   1      46.351  27.105  29.528  1.00  0.00    -0.248 NA
ATOM     18  C   UNL A   1      47.954  28.524  30.424  1.00  0.00     0.031 C 
ATOM     19  C   UNL A   1      50.268  25.384  27.604  1.00  0.00     0.029 A 
ATOM     20  N   UNL A   1      48.395  26.352  26.931  1.00  0.00    -0.354 N 
ATOM     21  C   UNL A   1      45.737  28.292  29.926  1.00  0.00     0.074 A 
ATOM     22  C   UNL A   1      46.745  29.049  30.621  1.00  0.00     0.031 C 
ATOM     23  C   UNL A   1      50.360  25.536  26.266  1.00  0.00     0.029 A 
ATOM     24  C   UNL A   1      49.159  26.192  25.784  1.00  0.00     0.049 A 
ATOM     25  H   UNL A   1      47.457  26.652  26.913  1.00  0.00     0.167 HD
ATOM     26  C   UNL A   1      44.516  28.659  29.447  1.00  0.00     0.037 A 
ATOM     27  C   UNL A   1      48.859  26.652  24.543  1.00  0.00     0.037 A 
ATOM     28  C   UNL A   1      43.797  27.527  28.919  1.00  0.00     0.049 A 
ATOM     29  C   UNL A   1      47.392  26.882  24.499  1.00  0.00     0.074 A 
ATOM     30  C   UNL A   1      43.360  26.322  29.437  1.00  0.00     0.029 A 
ATOM     31  N   UNL A   1      43.701  27.396  27.554  1.00  0.00    -0.354 N 
ATOM     32  N   UNL A   1      46.500  25.929  24.556  1.00  0.00    -0.248 NA
ATOM     33  C   UNL A   1      46.899  28.212  24.826  1.00  0.00     0.031 C 
ATOM     34  C   UNL A   1      43.487  25.387  28.369  1.00  0.00     0.029 A 
ATOM     35  C   UNL A   1      43.950  26.083  27.251  1.00  0.00     0.049 A 
ATOM     36  H   UNL A   1      43.491  28.113  26.913  1.00  0.00     0.167 HD
ATOM     37  C   UNL A   1      45.464  26.454  25.318  1.00  0.00     0.074 A 
ATOM     38  C   UNL A   1      45.722  27.890  25.368  1.00  0.00     0.031 C 
ATOM     39  C   UNL A   1      44.652  25.647  26.065  1.00  0.00     0.037 A 
BRANCH  26  40
ATOM     40  C   UNL A   1      44.134  30.086  29.103  1.00  0.00     0.058 A 
ATOM     41  C   UNL A   1      44.941  30.815  28.202  1.00  0.00     0.135 A 
ATOM     42  C   UNL A   1      43.213  30.859  29.847  1.00  0.00     0.135 A 
ATOM     43  F   UNL A   1      45.835  30.187  27.421  1.00  0.00    -0.206 F 
ATOM     44  C   UNL A   1      44.927  32.210  28.143  1.00  0.00     0.059 A 
ATOM     45  C   UNL A   1      43.145  32.245  29.764  1.00  0.00     0.059 A 
ATOM     46  F   UNL A   1      42.399  30.329  30.766  1.00  0.00    -0.206 F 
ATOM     47  C   UNL A   1      44.045  32.915  28.955  1.00  0.00     0.060 A 
BRANCH  47  48
ATOM     48  S   UNL A   1      44.136  34.712  29.015  1.00  0.00     0.124 S 
ATOM     49  O   UNL A   1      43.607  34.980  30.348  1.00  0.00    -0.237 OA
ATOM     50  O   UNL A   1      45.565  34.949  28.833  1.00  0.00    -0.237 OA
ATOM     51  O   UNL A   1      43.289  35.127  27.901  1.00  0.00    -0.744 OA
ENDBRANCH  47  48
ENDBRANCH  26  40
BRANCH  27  52
ATOM     52  C   UNL A   1      49.807  27.240  23.559  1.00  0.00     0.058 A 
ATOM     53  C   UNL A   1      49.654  27.027  22.178  1.00  0.00     0.135 A 
ATOM     54  C   UNL A   1      50.730  28.240  23.933  1.00  0.00     0.135 A 
ATOM     55  F   UNL A   1      48.778  26.114  21.730  1.00  0.00    -0.206 F 
ATOM     56  C   UNL A   1      50.343  27.787  21.227  1.00  0.00     0.059 A 
ATOM     57  C   UNL A   1      51.439  28.997  23.004  1.00  0.00     0.059 A 
ATOM     58  F   UNL A   1      50.905  28.582  25.218  1.00  0.00    -0.206 F 
ATOM     59  C   UNL A   1      51.223  28.784  21.650  1.00  0.00     0.060 A 
BRANCH  59  60
ATOM     60  S   UNL A   1      51.988  29.880  20.433  1.00  0.00     0.124 S 
ATOM     61  O   UNL A   1      53.354  29.983  20.937  1.00  0.00    -0.237 OA
ATOM     62  O   UNL A   1      51.822  29.128  19.194  1.00  0.00    -0.237 OA
ATOM     63  O   UNL A   1      51.194  31.102  20.529  1.00  0.00    -0.744 OA
ENDBRANCH  59  60
ENDBRANCH  27  52
BRANCH  39  64
ATOM     64  C   UNL A   1      44.682  24.164  25.806  1.00  0.00     0.058 A 
ATOM     65  C   UNL A   1      43.779  23.493  24.963  1.00  0.00     0.135 A 
ATOM     66  C   UNL A   1      45.768  23.427  26.301  1.00  0.00     0.135 A 
ATOM     67  F   UNL A   1      42.777  24.150  24.363  1.00  0.00    -0.206 F 
ATOM     68  C   UNL A   1      43.930  22.139  24.657  1.00  0.00     0.059 A 
ATOM     69  C   UNL A   1      45.956  22.083  25.983  1.00  0.00     0.059 A 
ATOM     70  F   UNL A   1      46.702  24.028  27.057  1.00  0.00    -0.206 F 
ATOM     71  C   UNL A   1      45.025  21.443  25.168  1.00  0.00     0.060 A 
BRANCH  71  72
ATOM     72  S   UNL A   1      45.273  19.720  24.687  1.00  0.00     0.124 S 
ATOM     73  O   UNL A   1      46.728  19.622  24.636  1.00  0.00    -0.237 OA
ATOM     74  O   UNL A   1      44.625  18.990  25.773  1.00  0.00    -0.237 OA
ATOM     75  O   UNL A   1      44.594  19.625  23.397  1.00  0.00    -0.744 OA
ENDBRANCH  71  72
ENDBRANCH  39  64
ENDBRANCH  13  14
ENDBRANCH   6   8
ENDBRANCH   5   6
ENDBRANCH   4   5
ENDBRANCH   3   4
ENDBRANCH   2   3
ENDBRANCH   1   2
BRANCH   1  76
ATOM     76  C   UNL A   1      48.403  21.238  39.096  1.00  0.00     0.188 C 
BRANCH  76  77
ATOM     77  O   UNL A   1      48.320  20.607  40.375  1.00  0.00    -0.376 OA
BRANCH  77  78
ATOM     78  C   UNL A   1      47.416  19.543  40.592  1.00  0.00     0.202 C 
BRANCH  78  79
ATOM     79  C   UNL A   1      46.030  20.037  41.005  1.00  0.00     0.261 C 
BRANCH  79  80
ATOM     80  O   UNL A   1      45.730  19.832  42.391  1.00  0.00    -0.458 OA
BRANCH  80  81
ATOM     81  C   UNL A   1      44.480  19.348  42.676  1.00  0.00     0.361 C 
ATOM     82  O   UNL A   1      43.425  19.893  42.407  1.00  0.00    -0.244 OA
BRANCH  81  83
ATOM     83  C   UNL A   1      44.565  18.165  43.509  1.00  0.00     0.198 A 
ATOM     84  N   UNL A   1      44.744  18.131  44.868  1.00  0.00    -0.122 NA
ATOM     85  C   UNL A   1      44.394  16.883  43.035  1.00  0.00     0.109 A 
ATOM     86  N   UNL A   1      44.683  16.857  45.257  1.00  0.00    -0.061 NA
ATOM     87  N   UNL A   1      44.632  16.093  44.142  1.00  0.00    -0.212 N 
BRANCH  85  88
ATOM     88  C   UNL A   1      43.979  16.448  41.709  1.00  0.00     0.004 A 
ATOM     89  C   UNL A   1      44.750  16.771  40.585  1.00  0.00     0.010 A 
ATOM     90  C   UNL A   1      42.868  15.610  41.571  1.00  0.00     0.031 A 
ATOM     91  C   UNL A   1      44.414  16.255  39.334  1.00  0.00     0.002 A 
ATOM     92  C   UNL A   1      42.542  15.094  40.321  1.00  0.00     0.041 A 
ATOM     93  C   UNL A   1      43.311  15.411  39.204  1.00  0.00     0.020 A 
ATOM     94  Cl  UNL A   1      41.195  14.037  40.166  1.00  0.00    -0.084 Cl
ENDBRANCH  85  88
BRANCH  87  95
ATOM     95  C   UNL A   1      44.868  14.704  44.137  1.00  0.00     0.067 A 
ATOM     96  C   UNL A   1      46.163  14.195  44.216  1.00  0.00     0.029 A 
ATOM     97  C   UNL A   1      43.758  13.850  44.164  1.00  0.00     0.029 A 
ATOM     98  C   UNL A   1      46.329  12.826  44.462  1.00  0.00     0.015 A 
ATOM     99  C   UNL A   1      43.930  12.490  44.375  1.00  0.00     0.015 A 
ATOM    100  C   UNL A   1      45.214  11.969  44.574  1.00  0.00     0.056 A 
BRANCH 100 101
ATOM    101  C   UNL A   1      45.384  10.520  44.957  1.00  0.00     0.416 C 
ATOM    102  F   UNL A   1      45.692   9.720  43.904  1.00  0.00    -0.166 F 
ATOM    103  F   UNL A   1      46.378  10.344  45.874  1.00  0.00    -0.166 F 
ATOM    104  F   UNL A   1      44.267   9.978  45.525  1.00  0.00    -0.166 F 
ENDBRANCH 100 101
ENDBRANCH  87  95
ENDBRANCH  81  83
ENDBRANCH  80  81
ENDBRANCH  79  80
ENDBRANCH  78  79
ENDBRANCH  77  78
ENDBRANCH  76  77
ENDBRANCH   1  76
TORSDOF 23
ENDMDL
MODEL 2
REMARK VINA RESULT:     -10.4      8.282     15.486
REMARK SMILES O=C(OCCOCCOCCOC(=O)c1nnn(-c2ccc(C(F)(F)F)cc2)c1-c1cccc(Cl)c1)c1ccc(-c2c3nc(c(-c4c(F)cc(S(=O)(=O)[O-])cc4F)c4ccc([nH]4)c(-c4c(F)cc(S(=O)(=O)[O-])cc4F)c4nc(c(-c5c(F)cc(S(=O)(=O)[O-])cc5F)c5ccc2[nH]5)C=C4)C=C3)cc1
REMARK SMILES IDX 7 1 6 2 5 3 4 4 3 5 2 6 1 7 37 8 38 9 102 10 39 11 101 12
REMARK SMILES IDX 40 13 41 14 42 15 95 16 43 17 100 18 94 19 96 20 44 21 99 22
REMARK SMILES IDX 93 23 92 24 45 26 79 27 58 28 78 29 59 30 62 31 77 32 97 33
REMARK SMILES IDX 60 34 61 35 76 37 98 38 63 39 46 40 47 41 56 42 48 43 49 44
REMARK SMILES IDX 55 45 57 46 50 47 51 48 52 49 53 50 54 51 80 52 81 53 90 54
REMARK SMILES IDX 82 55 83 56 89 57 91 58 84 59 85 60 86 61 87 62 88 63 64 64
REMARK SMILES IDX 65 65 74 66 66 67 67 68 73 69 75 70 68 71 69 72 70 73 71 74
REMARK SMILES IDX 72 75 8 76 9 77 10 78 11 79 12 80 13 81 14 82 15 83 16 84
REMARK SMILES IDX 29 85 17 86 18 87 30 88 31 89 36 90 32 91 34 92 33 93 35 94
REMARK SMILES IDX 19 95 20 96 28 97 21 98 27 99 22 100 23 101 24 102 25 103
REMARK SMILES IDX 26 104
REMARK H PARENT 96 25 62 36
REMARK Flexibility Score: inf
ROOT
ATOM      1  C   UNL A   1      33.276  31.124  27.270  1.00  0.00     0.188 C 
ENDROOT
BRANCH   1   2
ATOM      2  O   UNL A   1      34.123  31.869  28.134  1.00  0.00    -0.376 OA
BRANCH   2   3
ATOM      3  C   UNL A   1      33.921  33.271  28.149  1.00  0.00     0.202 C 
BRANCH   3   4
ATOM      4  C   UNL A   1      34.640  34.008  29.281  1.00  0.00     0.261 C 
BRANCH   4   5
ATOM      5  O   UNL A   1      35.064  33.206  30.396  1.00  0.00    -0.460 OA
BRANCH   5   6
ATOM      6  C   UNL A   1      36.016  33.379  31.331  1.00  0.00     0.338 C 
ATOM      7  O   UNL A   1      36.072  34.451  31.931  1.00  0.00    -0.246 OA
BRANCH   6   8
ATOM      8  C   UNL A   1      37.109  32.407  31.565  1.00  0.00     0.060 A 
ATOM      9  C   UNL A   1      37.943  32.411  32.680  1.00  0.00     0.016 A 
ATOM     10  C   UNL A   1      37.369  31.517  30.501  1.00  0.00     0.016 A 
ATOM     11  C   UNL A   1      39.100  31.648  32.668  1.00  0.00     0.010 A 
ATOM     12  C   UNL A   1      38.525  30.753  30.487  1.00  0.00     0.010 A 
ATOM     13  C   UNL A   1      39.425  30.900  31.534  1.00  0.00    -0.014 A 
BRANCH  13  14
ATOM     14  C   UNL A   1      40.787  30.393  31.453  1.00  0.00     0.031 A 
ATOM     15  C   UNL A   1      41.725  31.179  30.620  1.00  0.00     0.074 A 
ATOM     16  C   UNL A   1      41.149  29.269  32.104  1.00  0.00     0.049 A 
ATOM     17  N   UNL A   1      42.292  30.836  29.508  1.00  0.00    -0.248 NA
ATOM     18  C   UNL A   1      41.972  32.572  31.014  1.00  0.00     0.031 C 
ATOM     19  C   UNL A   1      40.405  28.550  33.144  1.00  0.00     0.029 A 
ATOM     20  N   UNL A   1      42.321  28.579  32.036  1.00  0.00    -0.354 N 
ATOM     21  C   UNL A   1      43.146  31.888  29.179  1.00  0.00     0.074 A 
ATOM     22  C   UNL A   1      42.779  32.984  30.036  1.00  0.00     0.031 C 
ATOM     23  C   UNL A   1      41.233  27.684  33.765  1.00  0.00     0.029 A 
ATOM     24  C   UNL A   1      42.515  27.689  33.083  1.00  0.00     0.049 A 
ATOM     25  H   UNL A   1      42.974  28.701  31.309  1.00  0.00     0.167 HD
ATOM     26  C   UNL A   1      44.242  31.697  28.392  1.00  0.00     0.037 A 
ATOM     27  C   UNL A   1      43.677  27.074  33.416  1.00  0.00     0.037 A 
ATOM     28  C   UNL A   1      44.126  30.489  27.613  1.00  0.00     0.049 A 
ATOM     29  C   UNL A   1      44.547  27.089  32.211  1.00  0.00     0.074 A 
ATOM     30  C   UNL A   1      43.227  30.017  26.676  1.00  0.00     0.029 A 
ATOM     31  N   UNL A   1      44.869  29.397  27.993  1.00  0.00    -0.354 N 
ATOM     32  N   UNL A   1      44.296  26.419  31.119  1.00  0.00    -0.248 NA
ATOM     33  C   UNL A   1      45.481  28.196  32.057  1.00  0.00     0.031 C 
ATOM     34  C   UNL A   1      43.157  28.611  26.900  1.00  0.00     0.029 A 
ATOM     35  C   UNL A   1      44.048  28.303  27.929  1.00  0.00     0.049 A 
ATOM     36  H   UNL A   1      45.817  29.401  28.261  1.00  0.00     0.167 HD
ATOM     37  C   UNL A   1      44.697  27.255  30.085  1.00  0.00     0.074 A 
ATOM     38  C   UNL A   1      45.507  28.286  30.725  1.00  0.00     0.031 C 
ATOM     39  C   UNL A   1      44.109  27.192  28.853  1.00  0.00     0.037 A 
BRANCH  26  40
ATOM     40  C   UNL A   1      45.574  32.388  28.612  1.00  0.00     0.058 A 
ATOM     41  C   UNL A   1      46.209  33.020  27.520  1.00  0.00     0.135 A 
ATOM     42  C   UNL A   1      46.391  32.189  29.749  1.00  0.00     0.135 A 
ATOM     43  F   UNL A   1      45.528  33.287  26.393  1.00  0.00    -0.206 F 
ATOM     44  C   UNL A   1      47.575  33.307  27.510  1.00  0.00     0.059 A 
ATOM     45  C   UNL A   1      47.741  32.517  29.780  1.00  0.00     0.059 A 
ATOM     46  F   UNL A   1      45.954  31.577  30.854  1.00  0.00    -0.206 F 
ATOM     47  C   UNL A   1      48.337  33.020  28.637  1.00  0.00     0.060 A 
BRANCH  47  48
ATOM     48  S   UNL A   1      50.125  33.224  28.576  1.00  0.00     0.124 S 
ATOM     49  O   UNL A   1      50.264  34.627  28.950  1.00  0.00    -0.237 OA
ATOM     50  O   UNL A   1      50.575  32.249  29.564  1.00  0.00    -0.237 OA
ATOM     51  O   UNL A   1      50.450  32.902  27.190  1.00  0.00    -0.744 OA
ENDBRANCH  47  48
ENDBRANCH  26  40
BRANCH  27  52
ATOM     52  C   UNL A   1      44.191  26.825  34.789  1.00  0.00     0.058 A 
ATOM     53  C   UNL A   1      44.358  25.519  35.283  1.00  0.00     0.135 A 
ATOM     54  C   UNL A   1      44.779  27.855  35.554  1.00  0.00     0.135 A 
ATOM     55  F   UNL A   1      43.856  24.474  34.607  1.00  0.00    -0.206 F 
ATOM     56  C   UNL A   1      45.096  25.249  36.441  1.00  0.00     0.059 A 
ATOM     57  C   UNL A   1      45.504  27.612  36.718  1.00  0.00     0.059 A 
ATOM     58  F   UNL A   1      44.749  29.132  35.143  1.00  0.00    -0.206 F 
ATOM     59  C   UNL A   1      45.681  26.304  37.143  1.00  0.00     0.060 A 
BRANCH  59  60
ATOM     60  S   UNL A   1      46.773  25.952  38.540  1.00  0.00     0.124 S 
ATOM     61  O   UNL A   1      45.912  25.149  39.402  1.00  0.00    -0.237 OA
ATOM     62  O   UNL A   1      47.874  25.241  37.900  1.00  0.00    -0.237 OA
ATOM     63  O   UNL A   1      47.107  27.279  39.053  1.00  0.00    -0.744 OA
ENDBRANCH  59  60
ENDBRANCH  27  52
BRANCH  39  64
ATOM     64  C   UNL A   1      43.251  25.998  28.528  1.00  0.00     0.058 A 
ATOM     65  C   UNL A   1      41.862  25.944  28.738  1.00  0.00     0.135 A 
ATOM     66  C   UNL A   1      43.836  24.934  27.824  1.00  0.00     0.135 A 
ATOM     67  F   UNL A   1      41.210  26.969  29.305  1.00  0.00    -0.206 F 
ATOM     68  C   UNL A   1      41.096  24.862  28.300  1.00  0.00     0.059 A 
ATOM     69  C   UNL A   1      43.086  23.860  27.351  1.00  0.00     0.059 A 
ATOM     70  F   UNL A   1      45.147  24.959  27.534  1.00  0.00    -0.206 F 
ATOM     71  C   UNL A   1      41.716  23.826  27.603  1.00  0.00     0.060 A 
BRANCH  71  72
ATOM     72  S   UNL A   1      40.706  22.479  26.949  1.00  0.00     0.124 S 
ATOM     73  O   UNL A   1      41.481  22.048  25.791  1.00  0.00    -0.237 OA
ATOM     74  O   UNL A   1      40.661  21.542  28.069  1.00  0.00    -0.237 OA
ATOM     75  O   UNL A   1      39.432  23.126  26.643  1.00  0.00    -0.744 OA
ENDBRANCH  71  72
ENDBRANCH  39  64
ENDBRANCH  13  14
ENDBRANCH   6   8
ENDBRANCH   5   6
ENDBRANCH   4   5
ENDBRANCH   3   4
ENDBRANCH   2   3
ENDBRANCH   1   2
BRANCH   1  76
ATOM     76  C   UNL A   1      33.876  29.778  26.794  1.00  0.00     0.188 C 
BRANCH  76  77
ATOM     77  O   UNL A   1      33.238  28.518  27.008  1.00  0.00    -0.376 OA
BRANCH  77  78
ATOM     78  C   UNL A   1      31.973  28.453  27.636  1.00  0.00     0.202 C 
BRANCH  78  79
ATOM     79  C   UNL A   1      31.203  27.189  27.255  1.00  0.00     0.261 C 
BRANCH  79  80
ATOM     80  O   UNL A   1      30.773  27.161  25.888  1.00  0.00    -0.458 OA
BRANCH  80  81
ATOM     81  C   UNL A   1      30.089  26.043  25.491  1.00  0.00     0.361 C 
ATOM     82  O   UNL A   1      28.992  26.026  24.962  1.00  0.00    -0.244 OA
BRANCH  81  83
ATOM     83  C   UNL A   1      30.763  24.841  25.942  1.00  0.00     0.198 A 
ATOM     84  N   UNL A   1      30.434  24.077  27.032  1.00  0.00    -0.122 NA
ATOM     85  C   UNL A   1      31.808  24.252  25.265  1.00  0.00     0.109 A 
ATOM     86  N   UNL A   1      31.246  23.019  27.050  1.00  0.00    -0.061 NA
ATOM     87  N   UNL A   1      32.174  23.202  26.084  1.00  0.00    -0.212 N 
BRANCH  85  88
ATOM     88  C   UNL A   1      32.355  24.588  23.959  1.00  0.00     0.004 A 
ATOM     89  C   UNL A   1      32.256  23.681  22.895  1.00  0.00     0.010 A 
ATOM     90  C   UNL A   1      32.880  25.865  23.735  1.00  0.00     0.031 A 
ATOM     91  C   UNL A   1      32.677  24.052  21.618  1.00  0.00     0.002 A 
ATOM     92  C   UNL A   1      33.291  26.230  22.458  1.00  0.00     0.041 A 
ATOM     93  C   UNL A   1      33.189  25.330  21.399  1.00  0.00     0.020 A 
ATOM     94  Cl  UNL A   1      33.903  27.813  22.185  1.00  0.00    -0.084 Cl
ENDBRANCH  85  88
BRANCH  87  95
ATOM     95  C   UNL A   1      33.368  22.460  25.999  1.00  0.00     0.067 A 
ATOM     96  C   UNL A   1      33.359  21.128  25.587  1.00  0.00     0.029 A 
ATOM     97  C   UNL A   1      34.576  23.131  26.232  1.00  0.00     0.029 A 
ATOM     98  C   UNL A   1      34.580  20.517  25.276  1.00  0.00     0.015 A 
ATOM     99  C   UNL A   1      35.784  22.508  25.954  1.00  0.00     0.015 A 
ATOM    100  C   UNL A   1      35.798  21.211  25.428  1.00  0.00     0.056 A 
BRANCH 100 101
ATOM    101  C   UNL A   1      37.103  20.598  24.982  1.00  0.00     0.416 C 
ATOM    102  F   UNL A   1      36.995  19.281  24.666  1.00  0.00    -0.166 F 
ATOM    103  F   UNL A   1      37.610  21.216  23.878  1.00  0.00    -0.166 F 
ATOM    104  F   UNL A   1      38.086  20.677  25.926  1.00  0.00    -0.166 F 
ENDBRANCH 100 101
ENDBRANCH  87  95
ENDBRANCH  81  83
ENDBRANCH  80  81
ENDBRANCH  79  80
ENDBRANCH  78  79
ENDBRANCH  77  78
ENDBRANCH  76  77
ENDBRANCH   1  76
TORSDOF 23
ENDMDL
MODEL 3
REMARK VINA RESULT:     -10.2      8.161     15.273
REMARK SMILES O=C(OCCOCCOCCOC(=O)c1nnn(-c2ccc(C(F)(F)F)cc2)c1-c1cccc(Cl)c1)c1ccc(-c2c3nc(c(-c4c(F)cc(S(=O)(=O)[O-])cc4F)c4ccc([nH]4)c(-c4c(F)cc(S(=O)(=O)[O-])cc4F)c4nc(c(-c5c(F)cc(S(=O)(=O)[O-])cc5F)c5ccc2[nH]5)C=C4)C=C3)cc1
REMARK SMILES IDX 7 1 6 2 5 3 4 4 3 5 2 6 1 7 37 8 38 9 102 10 39 11 101 12
REMARK SMILES IDX 40 13 41 14 42 15 95 16 43 17 100 18 94 19 96 20 44 21 99 22
REMARK SMILES IDX 93 23 92 24 45 26 79 27 58 28 78 29 59 30 62 31 77 32 97 33
REMARK SMILES IDX 60 34 61 35 76 37 98 38 63 39 46 40 47 41 56 42 48 43 49 44
REMARK SMILES IDX 55 45 57 46 50 47 51 48 52 49 53 50 54 51 80 52 81 53 90 54
REMARK SMILES IDX 82 55 83 56 89 57 91 58 84 59 85 60 86 61 87 62 88 63 64 64
REMARK SMILES IDX 65 65 74 66 66 67 67 68 73 69 75 70 68 71 69 72 70 73 71 74
REMARK SMILES IDX 72 75 8 76 9 77 10 78 11 79 12 80 13 81 14 82 15 83 16 84
REMARK SMILES IDX 29 85 17 86 18 87 30 88 31 89 36 90 32 91 34 92 33 93 35 94
REMARK SMILES IDX 19 95 20 96 28 97 21 98 27 99 22 100 23 101 24 102 25 103
REMARK SMILES IDX 26 104
REMARK H PARENT 96 25 62 36
REMARK Flexibility Score: inf
ROOT
ATOM      1  C   UNL A   1      33.836  30.407  26.569  1.00  0.00     0.188 C 
ENDROOT
BRANCH   1   2
ATOM      2  O   UNL A   1      34.259  31.542  27.310  1.00  0.00    -0.376 OA
BRANCH   2   3
ATOM      3  C   UNL A   1      34.540  31.323  28.681  1.00  0.00     0.202 C 
BRANCH   3   4
ATOM      4  C   UNL A   1      34.495  32.579  29.552  1.00  0.00     0.261 C 
BRANCH   4   5
ATOM      5  O   UNL A   1      35.563  32.733  30.503  1.00  0.00    -0.460 OA
BRANCH   5   6
ATOM      6  C   UNL A   1      35.836  32.122  31.671  1.00  0.00     0.338 C 
ATOM      7  O   UNL A   1      35.100  32.327  32.635  1.00  0.00    -0.246 OA
BRANCH   6   8
ATOM      8  C   UNL A   1      37.073  31.343  31.908  1.00  0.00     0.060 A 
ATOM      9  C   UNL A   1      37.995  31.613  32.916  1.00  0.00     0.016 A 
ATOM     10  C   UNL A   1      37.360  30.351  30.946  1.00  0.00     0.016 A 
ATOM     11  C   UNL A   1      39.243  31.012  32.877  1.00  0.00     0.010 A 
ATOM     12  C   UNL A   1      38.607  29.748  30.905  1.00  0.00     0.010 A 
ATOM     13  C   UNL A   1      39.568  30.158  31.820  1.00  0.00    -0.014 A 
BRANCH  13  14
ATOM     14  C   UNL A   1      40.975  29.824  31.657  1.00  0.00     0.031 A 
ATOM     15  C   UNL A   1      41.761  30.726  30.785  1.00  0.00     0.074 A 
ATOM     16  C   UNL A   1      41.509  28.749  32.272  1.00  0.00     0.049 A 
ATOM     17  N   UNL A   1      42.303  30.464  29.639  1.00  0.00    -0.248 NA
ATOM     18  C   UNL A   1      41.856  32.137  31.185  1.00  0.00     0.031 C 
ATOM     19  C   UNL A   1      40.919  27.937  33.342  1.00  0.00     0.029 A 
ATOM     20  N   UNL A   1      42.752  28.211  32.131  1.00  0.00    -0.354 N 
ATOM     21  C   UNL A   1      43.000  31.616  29.279  1.00  0.00     0.074 A 
ATOM     22  C   UNL A   1      42.550  32.652  30.170  1.00  0.00     0.031 C 
ATOM     23  C   UNL A   1      41.881  27.176  33.904  1.00  0.00     0.029 A 
ATOM     24  C   UNL A   1      43.113  27.345  33.153  1.00  0.00     0.049 A 
ATOM     25  H   UNL A   1      43.342  28.418  31.370  1.00  0.00     0.167 HD
ATOM     26  C   UNL A   1      44.066  31.568  28.430  1.00  0.00     0.037 A 
ATOM     27  C   UNL A   1      44.358  26.876  33.413  1.00  0.00     0.037 A 
ATOM     28  C   UNL A   1      44.057  30.361  27.643  1.00  0.00     0.049 A 
ATOM     29  C   UNL A   1      45.151  27.007  32.163  1.00  0.00     0.074 A 
ATOM     30  C   UNL A   1      43.172  29.788  26.749  1.00  0.00     0.029 A 
ATOM     31  N   UNL A   1      44.949  29.367  27.966  1.00  0.00    -0.354 N 
ATOM     32  N   UNL A   1      44.924  26.318  31.077  1.00  0.00    -0.248 NA
ATOM     33  C   UNL A   1      45.931  28.222  31.974  1.00  0.00     0.031 C 
ATOM     34  C   UNL A   1      43.288  28.382  26.957  1.00  0.00     0.029 A 
ATOM     35  C   UNL A   1      44.266  28.179  27.931  1.00  0.00     0.049 A 
ATOM     36  H   UNL A   1      45.902  29.487  28.181  1.00  0.00     0.167 HD
ATOM     37  C   UNL A   1      45.159  27.205  30.035  1.00  0.00     0.074 A 
ATOM     38  C   UNL A   1      45.870  28.324  30.644  1.00  0.00     0.031 C 
ATOM     39  C   UNL A   1      44.516  27.078  28.836  1.00  0.00     0.037 A 
BRANCH  26  40
ATOM     40  C   UNL A   1      45.313  32.418  28.587  1.00  0.00     0.058 A 
ATOM     41  C   UNL A   1      45.985  32.429  29.829  1.00  0.00     0.135 A 
ATOM     42  C   UNL A   1      45.688  33.445  27.691  1.00  0.00     0.135 A 
ATOM     43  F   UNL A   1      45.733  31.486  30.752  1.00  0.00    -0.206 F 
ATOM     44  C   UNL A   1      46.857  33.453  30.201  1.00  0.00     0.059 A 
ATOM     45  C   UNL A   1      46.595  34.445  28.021  1.00  0.00     0.059 A 
ATOM     46  F   UNL A   1      45.124  33.597  26.488  1.00  0.00    -0.206 F 
ATOM     47  C   UNL A   1      47.128  34.475  29.297  1.00  0.00     0.060 A 
BRANCH  47  48
ATOM     48  S   UNL A   1      48.112  35.888  29.823  1.00  0.00     0.124 S 
ATOM     49  O   UNL A   1      48.015  36.754  28.653  1.00  0.00    -0.237 OA
ATOM     50  O   UNL A   1      47.392  36.333  31.012  1.00  0.00    -0.237 OA
ATOM     51  O   UNL A   1      49.426  35.305  30.074  1.00  0.00    -0.744 OA
ENDBRANCH  47  48
ENDBRANCH  26  40
BRANCH  27  52
ATOM     52  C   UNL A   1      44.975  26.683  34.752  1.00  0.00     0.058 A 
ATOM     53  C   UNL A   1      45.222  27.770  35.608  1.00  0.00     0.135 A 
ATOM     54  C   UNL A   1      45.094  25.401  35.332  1.00  0.00     0.135 A 
ATOM     55  F   UNL A   1      45.107  29.027  35.151  1.00  0.00    -0.206 F 
ATOM     56  C   UNL A   1      45.528  27.598  36.963  1.00  0.00     0.059 A 
ATOM     57  C   UNL A   1      45.413  25.205  36.672  1.00  0.00     0.059 A 
ATOM     58  F   UNL A   1      44.810  24.292  34.632  1.00  0.00    -0.206 F 
ATOM     59  C   UNL A   1      45.605  26.309  37.491  1.00  0.00     0.060 A 
BRANCH  59  60
ATOM     60  S   UNL A   1      45.832  26.082  39.270  1.00  0.00     0.124 S 
ATOM     61  O   UNL A   1      45.198  24.787  39.492  1.00  0.00    -0.237 OA
ATOM     62  O   UNL A   1      47.285  26.111  39.401  1.00  0.00    -0.237 OA
ATOM     63  O   UNL A   1      45.134  27.226  39.851  1.00  0.00    -0.744 OA
ENDBRANCH  59  60
ENDBRANCH  27  52
BRANCH  39  64
ATOM     64  C   UNL A   1      43.795  25.789  28.542  1.00  0.00     0.058 A 
ATOM     65  C   UNL A   1      42.432  25.570  28.806  1.00  0.00     0.135 A 
ATOM     66  C   UNL A   1      44.475  24.802  27.813  1.00  0.00     0.135 A 
ATOM     67  F   UNL A   1      41.685  26.510  29.401  1.00  0.00    -0.206 F 
ATOM     68  C   UNL A   1      41.784  24.403  28.396  1.00  0.00     0.059 A 
ATOM     69  C   UNL A   1      43.841  23.644  27.366  1.00  0.00     0.059 A 
ATOM     70  F   UNL A   1      45.761  24.983  27.470  1.00  0.00    -0.206 F 
ATOM     71  C   UNL A   1      42.496  23.447  27.672  1.00  0.00     0.060 A 
BRANCH  71  72
ATOM     72  S   UNL A   1      41.629  21.988  27.055  1.00  0.00     0.124 S 
ATOM     73  O   UNL A   1      41.808  22.111  25.613  1.00  0.00    -0.237 OA
ATOM     74  O   UNL A   1      42.355  20.893  27.693  1.00  0.00    -0.237 OA
ATOM     75  O   UNL A   1      40.262  22.175  27.534  1.00  0.00    -0.744 OA
ENDBRANCH  71  72
ENDBRANCH  39  64
ENDBRANCH  13  14
ENDBRANCH   6   8
ENDBRANCH   5   6
ENDBRANCH   4   5
ENDBRANCH   3   4
ENDBRANCH   2   3
ENDBRANCH   1   2
BRANCH   1  76
ATOM     76  C   UNL A   1      33.119  29.325  27.414  1.00  0.00     0.188 C 
BRANCH  76  77
ATOM     77  O   UNL A   1      31.741  28.988  27.248  1.00  0.00    -0.376 OA
BRANCH  77  78
ATOM     78  C   UNL A   1      31.360  27.669  26.915  1.00  0.00     0.202 C 
BRANCH  78  79
ATOM     79  C   UNL A   1      31.213  27.473  25.408  1.00  0.00     0.261 C 
BRANCH  79  80
ATOM     80  O   UNL A   1      32.330  26.815  24.796  1.00  0.00    -0.458 OA
BRANCH  80  81
ATOM     81  C   UNL A   1      32.880  25.774  25.497  1.00  0.00     0.361 C 
ATOM     82  O   UNL A   1      33.836  25.845  26.247  1.00  0.00    -0.244 OA
BRANCH  81  83
ATOM     83  C   UNL A   1      32.283  24.515  25.097  1.00  0.00     0.198 A 
ATOM     84  N   UNL A   1      30.945  24.246  24.970  1.00  0.00    -0.122 NA
ATOM     85  C   UNL A   1      33.013  23.415  24.705  1.00  0.00     0.109 A 
ATOM     86  N   UNL A   1      30.820  23.003  24.504  1.00  0.00    -0.061 NA
ATOM     87  N   UNL A   1      32.052  22.446  24.493  1.00  0.00    -0.212 N 
BRANCH  85  88
ATOM     88  C   UNL A   1      34.447  23.303  24.481  1.00  0.00     0.004 A 
ATOM     89  C   UNL A   1      34.942  22.993  23.207  1.00  0.00     0.010 A 
ATOM     90  C   UNL A   1      35.337  23.617  25.513  1.00  0.00     0.031 A 
ATOM     91  C   UNL A   1      36.316  23.001  22.969  1.00  0.00     0.002 A 
ATOM     92  C   UNL A   1      36.705  23.629  25.267  1.00  0.00     0.041 A 
ATOM     93  C   UNL A   1      37.198  23.325  24.000  1.00  0.00     0.020 A 
ATOM     94  Cl  UNL A   1      37.790  24.049  26.533  1.00  0.00    -0.084 Cl
ENDBRANCH  85  88
BRANCH  87  95
ATOM     95  C   UNL A   1      32.282  21.063  24.359  1.00  0.00     0.067 A 
ATOM     96  C   UNL A   1      32.122  20.423  23.131  1.00  0.00     0.029 A 
ATOM     97  C   UNL A   1      32.785  20.370  25.469  1.00  0.00     0.029 A 
ATOM     98  C   UNL A   1      32.603  19.116  22.990  1.00  0.00     0.015 A 
ATOM     99  C   UNL A   1      33.228  19.063  25.331  1.00  0.00     0.015 A 
ATOM    100  C   UNL A   1      33.188  18.437  24.080  1.00  0.00     0.056 A 
BRANCH 100 101
ATOM    101  C   UNL A   1      33.813  17.076  23.902  1.00  0.00     0.416 C 
ATOM    102  F   UNL A   1      34.272  16.858  22.643  1.00  0.00    -0.166 F 
ATOM    103  F   UNL A   1      34.877  16.887  24.734  1.00  0.00    -0.166 F 
ATOM    104  F   UNL A   1      32.955  16.049  24.171  1.00  0.00    -0.166 F 
ENDBRANCH 100 101
ENDBRANCH  87  95
ENDBRANCH  81  83
ENDBRANCH  80  81
ENDBRANCH  79  80
ENDBRANCH  78  79
ENDBRANCH  77  78
ENDBRANCH  76  77
ENDBRANCH   1  76
TORSDOF 23
ENDMDL
