MODEL 1
REMARK VINA RESULT:     -10.9      0.000      0.000
REMARK SMILES O=C1[NH+]=C(Nc2ccc(C(=O)OCCOCCOCCOC(=O)c3ccc(-c4c5nc(c(-c6c(F)cc(S(=O)(=O)[O-])cc6F)c6ccc([nH]6)c(-c6c(F)cc(S(=O)(=O)[O-])cc6F)c6nc(c(-c7c(F)cc(S(=O)(=O)[O-])cc7F)c7ccc4[nH]7)C=C6)C=C5)cc3)c(O)c2)S/C1=C\c1ccc[nH]1
REMARK SMILES IDX 17 1 16 2 15 3 14 4 13 5 12 6 10 7 11 8 9 9 6 10 7 11 92 12
REMARK SMILES IDX 8 13 90 14 5 15 1 16 2 17 3 18 94 19 4 20 93 22 95 23 96 25
REMARK SMILES IDX 97 26 100 27 98 28 99 29 91 31 18 33 19 34 20 35 21 36 22 37
REMARK SMILES IDX 23 38 24 39 25 40 89 41 26 42 88 43 27 44 28 45 29 46 82 47
REMARK SMILES IDX 30 48 87 49 81 50 83 51 31 52 86 53 80 54 79 55 32 57 66 58
REMARK SMILES IDX 45 59 65 60 46 61 49 62 64 63 84 64 47 65 48 66 63 68 85 69
REMARK SMILES IDX 50 70 33 71 34 72 43 73 35 74 36 75 42 76 44 77 37 78 38 79
REMARK SMILES IDX 39 80 40 81 41 82 67 83 68 84 77 85 69 86 70 87 76 88 78 89
REMARK SMILES IDX 71 90 72 91 73 92 74 93 75 94 51 95 52 96 61 97 53 98 54 99
REMARK SMILES IDX 60 100 62 101 55 102 56 103 57 104 58 105 59 106
REMARK H PARENT 3 21 5 24 100 30 91 32 83 56 49 67
REMARK Flexibility Score: inf
ROOT
ATOM      1  C   UNL A   1      34.194  35.051  32.747  1.00  0.00     0.188 C 
ENDROOT
BRANCH   1   2
ATOM      2  C   UNL A   1      33.332  36.132  32.060  1.00  0.00     0.188 C 
BRANCH   2   3
ATOM      3  O   UNL A   1      32.649  35.826  30.851  1.00  0.00    -0.376 OA
BRANCH   3   4
ATOM      4  C   UNL A   1      33.373  35.666  29.638  1.00  0.00     0.202 C 
BRANCH   4   5
ATOM      5  C   UNL A   1      32.996  34.574  28.617  1.00  0.00     0.261 C 
BRANCH   5   6
ATOM      6  O   UNL A   1      33.574  33.275  28.838  1.00  0.00    -0.460 OA
BRANCH   6   7
ATOM      7  C   UNL A   1      34.530  32.907  27.942  1.00  0.00     0.341 C 
ATOM      8  O   UNL A   1      35.480  33.577  27.576  1.00  0.00    -0.246 OA
BRANCH   7   9
ATOM      9  C   UNL A   1      34.366  31.478  27.588  1.00  0.00     0.102 A 
ATOM     10  C   UNL A   1      34.234  28.758  26.867  1.00  0.00     0.129 A 
ATOM     11  C   UNL A   1      35.391  29.277  27.454  1.00  0.00     0.053 A 
ATOM     12  C   UNL A   1      33.123  29.599  26.705  1.00  0.00     0.098 A 
ATOM     13  C   UNL A   1      35.472  30.637  27.773  1.00  0.00     0.024 A 
ATOM     14  C   UNL A   1      33.172  30.935  27.107  1.00  0.00     0.134 A 
BRANCH  10  15
ATOM     15  N   UNL A   1      34.168  27.437  26.408  1.00  0.00    -0.234 N 
ATOM     16  O   UNL A   1      31.211  27.037  22.832  1.00  0.00    -0.240 OA
ATOM     17  C   UNL A   1      31.905  26.681  23.778  1.00  0.00     0.346 C 
ATOM     18  N   UNL A   1      32.557  27.538  24.638  1.00  0.00    -0.199 N 
ATOM     19  C   UNL A   1      32.187  25.248  24.090  1.00  0.00     0.111 C 
ATOM     20  C   UNL A   1      33.309  26.923  25.486  1.00  0.00     0.322 C 
ATOM     21  H   UNL A   1      32.460  28.517  24.607  1.00  0.00     0.316 HD
ATOM     22  S   UNL A   1      33.284  25.171  25.412  1.00  0.00     0.006 SA
ATOM     23  C   UNL A   1      31.672  24.241  23.369  1.00  0.00     0.050 C 
ATOM     24  H   UNL A   1      34.820  26.808  26.795  1.00  0.00     0.313 HD
BRANCH  23  25
ATOM     25  C   UNL A   1      31.893  22.874  23.667  1.00  0.00     0.039 A 
ATOM     26  C   UNL A   1      32.351  21.796  22.935  1.00  0.00     0.027 A 
ATOM     27  N   UNL A   1      31.670  22.432  24.950  1.00  0.00    -0.362 N 
ATOM     28  C   UNL A   1      32.379  20.670  23.793  1.00  0.00     0.020 A 
ATOM     29  C   UNL A   1      31.938  21.087  25.027  1.00  0.00     0.083 A 
ATOM     30  H   UNL A   1      31.367  22.994  25.699  1.00  0.00     0.166 HD
ENDBRANCH  23  25
ENDBRANCH  10  15
BRANCH  14  31
ATOM     31  O   UNL A   1      32.006  31.644  27.027  1.00  0.00    -0.507 OA
ATOM     32  H   UNL A   1      31.244  31.347  27.483  1.00  0.00     0.293 HD
ENDBRANCH  14  31
ENDBRANCH   7   9
ENDBRANCH   6   7
ENDBRANCH   5   6
ENDBRANCH   4   5
ENDBRANCH   3   4
ENDBRANCH   2   3
ENDBRANCH   1   2
BRANCH   1  33
ATOM     33  O   UNL A   1      33.643  33.755  32.662  1.00  0.00    -0.376 OA
BRANCH  33  34
ATOM     34  C   UNL A   1      34.541  32.666  32.504  1.00  0.00     0.202 C 
BRANCH  34  35
ATOM     35  C   UNL A   1      35.795  32.729  31.602  1.00  0.00     0.261 C 
BRANCH  35  36
ATOM     36  O   UNL A   1      36.148  31.567  30.838  1.00  0.00    -0.460 OA
BRANCH  36  37
ATOM     37  C   UNL A   1      36.810  30.585  31.494  1.00  0.00     0.338 C 
ATOM     38  O   UNL A   1      36.325  29.770  32.259  1.00  0.00    -0.246 OA
BRANCH  37  39
ATOM     39  C   UNL A   1      38.201  30.528  30.992  1.00  0.00     0.060 A 
ATOM     40  C   UNL A   1      38.426  30.676  29.617  1.00  0.00     0.016 A 
ATOM     41  C   UNL A   1      39.269  30.278  31.858  1.00  0.00     0.016 A 
ATOM     42  C   UNL A   1      39.710  30.512  29.096  1.00  0.00     0.010 A 
ATOM     43  C   UNL A   1      40.555  30.098  31.331  1.00  0.00     0.010 A 
ATOM     44  C   UNL A   1      40.772  30.164  29.942  1.00  0.00    -0.014 A 
BRANCH  44  45
ATOM     45  C   UNL A   1      42.033  29.654  29.342  1.00  0.00     0.031 A 
ATOM     46  C   UNL A   1      43.206  30.595  29.231  1.00  0.00     0.074 A 
ATOM     47  C   UNL A   1      42.163  28.368  28.962  1.00  0.00     0.049 A 
ATOM     48  N   UNL A   1      44.408  30.378  28.762  1.00  0.00    -0.248 NA
ATOM     49  C   UNL A   1      42.991  31.972  29.711  1.00  0.00     0.031 C 
ATOM     50  C   UNL A   1      41.116  27.352  29.043  1.00  0.00     0.029 A 
ATOM     51  N   UNL A   1      43.238  27.700  28.430  1.00  0.00    -0.354 N 
ATOM     52  C   UNL A   1      45.088  31.586  28.886  1.00  0.00     0.074 A 
ATOM     53  C   UNL A   1      44.154  32.543  29.436  1.00  0.00     0.031 C 
ATOM     54  C   UNL A   1      41.599  26.189  28.571  1.00  0.00     0.029 A 
ATOM     55  C   UNL A   1      42.981  26.383  28.132  1.00  0.00     0.049 A 
ATOM     56  H   UNL A   1      44.114  28.126  28.275  1.00  0.00     0.167 HD
ATOM     57  C   UNL A   1      46.377  31.870  28.583  1.00  0.00     0.037 A 
ATOM     58  C   UNL A   1      43.766  25.447  27.560  1.00  0.00     0.037 A 
ATOM     59  C   UNL A   1      47.309  30.910  28.050  1.00  0.00     0.049 A 
ATOM     60  C   UNL A   1      45.188  25.799  27.195  1.00  0.00     0.074 A 
ATOM     61  C   UNL A   1      48.644  31.093  27.734  1.00  0.00     0.029 A 
ATOM     62  N   UNL A   1      47.006  29.590  27.750  1.00  0.00    -0.354 N 
ATOM     63  N   UNL A   1      45.826  26.938  27.344  1.00  0.00    -0.248 NA
ATOM     64  C   UNL A   1      46.005  24.732  26.599  1.00  0.00     0.031 C 
ATOM     65  C   UNL A   1      49.132  29.902  27.186  1.00  0.00     0.029 A 
ATOM     66  C   UNL A   1      48.123  28.955  27.230  1.00  0.00     0.049 A 
ATOM     67  H   UNL A   1      46.128  29.167  27.888  1.00  0.00     0.167 HD
ATOM     68  C   UNL A   1      47.125  26.710  26.897  1.00  0.00     0.074 A 
ATOM     69  C   UNL A   1      47.186  25.323  26.488  1.00  0.00     0.031 C 
ATOM     70  C   UNL A   1      48.174  27.570  26.833  1.00  0.00     0.037 A 
BRANCH  57  71
ATOM     71  C   UNL A   1      46.856  33.281  28.798  1.00  0.00     0.058 A 
ATOM     72  C   UNL A   1      46.761  34.262  27.797  1.00  0.00     0.135 A 
ATOM     73  C   UNL A   1      47.370  33.671  30.046  1.00  0.00     0.135 A 
ATOM     74  F   UNL A   1      46.297  33.943  26.578  1.00  0.00    -0.206 F 
ATOM     75  C   UNL A   1      47.172  35.572  28.021  1.00  0.00     0.059 A 
ATOM     76  C   UNL A   1      47.757  34.983  30.301  1.00  0.00     0.059 A 
ATOM     77  F   UNL A   1      47.489  32.773  31.037  1.00  0.00    -0.206 F 
ATOM     78  C   UNL A   1      47.662  35.925  29.279  1.00  0.00     0.060 A 
BRANCH  78  79
ATOM     79  S   UNL A   1      48.155  37.638  29.564  1.00  0.00     0.124 S 
ATOM     80  O   UNL A   1      46.907  38.227  30.043  1.00  0.00    -0.237 OA
ATOM     81  O   UNL A   1      49.212  37.496  30.560  1.00  0.00    -0.237 OA
ATOM     82  O   UNL A   1      48.595  38.090  28.248  1.00  0.00    -0.744 OA
ENDBRANCH  78  79
ENDBRANCH  57  71
BRANCH  58  83
ATOM     83  C   UNL A   1      43.232  24.085  27.282  1.00  0.00     0.058 A 
ATOM     84  C   UNL A   1      43.148  23.110  28.289  1.00  0.00     0.135 A 
ATOM     85  C   UNL A   1      42.825  23.718  25.989  1.00  0.00     0.135 A 
ATOM     86  F   UNL A   1      43.535  23.402  29.539  1.00  0.00    -0.206 F 
ATOM     87  C   UNL A   1      42.710  21.816  28.020  1.00  0.00     0.059 A 
ATOM     88  C   UNL A   1      42.352  22.441  25.702  1.00  0.00     0.059 A 
ATOM     89  F   UNL A   1      42.874  24.612  24.989  1.00  0.00    -0.206 F 
ATOM     90  C   UNL A   1      42.313  21.492  26.722  1.00  0.00     0.060 A 
BRANCH  90  91
ATOM     91  S   UNL A   1      41.720  19.818  26.388  1.00  0.00     0.124 S 
ATOM     92  O   UNL A   1      40.294  20.047  26.186  1.00  0.00    -0.237 OA
ATOM     93  O   UNL A   1      42.485  19.455  25.200  1.00  0.00    -0.237 OA
ATOM     94  O   UNL A   1      42.075  19.088  27.602  1.00  0.00    -0.744 OA
ENDBRANCH  90  91
ENDBRANCH  58  83
BRANCH  70  95
ATOM     95  C   UNL A   1      49.495  27.019  26.358  1.00  0.00     0.058 A 
ATOM     96  C   UNL A   1      49.912  27.120  25.021  1.00  0.00     0.135 A 
ATOM     97  C   UNL A   1      50.364  26.387  27.265  1.00  0.00     0.135 A 
ATOM     98  F   UNL A   1      49.125  27.716  24.111  1.00  0.00    -0.206 F 
ATOM     99  C   UNL A   1      51.114  26.566  24.588  1.00  0.00     0.059 A 
ATOM    100  C   UNL A   1      51.587  25.860  26.862  1.00  0.00     0.059 A 
ATOM    101  F   UNL A   1      50.030  26.279  28.560  1.00  0.00    -0.206 F 
ATOM    102  C   UNL A   1      51.941  25.931  25.516  1.00  0.00     0.060 A 
BRANCH 102 103
ATOM    103  S   UNL A   1      53.486  25.196  24.940  1.00  0.00     0.124 S 
ATOM    104  O   UNL A   1      53.493  25.590  23.535  1.00  0.00    -0.237 OA
ATOM    105  O   UNL A   1      54.479  25.851  25.787  1.00  0.00    -0.237 OA
ATOM    106  O   UNL A   1      53.300  23.770  25.191  1.00  0.00    -0.744 OA
ENDBRANCH 102 103
ENDBRANCH  70  95
ENDBRANCH  44  45
ENDBRANCH  37  39
ENDBRANCH  36  37
ENDBRANCH  35  36
ENDBRANCH  34  35
ENDBRANCH  33  34
ENDBRANCH   1  33
TORSDOF 23
ENDMDL
MODEL 2
REMARK VINA RESULT:     -10.8      0.979      7.967
REMARK SMILES O=C1[NH+]=C(Nc2ccc(C(=O)OCCOCCOCCOC(=O)c3ccc(-c4c5nc(c(-c6c(F)cc(S(=O)(=O)[O-])cc6F)c6ccc([nH]6)c(-c6c(F)cc(S(=O)(=O)[O-])cc6F)c6nc(c(-c7c(F)cc(S(=O)(=O)[O-])cc7F)c7ccc4[nH]7)C=C6)C=C5)cc3)c(O)c2)S/C1=C\c1ccc[nH]1
REMARK SMILES IDX 17 1 16 2 15 3 14 4 13 5 12 6 10 7 11 8 9 9 6 10 7 11 92 12
REMARK SMILES IDX 8 13 90 14 5 15 1 16 2 17 3 18 94 19 4 20 93 22 95 23 96 25
REMARK SMILES IDX 97 26 100 27 98 28 99 29 91 31 18 33 19 34 20 35 21 36 22 37
REMARK SMILES IDX 23 38 24 39 25 40 89 41 26 42 88 43 27 44 28 45 29 46 82 47
REMARK SMILES IDX 30 48 87 49 81 50 83 51 31 52 86 53 80 54 79 55 32 57 66 58
REMARK SMILES IDX 45 59 65 60 46 61 49 62 64 63 84 64 47 65 48 66 63 68 85 69
REMARK SMILES IDX 50 70 33 71 34 72 43 73 35 74 36 75 42 76 44 77 37 78 38 79
REMARK SMILES IDX 39 80 40 81 41 82 67 83 68 84 77 85 69 86 70 87 76 88 78 89
REMARK SMILES IDX 71 90 72 91 73 92 74 93 75 94 51 95 52 96 61 97 53 98 54 99
REMARK SMILES IDX 60 100 62 101 55 102 56 103 57 104 58 105 59 106
REMARK H PARENT 3 21 5 24 100 30 91 32 83 56 49 67
REMARK Flexibility Score: inf
ROOT
ATOM      1  C   UNL A   1      34.682  36.259  32.914  1.00  0.00     0.188 C 
ENDROOT
BRANCH   1   2
ATOM      2  C   UNL A   1      33.369  35.638  32.389  1.00  0.00     0.188 C 
BRANCH   2   3
ATOM      3  O   UNL A   1      32.840  36.059  31.138  1.00  0.00    -0.376 OA
BRANCH   3   4
ATOM      4  C   UNL A   1      33.111  35.317  29.957  1.00  0.00     0.202 C 
BRANCH   4   5
ATOM      5  C   UNL A   1      34.046  34.092  29.976  1.00  0.00     0.261 C 
BRANCH   5   6
ATOM      6  O   UNL A   1      33.660  32.987  29.140  1.00  0.00    -0.460 OA
BRANCH   6   7
ATOM      7  C   UNL A   1      34.477  32.750  28.078  1.00  0.00     0.341 C 
ATOM      8  O   UNL A   1      35.360  33.480  27.663  1.00  0.00    -0.246 OA
BRANCH   7   9
ATOM      9  C   UNL A   1      34.272  31.369  27.582  1.00  0.00     0.102 A 
ATOM     10  C   UNL A   1      34.065  28.736  26.601  1.00  0.00     0.129 A 
ATOM     11  C   UNL A   1      35.210  29.145  27.291  1.00  0.00     0.053 A 
ATOM     12  C   UNL A   1      33.001  29.641  26.465  1.00  0.00     0.098 A 
ATOM     13  C   UNL A   1      35.330  30.463  27.742  1.00  0.00     0.024 A 
ATOM     14  C   UNL A   1      33.085  30.930  26.994  1.00  0.00     0.134 A 
BRANCH  10  15
ATOM     15  N   UNL A   1      33.969  27.469  26.015  1.00  0.00    -0.234 N 
ATOM     16  O   UNL A   1      29.699  25.685  26.540  1.00  0.00    -0.240 OA
ATOM     17  C   UNL A   1      30.907  25.699  26.329  1.00  0.00     0.346 C 
ATOM     18  N   UNL A   1      31.717  26.802  26.488  1.00  0.00    -0.199 N 
ATOM     19  C   UNL A   1      31.658  24.519  25.804  1.00  0.00     0.111 C 
ATOM     20  C   UNL A   1      32.930  26.595  26.101  1.00  0.00     0.322 C 
ATOM     21  H   UNL A   1      31.404  27.658  26.858  1.00  0.00     0.316 HD
ATOM     22  S   UNL A   1      33.293  24.974  25.537  1.00  0.00     0.006 SA
ATOM     23  C   UNL A   1      31.063  23.343  25.555  1.00  0.00     0.050 C 
ATOM     24  H   UNL A   1      34.742  27.177  25.479  1.00  0.00     0.313 HD
BRANCH  23  25
ATOM     25  C   UNL A   1      31.759  22.198  25.094  1.00  0.00     0.039 A 
ATOM     26  C   UNL A   1      32.252  21.808  23.864  1.00  0.00     0.027 A 
ATOM     27  N   UNL A   1      32.102  21.222  25.999  1.00  0.00    -0.362 N 
ATOM     28  C   UNL A   1      32.883  20.552  24.029  1.00  0.00     0.020 A 
ATOM     29  C   UNL A   1      32.762  20.206  25.355  1.00  0.00     0.083 A 
ATOM     30  H   UNL A   1      31.905  21.250  26.964  1.00  0.00     0.166 HD
ENDBRANCH  23  25
ENDBRANCH  10  15
BRANCH  14  31
ATOM     31  O   UNL A   1      31.956  31.697  26.923  1.00  0.00    -0.507 OA
ATOM     32  H   UNL A   1      32.026  32.627  26.828  1.00  0.00     0.293 HD
ENDBRANCH  14  31
ENDBRANCH   7   9
ENDBRANCH   6   7
ENDBRANCH   5   6
ENDBRANCH   4   5
ENDBRANCH   3   4
ENDBRANCH   2   3
ENDBRANCH   1   2
BRANCH   1  33
ATOM     33  O   UNL A   1      35.485  35.348  33.634  1.00  0.00    -0.376 OA
BRANCH  33  34
ATOM     34  C   UNL A   1      35.712  34.071  33.056  1.00  0.00     0.202 C 
BRANCH  34  35
ATOM     35  C   UNL A   1      36.867  33.783  32.069  1.00  0.00     0.261 C 
BRANCH  35  36
ATOM     36  O   UNL A   1      37.557  32.529  32.170  1.00  0.00    -0.460 OA
BRANCH  36  37
ATOM     37  C   UNL A   1      37.080  31.509  31.419  1.00  0.00     0.338 C 
ATOM     38  O   UNL A   1      35.912  31.289  31.153  1.00  0.00    -0.246 OA
BRANCH  37  39
ATOM     39  C   UNL A   1      38.222  30.795  30.803  1.00  0.00     0.060 A 
ATOM     40  C   UNL A   1      39.142  30.151  31.640  1.00  0.00     0.016 A 
ATOM     41  C   UNL A   1      38.414  30.807  29.419  1.00  0.00     0.016 A 
ATOM     42  C   UNL A   1      40.290  29.570  31.101  1.00  0.00     0.010 A 
ATOM     43  C   UNL A   1      39.576  30.236  28.881  1.00  0.00     0.010 A 
ATOM     44  C   UNL A   1      40.543  29.659  29.725  1.00  0.00    -0.014 A 
BRANCH  44  45
ATOM     45  C   UNL A   1      41.910  29.357  29.223  1.00  0.00     0.031 A 
ATOM     46  C   UNL A   1      42.189  27.971  28.697  1.00  0.00     0.074 A 
ATOM     47  C   UNL A   1      42.868  30.303  29.172  1.00  0.00     0.049 A 
ATOM     48  N   UNL A   1      43.291  27.477  28.195  1.00  0.00    -0.248 NA
ATOM     49  C   UNL A   1      41.073  27.011  28.750  1.00  0.00     0.031 C 
ATOM     50  C   UNL A   1      42.716  31.685  29.622  1.00  0.00     0.029 A 
ATOM     51  N   UNL A   1      44.162  30.238  28.716  1.00  0.00    -0.354 N 
ATOM     52  C   UNL A   1      43.003  26.153  27.877  1.00  0.00     0.074 A 
ATOM     53  C   UNL A   1      41.637  25.908  28.280  1.00  0.00     0.031 C 
ATOM     54  C   UNL A   1      43.876  32.337  29.425  1.00  0.00     0.029 A 
ATOM     55  C   UNL A   1      44.859  31.413  28.857  1.00  0.00     0.049 A 
ATOM     56  H   UNL A   1      44.554  29.423  28.324  1.00  0.00     0.167 HD
ATOM     57  C   UNL A   1      43.800  25.228  27.291  1.00  0.00     0.037 A 
ATOM     58  C   UNL A   1      46.144  31.706  28.574  1.00  0.00     0.037 A 
ATOM     59  C   UNL A   1      45.156  25.479  26.876  1.00  0.00     0.049 A 
ATOM     60  C   UNL A   1      47.024  30.646  27.955  1.00  0.00     0.074 A 
ATOM     61  C   UNL A   1      46.037  24.615  26.249  1.00  0.00     0.029 A 
ATOM     62  N   UNL A   1      45.830  26.678  27.049  1.00  0.00    -0.354 N 
ATOM     63  N   UNL A   1      46.729  29.407  27.635  1.00  0.00    -0.248 NA
ATOM     64  C   UNL A   1      48.408  31.030  27.643  1.00  0.00     0.031 C 
ATOM     65  C   UNL A   1      47.262  25.272  26.098  1.00  0.00     0.029 A 
ATOM     66  C   UNL A   1      47.124  26.569  26.563  1.00  0.00     0.049 A 
ATOM     67  H   UNL A   1      45.446  27.489  27.456  1.00  0.00     0.167 HD
ATOM     68  C   UNL A   1      47.878  28.880  27.050  1.00  0.00     0.074 A 
ATOM     69  C   UNL A   1      48.866  29.938  27.047  1.00  0.00     0.031 C 
ATOM     70  C   UNL A   1      48.096  27.633  26.557  1.00  0.00     0.037 A 
BRANCH  57  71
ATOM     71  C   UNL A   1      43.237  23.848  27.079  1.00  0.00     0.058 A 
ATOM     72  C   UNL A   1      43.194  22.893  28.108  1.00  0.00     0.135 A 
ATOM     73  C   UNL A   1      42.683  23.493  25.837  1.00  0.00     0.135 A 
ATOM     74  F   UNL A   1      43.727  23.168  29.309  1.00  0.00    -0.206 F 
ATOM     75  C   UNL A   1      42.636  21.633  27.910  1.00  0.00     0.059 A 
ATOM     76  C   UNL A   1      42.092  22.251  25.627  1.00  0.00     0.059 A 
ATOM     77  F   UNL A   1      42.702  24.364  24.816  1.00  0.00    -0.206 F 
ATOM     78  C   UNL A   1      42.080  21.325  26.668  1.00  0.00     0.060 A 
BRANCH  78  79
ATOM     79  S   UNL A   1      41.326  19.700  26.440  1.00  0.00     0.124 S 
ATOM     80  O   UNL A   1      42.205  19.107  25.435  1.00  0.00    -0.237 OA
ATOM     81  O   UNL A   1      41.415  19.125  27.778  1.00  0.00    -0.237 OA
ATOM     82  O   UNL A   1      39.975  20.012  25.984  1.00  0.00    -0.744 OA
ENDBRANCH  78  79
ENDBRANCH  57  71
BRANCH  58  83
ATOM     83  C   UNL A   1      46.693  33.058  28.877  1.00  0.00     0.058 A 
ATOM     84  C   UNL A   1      47.256  33.358  30.127  1.00  0.00     0.135 A 
ATOM     85  C   UNL A   1      46.632  34.091  27.928  1.00  0.00     0.135 A 
ATOM     86  F   UNL A   1      47.327  32.412  31.075  1.00  0.00    -0.206 F 
ATOM     87  C   UNL A   1      47.710  34.637  30.437  1.00  0.00     0.059 A 
ATOM     88  C   UNL A   1      47.111  35.369  28.202  1.00  0.00     0.059 A 
ATOM     89  F   UNL A   1      46.113  33.858  26.712  1.00  0.00    -0.206 F 
ATOM     90  C   UNL A   1      47.634  35.636  29.465  1.00  0.00     0.060 A 
BRANCH  90  91
ATOM     91  S   UNL A   1      48.252  37.285  29.867  1.00  0.00     0.124 S 
ATOM     92  O   UNL A   1      48.407  37.197  31.314  1.00  0.00    -0.237 OA
ATOM     93  O   UNL A   1      49.489  37.344  29.094  1.00  0.00    -0.237 OA
ATOM     94  O   UNL A   1      47.187  38.167  29.399  1.00  0.00    -0.744 OA
ENDBRANCH  90  91
ENDBRANCH  58  83
BRANCH  70  95
ATOM     95  C   UNL A   1      49.436  27.364  25.918  1.00  0.00     0.058 A 
ATOM     96  C   UNL A   1      49.630  27.434  24.529  1.00  0.00     0.135 A 
ATOM     97  C   UNL A   1      50.547  27.042  26.715  1.00  0.00     0.135 A 
ATOM     98  F   UNL A   1      48.605  27.741  23.717  1.00  0.00    -0.206 F 
ATOM     99  C   UNL A   1      50.861  27.138  23.949  1.00  0.00     0.059 A 
ATOM    100  C   UNL A   1      51.796  26.780  26.161  1.00  0.00     0.059 A 
ATOM    101  F   UNL A   1      50.428  26.981  28.051  1.00  0.00    -0.206 F 
ATOM    102  C   UNL A   1      51.936  26.804  24.775  1.00  0.00     0.060 A 
BRANCH 102 103
ATOM    103  S   UNL A   1      53.522  26.400  24.012  1.00  0.00     0.124 S 
ATOM    104  O   UNL A   1      53.701  25.012  24.424  1.00  0.00    -0.237 OA
ATOM    105  O   UNL A   1      53.250  26.610  22.593  1.00  0.00    -0.237 OA
ATOM    106  O   UNL A   1      54.444  27.358  24.615  1.00  0.00    -0.744 OA
ENDBRANCH 102 103
ENDBRANCH  70  95
ENDBRANCH  44  45
ENDBRANCH  37  39
ENDBRANCH  36  37
ENDBRANCH  35  36
ENDBRANCH  34  35
ENDBRANCH  33  34
ENDBRANCH   1  33
TORSDOF 23
ENDMDL
MODEL 3
REMARK VINA RESULT:     -10.7      1.078      8.028
REMARK SMILES O=C1[NH+]=C(Nc2ccc(C(=O)OCCOCCOCCOC(=O)c3ccc(-c4c5nc(c(-c6c(F)cc(S(=O)(=O)[O-])cc6F)c6ccc([nH]6)c(-c6c(F)cc(S(=O)(=O)[O-])cc6F)c6nc(c(-c7c(F)cc(S(=O)(=O)[O-])cc7F)c7ccc4[nH]7)C=C6)C=C5)cc3)c(O)c2)S/C1=C\c1ccc[nH]1
REMARK SMILES IDX 17 1 16 2 15 3 14 4 13 5 12 6 10 7 11 8 9 9 6 10 7 11 92 12
REMARK SMILES IDX 8 13 90 14 5 15 1 16 2 17 3 18 94 19 4 20 93 22 95 23 96 25
REMARK SMILES IDX 97 26 100 27 98 28 99 29 91 31 18 33 19 34 20 35 21 36 22 37
REMARK SMILES IDX 23 38 24 39 25 40 89 41 26 42 88 43 27 44 28 45 29 46 82 47
REMARK SMILES IDX 30 48 87 49 81 50 83 51 31 52 86 53 80 54 79 55 32 57 66 58
REMARK SMILES IDX 45 59 65 60 46 61 49 62 64 63 84 64 47 65 48 66 63 68 85 69
REMARK SMILES IDX 50 70 33 71 34 72 43 73 35 74 36 75 42 76 44 77 37 78 38 79
REMARK SMILES IDX 39 80 40 81 41 82 67 83 68 84 77 85 69 86 70 87 76 88 78 89
REMARK SMILES IDX 71 90 72 91 73 92 74 93 75 94 51 95 52 96 61 97 53 98 54 99
REMARK SMILES IDX 60 100 62 101 55 102 56 103 57 104 58 105 59 106
REMARK H PARENT 3 21 5 24 100 30 91 32 83 56 49 67
REMARK Flexibility Score: inf
ROOT
ATOM      1  C   UNL A   1      34.729  36.389  33.177  1.00  0.00     0.188 C 
ENDROOT
BRANCH   1   2
ATOM      2  C   UNL A   1      33.336  35.767  32.936  1.00  0.00     0.188 C 
BRANCH   2   3
ATOM      3  O   UNL A   1      32.422  36.403  32.052  1.00  0.00    -0.376 OA
BRANCH   3   4
ATOM      4  C   UNL A   1      32.476  36.144  30.656  1.00  0.00     0.202 C 
BRANCH   4   5
ATOM      5  C   UNL A   1      33.196  34.901  30.097  1.00  0.00     0.261 C 
BRANCH   5   6
ATOM      6  O   UNL A   1      32.788  34.469  28.787  1.00  0.00    -0.460 OA
BRANCH   6   7
ATOM      7  C   UNL A   1      33.803  34.124  27.948  1.00  0.00     0.341 C 
ATOM      8  O   UNL A   1      34.746  34.824  27.623  1.00  0.00    -0.246 OA
BRANCH   7   9
ATOM      9  C   UNL A   1      33.710  32.685  27.608  1.00  0.00     0.102 A 
ATOM     10  C   UNL A   1      33.716  29.952  26.926  1.00  0.00     0.129 A 
ATOM     11  C   UNL A   1      34.812  30.518  27.584  1.00  0.00     0.053 A 
ATOM     12  C   UNL A   1      32.594  30.754  26.672  1.00  0.00     0.098 A 
ATOM     13  C   UNL A   1      34.826  31.884  27.886  1.00  0.00     0.024 A 
ATOM     14  C   UNL A   1      32.572  32.097  27.053  1.00  0.00     0.134 A 
BRANCH  10  15
ATOM     15  N   UNL A   1      33.726  28.624  26.486  1.00  0.00    -0.234 N 
ATOM     16  O   UNL A   1      34.209  28.381  21.860  1.00  0.00    -0.240 OA
ATOM     17  C   UNL A   1      33.926  28.010  22.994  1.00  0.00     0.346 C 
ATOM     18  N   UNL A   1      33.928  28.823  24.107  1.00  0.00    -0.199 N 
ATOM     19  C   UNL A   1      33.595  26.593  23.331  1.00  0.00     0.111 C 
ATOM     20  C   UNL A   1      33.700  28.178  25.201  1.00  0.00     0.322 C 
ATOM     21  H   UNL A   1      34.088  29.793  24.072  1.00  0.00     0.316 HD
ATOM     22  S   UNL A   1      33.373  26.463  25.031  1.00  0.00     0.006 SA
ATOM     23  C   UNL A   1      33.555  25.626  22.404  1.00  0.00     0.050 C 
ATOM     24  H   UNL A   1      33.756  27.932  27.187  1.00  0.00     0.313 HD
BRANCH  23  25
ATOM     25  C   UNL A   1      33.207  24.283  22.692  1.00  0.00     0.039 A 
ATOM     26  C   UNL A   1      33.937  23.141  22.962  1.00  0.00     0.027 A 
ATOM     27  N   UNL A   1      31.877  23.949  22.784  1.00  0.00    -0.362 N 
ATOM     28  C   UNL A   1      33.021  22.087  23.196  1.00  0.00     0.020 A 
ATOM     29  C   UNL A   1      31.755  22.610  23.064  1.00  0.00     0.083 A 
ATOM     30  H   UNL A   1      31.126  24.575  22.669  1.00  0.00     0.166 HD
ENDBRANCH  23  25
ENDBRANCH  10  15
BRANCH  14  31
ATOM     31  O   UNL A   1      31.392  32.766  26.878  1.00  0.00    -0.507 OA
ATOM     32  H   UNL A   1      31.374  33.562  26.384  1.00  0.00     0.293 HD
ENDBRANCH  14  31
ENDBRANCH   7   9
ENDBRANCH   6   7
ENDBRANCH   5   6
ENDBRANCH   4   5
ENDBRANCH   3   4
ENDBRANCH   2   3
ENDBRANCH   1   2
BRANCH   1  33
ATOM     33  O   UNL A   1      35.752  35.430  33.337  1.00  0.00    -0.376 OA
BRANCH  33  34
ATOM     34  C   UNL A   1      35.887  34.437  32.332  1.00  0.00     0.202 C 
BRANCH  34  35
ATOM     35  C   UNL A   1      37.254  33.887  31.866  1.00  0.00     0.261 C 
BRANCH  35  36
ATOM     36  O   UNL A   1      37.609  32.543  32.223  1.00  0.00    -0.460 OA
BRANCH  36  37
ATOM     37  C   UNL A   1      37.128  31.555  31.433  1.00  0.00     0.338 C 
ATOM     38  O   UNL A   1      35.963  31.372  31.129  1.00  0.00    -0.246 OA
BRANCH  37  39
ATOM     39  C   UNL A   1      38.268  30.828  30.830  1.00  0.00     0.060 A 
ATOM     40  C   UNL A   1      39.205  30.223  31.679  1.00  0.00     0.016 A 
ATOM     41  C   UNL A   1      38.444  30.788  29.444  1.00  0.00     0.016 A 
ATOM     42  C   UNL A   1      40.351  29.632  31.148  1.00  0.00     0.010 A 
ATOM     43  C   UNL A   1      39.604  30.207  28.914  1.00  0.00     0.010 A 
ATOM     44  C   UNL A   1      40.586  29.671  29.767  1.00  0.00    -0.014 A 
BRANCH  44  45
ATOM     45  C   UNL A   1      41.949  29.361  29.260  1.00  0.00     0.031 A 
ATOM     46  C   UNL A   1      42.219  27.973  28.733  1.00  0.00     0.074 A 
ATOM     47  C   UNL A   1      42.912  30.301  29.204  1.00  0.00     0.049 A 
ATOM     48  N   UNL A   1      43.317  27.472  28.227  1.00  0.00    -0.248 NA
ATOM     49  C   UNL A   1      41.098  27.019  28.791  1.00  0.00     0.031 C 
ATOM     50  C   UNL A   1      42.770  31.685  29.654  1.00  0.00     0.029 A 
ATOM     51  N   UNL A   1      44.204  30.229  28.743  1.00  0.00    -0.354 N 
ATOM     52  C   UNL A   1      43.021  26.151  27.911  1.00  0.00     0.074 A 
ATOM     53  C   UNL A   1      41.654  25.913  28.320  1.00  0.00     0.031 C 
ATOM     54  C   UNL A   1      43.933  32.330  29.451  1.00  0.00     0.029 A 
ATOM     55  C   UNL A   1      44.908  31.401  28.880  1.00  0.00     0.049 A 
ATOM     56  H   UNL A   1      44.590  29.412  28.350  1.00  0.00     0.167 HD
ATOM     57  C   UNL A   1      43.809  25.221  27.322  1.00  0.00     0.037 A 
ATOM     58  C   UNL A   1      46.194  31.687  28.591  1.00  0.00     0.037 A 
ATOM     59  C   UNL A   1      45.165  25.464  26.901  1.00  0.00     0.049 A 
ATOM     60  C   UNL A   1      47.065  30.622  27.970  1.00  0.00     0.074 A 
ATOM     61  C   UNL A   1      46.039  24.595  26.271  1.00  0.00     0.029 A 
ATOM     62  N   UNL A   1      45.847  26.660  27.071  1.00  0.00    -0.354 N 
ATOM     63  N   UNL A   1      46.763  29.384  27.652  1.00  0.00    -0.248 NA
ATOM     64  C   UNL A   1      48.450  30.998  27.652  1.00  0.00     0.031 C 
ATOM     65  C   UNL A   1      47.267  25.246  26.115  1.00  0.00     0.029 A 
ATOM     66  C   UNL A   1      47.137  26.543  26.580  1.00  0.00     0.049 A 
ATOM     67  H   UNL A   1      45.468  27.473  27.479  1.00  0.00     0.167 HD
ATOM     68  C   UNL A   1      47.906  28.851  27.063  1.00  0.00     0.074 A 
ATOM     69  C   UNL A   1      48.899  29.904  27.054  1.00  0.00     0.031 C 
ATOM     70  C   UNL A   1      48.116  27.602  26.569  1.00  0.00     0.037 A 
BRANCH  57  71
ATOM     71  C   UNL A   1      43.239  23.843  27.113  1.00  0.00     0.058 A 
ATOM     72  C   UNL A   1      42.696  23.438  25.882  1.00  0.00     0.135 A 
ATOM     73  C   UNL A   1      43.285  22.894  28.149  1.00  0.00     0.135 A 
ATOM     74  F   UNL A   1      42.606  24.308  24.863  1.00  0.00    -0.206 F 
ATOM     75  C   UNL A   1      42.207  22.149  25.691  1.00  0.00     0.059 A 
ATOM     76  C   UNL A   1      42.832  21.591  27.969  1.00  0.00     0.059 A 
ATOM     77  F   UNL A   1      43.788  23.228  29.348  1.00  0.00    -0.206 F 
ATOM     78  C   UNL A   1      42.287  21.231  26.739  1.00  0.00     0.060 A 
BRANCH  78  79
ATOM     79  S   UNL A   1      41.683  19.552  26.461  1.00  0.00     0.124 S 
ATOM     80  O   UNL A   1      42.442  19.159  25.277  1.00  0.00    -0.237 OA
ATOM     81  O   UNL A   1      42.051  18.880  27.703  1.00  0.00    -0.237 OA
ATOM     82  O   UNL A   1      40.250  19.734  26.253  1.00  0.00    -0.744 OA
ENDBRANCH  78  79
ENDBRANCH  57  71
BRANCH  58  83
ATOM     83  C   UNL A   1      46.751  33.036  28.891  1.00  0.00     0.058 A 
ATOM     84  C   UNL A   1      46.586  34.112  28.005  1.00  0.00     0.135 A 
ATOM     85  C   UNL A   1      47.493  33.267  30.061  1.00  0.00     0.135 A 
ATOM     86  F   UNL A   1      45.897  33.943  26.867  1.00  0.00    -0.206 F 
ATOM     87  C   UNL A   1      47.160  35.357  28.250  1.00  0.00     0.059 A 
ATOM     88  C   UNL A   1      48.048  34.511  30.345  1.00  0.00     0.059 A 
ATOM     89  F   UNL A   1      47.674  32.277  30.949  1.00  0.00    -0.206 F 
ATOM     90  C   UNL A   1      47.889  35.546  29.425  1.00  0.00     0.060 A 
BRANCH  90  91
ATOM     91  S   UNL A   1      48.605  37.173  29.748  1.00  0.00     0.124 S 
ATOM     92  O   UNL A   1      49.217  37.485  28.461  1.00  0.00    -0.237 OA
ATOM     93  O   UNL A   1      47.428  37.959  30.104  1.00  0.00    -0.237 OA
ATOM     94  O   UNL A   1      49.536  36.918  30.844  1.00  0.00    -0.744 OA
ENDBRANCH  90  91
ENDBRANCH  58  83
BRANCH  70  95
ATOM     95  C   UNL A   1      49.451  27.326  25.925  1.00  0.00     0.058 A 
ATOM     96  C   UNL A   1      50.584  26.968  26.673  1.00  0.00     0.135 A 
ATOM     97  C   UNL A   1      49.592  27.410  24.529  1.00  0.00     0.135 A 
ATOM     98  F   UNL A   1      50.508  26.868  28.009  1.00  0.00    -0.206 F 
ATOM     99  C   UNL A   1      51.821  26.761  26.068  1.00  0.00     0.059 A 
ATOM    100  C   UNL A   1      50.810  27.170  23.899  1.00  0.00     0.059 A 
ATOM    101  F   UNL A   1      48.539  27.727  23.759  1.00  0.00    -0.206 F 
ATOM    102  C   UNL A   1      51.924  26.872  24.680  1.00  0.00     0.060 A 
BRANCH 102 103
ATOM    103  S   UNL A   1      53.538  26.623  23.908  1.00  0.00     0.124 S 
ATOM    104  O   UNL A   1      54.051  27.988  23.855  1.00  0.00    -0.237 OA
ATOM    105  O   UNL A   1      54.203  25.731  24.853  1.00  0.00    -0.237 OA
ATOM    106  O   UNL A   1      53.209  26.026  22.617  1.00  0.00    -0.744 OA
ENDBRANCH 102 103
ENDBRANCH  70  95
ENDBRANCH  44  45
ENDBRANCH  37  39
ENDBRANCH  36  37
ENDBRANCH  35  36
ENDBRANCH  34  35
ENDBRANCH  33  34
ENDBRANCH   1  33
TORSDOF 23
ENDMDL
