MODEL 1
REMARK VINA RESULT:     -10.7      0.000      0.000
REMARK SMILES Cc1ccc([C@H]2CC(c3cccs3)=NN2C(=O)CCC(=O)OCCOCCOCCOC(=O)c2ccc(-c3c4nc(c(-c5c(F)cc(S(=O)(=O)[O-])cc5F)c5ccc([nH]5)c(-c5c(F)cc(S(=O)(=O)[O-])cc5F)c5nc(c(-c6c(F)cc(S(=O)(=O)[O-])cc6F)c6ccc3[nH]6)C=C5)C=C4)cc2)o1
REMARK SMILES IDX 26 1 25 2 24 3 23 4 22 5 20 6 21 7 19 8 18 9 16 10 17 11
REMARK SMILES IDX 15 12 6 13 7 14 8 15 14 16 5 17 1 18 2 19 3 20 100 21 4 22
REMARK SMILES IDX 9 23 10 24 13 25 11 26 12 27 27 28 28 29 29 30 30 31 31 32
REMARK SMILES IDX 32 33 33 34 34 35 35 36 99 37 36 38 98 39 37 40 38 41 39 42
REMARK SMILES IDX 92 43 40 44 97 45 91 46 93 47 41 48 96 49 90 50 89 51 42 53
REMARK SMILES IDX 76 54 55 55 75 56 56 57 59 58 74 59 94 60 57 61 58 62 73 64
REMARK SMILES IDX 95 65 60 66 43 67 44 68 53 69 45 70 46 71 52 72 54 73 47 74
REMARK SMILES IDX 48 75 49 76 50 77 51 78 77 79 78 80 87 81 79 82 80 83 86 84
REMARK SMILES IDX 88 85 81 86 82 87 83 88 84 89 85 90 61 91 62 92 71 93 63 94
REMARK SMILES IDX 64 95 70 96 72 97 65 98 66 99 67 100 68 101 69 102
REMARK H PARENT 93 52 59 63
REMARK Flexibility Score: inf
ROOT
ATOM      1  C   UNL A   1      33.198  20.297  25.930  1.00  0.00     0.188 C 
ENDROOT
BRANCH   1   2
ATOM      2  O   UNL A   1      33.463  21.261  26.969  1.00  0.00    -0.376 OA
BRANCH   2   3
ATOM      3  C   UNL A   1      32.809  22.564  27.095  1.00  0.00     0.202 C 
BRANCH   3   4
ATOM      4  C   UNL A   1      33.328  23.943  26.104  1.00  0.00     0.261 C 
BRANCH   4   5
ATOM      5  O   UNL A   1      33.450  23.822  24.521  1.00  0.00    -0.463 OA
BRANCH   5   6
ATOM      6  C   UNL A   1      33.138  24.619  23.406  1.00  0.00     0.306 C 
ATOM      7  O   UNL A   1      34.019  24.991  22.632  1.00  0.00    -0.252 OA
BRANCH   6   8
ATOM      8  C   UNL A   1      31.524  24.714  22.903  1.00  0.00     0.132 C 
BRANCH   8   9
ATOM      9  C   UNL A   1      30.380  25.704  23.286  1.00  0.00     0.114 C 
BRANCH   9  10
ATOM     10  C   UNL A   1      30.563  26.090  24.695  1.00  0.00     0.243 C 
ATOM     11  O   UNL A   1      30.110  25.457  25.639  1.00  0.00    -0.273 OA
BRANCH  10  12
ATOM     12  N   UNL A   1      31.164  27.312  24.735  1.00  0.00    -0.222 N 
ATOM     13  C   UNL A   1      31.161  28.306  23.612  1.00  0.00     0.183 C 
ATOM     14  C   UNL A   1      32.351  29.187  24.143  1.00  0.00     0.095 C 
ATOM     15  C   UNL A   1      32.654  28.658  25.504  1.00  0.00     0.081 C 
ATOM     16  N   UNL A   1      32.042  27.561  25.787  1.00  0.00    -0.173 NA
BRANCH  13  17
ATOM     17  C   UNL A   1      29.607  28.910  22.895  1.00  0.00     0.129 A 
ATOM     18  C   UNL A   1      28.189  31.504  20.715  1.00  0.00     0.087 C 
ATOM     19  C   UNL A   1      28.399  30.331  21.577  1.00  0.00     0.101 A 
ATOM     20  C   UNL A   1      27.454  29.699  22.312  1.00  0.00     0.045 A 
ATOM     21  O   UNL A   1      29.665  29.815  21.810  1.00  0.00    -0.464 OA
ATOM     22  C   UNL A   1      28.190  28.821  23.105  1.00  0.00     0.048 A 
ENDBRANCH  13  17
BRANCH  15  23
ATOM     23  C   UNL A   1      33.558  29.371  26.387  1.00  0.00     0.050 A 
ATOM     24  C   UNL A   1      34.802  28.992  26.867  1.00  0.00     0.022 A 
ATOM     25  S   UNL A   1      33.059  30.855  27.076  1.00  0.00    -0.142 S 
ATOM     26  C   UNL A   1      35.337  29.921  27.813  1.00  0.00     0.012 A 
ATOM     27  C   UNL A   1      34.485  30.983  28.019  1.00  0.00     0.065 A 
ENDBRANCH  15  23
ENDBRANCH  10  12
ENDBRANCH   9  10
ENDBRANCH   8   9
ENDBRANCH   6   8
ENDBRANCH   5   6
ENDBRANCH   4   5
ENDBRANCH   3   4
ENDBRANCH   2   3
ENDBRANCH   1   2
BRANCH   1  28
ATOM     28  C   UNL A   1      34.371  20.087  24.901  1.00  0.00     0.188 C 
BRANCH  28  29
ATOM     29  O   UNL A   1      35.280  21.161  24.659  1.00  0.00    -0.376 OA
BRANCH  29  30
ATOM     30  C   UNL A   1      36.275  21.355  25.653  1.00  0.00     0.202 C 
BRANCH  30  31
ATOM     31  C   UNL A   1      37.713  21.493  25.129  1.00  0.00     0.261 C 
BRANCH  31  32
ATOM     32  O   UNL A   1      38.338  22.750  25.454  1.00  0.00    -0.460 OA
BRANCH  32  33
ATOM     33  C   UNL A   1      39.230  22.703  26.479  1.00  0.00     0.338 C 
ATOM     34  O   UNL A   1      39.832  21.710  26.884  1.00  0.00    -0.246 OA
BRANCH  33  35
ATOM     35  C   UNL A   1      39.549  24.072  26.946  1.00  0.00     0.060 A 
ATOM     36  C   UNL A   1      40.049  25.004  26.018  1.00  0.00     0.016 A 
ATOM     37  C   UNL A   1      39.381  24.435  28.282  1.00  0.00     0.016 A 
ATOM     38  C   UNL A   1      40.452  26.274  26.438  1.00  0.00     0.010 A 
ATOM     39  C   UNL A   1      39.812  25.696  28.707  1.00  0.00     0.010 A 
ATOM     40  C   UNL A   1      40.399  26.598  27.798  1.00  0.00    -0.014 A 
BRANCH  40  41
ATOM     41  C   UNL A   1      41.203  27.727  28.334  1.00  0.00     0.031 A 
ATOM     42  C   UNL A   1      40.452  28.874  28.953  1.00  0.00     0.074 A 
ATOM     43  C   UNL A   1      42.544  27.762  28.252  1.00  0.00     0.049 A 
ATOM     44  N   UNL A   1      40.890  30.043  29.332  1.00  0.00    -0.248 NA
ATOM     45  C   UNL A   1      39.006  28.676  29.149  1.00  0.00     0.031 C 
ATOM     46  C   UNL A   1      43.375  26.690  27.726  1.00  0.00     0.029 A 
ATOM     47  N   UNL A   1      43.442  28.742  28.588  1.00  0.00    -0.354 N 
ATOM     48  C   UNL A   1      39.772  30.728  29.792  1.00  0.00     0.074 A 
ATOM     49  C   UNL A   1      38.633  29.855  29.621  1.00  0.00     0.031 C 
ATOM     50  C   UNL A   1      44.663  27.068  27.752  1.00  0.00     0.029 A 
ATOM     51  C   UNL A   1      44.741  28.440  28.247  1.00  0.00     0.049 A 
ATOM     52  H   UNL A   1      43.183  29.583  29.032  1.00  0.00     0.167 HD
ATOM     53  C   UNL A   1      39.705  31.976  30.310  1.00  0.00     0.037 A 
ATOM     54  C   UNL A   1      45.852  29.200  28.285  1.00  0.00     0.037 A 
ATOM     55  C   UNL A   1      40.849  32.834  30.469  1.00  0.00     0.049 A 
ATOM     56  C   UNL A   1      45.743  30.615  28.796  1.00  0.00     0.074 A 
ATOM     57  C   UNL A   1      40.898  34.114  30.988  1.00  0.00     0.029 A 
ATOM     58  N   UNL A   1      42.146  32.499  30.103  1.00  0.00    -0.354 N 
ATOM     59  N   UNL A   1      44.682  31.257  29.227  1.00  0.00    -0.248 NA
ATOM     60  C   UNL A   1      46.978  31.410  28.825  1.00  0.00     0.031 C 
ATOM     61  C   UNL A   1      42.214  34.575  30.883  1.00  0.00     0.029 A 
ATOM     62  C   UNL A   1      42.998  33.557  30.362  1.00  0.00     0.049 A 
ATOM     63  H   UNL A   1      42.419  31.636  29.716  1.00  0.00     0.167 HD
ATOM     64  C   UNL A   1      45.127  32.518  29.610  1.00  0.00     0.074 A 
ATOM     65  C   UNL A   1      46.555  32.544  29.365  1.00  0.00     0.031 C 
ATOM     66  C   UNL A   1      44.421  33.558  30.120  1.00  0.00     0.037 A 
BRANCH  53  67
ATOM     67  C   UNL A   1      38.350  32.495  30.701  1.00  0.00     0.058 A 
ATOM     68  C   UNL A   1      37.847  32.356  32.005  1.00  0.00     0.135 A 
ATOM     69  C   UNL A   1      37.546  33.158  29.759  1.00  0.00     0.135 A 
ATOM     70  F   UNL A   1      38.561  31.707  32.940  1.00  0.00    -0.206 F 
ATOM     71  C   UNL A   1      36.589  32.834  32.355  1.00  0.00     0.059 A 
ATOM     72  C   UNL A   1      36.297  33.672  30.096  1.00  0.00     0.059 A 
ATOM     73  F   UNL A   1      37.971  33.309  28.495  1.00  0.00    -0.206 F 
ATOM     74  C   UNL A   1      35.822  33.494  31.393  1.00  0.00     0.060 A 
BRANCH  74  75
ATOM     75  S   UNL A   1      34.197  34.121  31.867  1.00  0.00     0.124 S 
ATOM     76  O   UNL A   1      34.557  35.295  32.655  1.00  0.00    -0.237 OA
ATOM     77  O   UNL A   1      33.580  34.390  30.573  1.00  0.00    -0.237 OA
ATOM     78  O   UNL A   1      33.612  33.017  32.620  1.00  0.00    -0.744 OA
ENDBRANCH  74  75
ENDBRANCH  53  67
BRANCH  54  79
ATOM     79  C   UNL A   1      47.153  28.656  27.806  1.00  0.00     0.058 A 
ATOM     80  C   UNL A   1      47.496  28.688  26.446  1.00  0.00     0.135 A 
ATOM     81  C   UNL A   1      48.082  28.095  28.697  1.00  0.00     0.135 A 
ATOM     82  F   UNL A   1      46.639  29.202  25.551  1.00  0.00    -0.206 F 
ATOM     83  C   UNL A   1      48.704  28.174  25.984  1.00  0.00     0.059 A 
ATOM     84  C   UNL A   1      49.308  27.599  28.264  1.00  0.00     0.059 A 
ATOM     85  F   UNL A   1      47.811  28.047  30.011  1.00  0.00    -0.206 F 
ATOM     86  C   UNL A   1      49.606  27.635  26.903  1.00  0.00     0.060 A 
BRANCH  86  87
ATOM     87  S   UNL A   1      51.197  27.024  26.301  1.00  0.00     0.124 S 
ATOM     88  O   UNL A   1      51.802  26.519  27.528  1.00  0.00    -0.237 OA
ATOM     89  O   UNL A   1      50.786  26.018  25.327  1.00  0.00    -0.237 OA
ATOM     90  O   UNL A   1      51.819  28.217  25.733  1.00  0.00    -0.744 OA
ENDBRANCH  86  87
ENDBRANCH  54  79
BRANCH  66  91
ATOM     91  C   UNL A   1      45.185  34.798  30.495  1.00  0.00     0.058 A 
ATOM     92  C   UNL A   1      45.372  35.857  29.594  1.00  0.00     0.135 A 
ATOM     93  C   UNL A   1      45.685  34.950  31.799  1.00  0.00     0.135 A 
ATOM     94  F   UNL A   1      44.920  35.761  28.334  1.00  0.00    -0.206 F 
ATOM     95  C   UNL A   1      46.049  37.014  29.965  1.00  0.00     0.059 A 
ATOM     96  C   UNL A   1      46.335  36.112  32.203  1.00  0.00     0.059 A 
ATOM     97  F   UNL A   1      45.522  33.972  32.706  1.00  0.00    -0.206 F 
ATOM     98  C   UNL A   1      46.524  37.134  31.272  1.00  0.00     0.060 A 
BRANCH  98  99
ATOM     99  S   UNL A   1      47.370  38.655  31.750  1.00  0.00     0.124 S 
ATOM    100  O   UNL A   1      46.964  38.792  33.144  1.00  0.00    -0.237 OA
ATOM    101  O   UNL A   1      48.772  38.313  31.528  1.00  0.00    -0.237 OA
ATOM    102  O   UNL A   1      46.822  39.652  30.834  1.00  0.00    -0.744 OA
ENDBRANCH  98  99
ENDBRANCH  66  91
ENDBRANCH  40  41
ENDBRANCH  33  35
ENDBRANCH  32  33
ENDBRANCH  31  32
ENDBRANCH  30  31
ENDBRANCH  29  30
ENDBRANCH  28  29
ENDBRANCH   1  28
TORSDOF 25
ENDMDL
MODEL 2
REMARK VINA RESULT:     -10.6      1.148      2.950
REMARK SMILES Cc1ccc([C@H]2CC(c3cccs3)=NN2C(=O)CCC(=O)OCCOCCOCCOC(=O)c2ccc(-c3c4nc(c(-c5c(F)cc(S(=O)(=O)[O-])cc5F)c5ccc([nH]5)c(-c5c(F)cc(S(=O)(=O)[O-])cc5F)c5nc(c(-c6c(F)cc(S(=O)(=O)[O-])cc6F)c6ccc3[nH]6)C=C5)C=C4)cc2)o1
REMARK SMILES IDX 26 1 25 2 24 3 23 4 22 5 20 6 21 7 19 8 18 9 16 10 17 11
REMARK SMILES IDX 15 12 6 13 7 14 8 15 14 16 5 17 1 18 2 19 3 20 100 21 4 22
REMARK SMILES IDX 9 23 10 24 13 25 11 26 12 27 27 28 28 29 29 30 30 31 31 32
REMARK SMILES IDX 32 33 33 34 34 35 35 36 99 37 36 38 98 39 37 40 38 41 39 42
REMARK SMILES IDX 92 43 40 44 97 45 91 46 93 47 41 48 96 49 90 50 89 51 42 53
REMARK SMILES IDX 76 54 55 55 75 56 56 57 59 58 74 59 94 60 57 61 58 62 73 64
REMARK SMILES IDX 95 65 60 66 43 67 44 68 53 69 45 70 46 71 52 72 54 73 47 74
REMARK SMILES IDX 48 75 49 76 50 77 51 78 77 79 78 80 87 81 79 82 80 83 86 84
REMARK SMILES IDX 88 85 81 86 82 87 83 88 84 89 85 90 61 91 62 92 71 93 63 94
REMARK SMILES IDX 64 95 70 96 72 97 65 98 66 99 67 100 68 101 69 102
REMARK H PARENT 93 52 59 63
REMARK Flexibility Score: inf
ROOT
ATOM      1  C   UNL A   1      33.351  21.427  25.048  1.00  0.00     0.188 C 
ENDROOT
BRANCH   1   2
ATOM      2  O   UNL A   1      32.963  21.823  26.378  1.00  0.00    -0.376 OA
BRANCH   2   3
ATOM      3  C   UNL A   1      32.339  23.101  26.727  1.00  0.00     0.202 C 
BRANCH   3   4
ATOM      4  C   UNL A   1      30.767  23.563  26.045  1.00  0.00     0.261 C 
BRANCH   4   5
ATOM      5  O   UNL A   1      30.600  23.876  24.492  1.00  0.00    -0.463 OA
BRANCH   5   6
ATOM      6  C   UNL A   1      30.631  25.013  23.668  1.00  0.00     0.306 C 
ATOM      7  O   UNL A   1      29.719  25.841  23.703  1.00  0.00    -0.252 OA
BRANCH   6   8
ATOM      8  C   UNL A   1      32.097  25.453  22.945  1.00  0.00     0.132 C 
BRANCH   8   9
ATOM      9  C   UNL A   1      33.318  26.257  23.493  1.00  0.00     0.114 C 
BRANCH   9  10
ATOM     10  C   UNL A   1      33.368  27.548  22.786  1.00  0.00     0.243 C 
ATOM     11  O   UNL A   1      34.238  27.849  21.980  1.00  0.00    -0.273 OA
BRANCH  10  12
ATOM     12  N   UNL A   1      32.403  28.361  23.299  1.00  0.00    -0.222 N 
ATOM     13  C   UNL A   1      32.066  28.480  24.756  1.00  0.00     0.183 C 
ATOM     14  C   UNL A   1      30.661  29.162  24.565  1.00  0.00     0.095 C 
ATOM     15  C   UNL A   1      30.567  29.464  23.108  1.00  0.00     0.081 C 
ATOM     16  N   UNL A   1      31.507  28.938  22.402  1.00  0.00    -0.173 NA
BRANCH  13  17
ATOM     17  C   UNL A   1      33.328  28.931  25.979  1.00  0.00     0.129 A 
ATOM     18  C   UNL A   1      34.575  31.715  28.025  1.00  0.00     0.087 C 
ATOM     19  C   UNL A   1      34.334  30.403  27.406  1.00  0.00     0.101 A 
ATOM     20  C   UNL A   1      35.219  29.381  27.328  1.00  0.00     0.045 A 
ATOM     21  O   UNL A   1      33.162  30.125  26.719  1.00  0.00    -0.464 OA
ATOM     22  C   UNL A   1      34.598  28.477  26.469  1.00  0.00     0.048 A 
ENDBRANCH  13  17
BRANCH  15  23
ATOM     23  C   UNL A   1      29.492  30.294  22.596  1.00  0.00     0.050 A 
ATOM     24  C   UNL A   1      28.969  30.365  21.314  1.00  0.00     0.022 A 
ATOM     25  S   UNL A   1      28.778  31.465  23.618  1.00  0.00    -0.142 S 
ATOM     26  C   UNL A   1      27.987  31.396  21.174  1.00  0.00     0.012 A 
ATOM     27  C   UNL A   1      27.790  32.073  22.357  1.00  0.00     0.065 A 
ENDBRANCH  15  23
ENDBRANCH  10  12
ENDBRANCH   9  10
ENDBRANCH   8   9
ENDBRANCH   6   8
ENDBRANCH   5   6
ENDBRANCH   4   5
ENDBRANCH   3   4
ENDBRANCH   2   3
ENDBRANCH   1   2
BRANCH   1  28
ATOM     28  C   UNL A   1      34.154  20.075  24.963  1.00  0.00     0.188 C 
BRANCH  28  29
ATOM     29  O   UNL A   1      35.581  20.119  24.916  1.00  0.00    -0.376 OA
BRANCH  29  30
ATOM     30  C   UNL A   1      36.149  21.413  24.777  1.00  0.00     0.202 C 
BRANCH  30  31
ATOM     31  C   UNL A   1      37.651  21.511  25.088  1.00  0.00     0.261 C 
BRANCH  31  32
ATOM     32  O   UNL A   1      38.055  22.783  25.630  1.00  0.00    -0.460 OA
BRANCH  32  33
ATOM     33  C   UNL A   1      39.141  22.742  26.447  1.00  0.00     0.338 C 
ATOM     34  O   UNL A   1      39.863  21.769  26.661  1.00  0.00    -0.246 OA
BRANCH  33  35
ATOM     35  C   UNL A   1      39.481  24.105  26.918  1.00  0.00     0.060 A 
ATOM     36  C   UNL A   1      40.022  25.023  26.000  1.00  0.00     0.016 A 
ATOM     37  C   UNL A   1      39.293  24.474  28.250  1.00  0.00     0.016 A 
ATOM     38  C   UNL A   1      40.445  26.285  26.427  1.00  0.00     0.010 A 
ATOM     39  C   UNL A   1      39.742  25.726  28.682  1.00  0.00     0.010 A 
ATOM     40  C   UNL A   1      40.369  26.613  27.784  1.00  0.00    -0.014 A 
BRANCH  40  41
ATOM     41  C   UNL A   1      41.187  27.725  28.336  1.00  0.00     0.031 A 
ATOM     42  C   UNL A   1      40.450  28.871  28.971  1.00  0.00     0.074 A 
ATOM     43  C   UNL A   1      42.528  27.745  28.254  1.00  0.00     0.049 A 
ATOM     44  N   UNL A   1      40.902  30.029  29.367  1.00  0.00    -0.248 NA
ATOM     45  C   UNL A   1      39.002  28.688  29.165  1.00  0.00     0.031 C 
ATOM     46  C   UNL A   1      43.346  26.670  27.711  1.00  0.00     0.029 A 
ATOM     47  N   UNL A   1      43.438  28.710  28.603  1.00  0.00    -0.354 N 
ATOM     48  C   UNL A   1      39.792  30.721  29.837  1.00  0.00     0.074 A 
ATOM     49  C   UNL A   1      38.643  29.864  29.655  1.00  0.00     0.031 C 
ATOM     50  C   UNL A   1      44.639  27.033  27.743  1.00  0.00     0.029 A 
ATOM     51  C   UNL A   1      44.733  28.397  28.256  1.00  0.00     0.049 A 
ATOM     52  H   UNL A   1      43.189  29.547  29.059  1.00  0.00     0.167 HD
ATOM     53  C   UNL A   1      39.740  31.962  30.373  1.00  0.00     0.037 A 
ATOM     54  C   UNL A   1      45.853  29.144  28.305  1.00  0.00     0.037 A 
ATOM     55  C   UNL A   1      40.894  32.805  30.543  1.00  0.00     0.049 A 
ATOM     56  C   UNL A   1      45.761  30.552  28.836  1.00  0.00     0.074 A 
ATOM     57  C   UNL A   1      40.958  34.077  31.080  1.00  0.00     0.029 A 
ATOM     58  N   UNL A   1      42.186  32.460  30.172  1.00  0.00    -0.354 N 
ATOM     59  N   UNL A   1      44.708  31.200  29.276  1.00  0.00    -0.248 NA
ATOM     60  C   UNL A   1      47.005  31.333  28.875  1.00  0.00     0.031 C 
ATOM     61  C   UNL A   1      42.280  34.523  30.981  1.00  0.00     0.029 A 
ATOM     62  C   UNL A   1      43.051  33.504  30.445  1.00  0.00     0.049 A 
ATOM     63  H   UNL A   1      42.449  31.599  29.772  1.00  0.00     0.167 HD
ATOM     64  C   UNL A   1      45.168  32.450  29.677  1.00  0.00     0.074 A 
ATOM     65  C   UNL A   1      46.595  32.463  29.432  1.00  0.00     0.031 C 
ATOM     66  C   UNL A   1      44.474  33.491  30.202  1.00  0.00     0.037 A 
BRANCH  53  67
ATOM     67  C   UNL A   1      38.391  32.492  30.773  1.00  0.00     0.058 A 
ATOM     68  C   UNL A   1      37.872  32.307  32.064  1.00  0.00     0.135 A 
ATOM     69  C   UNL A   1      37.611  33.210  29.852  1.00  0.00     0.135 A 
ATOM     70  F   UNL A   1      38.562  31.604  32.977  1.00  0.00    -0.206 F 
ATOM     71  C   UNL A   1      36.619  32.795  32.422  1.00  0.00     0.059 A 
ATOM     72  C   UNL A   1      36.369  33.735  30.197  1.00  0.00     0.059 A 
ATOM     73  F   UNL A   1      38.052  33.407  28.600  1.00  0.00    -0.206 F 
ATOM     74  C   UNL A   1      35.876  33.511  31.481  1.00  0.00     0.060 A 
BRANCH  74  75
ATOM     75  S   UNL A   1      34.259  34.150  31.965  1.00  0.00     0.124 S 
ATOM     76  O   UNL A   1      33.666  32.983  32.611  1.00  0.00    -0.237 OA
ATOM     77  O   UNL A   1      34.614  35.253  32.851  1.00  0.00    -0.237 OA
ATOM     78  O   UNL A   1      33.652  34.538  30.696  1.00  0.00    -0.744 OA
ENDBRANCH  74  75
ENDBRANCH  53  67
BRANCH  54  79
ATOM     79  C   UNL A   1      47.147  28.591  27.817  1.00  0.00     0.058 A 
ATOM     80  C   UNL A   1      47.511  28.681  26.465  1.00  0.00     0.135 A 
ATOM     81  C   UNL A   1      48.049  27.964  28.692  1.00  0.00     0.135 A 
ATOM     82  F   UNL A   1      46.680  29.260  25.585  1.00  0.00    -0.206 F 
ATOM     83  C   UNL A   1      48.713  28.160  25.995  1.00  0.00     0.059 A 
ATOM     84  C   UNL A   1      49.269  27.459  28.251  1.00  0.00     0.059 A 
ATOM     85  F   UNL A   1      47.758  27.859  29.998  1.00  0.00    -0.206 F 
ATOM     86  C   UNL A   1      49.588  27.554  26.899  1.00  0.00     0.060 A 
BRANCH  86  87
ATOM     87  S   UNL A   1      51.172  26.934  26.288  1.00  0.00     0.124 S 
ATOM     88  O   UNL A   1      51.273  27.605  24.997  1.00  0.00    -0.237 OA
ATOM     89  O   UNL A   1      52.095  27.391  27.322  1.00  0.00    -0.237 OA
ATOM     90  O   UNL A   1      50.967  25.490  26.236  1.00  0.00    -0.744 OA
ENDBRANCH  86  87
ENDBRANCH  54  79
BRANCH  66  91
ATOM     91  C   UNL A   1      45.253  34.717  30.594  1.00  0.00     0.058 A 
ATOM     92  C   UNL A   1      45.430  35.798  29.717  1.00  0.00     0.135 A 
ATOM     93  C   UNL A   1      45.778  34.833  31.892  1.00  0.00     0.135 A 
ATOM     94  F   UNL A   1      44.953  35.736  28.464  1.00  0.00    -0.206 F 
ATOM     95  C   UNL A   1      46.120  36.941  30.105  1.00  0.00     0.059 A 
ATOM     96  C   UNL A   1      46.443  35.980  32.313  1.00  0.00     0.059 A 
ATOM     97  F   UNL A   1      45.626  33.833  32.776  1.00  0.00    -0.206 F 
ATOM     98  C   UNL A   1      46.620  37.024  31.406  1.00  0.00     0.060 A 
BRANCH  98  99
ATOM     99  S   UNL A   1      47.485  38.528  31.905  1.00  0.00     0.124 S 
ATOM    100  O   UNL A   1      48.865  38.061  31.982  1.00  0.00    -0.237 OA
ATOM    101  O   UNL A   1      47.184  39.439  30.805  1.00  0.00    -0.237 OA
ATOM    102  O   UNL A   1      46.864  38.870  33.182  1.00  0.00    -0.744 OA
ENDBRANCH  98  99
ENDBRANCH  66  91
ENDBRANCH  40  41
ENDBRANCH  33  35
ENDBRANCH  32  33
ENDBRANCH  31  32
ENDBRANCH  30  31
ENDBRANCH  29  30
ENDBRANCH  28  29
ENDBRANCH   1  28
TORSDOF 25
ENDMDL
MODEL 3
REMARK VINA RESULT:     -10.4      5.427     10.786
REMARK SMILES Cc1ccc([C@H]2CC(c3cccs3)=NN2C(=O)CCC(=O)OCCOCCOCCOC(=O)c2ccc(-c3c4nc(c(-c5c(F)cc(S(=O)(=O)[O-])cc5F)c5ccc([nH]5)c(-c5c(F)cc(S(=O)(=O)[O-])cc5F)c5nc(c(-c6c(F)cc(S(=O)(=O)[O-])cc6F)c6ccc3[nH]6)C=C5)C=C4)cc2)o1
REMARK SMILES IDX 26 1 25 2 24 3 23 4 22 5 20 6 21 7 19 8 18 9 16 10 17 11
REMARK SMILES IDX 15 12 6 13 7 14 8 15 14 16 5 17 1 18 2 19 3 20 100 21 4 22
REMARK SMILES IDX 9 23 10 24 13 25 11 26 12 27 27 28 28 29 29 30 30 31 31 32
REMARK SMILES IDX 32 33 33 34 34 35 35 36 99 37 36 38 98 39 37 40 38 41 39 42
REMARK SMILES IDX 92 43 40 44 97 45 91 46 93 47 41 48 96 49 90 50 89 51 42 53
REMARK SMILES IDX 76 54 55 55 75 56 56 57 59 58 74 59 94 60 57 61 58 62 73 64
REMARK SMILES IDX 95 65 60 66 43 67 44 68 53 69 45 70 46 71 52 72 54 73 47 74
REMARK SMILES IDX 48 75 49 76 50 77 51 78 77 79 78 80 87 81 79 82 80 83 86 84
REMARK SMILES IDX 88 85 81 86 82 87 83 88 84 89 85 90 61 91 62 92 71 93 63 94
REMARK SMILES IDX 64 95 70 96 72 97 65 98 66 99 67 100 68 101 69 102
REMARK H PARENT 93 52 59 63
REMARK Flexibility Score: inf
ROOT
ATOM      1  C   UNL A   1      33.329  27.224  26.410  1.00  0.00     0.188 C 
ENDROOT
BRANCH   1   2
ATOM      2  O   UNL A   1      32.094  26.918  25.732  1.00  0.00    -0.376 OA
BRANCH   2   3
ATOM      3  C   UNL A   1      31.088  25.966  26.204  1.00  0.00     0.202 C 
BRANCH   3   4
ATOM      4  C   UNL A   1      30.896  24.382  25.425  1.00  0.00     0.261 C 
BRANCH   4   5
ATOM      5  O   UNL A   1      31.192  24.184  23.873  1.00  0.00    -0.463 OA
BRANCH   5   6
ATOM      6  C   UNL A   1      31.688  24.968  22.817  1.00  0.00     0.306 C 
ATOM      7  O   UNL A   1      31.131  26.019  22.498  1.00  0.00    -0.252 OA
BRANCH   6   8
ATOM      8  C   UNL A   1      33.265  24.689  22.269  1.00  0.00     0.132 C 
BRANCH   8   9
ATOM      9  C   UNL A   1      34.267  23.526  22.555  1.00  0.00     0.114 C 
BRANCH   9  10
ATOM     10  C   UNL A   1      34.694  23.628  23.960  1.00  0.00     0.243 C 
ATOM     11  O   UNL A   1      34.822  24.688  24.558  1.00  0.00    -0.273 OA
BRANCH  10  12
ATOM     12  N   UNL A   1      35.057  22.389  24.394  1.00  0.00    -0.222 N 
ATOM     13  C   UNL A   1      36.472  21.915  24.550  1.00  0.00     0.183 C 
ATOM     14  C   UNL A   1      36.146  20.377  24.609  1.00  0.00     0.095 C 
ATOM     15  C   UNL A   1      34.658  20.294  24.670  1.00  0.00     0.081 C 
ATOM     16  N   UNL A   1      34.062  21.417  24.465  1.00  0.00    -0.173 NA
BRANCH  13  17
ATOM     17  C   UNL A   1      37.653  22.809  25.600  1.00  0.00     0.129 A 
ATOM     18  C   UNL A   1      40.690  22.391  27.621  1.00  0.00     0.087 C 
ATOM     19  C   UNL A   1      39.530  22.927  26.894  1.00  0.00     0.101 A 
ATOM     20  C   UNL A   1      38.889  24.090  27.157  1.00  0.00     0.045 A 
ATOM     21  O   UNL A   1      38.893  22.200  25.900  1.00  0.00    -0.464 OA
ATOM     22  C   UNL A   1      37.752  24.025  26.355  1.00  0.00     0.048 A 
ENDBRANCH  13  17
BRANCH  15  23
ATOM     23  C   UNL A   1      34.003  19.030  24.952  1.00  0.00     0.050 A 
ATOM     24  C   UNL A   1      32.902  18.770  25.755  1.00  0.00     0.022 A 
ATOM     25  S   UNL A   1      34.676  17.581  24.340  1.00  0.00    -0.142 S 
ATOM     26  C   UNL A   1      32.624  17.372  25.874  1.00  0.00     0.012 A 
ATOM     27  C   UNL A   1      33.518  16.613  25.152  1.00  0.00     0.065 A 
ENDBRANCH  15  23
ENDBRANCH  10  12
ENDBRANCH   9  10
ENDBRANCH   8   9
ENDBRANCH   6   8
ENDBRANCH   5   6
ENDBRANCH   4   5
ENDBRANCH   3   4
ENDBRANCH   2   3
ENDBRANCH   1   2
BRANCH   1  28
ATOM     28  C   UNL A   1      33.558  28.750  26.722  1.00  0.00     0.188 C 
BRANCH  28  29
ATOM     29  O   UNL A   1      34.618  29.125  27.602  1.00  0.00    -0.376 OA
BRANCH  29  30
ATOM     30  C   UNL A   1      34.935  30.509  27.624  1.00  0.00     0.202 C 
BRANCH  30  31
ATOM     31  C   UNL A   1      33.730  31.461  27.668  1.00  0.00     0.261 C 
BRANCH  31  32
ATOM     32  O   UNL A   1      34.077  32.852  27.523  1.00  0.00    -0.460 OA
BRANCH  32  33
ATOM     33  C   UNL A   1      33.766  33.637  28.590  1.00  0.00     0.338 C 
ATOM     34  O   UNL A   1      32.697  34.211  28.793  1.00  0.00    -0.246 OA
BRANCH  33  35
ATOM     35  C   UNL A   1      34.836  33.563  29.612  1.00  0.00     0.060 A 
ATOM     36  C   UNL A   1      36.025  34.285  29.400  1.00  0.00     0.016 A 
ATOM     37  C   UNL A   1      34.687  32.777  30.755  1.00  0.00     0.016 A 
ATOM     38  C   UNL A   1      37.094  34.164  30.292  1.00  0.00     0.010 A 
ATOM     39  C   UNL A   1      35.767  32.634  31.631  1.00  0.00     0.010 A 
ATOM     40  C   UNL A   1      36.991  33.282  31.374  1.00  0.00    -0.014 A 
BRANCH  40  41
ATOM     41  C   UNL A   1      38.213  32.799  32.068  1.00  0.00     0.031 A 
ATOM     42  C   UNL A   1      39.100  31.845  31.316  1.00  0.00     0.074 A 
ATOM     43  C   UNL A   1      38.519  33.157  33.326  1.00  0.00     0.049 A 
ATOM     44  N   UNL A   1      40.116  31.146  31.742  1.00  0.00    -0.248 NA
ATOM     45  C   UNL A   1      38.778  31.639  29.893  1.00  0.00     0.031 C 
ATOM     46  C   UNL A   1      37.767  34.111  34.127  1.00  0.00     0.029 A 
ATOM     47  N   UNL A   1      39.526  32.745  34.161  1.00  0.00    -0.354 N 
ATOM     48  C   UNL A   1      40.542  30.402  30.648  1.00  0.00     0.074 A 
ATOM     49  C   UNL A   1      39.661  30.716  29.547  1.00  0.00     0.031 C 
ATOM     50  C   UNL A   1      38.320  34.206  35.347  1.00  0.00     0.029 A 
ATOM     51  C   UNL A   1      39.437  33.269  35.431  1.00  0.00     0.049 A 
ATOM     52  H   UNL A   1      40.245  32.134  33.879  1.00  0.00     0.167 HD
ATOM     53  C   UNL A   1      41.578  29.536  30.573  1.00  0.00     0.037 A 
ATOM     54  C   UNL A   1      40.146  32.988  36.541  1.00  0.00     0.037 A 
ATOM     55  C   UNL A   1      42.443  29.232  31.681  1.00  0.00     0.049 A 
ATOM     56  C   UNL A   1      41.249  31.962  36.456  1.00  0.00     0.074 A 
ATOM     57  C   UNL A   1      43.527  28.374  31.717  1.00  0.00     0.029 A 
ATOM     58  N   UNL A   1      42.317  29.772  32.954  1.00  0.00    -0.354 N 
ATOM     59  N   UNL A   1      41.644  31.262  35.419  1.00  0.00    -0.248 NA
ATOM     60  C   UNL A   1      41.999  31.686  37.688  1.00  0.00     0.031 C 
ATOM     61  C   UNL A   1      44.021  28.353  33.025  1.00  0.00     0.029 A 
ATOM     62  C   UNL A   1      43.288  29.248  33.788  1.00  0.00     0.049 A 
ATOM     63  H   UNL A   1      41.637  30.431  33.224  1.00  0.00     0.167 HD
ATOM     64  C   UNL A   1      42.711  30.489  35.864  1.00  0.00     0.074 A 
ATOM     65  C   UNL A   1      42.902  30.814  37.262  1.00  0.00     0.031 C 
ATOM     66  C   UNL A   1      43.466  29.594  35.178  1.00  0.00     0.037 A 
BRANCH  53  67
ATOM     67  C   UNL A   1      41.801  28.831  29.264  1.00  0.00     0.058 A 
ATOM     68  C   UNL A   1      41.089  27.674  28.911  1.00  0.00     0.135 A 
ATOM     69  C   UNL A   1      42.734  29.331  28.340  1.00  0.00     0.135 A 
ATOM     70  F   UNL A   1      40.205  27.135  29.767  1.00  0.00    -0.206 F 
ATOM     71  C   UNL A   1      41.308  27.025  27.700  1.00  0.00     0.059 A 
ATOM     72  C   UNL A   1      42.946  28.717  27.110  1.00  0.00     0.059 A 
ATOM     73  F   UNL A   1      43.451  30.428  28.630  1.00  0.00    -0.206 F 
ATOM     74  C   UNL A   1      42.238  27.557  26.804  1.00  0.00     0.060 A 
BRANCH  74  75
ATOM     75  S   UNL A   1      42.500  26.712  25.231  1.00  0.00     0.124 S 
ATOM     76  O   UNL A   1      41.265  25.945  25.103  1.00  0.00    -0.237 OA
ATOM     77  O   UNL A   1      42.655  27.827  24.303  1.00  0.00    -0.237 OA
ATOM     78  O   UNL A   1      43.705  25.923  25.465  1.00  0.00    -0.744 OA
ENDBRANCH  74  75
ENDBRANCH  53  67
BRANCH  54  79
ATOM     79  C   UNL A   1      39.823  33.660  37.831  1.00  0.00     0.058 A 
ATOM     80  C   UNL A   1      40.510  34.811  38.242  1.00  0.00     0.135 A 
ATOM     81  C   UNL A   1      38.817  33.166  38.679  1.00  0.00     0.135 A 
ATOM     82  F   UNL A   1      41.488  35.317  37.475  1.00  0.00    -0.206 F 
ATOM     83  C   UNL A   1      40.224  35.442  39.449  1.00  0.00     0.059 A 
ATOM     84  C   UNL A   1      38.494  33.795  39.877  1.00  0.00     0.059 A 
ATOM     85  F   UNL A   1      38.120  32.074  38.331  1.00  0.00    -0.206 F 
ATOM     86  C   UNL A   1      39.209  34.928  40.258  1.00  0.00     0.060 A 
BRANCH  86  87
ATOM     87  S   UNL A   1      38.806  35.789  41.794  1.00  0.00     0.124 S 
ATOM     88  O   UNL A   1      39.852  35.305  42.687  1.00  0.00    -0.237 OA
ATOM     89  O   UNL A   1      38.903  37.189  41.393  1.00  0.00    -0.237 OA
ATOM     90  O   UNL A   1      37.455  35.323  42.093  1.00  0.00    -0.744 OA
ENDBRANCH  86  87
ENDBRANCH  54  79
BRANCH  66  91
ATOM     91  C   UNL A   1      44.601  28.936  35.914  1.00  0.00     0.058 A 
ATOM     92  C   UNL A   1      44.446  27.707  36.574  1.00  0.00     0.135 A 
ATOM     93  C   UNL A   1      45.880  29.518  35.904  1.00  0.00     0.135 A 
ATOM     94  F   UNL A   1      43.245  27.110  36.618  1.00  0.00    -0.206 F 
ATOM     95  C   UNL A   1      45.513  27.091  37.219  1.00  0.00     0.059 A 
ATOM     96  C   UNL A   1      46.968  28.903  36.515  1.00  0.00     0.059 A 
ATOM     97  F   UNL A   1      46.087  30.687  35.277  1.00  0.00    -0.206 F 
ATOM     98  C   UNL A   1      46.771  27.695  37.181  1.00  0.00     0.060 A 
BRANCH  98  99
ATOM     99  S   UNL A   1      48.153  26.866  37.994  1.00  0.00     0.124 S 
ATOM    100  O   UNL A   1      49.262  27.757  37.668  1.00  0.00    -0.237 OA
ATOM    101  O   UNL A   1      47.733  26.862  39.393  1.00  0.00    -0.237 OA
ATOM    102  O   UNL A   1      48.190  25.555  37.353  1.00  0.00    -0.744 OA
ENDBRANCH  98  99
ENDBRANCH  66  91
ENDBRANCH  40  41
ENDBRANCH  33  35
ENDBRANCH  32  33
ENDBRANCH  31  32
ENDBRANCH  30  31
ENDBRANCH  29  30
ENDBRANCH  28  29
ENDBRANCH   1  28
TORSDOF 25
ENDMDL
