MODEL 1
REMARK VINA RESULT:     -10.6      0.000      0.000
REMARK SMILES [NH3+]Cc1c(-c2ccccc2)c(C(=O)OCCOCCOCCOC(=O)c2ccc(-c3c4nc(c(-c5c(F)cc(S(=O)(=O)[O-])cc5F)c5ccc([nH]5)c(-c5c(F)cc(S(=O)(=O)[O-])cc5F)c5nc(c(-c6c(F)cc(S(=O)(=O)[O-])cc6F)c6ccc3[nH]6)C=C5)C=C4)cc2)c2ccccn12
REMARK SMILES IDX 19 1 18 2 17 3 16 4 15 5 14 6 12 7 13 8 11 9 3 10 4 11 97 12
REMARK SMILES IDX 92 13 96 14 93 15 95 16 94 17 2 18 1 19 5 23 6 24 10 25 7 26
REMARK SMILES IDX 9 27 8 28 20 29 21 30 22 31 23 32 24 33 25 34 26 35 27 36
REMARK SMILES IDX 91 37 28 38 90 39 29 40 30 41 31 42 84 43 32 44 89 45 83 46
REMARK SMILES IDX 85 47 33 48 88 49 82 50 81 51 34 53 68 54 47 55 67 56 48 57
REMARK SMILES IDX 51 58 66 59 86 60 49 61 50 62 65 64 87 65 52 66 35 67 36 68
REMARK SMILES IDX 45 69 37 70 38 71 44 72 46 73 39 74 40 75 41 76 42 77 43 78
REMARK SMILES IDX 69 79 70 80 79 81 71 82 72 83 78 84 80 85 73 86 74 87 75 88
REMARK SMILES IDX 76 89 77 90 53 91 54 92 63 93 55 94 56 95 62 96 64 97 57 98
REMARK SMILES IDX 58 99 59 100 60 101 61 102
REMARK H PARENT 1 20 1 21 1 22 85 52 51 63
REMARK Flexibility Score: inf
ROOT
ATOM      1  C   UNL A   1      41.690  22.371  26.137  1.00  0.00     0.188 C 
ENDROOT
BRANCH   1   2
ATOM      2  C   UNL A   1      40.558  21.331  26.199  1.00  0.00     0.188 C 
BRANCH   2   3
ATOM      3  O   UNL A   1      39.301  21.890  26.576  1.00  0.00    -0.376 OA
BRANCH   3   4
ATOM      4  C   UNL A   1      38.311  21.872  25.551  1.00  0.00     0.202 C 
BRANCH   4   5
ATOM      5  C   UNL A   1      37.169  22.831  25.885  1.00  0.00     0.261 C 
BRANCH   5   6
ATOM      6  O   UNL A   1      36.880  23.765  24.833  1.00  0.00    -0.460 OA
BRANCH   6   7
ATOM      7  C   UNL A   1      36.195  23.278  23.761  1.00  0.00     0.341 C 
ATOM      8  O   UNL A   1      36.721  23.043  22.680  1.00  0.00    -0.246 OA
BRANCH   7   9
ATOM      9  C   UNL A   1      34.789  23.010  24.064  1.00  0.00     0.093 A 
ATOM     10  C   UNL A   1      32.542  23.314  24.431  1.00  0.00     0.086 A 
ATOM     11  C   UNL A   1      33.717  23.964  24.076  1.00  0.00     0.024 A 
ATOM     12  N   UNL A   1      32.870  21.988  24.680  1.00  0.00    -0.314 N 
ATOM     13  C   UNL A   1      34.216  21.785  24.373  1.00  0.00     0.061 A 
ATOM     14  C   UNL A   1      32.048  20.951  25.143  1.00  0.00     0.092 A 
ATOM     15  C   UNL A   1      34.718  20.450  24.467  1.00  0.00     0.027 A 
ATOM     16  C   UNL A   1      32.538  19.706  25.262  1.00  0.00     0.018 A 
ATOM     17  C   UNL A   1      33.915  19.456  24.885  1.00  0.00     0.004 A 
BRANCH  10  18
ATOM     18  C   UNL A   1      31.151  23.838  24.567  1.00  0.00     0.315 C 
BRANCH  18  19
ATOM     19  N   UNL A   1      30.451  23.791  23.291  1.00  0.00    -0.353 N 
ATOM     20  H   UNL A   1      31.027  23.305  22.605  1.00  0.00     0.344 HD
ATOM     21  H   UNL A   1      30.268  24.741  22.969  1.00  0.00     0.344 HD
ATOM     22  H   UNL A   1      29.568  23.295  23.406  1.00  0.00     0.344 HD
ENDBRANCH  18  19
ENDBRANCH  10  18
BRANCH  11  23
ATOM     23  C   UNL A   1      33.814  25.362  23.694  1.00  0.00    -0.015 A 
ATOM     24  C   UNL A   1      33.997  26.315  24.698  1.00  0.00     0.009 A 
ATOM     25  C   UNL A   1      33.548  25.776  22.387  1.00  0.00     0.009 A 
ATOM     26  C   UNL A   1      33.782  27.663  24.430  1.00  0.00     0.001 A 
ATOM     27  C   UNL A   1      33.408  27.137  22.105  1.00  0.00     0.001 A 
ATOM     28  C   UNL A   1      33.491  28.074  23.133  1.00  0.00     0.000 A 
ENDBRANCH  11  23
ENDBRANCH   7   9
ENDBRANCH   6   7
ENDBRANCH   5   6
ENDBRANCH   4   5
ENDBRANCH   3   4
ENDBRANCH   2   3
ENDBRANCH   1   2
BRANCH   1  29
ATOM     29  O   UNL A   1      42.771  22.187  25.224  1.00  0.00    -0.376 OA
BRANCH  29  30
ATOM     30  C   UNL A   1      43.634  23.281  24.957  1.00  0.00     0.202 C 
BRANCH  30  31
ATOM     31  C   UNL A   1      43.727  24.352  26.046  1.00  0.00     0.261 C 
BRANCH  31  32
ATOM     32  O   UNL A   1      43.477  25.684  25.569  1.00  0.00    -0.460 OA
BRANCH  32  33
ATOM     33  C   UNL A   1      42.250  26.173  25.871  1.00  0.00     0.338 C 
ATOM     34  O   UNL A   1      41.227  26.038  25.221  1.00  0.00    -0.246 OA
BRANCH  33  35
ATOM     35  C   UNL A   1      42.270  26.826  27.199  1.00  0.00     0.060 A 
ATOM     36  C   UNL A   1      41.359  26.372  28.162  1.00  0.00     0.016 A 
ATOM     37  C   UNL A   1      43.099  27.917  27.474  1.00  0.00     0.016 A 
ATOM     38  C   UNL A   1      41.243  27.037  29.384  1.00  0.00     0.010 A 
ATOM     39  C   UNL A   1      42.967  28.594  28.693  1.00  0.00     0.010 A 
ATOM     40  C   UNL A   1      42.015  28.179  29.639  1.00  0.00    -0.014 A 
BRANCH  40  41
ATOM     41  C   UNL A   1      41.714  29.011  30.831  1.00  0.00     0.031 A 
ATOM     42  C   UNL A   1      40.514  29.908  30.813  1.00  0.00     0.074 A 
ATOM     43  C   UNL A   1      42.484  28.957  31.931  1.00  0.00     0.049 A 
ATOM     44  N   UNL A   1      40.057  30.691  31.753  1.00  0.00    -0.248 NA
ATOM     45  C   UNL A   1      39.736  29.935  29.565  1.00  0.00     0.031 C 
ATOM     46  C   UNL A   1      43.679  28.139  32.057  1.00  0.00     0.029 A 
ATOM     47  N   UNL A   1      42.383  29.588  33.145  1.00  0.00    -0.354 N 
ATOM     48  C   UNL A   1      38.944  31.317  31.211  1.00  0.00     0.074 A 
ATOM     49  C   UNL A   1      38.801  30.828  29.855  1.00  0.00     0.031 C 
ATOM     50  C   UNL A   1      44.187  28.282  33.290  1.00  0.00     0.029 A 
ATOM     51  C   UNL A   1      43.370  29.235  34.034  1.00  0.00     0.049 A 
ATOM     52  H   UNL A   1      41.669  30.232  33.360  1.00  0.00     0.167 HD
ATOM     53  C   UNL A   1      38.123  32.224  31.790  1.00  0.00     0.037 A 
ATOM     54  C   UNL A   1      43.600  29.640  35.299  1.00  0.00     0.037 A 
ATOM     55  C   UNL A   1      38.283  32.728  33.128  1.00  0.00     0.049 A 
ATOM     56  C   UNL A   1      42.678  30.652  35.919  1.00  0.00     0.074 A 
ATOM     57  C   UNL A   1      37.500  33.651  33.799  1.00  0.00     0.029 A 
ATOM     58  N   UNL A   1      39.300  32.362  33.997  1.00  0.00    -0.354 N 
ATOM     59  N   UNL A   1      41.614  31.217  35.402  1.00  0.00    -0.248 NA
ATOM     60  C   UNL A   1      42.993  31.095  37.284  1.00  0.00     0.031 C 
ATOM     61  C   UNL A   1      38.068  33.872  35.059  1.00  0.00     0.029 A 
ATOM     62  C   UNL A   1      39.180  33.056  35.189  1.00  0.00     0.049 A 
ATOM     63  H   UNL A   1      40.006  31.705  33.794  1.00  0.00     0.167 HD
ATOM     64  C   UNL A   1      41.132  32.083  36.376  1.00  0.00     0.074 A 
ATOM     65  C   UNL A   1      42.007  31.948  37.524  1.00  0.00     0.031 C 
ATOM     66  C   UNL A   1      40.066  32.919  36.320  1.00  0.00     0.037 A 
BRANCH  53  67
ATOM     67  C   UNL A   1      37.007  32.759  30.941  1.00  0.00     0.058 A 
ATOM     68  C   UNL A   1      37.196  33.847  30.075  1.00  0.00     0.135 A 
ATOM     69  C   UNL A   1      35.726  32.192  31.016  1.00  0.00     0.135 A 
ATOM     70  F   UNL A   1      38.398  34.439  29.986  1.00  0.00    -0.206 F 
ATOM     71  C   UNL A   1      36.143  34.379  29.339  1.00  0.00     0.059 A 
ATOM     72  C   UNL A   1      34.663  32.692  30.271  1.00  0.00     0.059 A 
ATOM     73  F   UNL A   1      35.492  31.153  31.834  1.00  0.00    -0.206 F 
ATOM     74  C   UNL A   1      34.877  33.800  29.452  1.00  0.00     0.060 A 
BRANCH  74  75
ATOM     75  S   UNL A   1      33.509  34.519  28.521  1.00  0.00     0.124 S 
ATOM     76  O   UNL A   1      33.082  33.383  27.711  1.00  0.00    -0.237 OA
ATOM     77  O   UNL A   1      32.588  34.927  29.577  1.00  0.00    -0.237 OA
ATOM     78  O   UNL A   1      34.137  35.613  27.787  1.00  0.00    -0.744 OA
ENDBRANCH  74  75
ENDBRANCH  53  67
BRANCH  54  79
ATOM     79  C   UNL A   1      44.754  29.086  36.059  1.00  0.00     0.058 A 
ATOM     80  C   UNL A   1      46.017  29.692  35.994  1.00  0.00     0.135 A 
ATOM     81  C   UNL A   1      44.611  27.960  36.884  1.00  0.00     0.135 A 
ATOM     82  F   UNL A   1      46.208  30.763  35.210  1.00  0.00    -0.206 F 
ATOM     83  C   UNL A   1      47.098  29.202  36.720  1.00  0.00     0.059 A 
ATOM     84  C   UNL A   1      45.671  27.465  37.636  1.00  0.00     0.059 A 
ATOM     85  F   UNL A   1      43.420  27.350  36.989  1.00  0.00    -0.206 F 
ATOM     86  C   UNL A   1      46.914  28.090  37.545  1.00  0.00     0.060 A 
BRANCH  86  87
ATOM     87  S   UNL A   1      48.300  27.506  38.545  1.00  0.00     0.124 S 
ATOM     88  O   UNL A   1      48.157  28.318  39.747  1.00  0.00    -0.237 OA
ATOM     89  O   UNL A   1      47.996  26.086  38.693  1.00  0.00    -0.237 OA
ATOM     90  O   UNL A   1      49.460  27.805  37.711  1.00  0.00    -0.744 OA
ENDBRANCH  86  87
ENDBRANCH  54  79
BRANCH  66  91
ATOM     91  C   UNL A   1      39.786  33.756  37.535  1.00  0.00     0.058 A 
ATOM     92  C   UNL A   1      38.866  33.342  38.512  1.00  0.00     0.135 A 
ATOM     93  C   UNL A   1      40.477  34.957  37.750  1.00  0.00     0.135 A 
ATOM     94  F   UNL A   1      38.173  32.204  38.350  1.00  0.00    -0.206 F 
ATOM     95  C   UNL A   1      38.629  34.103  39.653  1.00  0.00     0.059 A 
ATOM     96  C   UNL A   1      40.271  35.723  38.893  1.00  0.00     0.059 A 
ATOM     97  F   UNL A   1      41.373  35.393  36.849  1.00  0.00    -0.206 F 
ATOM     98  C   UNL A   1      39.337  35.292  39.834  1.00  0.00     0.060 A 
BRANCH  98  99
ATOM     99  S   UNL A   1      39.049  36.254  41.335  1.00  0.00     0.124 S 
ATOM    100  O   UNL A   1      40.344  36.156  42.000  1.00  0.00    -0.237 OA
ATOM    101  O   UNL A   1      38.707  37.571  40.804  1.00  0.00    -0.237 OA
ATOM    102  O   UNL A   1      37.952  35.545  41.987  1.00  0.00    -0.744 OA
ENDBRANCH  98  99
ENDBRANCH  66  91
ENDBRANCH  40  41
ENDBRANCH  33  35
ENDBRANCH  32  33
ENDBRANCH  31  32
ENDBRANCH  30  31
ENDBRANCH  29  30
ENDBRANCH   1  29
TORSDOF 23
ENDMDL
MODEL 2
REMARK VINA RESULT:     -10.5      6.164     11.753
REMARK SMILES [NH3+]Cc1c(-c2ccccc2)c(C(=O)OCCOCCOCCOC(=O)c2ccc(-c3c4nc(c(-c5c(F)cc(S(=O)(=O)[O-])cc5F)c5ccc([nH]5)c(-c5c(F)cc(S(=O)(=O)[O-])cc5F)c5nc(c(-c6c(F)cc(S(=O)(=O)[O-])cc6F)c6ccc3[nH]6)C=C5)C=C4)cc2)c2ccccn12
REMARK SMILES IDX 19 1 18 2 17 3 16 4 15 5 14 6 12 7 13 8 11 9 3 10 4 11 97 12
REMARK SMILES IDX 92 13 96 14 93 15 95 16 94 17 2 18 1 19 5 23 6 24 10 25 7 26
REMARK SMILES IDX 9 27 8 28 20 29 21 30 22 31 23 32 24 33 25 34 26 35 27 36
REMARK SMILES IDX 91 37 28 38 90 39 29 40 30 41 31 42 84 43 32 44 89 45 83 46
REMARK SMILES IDX 85 47 33 48 88 49 82 50 81 51 34 53 68 54 47 55 67 56 48 57
REMARK SMILES IDX 51 58 66 59 86 60 49 61 50 62 65 64 87 65 52 66 35 67 36 68
REMARK SMILES IDX 45 69 37 70 38 71 44 72 46 73 39 74 40 75 41 76 42 77 43 78
REMARK SMILES IDX 69 79 70 80 79 81 71 82 72 83 78 84 80 85 73 86 74 87 75 88
REMARK SMILES IDX 76 89 77 90 53 91 54 92 63 93 55 94 56 95 62 96 64 97 57 98
REMARK SMILES IDX 58 99 59 100 60 101 61 102
REMARK H PARENT 1 20 1 21 1 22 85 52 51 63
REMARK Flexibility Score: inf
ROOT
ATOM      1  C   UNL A   1      34.019  32.992  28.003  1.00  0.00     0.188 C 
ENDROOT
BRANCH   1   2
ATOM      2  C   UNL A   1      33.695  31.572  27.508  1.00  0.00     0.188 C 
BRANCH   2   3
ATOM      3  O   UNL A   1      32.349  31.427  27.058  1.00  0.00    -0.376 OA
BRANCH   3   4
ATOM      4  C   UNL A   1      31.914  30.077  26.914  1.00  0.00     0.202 C 
BRANCH   4   5
ATOM      5  C   UNL A   1      32.999  29.227  26.253  1.00  0.00     0.261 C 
BRANCH   5   6
ATOM      6  O   UNL A   1      33.178  27.945  26.875  1.00  0.00    -0.460 OA
BRANCH   6   7
ATOM      7  C   UNL A   1      32.256  26.989  26.572  1.00  0.00     0.341 C 
ATOM      8  O   UNL A   1      31.278  26.757  27.271  1.00  0.00    -0.246 OA
BRANCH   7   9
ATOM      9  C   UNL A   1      32.530  26.324  25.298  1.00  0.00     0.093 A 
ATOM     10  C   UNL A   1      32.342  25.630  23.117  1.00  0.00     0.086 A 
ATOM     11  C   UNL A   1      31.762  26.431  24.091  1.00  0.00     0.024 A 
ATOM     12  N   UNL A   1      33.428  24.996  23.706  1.00  0.00    -0.314 N 
ATOM     13  C   UNL A   1      33.593  25.484  25.003  1.00  0.00     0.061 A 
ATOM     14  C   UNL A   1      34.286  24.031  23.159  1.00  0.00     0.092 A 
ATOM     15  C   UNL A   1      34.730  25.025  25.738  1.00  0.00     0.027 A 
ATOM     16  C   UNL A   1      35.331  23.579  23.871  1.00  0.00     0.018 A 
ATOM     17  C   UNL A   1      35.563  24.120  25.195  1.00  0.00     0.004 A 
BRANCH  10  18
ATOM     18  C   UNL A   1      31.953  25.403  21.693  1.00  0.00     0.315 C 
BRANCH  18  19
ATOM     19  N   UNL A   1      32.598  26.372  20.818  1.00  0.00    -0.353 N 
ATOM     20  H   UNL A   1      33.478  25.987  20.476  1.00  0.00     0.344 HD
ATOM     21  H   UNL A   1      32.781  27.230  21.337  1.00  0.00     0.344 HD
ATOM     22  H   UNL A   1      31.986  26.576  20.028  1.00  0.00     0.344 HD
ENDBRANCH  18  19
ENDBRANCH  10  18
BRANCH  11  23
ATOM     23  C   UNL A   1      30.617  27.300  23.882  1.00  0.00    -0.015 A 
ATOM     24  C   UNL A   1      29.336  26.755  24.003  1.00  0.00     0.009 A 
ATOM     25  C   UNL A   1      30.772  28.599  23.392  1.00  0.00     0.009 A 
ATOM     26  C   UNL A   1      28.234  27.446  23.512  1.00  0.00     0.001 A 
ATOM     27  C   UNL A   1      29.654  29.321  22.971  1.00  0.00     0.001 A 
ATOM     28  C   UNL A   1      28.392  28.730  22.999  1.00  0.00     0.000 A 
ENDBRANCH  11  23
ENDBRANCH   7   9
ENDBRANCH   6   7
ENDBRANCH   5   6
ENDBRANCH   4   5
ENDBRANCH   3   4
ENDBRANCH   2   3
ENDBRANCH   1   2
BRANCH   1  29
ATOM     29  O   UNL A   1      35.335  33.516  27.835  1.00  0.00    -0.376 OA
BRANCH  29  30
ATOM     30  C   UNL A   1      35.974  34.126  28.946  1.00  0.00     0.202 C 
BRANCH  30  31
ATOM     31  C   UNL A   1      35.805  33.423  30.294  1.00  0.00     0.261 C 
BRANCH  31  32
ATOM     32  O   UNL A   1      37.037  32.941  30.853  1.00  0.00    -0.460 OA
BRANCH  32  33
ATOM     33  C   UNL A   1      37.006  31.650  31.263  1.00  0.00     0.338 C 
ATOM     34  O   UNL A   1      36.152  31.121  31.953  1.00  0.00    -0.246 OA
BRANCH  33  35
ATOM     35  C   UNL A   1      38.122  30.891  30.657  1.00  0.00     0.060 A 
ATOM     36  C   UNL A   1      39.075  30.331  31.519  1.00  0.00     0.016 A 
ATOM     37  C   UNL A   1      38.288  30.800  29.272  1.00  0.00     0.016 A 
ATOM     38  C   UNL A   1      40.216  29.720  30.999  1.00  0.00     0.010 A 
ATOM     39  C   UNL A   1      39.444  30.203  28.752  1.00  0.00     0.010 A 
ATOM     40  C   UNL A   1      40.429  29.691  29.613  1.00  0.00    -0.014 A 
BRANCH  40  41
ATOM     41  C   UNL A   1      41.748  29.257  29.087  1.00  0.00     0.031 A 
ATOM     42  C   UNL A   1      42.886  30.233  29.072  1.00  0.00     0.074 A 
ATOM     43  C   UNL A   1      41.945  28.003  28.646  1.00  0.00     0.049 A 
ATOM     44  N   UNL A   1      44.120  30.052  28.684  1.00  0.00    -0.248 NA
ATOM     45  C   UNL A   1      42.588  31.594  29.543  1.00  0.00     0.031 C 
ATOM     46  C   UNL A   1      40.913  26.979  28.598  1.00  0.00     0.029 A 
ATOM     47  N   UNL A   1      43.064  27.373  28.164  1.00  0.00    -0.354 N 
ATOM     48  C   UNL A   1      44.748  31.277  28.851  1.00  0.00     0.074 A 
ATOM     49  C   UNL A   1      43.754  32.197  29.366  1.00  0.00     0.031 C 
ATOM     50  C   UNL A   1      41.447  25.833  28.150  1.00  0.00     0.029 A 
ATOM     51  C   UNL A   1      42.857  26.052  27.842  1.00  0.00     0.049 A 
ATOM     52  H   UNL A   1      43.933  27.823  28.061  1.00  0.00     0.167 HD
ATOM     53  C   UNL A   1      46.034  31.607  28.588  1.00  0.00     0.037 A 
ATOM     54  C   UNL A   1      43.700  25.126  27.347  1.00  0.00     0.037 A 
ATOM     55  C   UNL A   1      47.012  30.699  28.051  1.00  0.00     0.049 A 
ATOM     56  C   UNL A   1      45.122  25.516  27.057  1.00  0.00     0.074 A 
ATOM     57  C   UNL A   1      48.340  30.944  27.749  1.00  0.00     0.029 A 
ATOM     58  N   UNL A   1      46.768  29.374  27.722  1.00  0.00    -0.354 N 
ATOM     59  N   UNL A   1      45.709  26.674  27.242  1.00  0.00    -0.248 NA
ATOM     60  C   UNL A   1      45.993  24.485  26.476  1.00  0.00     0.031 C 
ATOM     61  C   UNL A   1      48.887  29.778  27.201  1.00  0.00     0.029 A 
ATOM     62  C   UNL A   1      47.913  28.794  27.200  1.00  0.00     0.049 A 
ATOM     63  H   UNL A   1      45.905  28.913  27.841  1.00  0.00     0.167 HD
ATOM     64  C   UNL A   1      47.017  26.513  26.802  1.00  0.00     0.074 A 
ATOM     65  C   UNL A   1      47.143  25.137  26.364  1.00  0.00     0.031 C 
ATOM     66  C   UNL A   1      48.019  27.425  26.757  1.00  0.00     0.037 A 
BRANCH  53  67
ATOM     67  C   UNL A   1      46.427  33.033  28.837  1.00  0.00     0.058 A 
ATOM     68  C   UNL A   1      47.025  33.434  30.042  1.00  0.00     0.135 A 
ATOM     69  C   UNL A   1      46.176  34.017  27.868  1.00  0.00     0.135 A 
ATOM     70  F   UNL A   1      47.263  32.534  31.010  1.00  0.00    -0.206 F 
ATOM     71  C   UNL A   1      47.327  34.768  30.293  1.00  0.00     0.059 A 
ATOM     72  C   UNL A   1      46.491  35.354  28.088  1.00  0.00     0.059 A 
ATOM     73  F   UNL A   1      45.599  33.686  26.701  1.00  0.00    -0.206 F 
ATOM     74  C   UNL A   1      47.047  35.722  29.313  1.00  0.00     0.060 A 
BRANCH  74  75
ATOM     75  S   UNL A   1      47.409  37.455  29.661  1.00  0.00     0.124 S 
ATOM     76  O   UNL A   1      46.259  37.833  30.476  1.00  0.00    -0.237 OA
ATOM     77  O   UNL A   1      48.685  37.375  30.365  1.00  0.00    -0.237 OA
ATOM     78  O   UNL A   1      47.466  38.062  28.335  1.00  0.00    -0.744 OA
ENDBRANCH  74  75
ENDBRANCH  53  67
BRANCH  54  79
ATOM     79  C   UNL A   1      43.218  23.741  27.091  1.00  0.00     0.058 A 
ATOM     80  C   UNL A   1      42.992  23.285  25.784  1.00  0.00     0.135 A 
ATOM     81  C   UNL A   1      42.999  22.840  28.144  1.00  0.00     0.135 A 
ATOM     82  F   UNL A   1      43.174  24.112  24.744  1.00  0.00    -0.206 F 
ATOM     83  C   UNL A   1      42.567  21.985  25.530  1.00  0.00     0.059 A 
ATOM     84  C   UNL A   1      42.596  21.529  27.913  1.00  0.00     0.059 A 
ATOM     85  F   UNL A   1      43.211  23.224  29.413  1.00  0.00    -0.206 F 
ATOM     86  C   UNL A   1      42.378  21.111  26.601  1.00  0.00     0.060 A 
BRANCH  86  87
ATOM     87  S   UNL A   1      41.903  19.402  26.260  1.00  0.00     0.124 S 
ATOM     88  O   UNL A   1      40.453  19.514  26.159  1.00  0.00    -0.237 OA
ATOM     89  O   UNL A   1      42.611  19.128  25.013  1.00  0.00    -0.237 OA
ATOM     90  O   UNL A   1      42.404  18.679  27.425  1.00  0.00    -0.744 OA
ENDBRANCH  86  87
ENDBRANCH  54  79
BRANCH  66  91
ATOM     91  C   UNL A   1      49.342  26.965  26.215  1.00  0.00     0.058 A 
ATOM     92  C   UNL A   1      49.651  27.072  24.850  1.00  0.00     0.135 A 
ATOM     93  C   UNL A   1      50.328  26.457  27.074  1.00  0.00     0.135 A 
ATOM     94  F   UNL A   1      48.739  27.543  23.985  1.00  0.00    -0.206 F 
ATOM     95  C   UNL A   1      50.888  26.673  24.352  1.00  0.00     0.059 A 
ATOM     96  C   UNL A   1      51.579  26.073  26.602  1.00  0.00     0.059 A 
ATOM     97  F   UNL A   1      50.085  26.342  28.391  1.00  0.00    -0.206 F 
ATOM     98  C   UNL A   1      51.846  26.175  25.237  1.00  0.00     0.060 A 
BRANCH  98  99
ATOM     99  S   UNL A   1      53.461  25.694  24.589  1.00  0.00     0.124 S 
ATOM    100  O   UNL A   1      53.232  25.765  23.149  1.00  0.00    -0.237 OA
ATOM    101  O   UNL A   1      54.341  26.720  25.141  1.00  0.00    -0.237 OA
ATOM    102  O   UNL A   1      53.658  24.353  25.129  1.00  0.00    -0.744 OA
ENDBRANCH  98  99
ENDBRANCH  66  91
ENDBRANCH  40  41
ENDBRANCH  33  35
ENDBRANCH  32  33
ENDBRANCH  31  32
ENDBRANCH  30  31
ENDBRANCH  29  30
ENDBRANCH   1  29
TORSDOF 23
ENDMDL
MODEL 3
REMARK VINA RESULT:     -10.2      3.222      8.900
REMARK SMILES [NH3+]Cc1c(-c2ccccc2)c(C(=O)OCCOCCOCCOC(=O)c2ccc(-c3c4nc(c(-c5c(F)cc(S(=O)(=O)[O-])cc5F)c5ccc([nH]5)c(-c5c(F)cc(S(=O)(=O)[O-])cc5F)c5nc(c(-c6c(F)cc(S(=O)(=O)[O-])cc6F)c6ccc3[nH]6)C=C5)C=C4)cc2)c2ccccn12
REMARK SMILES IDX 19 1 18 2 17 3 16 4 15 5 14 6 12 7 13 8 11 9 3 10 4 11 97 12
REMARK SMILES IDX 92 13 96 14 93 15 95 16 94 17 2 18 1 19 5 23 6 24 10 25 7 26
REMARK SMILES IDX 9 27 8 28 20 29 21 30 22 31 23 32 24 33 25 34 26 35 27 36
REMARK SMILES IDX 91 37 28 38 90 39 29 40 30 41 31 42 84 43 32 44 89 45 83 46
REMARK SMILES IDX 85 47 33 48 88 49 82 50 81 51 34 53 68 54 47 55 67 56 48 57
REMARK SMILES IDX 51 58 66 59 86 60 49 61 50 62 65 64 87 65 52 66 35 67 36 68
REMARK SMILES IDX 45 69 37 70 38 71 44 72 46 73 39 74 40 75 41 76 42 77 43 78
REMARK SMILES IDX 69 79 70 80 79 81 71 82 72 83 78 84 80 85 73 86 74 87 75 88
REMARK SMILES IDX 76 89 77 90 53 91 54 92 63 93 55 94 56 95 62 96 64 97 57 98
REMARK SMILES IDX 58 99 59 100 60 101 61 102
REMARK H PARENT 1 20 1 21 1 22 85 52 51 63
REMARK Flexibility Score: inf
ROOT
ATOM      1  C   UNL A   1      31.970  28.887  23.447  1.00  0.00     0.188 C 
ENDROOT
BRANCH   1   2
ATOM      2  C   UNL A   1      30.658  28.091  23.557  1.00  0.00     0.188 C 
BRANCH   2   3
ATOM      3  O   UNL A   1      30.683  26.862  22.834  1.00  0.00    -0.376 OA
BRANCH   3   4
ATOM      4  C   UNL A   1      29.976  25.792  23.456  1.00  0.00     0.202 C 
BRANCH   4   5
ATOM      5  C   UNL A   1      30.608  24.446  23.099  1.00  0.00     0.261 C 
BRANCH   5   6
ATOM      6  O   UNL A   1      32.039  24.499  22.986  1.00  0.00    -0.460 OA
BRANCH   6   7
ATOM      7  C   UNL A   1      32.665  23.335  22.658  1.00  0.00     0.341 C 
ATOM      8  O   UNL A   1      33.116  23.108  21.542  1.00  0.00    -0.246 OA
BRANCH   7   9
ATOM      9  C   UNL A   1      32.792  22.423  23.795  1.00  0.00     0.093 A 
ATOM     10  C   UNL A   1      33.154  21.621  25.916  1.00  0.00     0.086 A 
ATOM     11  C   UNL A   1      33.109  22.778  25.149  1.00  0.00     0.024 A 
ATOM     12  N   UNL A   1      32.914  20.555  25.060  1.00  0.00    -0.314 N 
ATOM     13  C   UNL A   1      32.609  21.048  23.791  1.00  0.00     0.061 A 
ATOM     14  C   UNL A   1      32.932  19.182  25.340  1.00  0.00     0.092 A 
ATOM     15  C   UNL A   1      32.227  20.100  22.792  1.00  0.00     0.027 A 
ATOM     16  C   UNL A   1      32.607  18.295  24.385  1.00  0.00     0.018 A 
ATOM     17  C   UNL A   1      32.221  18.786  23.077  1.00  0.00     0.004 A 
BRANCH  10  18
ATOM     18  C   UNL A   1      33.418  21.440  27.375  1.00  0.00     0.315 C 
BRANCH  18  19
ATOM     19  N   UNL A   1      34.840  21.559  27.664  1.00  0.00    -0.353 N 
ATOM     20  H   UNL A   1      35.141  20.761  28.223  1.00  0.00     0.344 HD
ATOM     21  H   UNL A   1      35.010  22.420  28.183  1.00  0.00     0.344 HD
ATOM     22  H   UNL A   1      35.364  21.579  26.790  1.00  0.00     0.344 HD
ENDBRANCH  18  19
ENDBRANCH  10  18
BRANCH  11  23
ATOM     23  C   UNL A   1      33.269  24.127  25.662  1.00  0.00    -0.015 A 
ATOM     24  C   UNL A   1      32.177  24.736  26.284  1.00  0.00     0.009 A 
ATOM     25  C   UNL A   1      34.415  24.876  25.386  1.00  0.00     0.009 A 
ATOM     26  C   UNL A   1      32.175  26.110  26.504  1.00  0.00     0.001 A 
ATOM     27  C   UNL A   1      34.439  26.241  25.680  1.00  0.00     0.001 A 
ATOM     28  C   UNL A   1      33.307  26.862  26.205  1.00  0.00     0.000 A 
ENDBRANCH  11  23
ENDBRANCH   7   9
ENDBRANCH   6   7
ENDBRANCH   5   6
ENDBRANCH   4   5
ENDBRANCH   3   4
ENDBRANCH   2   3
ENDBRANCH   1   2
BRANCH   1  29
ATOM     29  O   UNL A   1      32.426  29.656  24.559  1.00  0.00    -0.376 OA
BRANCH  29  30
ATOM     30  C   UNL A   1      31.534  29.891  25.638  1.00  0.00     0.202 C 
BRANCH  30  31
ATOM     31  C   UNL A   1      32.064  30.767  26.775  1.00  0.00     0.261 C 
BRANCH  31  32
ATOM     32  O   UNL A   1      33.379  30.400  27.222  1.00  0.00    -0.460 OA
BRANCH  32  33
ATOM     33  C   UNL A   1      34.131  31.431  27.679  1.00  0.00     0.338 C 
ATOM     34  O   UNL A   1      33.759  32.574  27.884  1.00  0.00    -0.246 OA
BRANCH  33  35
ATOM     35  C   UNL A   1      35.491  30.962  28.024  1.00  0.00     0.060 A 
ATOM     36  C   UNL A   1      35.643  29.619  28.393  1.00  0.00     0.016 A 
ATOM     37  C   UNL A   1      36.583  31.833  28.074  1.00  0.00     0.016 A 
ATOM     38  C   UNL A   1      36.876  29.155  28.854  1.00  0.00     0.010 A 
ATOM     39  C   UNL A   1      37.814  31.371  28.556  1.00  0.00     0.010 A 
ATOM     40  C   UNL A   1      37.957  30.039  28.980  1.00  0.00    -0.014 A 
BRANCH  40  41
ATOM     41  C   UNL A   1      39.182  29.596  29.693  1.00  0.00     0.031 A 
ATOM     42  C   UNL A   1      39.541  30.236  30.999  1.00  0.00     0.074 A 
ATOM     43  C   UNL A   1      39.960  28.618  29.199  1.00  0.00     0.049 A 
ATOM     44  N   UNL A   1      40.545  29.979  31.794  1.00  0.00    -0.248 NA
ATOM     45  C   UNL A   1      38.659  31.318  31.462  1.00  0.00     0.031 C 
ATOM     46  C   UNL A   1      39.721  27.938  27.936  1.00  0.00     0.029 A 
ATOM     47  N   UNL A   1      41.095  28.022  29.689  1.00  0.00    -0.354 N 
ATOM     48  C   UNL A   1      40.427  30.873  32.848  1.00  0.00     0.074 A 
ATOM     49  C   UNL A   1      39.258  31.686  32.585  1.00  0.00     0.031 C 
ATOM     50  C   UNL A   1      40.654  26.990  27.759  1.00  0.00     0.029 A 
ATOM     51  C   UNL A   1      41.583  27.019  28.884  1.00  0.00     0.049 A 
ATOM     52  H   UNL A   1      41.518  28.286  30.538  1.00  0.00     0.167 HD
ATOM     53  C   UNL A   1      41.228  31.009  33.931  1.00  0.00     0.037 A 
ATOM     54  C   UNL A   1      42.660  26.223  29.028  1.00  0.00     0.037 A 
ATOM     55  C   UNL A   1      42.404  30.217  34.176  1.00  0.00     0.049 A 
ATOM     56  C   UNL A   1      43.538  26.395  30.235  1.00  0.00     0.074 A 
ATOM     57  C   UNL A   1      43.279  30.285  35.246  1.00  0.00     0.029 A 
ATOM     58  N   UNL A   1      42.879  29.221  33.335  1.00  0.00    -0.354 N 
ATOM     59  N   UNL A   1      43.400  27.230  31.237  1.00  0.00    -0.248 NA
ATOM     60  C   UNL A   1      44.724  25.534  30.327  1.00  0.00     0.031 C 
ATOM     61  C   UNL A   1      44.305  29.357  35.031  1.00  0.00     0.029 A 
ATOM     62  C   UNL A   1      44.046  28.681  33.850  1.00  0.00     0.049 A 
ATOM     63  H   UNL A   1      42.449  28.940  32.495  1.00  0.00     0.167 HD
ATOM     64  C   UNL A   1      44.481  26.997  32.078  1.00  0.00     0.074 A 
ATOM     65  C   UNL A   1      45.250  25.924  31.481  1.00  0.00     0.031 C 
ATOM     66  C   UNL A   1      44.809  27.621  33.237  1.00  0.00     0.037 A 
BRANCH  53  67
ATOM     67  C   UNL A   1      40.869  32.096  34.900  1.00  0.00     0.058 A 
ATOM     68  C   UNL A   1      41.404  33.389  34.788  1.00  0.00     0.135 A 
ATOM     69  C   UNL A   1      40.000  31.833  35.970  1.00  0.00     0.135 A 
ATOM     70  F   UNL A   1      42.258  33.684  33.796  1.00  0.00    -0.206 F 
ATOM     71  C   UNL A   1      41.118  34.375  35.727  1.00  0.00     0.059 A 
ATOM     72  C   UNL A   1      39.682  32.810  36.908  1.00  0.00     0.059 A 
ATOM     73  F   UNL A   1      39.468  30.610  36.124  1.00  0.00    -0.206 F 
ATOM     74  C   UNL A   1      40.264  34.072  36.789  1.00  0.00     0.060 A 
BRANCH  74  75
ATOM     75  S   UNL A   1      39.927  35.346  38.021  1.00  0.00     0.124 S 
ATOM     76  O   UNL A   1      38.711  34.832  38.644  1.00  0.00    -0.237 OA
ATOM     77  O   UNL A   1      41.128  35.309  38.850  1.00  0.00    -0.237 OA
ATOM     78  O   UNL A   1      39.759  36.555  37.221  1.00  0.00    -0.744 OA
ENDBRANCH  74  75
ENDBRANCH  53  67
BRANCH  54  79
ATOM     79  C   UNL A   1      42.966  25.193  27.998  1.00  0.00     0.058 A 
ATOM     80  C   UNL A   1      43.657  25.529  26.825  1.00  0.00     0.135 A 
ATOM     81  C   UNL A   1      42.598  23.851  28.177  1.00  0.00     0.135 A 
ATOM     82  F   UNL A   1      44.020  26.801  26.600  1.00  0.00    -0.206 F 
ATOM     83  C   UNL A   1      43.974  24.571  25.866  1.00  0.00     0.059 A 
ATOM     84  C   UNL A   1      42.923  22.872  27.244  1.00  0.00     0.059 A 
ATOM     85  F   UNL A   1      41.944  23.476  29.288  1.00  0.00    -0.206 F 
ATOM     86  C   UNL A   1      43.608  23.242  26.088  1.00  0.00     0.060 A 
BRANCH  86  87
ATOM     87  S   UNL A   1      44.090  21.991  24.878  1.00  0.00     0.124 S 
ATOM     88  O   UNL A   1      43.245  20.868  25.263  1.00  0.00    -0.237 OA
ATOM     89  O   UNL A   1      43.754  22.639  23.613  1.00  0.00    -0.237 OA
ATOM     90  O   UNL A   1      45.519  21.825  25.124  1.00  0.00    -0.744 OA
ENDBRANCH  86  87
ENDBRANCH  54  79
BRANCH  66  91
ATOM     91  C   UNL A   1      46.055  27.159  33.936  1.00  0.00     0.058 A 
ATOM     92  C   UNL A   1      47.306  27.732  33.657  1.00  0.00     0.135 A 
ATOM     93  C   UNL A   1      45.993  26.169  34.928  1.00  0.00     0.135 A 
ATOM     94  F   UNL A   1      47.420  28.678  32.710  1.00  0.00    -0.206 F 
ATOM     95  C   UNL A   1      48.456  27.325  34.326  1.00  0.00     0.059 A 
ATOM     96  C   UNL A   1      47.126  25.762  35.624  1.00  0.00     0.059 A 
ATOM     97  F   UNL A   1      44.818  25.595  35.237  1.00  0.00    -0.206 F 
ATOM     98  C   UNL A   1      48.355  26.339  35.308  1.00  0.00     0.060 A 
BRANCH  98  99
ATOM     99  S   UNL A   1      49.847  25.843  36.197  1.00  0.00     0.124 S 
ATOM    100  O   UNL A   1      50.126  24.541  35.599  1.00  0.00    -0.237 OA
ATOM    101  O   UNL A   1      50.785  26.910  35.858  1.00  0.00    -0.237 OA
ATOM    102  O   UNL A   1      49.418  25.816  37.591  1.00  0.00    -0.744 OA
ENDBRANCH  98  99
ENDBRANCH  66  91
ENDBRANCH  40  41
ENDBRANCH  33  35
ENDBRANCH  32  33
ENDBRANCH  31  32
ENDBRANCH  30  31
ENDBRANCH  29  30
ENDBRANCH   1  29
TORSDOF 23
ENDMDL
