MODEL 1
REMARK VINA RESULT:     -10.4      0.000      0.000
REMARK SMILES O=C(COc1cc(-c2ccccc2)nc(NCc2ccc(Cl)cc2)n1)OCCOCCOCCOC(=O)c1ccc(-c2c3nc(c(-c4c(F)cc(S(=O)(=O)[O-])cc4F)c4ccc([nH]4)c(-c4c(F)cc(S(=O)(=O)[O-])cc4F)c4nc(c(-c5c(F)cc(S(=O)(=O)[O-])cc5F)c5ccc2[nH]5)C=C4)C=C3)cc1
REMARK SMILES IDX 30 1 29 2 28 3 27 4 26 5 2 6 1 7 3 8 4 9 5 10 6 11 25 12
REMARK SMILES IDX 7 13 15 14 14 15 8 16 9 17 13 18 10 19 12 20 11 21 16 22
REMARK SMILES IDX 17 24 18 25 19 26 24 27 20 28 23 29 21 30 22 31 31 32 32 33
REMARK SMILES IDX 33 34 34 35 35 36 36 37 37 38 38 39 39 40 103 41 40 42
REMARK SMILES IDX 102 43 41 44 42 45 43 46 96 47 44 48 101 49 95 50 97 51
REMARK SMILES IDX 45 52 100 53 94 54 93 55 46 57 80 58 59 59 79 60 60 61 63 62
REMARK SMILES IDX 78 63 98 64 61 65 62 66 77 68 99 69 64 70 47 71 48 72 57 73
REMARK SMILES IDX 49 74 50 75 56 76 58 77 51 78 52 79 53 80 54 81 55 82 81 83
REMARK SMILES IDX 82 84 91 85 83 86 84 87 90 88 92 89 85 90 86 91 87 92 88 93
REMARK SMILES IDX 89 94 65 95 66 96 75 97 67 98 68 99 74 100 76 101 69 102
REMARK SMILES IDX 70 103 71 104 72 105 73 106
REMARK H PARENT 16 23 97 56 63 67
REMARK Flexibility Score: inf
ROOT
ATOM      1  C   UNL A   1      32.695  28.551  25.823  1.00  0.00     0.188 C 
ENDROOT
BRANCH   1   2
ATOM      2  O   UNL A   1      32.988  28.514  24.435  1.00  0.00    -0.376 OA
BRANCH   2   3
ATOM      3  C   UNL A   1      34.048  27.676  24.026  1.00  0.00     0.202 C 
BRANCH   3   4
ATOM      4  C   UNL A   1      34.158  26.405  24.863  1.00  0.00     0.261 C 
BRANCH   4   5
ATOM      5  O   UNL A   1      33.576  25.206  24.289  1.00  0.00    -0.461 OA
BRANCH   5   6
ATOM      6  C   UNL A   1      33.741  24.704  23.042  1.00  0.00     0.344 C 
ATOM      7  O   UNL A   1      34.795  24.144  22.750  1.00  0.00    -0.248 OA
BRANCH   6   8
ATOM      8  C   UNL A   1      32.623  24.871  22.026  1.00  0.00     0.353 C 
BRANCH   8   9
ATOM      9  O   UNL A   1      32.406  26.221  21.625  1.00  0.00    -0.466 OA
BRANCH   9  10
ATOM     10  C   UNL A   1      31.231  26.651  22.166  1.00  0.00     0.219 A 
ATOM     11  C   UNL A   1      30.704  27.862  21.833  1.00  0.00     0.097 A 
ATOM     12  N   UNL A   1      30.760  25.869  23.121  1.00  0.00    -0.177 NA
ATOM     13  C   UNL A   1      29.737  28.337  22.682  1.00  0.00     0.080 A 
ATOM     14  C   UNL A   1      29.785  26.367  23.879  1.00  0.00     0.226 A 
ATOM     15  N   UNL A   1      29.271  27.599  23.718  1.00  0.00    -0.213 NA
BRANCH  13  16
ATOM     16  C   UNL A   1      29.340  29.752  22.558  1.00  0.00     0.000 A 
ATOM     17  C   UNL A   1      28.746  30.232  21.382  1.00  0.00     0.010 A 
ATOM     18  C   UNL A   1      29.370  30.612  23.677  1.00  0.00     0.010 A 
ATOM     19  C   UNL A   1      28.163  31.504  21.341  1.00  0.00     0.001 A 
ATOM     20  C   UNL A   1      28.784  31.878  23.639  1.00  0.00     0.001 A 
ATOM     21  C   UNL A   1      28.172  32.320  22.471  1.00  0.00     0.000 A 
ENDBRANCH  13  16
BRANCH  14  22
ATOM     22  N   UNL A   1      29.332  25.585  24.903  1.00  0.00    -0.350 N 
ATOM     23  H   UNL A   1      28.483  25.094  24.809  1.00  0.00     0.164 HD
BRANCH  22  24
ATOM     24  C   UNL A   1      30.098  25.479  26.122  1.00  0.00     0.152 C 
BRANCH  24  25
ATOM     25  C   UNL A   1      30.939  24.228  26.156  1.00  0.00    -0.029 A 
ATOM     26  C   UNL A   1      32.024  24.125  27.047  1.00  0.00     0.007 A 
ATOM     27  C   UNL A   1      30.694  23.178  25.262  1.00  0.00     0.007 A 
ATOM     28  C   UNL A   1      32.868  23.011  27.015  1.00  0.00     0.021 A 
ATOM     29  C   UNL A   1      31.536  22.066  25.235  1.00  0.00     0.021 A 
ATOM     30  C   UNL A   1      32.633  21.997  26.092  1.00  0.00     0.041 A 
ATOM     31  Cl  UNL A   1      33.735  20.688  25.930  1.00  0.00    -0.084 Cl
ENDBRANCH  24  25
ENDBRANCH  22  24
ENDBRANCH  14  22
ENDBRANCH   9  10
ENDBRANCH   8   9
ENDBRANCH   6   8
ENDBRANCH   5   6
ENDBRANCH   4   5
ENDBRANCH   3   4
ENDBRANCH   2   3
ENDBRANCH   1   2
BRANCH   1  32
ATOM     32  C   UNL A   1      31.634  29.601  26.198  1.00  0.00     0.188 C 
BRANCH  32  33
ATOM     33  O   UNL A   1      32.030  30.862  26.730  1.00  0.00    -0.376 OA
BRANCH  33  34
ATOM     34  C   UNL A   1      31.219  32.006  26.516  1.00  0.00     0.202 C 
BRANCH  34  35
ATOM     35  C   UNL A   1      31.813  33.373  26.879  1.00  0.00     0.261 C 
BRANCH  35  36
ATOM     36  O   UNL A   1      33.060  33.329  27.600  1.00  0.00    -0.460 OA
BRANCH  36  37
ATOM     37  C   UNL A   1      33.272  34.353  28.469  1.00  0.00     0.338 C 
ATOM     38  O   UNL A   1      32.571  35.341  28.606  1.00  0.00    -0.246 OA
BRANCH  37  39
ATOM     39  C   UNL A   1      34.404  34.054  29.386  1.00  0.00     0.060 A 
ATOM     40  C   UNL A   1      35.704  34.241  28.895  1.00  0.00     0.016 A 
ATOM     41  C   UNL A   1      34.217  33.527  30.667  1.00  0.00     0.016 A 
ATOM     42  C   UNL A   1      36.812  33.845  29.650  1.00  0.00     0.010 A 
ATOM     43  C   UNL A   1      35.333  33.111  31.416  1.00  0.00     0.010 A 
ATOM     44  C   UNL A   1      36.636  33.228  30.895  1.00  0.00    -0.014 A 
BRANCH  44  45
ATOM     45  C   UNL A   1      37.794  32.545  31.539  1.00  0.00     0.031 A 
ATOM     46  C   UNL A   1      38.268  33.027  32.889  1.00  0.00     0.074 A 
ATOM     47  C   UNL A   1      38.382  31.467  30.985  1.00  0.00     0.049 A 
ATOM     48  N   UNL A   1      39.246  32.580  33.636  1.00  0.00    -0.248 NA
ATOM     49  C   UNL A   1      37.537  34.162  33.474  1.00  0.00     0.031 C 
ATOM     50  C   UNL A   1      38.011  30.858  29.710  1.00  0.00     0.029 A 
ATOM     51  N   UNL A   1      39.426  30.694  31.436  1.00  0.00    -0.354 N 
ATOM     52  C   UNL A   1      39.242  33.368  34.781  1.00  0.00     0.074 A 
ATOM     53  C   UNL A   1      38.189  34.349  34.613  1.00  0.00     0.031 C 
ATOM     54  C   UNL A   1      38.825  29.813  29.474  1.00  0.00     0.029 A 
ATOM     55  C   UNL A   1      39.787  29.691  30.569  1.00  0.00     0.049 A 
ATOM     56  H   UNL A   1      39.873  30.845  32.300  1.00  0.00     0.167 HD
ATOM     57  C   UNL A   1      40.026  33.281  35.884  1.00  0.00     0.037 A 
ATOM     58  C   UNL A   1      40.790  28.790  30.638  1.00  0.00     0.037 A 
ATOM     59  C   UNL A   1      41.079  32.315  36.067  1.00  0.00     0.049 A 
ATOM     60  C   UNL A   1      41.705  28.764  31.836  1.00  0.00     0.074 A 
ATOM     61  C   UNL A   1      41.922  32.159  37.156  1.00  0.00     0.029 A 
ATOM     62  N   UNL A   1      41.438  31.344  35.147  1.00  0.00    -0.354 N 
ATOM     63  N   UNL A   1      41.679  29.510  32.915  1.00  0.00    -0.248 NA
ATOM     64  C   UNL A   1      42.787  27.765  31.827  1.00  0.00     0.031 C 
ATOM     65  C   UNL A   1      42.818  31.121  36.875  1.00  0.00     0.029 A 
ATOM     66  C   UNL A   1      42.502  30.599  35.633  1.00  0.00     0.049 A 
ATOM     67  H   UNL A   1      41.003  31.204  34.275  1.00  0.00     0.167 HD
ATOM     68  C   UNL A   1      42.719  29.052  33.720  1.00  0.00     0.074 A 
ATOM     69  C   UNL A   1      43.344  27.953  33.015  1.00  0.00     0.031 C 
ATOM     70  C   UNL A   1      43.121  29.503  34.934  1.00  0.00     0.037 A 
BRANCH  57  71
ATOM     71  C   UNL A   1      39.780  34.266  36.991  1.00  0.00     0.058 A 
ATOM     72  C   UNL A   1      38.872  33.992  38.027  1.00  0.00     0.135 A 
ATOM     73  C   UNL A   1      40.503  35.467  37.052  1.00  0.00     0.135 A 
ATOM     74  F   UNL A   1      38.143  32.866  38.006  1.00  0.00    -0.206 F 
ATOM     75  C   UNL A   1      38.681  34.881  39.079  1.00  0.00     0.059 A 
ATOM     76  C   UNL A   1      40.346  36.360  38.108  1.00  0.00     0.059 A 
ATOM     77  F   UNL A   1      41.381  35.778  36.085  1.00  0.00    -0.206 F 
ATOM     78  C   UNL A   1      39.427  36.062  39.112  1.00  0.00     0.060 A 
BRANCH  78  79
ATOM     79  S   UNL A   1      39.189  37.191  40.500  1.00  0.00     0.124 S 
ATOM     80  O   UNL A   1      38.682  36.286  41.528  1.00  0.00    -0.237 OA
ATOM     81  O   UNL A   1      40.536  37.706  40.719  1.00  0.00    -0.237 OA
ATOM     82  O   UNL A   1      38.224  38.161  39.989  1.00  0.00    -0.744 OA
ENDBRANCH  78  79
ENDBRANCH  57  71
BRANCH  58  83
ATOM     83  C   UNL A   1      41.027  27.849  29.512  1.00  0.00     0.058 A 
ATOM     84  C   UNL A   1      40.201  26.734  29.301  1.00  0.00     0.135 A 
ATOM     85  C   UNL A   1      42.137  28.012  28.670  1.00  0.00     0.135 A 
ATOM     86  F   UNL A   1      39.139  26.526  30.095  1.00  0.00    -0.206 F 
ATOM     87  C   UNL A   1      40.486  25.793  28.317  1.00  0.00     0.059 A 
ATOM     88  C   UNL A   1      42.426  27.103  27.662  1.00  0.00     0.059 A 
ATOM     89  F   UNL A   1      42.955  29.064  28.827  1.00  0.00    -0.206 F 
ATOM     90  C   UNL A   1      41.604  25.987  27.506  1.00  0.00     0.060 A 
BRANCH  90  91
ATOM     91  S   UNL A   1      41.988  24.752  26.250  1.00  0.00     0.124 S 
ATOM     92  O   UNL A   1      40.774  23.944  26.247  1.00  0.00    -0.237 OA
ATOM     93  O   UNL A   1      42.209  25.582  25.071  1.00  0.00    -0.237 OA
ATOM     94  O   UNL A   1      43.175  24.101  26.794  1.00  0.00    -0.744 OA
ENDBRANCH  90  91
ENDBRANCH  58  83
BRANCH  70  95
ATOM     95  C   UNL A   1      44.268  28.787  35.598  1.00  0.00     0.058 A 
ATOM     96  C   UNL A   1      44.062  27.693  36.454  1.00  0.00     0.135 A 
ATOM     97  C   UNL A   1      45.593  29.192  35.366  1.00  0.00     0.135 A 
ATOM     98  F   UNL A   1      42.816  27.265  36.713  1.00  0.00    -0.206 F 
ATOM     99  C   UNL A   1      45.122  27.051  37.087  1.00  0.00     0.059 A 
ATOM    100  C   UNL A   1      46.671  28.547  35.966  1.00  0.00     0.059 A 
ATOM    101  F   UNL A   1      45.851  30.223  34.546  1.00  0.00    -0.206 F 
ATOM    102  C   UNL A   1      46.424  27.491  36.841  1.00  0.00     0.060 A 
BRANCH 102 103
ATOM    103  S   UNL A   1      47.795  26.653  37.668  1.00  0.00     0.124 S 
ATOM    104  O   UNL A   1      48.557  27.782  38.189  1.00  0.00    -0.237 OA
ATOM    105  O   UNL A   1      47.109  25.837  38.664  1.00  0.00    -0.237 OA
ATOM    106  O   UNL A   1      48.436  25.905  36.590  1.00  0.00    -0.744 OA
ENDBRANCH 102 103
ENDBRANCH  70  95
ENDBRANCH  44  45
ENDBRANCH  37  39
ENDBRANCH  36  37
ENDBRANCH  35  36
ENDBRANCH  34  35
ENDBRANCH  33  34
ENDBRANCH  32  33
ENDBRANCH   1  32
TORSDOF 26
ENDMDL
MODEL 2
REMARK VINA RESULT:     -10.1      5.921     11.391
REMARK SMILES O=C(COc1cc(-c2ccccc2)nc(NCc2ccc(Cl)cc2)n1)OCCOCCOCCOC(=O)c1ccc(-c2c3nc(c(-c4c(F)cc(S(=O)(=O)[O-])cc4F)c4ccc([nH]4)c(-c4c(F)cc(S(=O)(=O)[O-])cc4F)c4nc(c(-c5c(F)cc(S(=O)(=O)[O-])cc5F)c5ccc2[nH]5)C=C4)C=C3)cc1
REMARK SMILES IDX 30 1 29 2 28 3 27 4 26 5 2 6 1 7 3 8 4 9 5 10 6 11 25 12
REMARK SMILES IDX 7 13 15 14 14 15 8 16 9 17 13 18 10 19 12 20 11 21 16 22
REMARK SMILES IDX 17 24 18 25 19 26 24 27 20 28 23 29 21 30 22 31 31 32 32 33
REMARK SMILES IDX 33 34 34 35 35 36 36 37 37 38 38 39 39 40 103 41 40 42
REMARK SMILES IDX 102 43 41 44 42 45 43 46 96 47 44 48 101 49 95 50 97 51
REMARK SMILES IDX 45 52 100 53 94 54 93 55 46 57 80 58 59 59 79 60 60 61 63 62
REMARK SMILES IDX 78 63 98 64 61 65 62 66 77 68 99 69 64 70 47 71 48 72 57 73
REMARK SMILES IDX 49 74 50 75 56 76 58 77 51 78 52 79 53 80 54 81 55 82 81 83
REMARK SMILES IDX 82 84 91 85 83 86 84 87 90 88 92 89 85 90 86 91 87 92 88 93
REMARK SMILES IDX 89 94 65 95 66 96 75 97 67 98 68 99 74 100 76 101 69 102
REMARK SMILES IDX 70 103 71 104 72 105 73 106
REMARK H PARENT 16 23 97 56 63 67
REMARK Flexibility Score: inf
ROOT
ATOM      1  C   UNL A   1      35.602  22.590  24.317  1.00  0.00     0.188 C 
ENDROOT
BRANCH   1   2
ATOM      2  O   UNL A   1      34.495  21.709  24.214  1.00  0.00    -0.376 OA
BRANCH   2   3
ATOM      3  C   UNL A   1      34.256  20.849  25.308  1.00  0.00     0.202 C 
BRANCH   3   4
ATOM      4  C   UNL A   1      34.036  21.601  26.618  1.00  0.00     0.261 C 
BRANCH   4   5
ATOM      5  O   UNL A   1      32.661  21.938  26.941  1.00  0.00    -0.461 OA
BRANCH   5   6
ATOM      6  C   UNL A   1      31.773  22.647  26.206  1.00  0.00     0.344 C 
ATOM      7  O   UNL A   1      30.632  22.218  26.055  1.00  0.00    -0.248 OA
BRANCH   6   8
ATOM      8  C   UNL A   1      32.222  23.949  25.561  1.00  0.00     0.353 C 
BRANCH   8   9
ATOM      9  O   UNL A   1      32.370  25.026  26.482  1.00  0.00    -0.466 OA
BRANCH   9  10
ATOM     10  C   UNL A   1      32.879  26.100  25.815  1.00  0.00     0.219 A 
ATOM     11  C   UNL A   1      33.550  27.085  26.474  1.00  0.00     0.097 A 
ATOM     12  N   UNL A   1      32.533  26.157  24.541  1.00  0.00    -0.177 NA
ATOM     13  C   UNL A   1      33.701  28.261  25.782  1.00  0.00     0.080 A 
ATOM     14  C   UNL A   1      32.752  27.308  23.909  1.00  0.00     0.226 A 
ATOM     15  N   UNL A   1      33.298  28.389  24.495  1.00  0.00    -0.213 NA
BRANCH  13  16
ATOM     16  C   UNL A   1      34.144  29.452  26.529  1.00  0.00     0.000 A 
ATOM     17  C   UNL A   1      33.265  30.516  26.776  1.00  0.00     0.010 A 
ATOM     18  C   UNL A   1      35.398  29.473  27.178  1.00  0.00     0.010 A 
ATOM     19  C   UNL A   1      33.606  31.536  27.671  1.00  0.00     0.001 A 
ATOM     20  C   UNL A   1      35.737  30.486  28.076  1.00  0.00     0.001 A 
ATOM     21  C   UNL A   1      34.835  31.513  28.329  1.00  0.00     0.000 A 
ENDBRANCH  13  16
BRANCH  14  22
ATOM     22  N   UNL A   1      32.346  27.391  22.608  1.00  0.00    -0.350 N 
ATOM     23  H   UNL A   1      32.974  27.698  21.914  1.00  0.00     0.164 HD
BRANCH  22  24
ATOM     24  C   UNL A   1      30.994  27.029  22.250  1.00  0.00     0.152 C 
BRANCH  24  25
ATOM     25  C   UNL A   1      30.025  28.162  22.477  1.00  0.00    -0.029 A 
ATOM     26  C   UNL A   1      30.399  29.487  22.184  1.00  0.00     0.007 A 
ATOM     27  C   UNL A   1      28.765  27.922  23.041  1.00  0.00     0.007 A 
ATOM     28  C   UNL A   1      29.544  30.551  22.485  1.00  0.00     0.021 A 
ATOM     29  C   UNL A   1      27.912  28.986  23.336  1.00  0.00     0.021 A 
ATOM     30  C   UNL A   1      28.314  30.296  23.082  1.00  0.00     0.041 A 
ATOM     31  Cl  UNL A   1      27.306  31.590  23.597  1.00  0.00    -0.084 Cl
ENDBRANCH  24  25
ENDBRANCH  22  24
ENDBRANCH  14  22
ENDBRANCH   9  10
ENDBRANCH   8   9
ENDBRANCH   6   8
ENDBRANCH   5   6
ENDBRANCH   4   5
ENDBRANCH   3   4
ENDBRANCH   2   3
ENDBRANCH   1   2
BRANCH   1  32
ATOM     32  C   UNL A   1      36.953  21.913  24.024  1.00  0.00     0.188 C 
BRANCH  32  33
ATOM     33  O   UNL A   1      37.652  21.229  25.060  1.00  0.00    -0.376 OA
BRANCH  33  34
ATOM     34  C   UNL A   1      37.978  19.857  24.906  1.00  0.00     0.202 C 
BRANCH  34  35
ATOM     35  C   UNL A   1      39.259  19.353  25.585  1.00  0.00     0.261 C 
BRANCH  35  36
ATOM     36  O   UNL A   1      40.148  20.383  26.061  1.00  0.00    -0.460 OA
BRANCH  36  37
ATOM     37  C   UNL A   1      41.463  20.047  26.108  1.00  0.00     0.338 C 
ATOM     38  O   UNL A   1      41.938  18.951  25.864  1.00  0.00    -0.246 OA
BRANCH  37  39
ATOM     39  C   UNL A   1      42.316  21.244  26.340  1.00  0.00     0.060 A 
ATOM     40  C   UNL A   1      42.743  21.492  27.652  1.00  0.00     0.016 A 
ATOM     41  C   UNL A   1      42.631  22.153  25.326  1.00  0.00     0.016 A 
ATOM     42  C   UNL A   1      43.423  22.672  27.967  1.00  0.00     0.010 A 
ATOM     43  C   UNL A   1      43.299  23.348  25.649  1.00  0.00     0.010 A 
ATOM     44  C   UNL A   1      43.662  23.635  26.979  1.00  0.00    -0.014 A 
BRANCH  44  45
ATOM     45  C   UNL A   1      44.108  24.999  27.385  1.00  0.00     0.031 A 
ATOM     46  C   UNL A   1      45.503  25.450  27.020  1.00  0.00     0.074 A 
ATOM     47  C   UNL A   1      43.281  25.864  28.002  1.00  0.00     0.049 A 
ATOM     48  N   UNL A   1      46.098  26.590  27.262  1.00  0.00    -0.248 NA
ATOM     49  C   UNL A   1      46.332  24.484  26.282  1.00  0.00     0.031 C 
ATOM     50  C   UNL A   1      41.896  25.592  28.381  1.00  0.00     0.029 A 
ATOM     51  N   UNL A   1      43.496  27.156  28.421  1.00  0.00    -0.354 N 
ATOM     52  C   UNL A   1      47.365  26.487  26.697  1.00  0.00     0.074 A 
ATOM     53  C   UNL A   1      47.466  25.155  26.136  1.00  0.00     0.031 C 
ATOM     54  C   UNL A   1      41.390  26.680  28.989  1.00  0.00     0.029 A 
ATOM     55  C   UNL A   1      42.419  27.718  29.061  1.00  0.00     0.049 A 
ATOM     56  H   UNL A   1      44.345  27.634  28.274  1.00  0.00     0.167 HD
ATOM     57  C   UNL A   1      48.351  27.414  26.631  1.00  0.00     0.037 A 
ATOM     58  C   UNL A   1      42.281  28.922  29.656  1.00  0.00     0.037 A 
ATOM     59  C   UNL A   1      48.269  28.741  27.186  1.00  0.00     0.049 A 
ATOM     60  C   UNL A   1      43.422  29.908  29.645  1.00  0.00     0.074 A 
ATOM     61  C   UNL A   1      49.226  29.743  27.164  1.00  0.00     0.029 A 
ATOM     62  N   UNL A   1      47.175  29.254  27.863  1.00  0.00    -0.354 N 
ATOM     63  N   UNL A   1      44.609  29.796  29.097  1.00  0.00    -0.248 NA
ATOM     64  C   UNL A   1      43.201  31.190  30.334  1.00  0.00     0.031 C 
ATOM     65  C   UNL A   1      48.726  30.846  27.864  1.00  0.00     0.029 A 
ATOM     66  C   UNL A   1      47.440  30.550  28.280  1.00  0.00     0.049 A 
ATOM     67  H   UNL A   1      46.333  28.770  28.025  1.00  0.00     0.167 HD
ATOM     68  C   UNL A   1      45.260  31.001  29.351  1.00  0.00     0.074 A 
ATOM     69  C   UNL A   1      44.332  31.835  30.084  1.00  0.00     0.031 C 
ATOM     70  C   UNL A   1      46.515  31.381  29.007  1.00  0.00     0.037 A 
BRANCH  57  71
ATOM     71  C   UNL A   1      49.623  27.026  25.932  1.00  0.00     0.058 A 
ATOM     72  C   UNL A   1      49.808  27.265  24.561  1.00  0.00     0.135 A 
ATOM     73  C   UNL A   1      50.692  26.467  26.651  1.00  0.00     0.135 A 
ATOM     74  F   UNL A   1      48.812  27.780  23.824  1.00  0.00    -0.206 F 
ATOM     75  C   UNL A   1      51.004  26.952  23.924  1.00  0.00     0.059 A 
ATOM     76  C   UNL A   1      51.905  26.169  26.040  1.00  0.00     0.059 A 
ATOM     77  F   UNL A   1      50.565  26.215  27.964  1.00  0.00    -0.206 F 
ATOM     78  C   UNL A   1      52.049  26.408  24.674  1.00  0.00     0.060 A 
BRANCH  78  79
ATOM     79  S   UNL A   1      53.605  26.036  23.838  1.00  0.00     0.124 S 
ATOM     80  O   UNL A   1      53.959  24.753  24.438  1.00  0.00    -0.237 OA
ATOM     81  O   UNL A   1      53.203  25.990  22.436  1.00  0.00    -0.237 OA
ATOM     82  O   UNL A   1      54.465  27.157  24.205  1.00  0.00    -0.744 OA
ENDBRANCH  78  79
ENDBRANCH  57  71
BRANCH  58  83
ATOM     83  C   UNL A   1      41.021  29.263  30.367  1.00  0.00     0.058 A 
ATOM     84  C   UNL A   1      40.918  29.169  31.763  1.00  0.00     0.135 A 
ATOM     85  C   UNL A   1      39.871  29.618  29.646  1.00  0.00     0.135 A 
ATOM     86  F   UNL A   1      41.987  28.813  32.492  1.00  0.00    -0.206 F 
ATOM     87  C   UNL A   1      39.710  29.381  32.419  1.00  0.00     0.059 A 
ATOM     88  C   UNL A   1      38.661  29.863  30.280  1.00  0.00     0.059 A 
ATOM     89  F   UNL A   1      39.918  29.727  28.310  1.00  0.00    -0.206 F 
ATOM     90  C   UNL A   1      38.587  29.725  31.666  1.00  0.00     0.060 A 
BRANCH  90  91
ATOM     91  S   UNL A   1      37.016  29.971  32.516  1.00  0.00     0.124 S 
ATOM     92  O   UNL A   1      37.248  31.231  33.211  1.00  0.00    -0.237 OA
ATOM     93  O   UNL A   1      36.077  30.017  31.400  1.00  0.00    -0.237 OA
ATOM     94  O   UNL A   1      36.925  28.790  33.368  1.00  0.00    -0.744 OA
ENDBRANCH  90  91
ENDBRANCH  58  83
BRANCH  70  95
ATOM     95  C   UNL A   1      46.950  32.773  29.386  1.00  0.00     0.058 A 
ATOM     96  C   UNL A   1      47.615  33.037  30.595  1.00  0.00     0.135 A 
ATOM     97  C   UNL A   1      46.710  33.855  28.524  1.00  0.00     0.135 A 
ATOM     98  F   UNL A   1      47.867  32.040  31.458  1.00  0.00    -0.206 F 
ATOM     99  C   UNL A   1      47.991  34.328  30.953  1.00  0.00     0.059 A 
ATOM    100  C   UNL A   1      47.103  35.151  28.849  1.00  0.00     0.059 A 
ATOM    101  F   UNL A   1      46.091  33.660  27.349  1.00  0.00    -0.206 F 
ATOM    102  C   UNL A   1      47.724  35.380  30.075  1.00  0.00     0.060 A 
BRANCH 102 103
ATOM    103  S   UNL A   1      48.214  37.053  30.550  1.00  0.00     0.124 S 
ATOM    104  O   UNL A   1      47.740  37.832  29.412  1.00  0.00    -0.237 OA
ATOM    105  O   UNL A   1      47.488  37.251  31.801  1.00  0.00    -0.237 OA
ATOM    106  O   UNL A   1      49.665  36.956  30.685  1.00  0.00    -0.744 OA
ENDBRANCH 102 103
ENDBRANCH  70  95
ENDBRANCH  44  45
ENDBRANCH  37  39
ENDBRANCH  36  37
ENDBRANCH  35  36
ENDBRANCH  34  35
ENDBRANCH  33  34
ENDBRANCH  32  33
ENDBRANCH   1  32
TORSDOF 26
ENDMDL
MODEL 3
REMARK VINA RESULT:     -10.1      5.977      9.928
REMARK SMILES O=C(COc1cc(-c2ccccc2)nc(NCc2ccc(Cl)cc2)n1)OCCOCCOCCOC(=O)c1ccc(-c2c3nc(c(-c4c(F)cc(S(=O)(=O)[O-])cc4F)c4ccc([nH]4)c(-c4c(F)cc(S(=O)(=O)[O-])cc4F)c4nc(c(-c5c(F)cc(S(=O)(=O)[O-])cc5F)c5ccc2[nH]5)C=C4)C=C3)cc1
REMARK SMILES IDX 30 1 29 2 28 3 27 4 26 5 2 6 1 7 3 8 4 9 5 10 6 11 25 12
REMARK SMILES IDX 7 13 15 14 14 15 8 16 9 17 13 18 10 19 12 20 11 21 16 22
REMARK SMILES IDX 17 24 18 25 19 26 24 27 20 28 23 29 21 30 22 31 31 32 32 33
REMARK SMILES IDX 33 34 34 35 35 36 36 37 37 38 38 39 39 40 103 41 40 42
REMARK SMILES IDX 102 43 41 44 42 45 43 46 96 47 44 48 101 49 95 50 97 51
REMARK SMILES IDX 45 52 100 53 94 54 93 55 46 57 80 58 59 59 79 60 60 61 63 62
REMARK SMILES IDX 78 63 98 64 61 65 62 66 77 68 99 69 64 70 47 71 48 72 57 73
REMARK SMILES IDX 49 74 50 75 56 76 58 77 51 78 52 79 53 80 54 81 55 82 81 83
REMARK SMILES IDX 82 84 91 85 83 86 84 87 90 88 92 89 85 90 86 91 87 92 88 93
REMARK SMILES IDX 89 94 65 95 66 96 75 97 67 98 68 99 74 100 76 101 69 102
REMARK SMILES IDX 70 103 71 104 72 105 73 106
REMARK H PARENT 16 23 97 56 63 67
REMARK Flexibility Score: inf
ROOT
ATOM      1  C   UNL A   1      36.784  23.640  25.612  1.00  0.00     0.188 C 
ENDROOT
BRANCH   1   2
ATOM      2  O   UNL A   1      35.465  23.686  26.133  1.00  0.00    -0.376 OA
BRANCH   2   3
ATOM      3  C   UNL A   1      35.016  22.551  26.843  1.00  0.00     0.202 C 
BRANCH   3   4
ATOM      4  C   UNL A   1      33.880  21.818  26.135  1.00  0.00     0.261 C 
BRANCH   4   5
ATOM      5  O   UNL A   1      32.560  21.962  26.720  1.00  0.00    -0.461 OA
BRANCH   5   6
ATOM      6  C   UNL A   1      31.387  22.222  26.097  1.00  0.00     0.344 C 
ATOM      7  O   UNL A   1      31.051  21.541  25.131  1.00  0.00    -0.248 OA
BRANCH   6   8
ATOM      8  C   UNL A   1      30.524  23.371  26.596  1.00  0.00     0.353 C 
BRANCH   8   9
ATOM      9  O   UNL A   1      31.257  24.391  27.268  1.00  0.00    -0.466 OA
BRANCH   9  10
ATOM     10  C   UNL A   1      31.518  25.393  26.382  1.00  0.00     0.219 A 
ATOM     11  C   UNL A   1      32.398  26.388  26.683  1.00  0.00     0.097 A 
ATOM     12  N   UNL A   1      30.745  25.379  25.311  1.00  0.00    -0.177 NA
ATOM     13  C   UNL A   1      32.316  27.506  25.891  1.00  0.00     0.080 A 
ATOM     14  C   UNL A   1      30.748  26.474  24.553  1.00  0.00     0.226 A 
ATOM     15  N   UNL A   1      31.486  27.566  24.823  1.00  0.00    -0.213 NA
BRANCH  13  16
ATOM     16  C   UNL A   1      33.019  28.724  26.338  1.00  0.00     0.000 A 
ATOM     17  C   UNL A   1      32.310  29.900  26.620  1.00  0.00     0.010 A 
ATOM     18  C   UNL A   1      34.389  28.685  26.676  1.00  0.00     0.010 A 
ATOM     19  C   UNL A   1      32.936  30.978  27.258  1.00  0.00     0.001 A 
ATOM     20  C   UNL A   1      35.012  29.756  27.317  1.00  0.00     0.001 A 
ATOM     21  C   UNL A   1      34.281  30.900  27.616  1.00  0.00     0.000 A 
ENDBRANCH  13  16
BRANCH  14  22
ATOM     22  N   UNL A   1      29.909  26.488  23.475  1.00  0.00    -0.350 N 
ATOM     23  H   UNL A   1      30.207  26.115  22.614  1.00  0.00     0.164 HD
BRANCH  22  24
ATOM     24  C   UNL A   1      28.585  27.051  23.600  1.00  0.00     0.152 C 
BRANCH  24  25
ATOM     25  C   UNL A   1      28.504  28.443  23.024  1.00  0.00    -0.029 A 
ATOM     26  C   UNL A   1      29.596  28.983  22.317  1.00  0.00     0.007 A 
ATOM     27  C   UNL A   1      27.373  29.240  23.237  1.00  0.00     0.007 A 
ATOM     28  C   UNL A   1      29.567  30.306  21.868  1.00  0.00     0.021 A 
ATOM     29  C   UNL A   1      27.345  30.559  22.784  1.00  0.00     0.021 A 
ATOM     30  C   UNL A   1      28.450  31.095  22.124  1.00  0.00     0.041 A 
ATOM     31  Cl  UNL A   1      28.445  32.765  21.714  1.00  0.00    -0.084 Cl
ENDBRANCH  24  25
ENDBRANCH  22  24
ENDBRANCH  14  22
ENDBRANCH   9  10
ENDBRANCH   8   9
ENDBRANCH   6   8
ENDBRANCH   5   6
ENDBRANCH   4   5
ENDBRANCH   3   4
ENDBRANCH   2   3
ENDBRANCH   1   2
BRANCH   1  32
ATOM     32  C   UNL A   1      37.261  22.215  25.276  1.00  0.00     0.188 C 
BRANCH  32  33
ATOM     33  O   UNL A   1      38.563  21.786  25.662  1.00  0.00    -0.376 OA
BRANCH  33  34
ATOM     34  C   UNL A   1      38.971  20.451  25.407  1.00  0.00     0.202 C 
BRANCH  34  35
ATOM     35  C   UNL A   1      40.085  19.871  26.289  1.00  0.00     0.261 C 
BRANCH  35  36
ATOM     36  O   UNL A   1      41.187  19.276  25.576  1.00  0.00    -0.460 OA
BRANCH  36  37
ATOM     37  C   UNL A   1      42.418  19.496  26.108  1.00  0.00     0.338 C 
ATOM     38  O   UNL A   1      43.329  18.689  26.178  1.00  0.00    -0.246 OA
BRANCH  37  39
ATOM     39  C   UNL A   1      42.602  20.928  26.465  1.00  0.00     0.060 A 
ATOM     40  C   UNL A   1      42.667  21.855  25.416  1.00  0.00     0.016 A 
ATOM     41  C   UNL A   1      42.787  21.359  27.782  1.00  0.00     0.016 A 
ATOM     42  C   UNL A   1      42.982  23.194  25.669  1.00  0.00     0.010 A 
ATOM     43  C   UNL A   1      43.122  22.701  28.032  1.00  0.00     0.010 A 
ATOM     44  C   UNL A   1      43.264  23.619  26.974  1.00  0.00    -0.014 A 
BRANCH  44  45
ATOM     45  C   UNL A   1      43.887  24.957  27.184  1.00  0.00     0.031 A 
ATOM     46  C   UNL A   1      43.054  26.064  27.786  1.00  0.00     0.074 A 
ATOM     47  C   UNL A   1      45.187  25.186  26.920  1.00  0.00     0.049 A 
ATOM     48  N   UNL A   1      43.389  27.298  28.066  1.00  0.00    -0.248 NA
ATOM     49  C   UNL A   1      41.661  25.729  28.121  1.00  0.00     0.031 C 
ATOM     50  C   UNL A   1      46.129  24.209  26.377  1.00  0.00     0.029 A 
ATOM     51  N   UNL A   1      45.939  26.327  27.075  1.00  0.00    -0.354 N 
ATOM     52  C   UNL A   1      42.255  27.885  28.618  1.00  0.00     0.074 A 
ATOM     53  C   UNL A   1      41.211  26.881  28.597  1.00  0.00     0.031 C 
ATOM     54  C   UNL A   1      47.330  24.797  26.231  1.00  0.00     0.029 A 
ATOM     55  C   UNL A   1      47.239  26.196  26.650  1.00  0.00     0.049 A 
ATOM     56  H   UNL A   1      45.579  27.161  27.455  1.00  0.00     0.167 HD
ATOM     57  C   UNL A   1      42.094  29.135  29.116  1.00  0.00     0.037 A 
ATOM     58  C   UNL A   1      48.237  27.103  26.587  1.00  0.00     0.037 A 
ATOM     59  C   UNL A   1      43.120  30.147  29.142  1.00  0.00     0.049 A 
ATOM     60  C   UNL A   1      48.012  28.514  27.068  1.00  0.00     0.074 A 
ATOM     61  C   UNL A   1      43.037  31.442  29.629  1.00  0.00     0.029 A 
ATOM     62  N   UNL A   1      44.410  29.984  28.664  1.00  0.00    -0.354 N 
ATOM     63  N   UNL A   1      46.936  29.047  27.597  1.00  0.00    -0.248 NA
ATOM     64  C   UNL A   1      49.143  29.449  26.946  1.00  0.00     0.031 C 
ATOM     65  C   UNL A   1      44.265  32.075  29.406  1.00  0.00     0.029 A 
ATOM     66  C   UNL A   1      45.126  31.161  28.826  1.00  0.00     0.049 A 
ATOM     67  H   UNL A   1      44.765  29.157  28.267  1.00  0.00     0.167 HD
ATOM     68  C   UNL A   1      47.272  30.366  27.895  1.00  0.00     0.074 A 
ATOM     69  C   UNL A   1      48.654  30.546  27.506  1.00  0.00     0.031 C 
ATOM     70  C   UNL A   1      46.503  31.339  28.442  1.00  0.00     0.037 A 
BRANCH  57  71
ATOM     71  C   UNL A   1      40.746  29.491  29.676  1.00  0.00     0.058 A 
ATOM     72  C   UNL A   1      39.643  29.725  28.840  1.00  0.00     0.135 A 
ATOM     73  C   UNL A   1      40.540  29.539  31.064  1.00  0.00     0.135 A 
ATOM     74  F   UNL A   1      39.791  29.710  27.506  1.00  0.00    -0.206 F 
ATOM     75  C   UNL A   1      38.384  30.005  29.360  1.00  0.00     0.059 A 
ATOM     76  C   UNL A   1      39.284  29.793  31.607  1.00  0.00     0.059 A 
ATOM     77  F   UNL A   1      41.563  29.326  31.908  1.00  0.00    -0.206 F 
ATOM     78  C   UNL A   1      38.214  30.033  30.746  1.00  0.00     0.060 A 
BRANCH  78  79
ATOM     79  S   UNL A   1      36.567  30.368  31.404  1.00  0.00     0.124 S 
ATOM     80  O   UNL A   1      36.726  29.974  32.801  1.00  0.00    -0.237 OA
ATOM     81  O   UNL A   1      36.419  31.800  31.163  1.00  0.00    -0.237 OA
ATOM     82  O   UNL A   1      35.699  29.507  30.605  1.00  0.00    -0.744 OA
ENDBRANCH  78  79
ENDBRANCH  57  71
BRANCH  58  83
ATOM     83  C   UNL A   1      49.550  26.728  25.998  1.00  0.00     0.058 A 
ATOM     84  C   UNL A   1      50.629  26.334  26.804  1.00  0.00     0.135 A 
ATOM     85  C   UNL A   1      49.766  26.833  24.616  1.00  0.00     0.135 A 
ATOM     86  F   UNL A   1      50.475  26.240  28.133  1.00  0.00    -0.206 F 
ATOM     87  C   UNL A   1      51.888  26.091  26.265  1.00  0.00     0.059 A 
ATOM     88  C   UNL A   1      51.005  26.567  24.051  1.00  0.00     0.059 A 
ATOM     89  F   UNL A   1      48.765  27.200  23.802  1.00  0.00    -0.206 F 
ATOM     90  C   UNL A   1      52.065  26.213  24.886  1.00  0.00     0.060 A 
BRANCH  90  91
ATOM     91  S   UNL A   1      53.704  25.925  24.193  1.00  0.00     0.124 S 
ATOM     92  O   UNL A   1      54.001  24.584  24.681  1.00  0.00    -0.237 OA
ATOM     93  O   UNL A   1      53.448  26.045  22.762  1.00  0.00    -0.237 OA
ATOM     94  O   UNL A   1      54.495  26.999  24.785  1.00  0.00    -0.744 OA
ENDBRANCH  90  91
ENDBRANCH  58  83
BRANCH  70  95
ATOM     95  C   UNL A   1      47.146  32.679  28.687  1.00  0.00     0.058 A 
ATOM     96  C   UNL A   1      47.705  33.016  29.931  1.00  0.00     0.135 A 
ATOM     97  C   UNL A   1      47.216  33.636  27.660  1.00  0.00     0.135 A 
ATOM     98  F   UNL A   1      47.663  32.141  30.948  1.00  0.00    -0.206 F 
ATOM     99  C   UNL A   1      48.273  34.265  30.160  1.00  0.00     0.059 A 
ATOM    100  C   UNL A   1      47.806  34.881  27.859  1.00  0.00     0.059 A 
ATOM    101  F   UNL A   1      46.711  33.364  26.447  1.00  0.00    -0.206 F 
ATOM    102  C   UNL A   1      48.314  35.194  29.119  1.00  0.00     0.060 A 
BRANCH 102 103
ATOM    103  S   UNL A   1      49.053  36.813  29.427  1.00  0.00     0.124 S 
ATOM    104  O   UNL A   1      49.547  36.656  30.791  1.00  0.00    -0.237 OA
ATOM    105  O   UNL A   1      50.074  36.896  28.388  1.00  0.00    -0.237 OA
ATOM    106  O   UNL A   1      47.931  37.734  29.268  1.00  0.00    -0.744 OA
ENDBRANCH 102 103
ENDBRANCH  70  95
ENDBRANCH  44  45
ENDBRANCH  37  39
ENDBRANCH  36  37
ENDBRANCH  35  36
ENDBRANCH  34  35
ENDBRANCH  33  34
ENDBRANCH  32  33
ENDBRANCH   1  32
TORSDOF 26
ENDMDL
