MODEL 1
REMARK VINA RESULT:      -7.7      0.000      0.000
REMARK SMILES O=C(/C=C/c1ccc(NC(=O)c2cc(C(F)(F)F)cc(C(F)(F)F)c2)cc1)OCCOCCOCCOC(=O)c1ccc(-c2c3nc(c(-c4c(F)cc(S(=O)(=O)[O-])cc4F)c4ccc([nH]4)c(-c4c(F)cc(S(=O)(=O)[O-])cc4F)c4nc(c(-c5c(F)cc(S(=O)(=O)[O-])cc5F)c5ccc2[nH]5)C=C4)C=C3)cc1
REMARK SMILES IDX 32 1 31 2 30 3 29 4 28 5 2 6 1 7 3 8 4 9 5 10 6 11 27 12
REMARK SMILES IDX 7 13 26 14 8 15 9 16 10 17 11 19 12 20 13 21 25 22 14 23
REMARK SMILES IDX 20 24 19 25 15 26 16 27 17 28 18 29 21 30 22 31 23 32 24 33
REMARK SMILES IDX 33 34 34 35 35 36 36 37 37 38 38 39 39 40 40 41 41 42 105 43
REMARK SMILES IDX 42 44 104 45 43 46 44 47 45 48 98 49 46 50 103 51 97 52
REMARK SMILES IDX 99 53 47 54 102 55 96 56 95 57 48 59 82 60 61 61 81 62 62 63
REMARK SMILES IDX 65 64 80 65 100 66 63 67 64 68 79 70 101 71 66 72 49 73
REMARK SMILES IDX 50 74 59 75 51 76 52 77 58 78 60 79 53 80 54 81 55 82 56 83
REMARK SMILES IDX 57 84 83 85 84 86 93 87 85 88 86 89 92 90 94 91 87 92 88 93
REMARK SMILES IDX 89 94 90 95 91 96 67 97 68 98 77 99 69 100 70 101 76 102
REMARK SMILES IDX 78 103 71 104 72 105 73 106 74 107 75 108
REMARK H PARENT 9 18 99 58 65 69
REMARK Flexibility Score: inf
ROOT
ATOM      1  C   UNL A   1      36.446  32.991  32.021  1.00  0.00     0.188 C 
ENDROOT
BRANCH   1   2
ATOM      2  O   UNL A   1      37.260  32.298  32.943  1.00  0.00    -0.376 OA
BRANCH   2   3
ATOM      3  C   UNL A   1      37.540  32.784  34.238  1.00  0.00     0.202 C 
BRANCH   3   4
ATOM      4  C   UNL A   1      38.212  31.945  35.329  1.00  0.00     0.261 C 
BRANCH   4   5
ATOM      5  O   UNL A   1      39.493  31.386  35.018  1.00  0.00    -0.460 OA
BRANCH   5   6
ATOM      6  C   UNL A   1      39.569  30.121  34.542  1.00  0.00     0.330 C 
ATOM      7  O   UNL A   1      38.738  29.638  33.789  1.00  0.00    -0.247 OA
BRANCH   6   8
ATOM      8  C   UNL A   1      40.502  29.293  35.322  1.00  0.00     0.094 C 
ATOM      9  C   UNL A   1      41.504  28.632  34.728  1.00  0.00     0.015 C 
BRANCH   9  10
ATOM     10  C   UNL A   1      42.535  27.913  35.482  1.00  0.00    -0.025 A 
ATOM     11  C   UNL A   1      42.144  27.106  36.554  1.00  0.00     0.010 A 
ATOM     12  C   UNL A   1      43.897  28.040  35.202  1.00  0.00     0.010 A 
ATOM     13  C   UNL A   1      43.093  26.430  37.329  1.00  0.00     0.027 A 
ATOM     14  C   UNL A   1      44.845  27.354  35.974  1.00  0.00     0.027 A 
ATOM     15  C   UNL A   1      44.451  26.526  37.032  1.00  0.00     0.041 A 
BRANCH  15  16
ATOM     16  N   UNL A   1      45.470  25.898  37.773  1.00  0.00    -0.322 N 
ATOM     17  C   UNL A   1      45.870  24.586  37.882  1.00  0.00     0.255 C 
ATOM     18  H   UNL A   1      46.000  26.520  38.323  1.00  0.00     0.170 HD
ATOM     19  O   UNL A   1      46.534  24.220  38.851  1.00  0.00    -0.269 OA
BRANCH  17  20
ATOM     20  C   UNL A   1      45.588  23.582  36.829  1.00  0.00     0.041 A 
ATOM     21  C   UNL A   1      45.911  22.241  37.081  1.00  0.00     0.027 A 
ATOM     22  C   UNL A   1      45.070  23.952  35.582  1.00  0.00     0.027 A 
ATOM     23  C   UNL A   1      45.668  21.252  36.115  1.00  0.00     0.057 A 
ATOM     24  C   UNL A   1      44.778  22.974  34.618  1.00  0.00     0.057 A 
ATOM     25  C   UNL A   1      45.089  21.630  34.891  1.00  0.00     0.026 A 
BRANCH  23  26
ATOM     26  C   UNL A   1      46.015  19.812  36.405  1.00  0.00     0.416 C 
ATOM     27  F   UNL A   1      47.307  19.506  36.104  1.00  0.00    -0.166 F 
ATOM     28  F   UNL A   1      45.848  19.494  37.719  1.00  0.00    -0.166 F 
ATOM     29  F   UNL A   1      45.250  18.922  35.712  1.00  0.00    -0.166 F 
ENDBRANCH  23  26
BRANCH  24  30
ATOM     30  C   UNL A   1      44.125  23.347  33.310  1.00  0.00     0.416 C 
ATOM     31  F   UNL A   1      42.906  22.763  33.148  1.00  0.00    -0.166 F 
ATOM     32  F   UNL A   1      43.909  24.689  33.208  1.00  0.00    -0.166 F 
ATOM     33  F   UNL A   1      44.858  23.002  32.220  1.00  0.00    -0.166 F 
ENDBRANCH  24  30
ENDBRANCH  17  20
ENDBRANCH  15  16
ENDBRANCH   9  10
ENDBRANCH   6   8
ENDBRANCH   5   6
ENDBRANCH   4   5
ENDBRANCH   3   4
ENDBRANCH   2   3
ENDBRANCH   1   2
BRANCH   1  34
ATOM     34  C   UNL A   1      35.140  32.336  31.555  1.00  0.00     0.188 C 
BRANCH  34  35
ATOM     35  O   UNL A   1      34.226  33.045  30.731  1.00  0.00    -0.376 OA
BRANCH  35  36
ATOM     36  C   UNL A   1      34.526  33.274  29.361  1.00  0.00     0.202 C 
BRANCH  36  37
ATOM     37  C   UNL A   1      33.850  32.402  28.299  1.00  0.00     0.261 C 
BRANCH  37  38
ATOM     38  O   UNL A   1      34.764  31.651  27.485  1.00  0.00    -0.460 OA
BRANCH  38  39
ATOM     39  C   UNL A   1      34.955  30.365  27.868  1.00  0.00     0.338 C 
ATOM     40  O   UNL A   1      34.240  29.411  27.619  1.00  0.00    -0.246 OA
BRANCH  39  41
ATOM     41  C   UNL A   1      36.251  30.220  28.559  1.00  0.00     0.060 A 
ATOM     42  C   UNL A   1      37.369  30.850  28.000  1.00  0.00     0.016 A 
ATOM     43  C   UNL A   1      36.393  29.388  29.671  1.00  0.00     0.016 A 
ATOM     44  C   UNL A   1      38.640  30.613  28.525  1.00  0.00     0.010 A 
ATOM     45  C   UNL A   1      37.667  29.151  30.197  1.00  0.00     0.010 A 
ATOM     46  C   UNL A   1      38.801  29.729  29.601  1.00  0.00    -0.014 A 
BRANCH  46  47
ATOM     47  C   UNL A   1      40.162  29.277  29.986  1.00  0.00     0.031 A 
ATOM     48  C   UNL A   1      40.996  30.163  30.877  1.00  0.00     0.074 A 
ATOM     49  C   UNL A   1      40.645  28.092  29.575  1.00  0.00     0.049 A 
ATOM     50  N   UNL A   1      42.215  29.987  31.314  1.00  0.00    -0.248 NA
ATOM     51  C   UNL A   1      40.367  31.414  31.332  1.00  0.00     0.031 C 
ATOM     52  C   UNL A   1      39.929  27.129  28.740  1.00  0.00     0.029 A 
ATOM     53  N   UNL A   1      41.862  27.500  29.805  1.00  0.00    -0.354 N 
ATOM     54  C   UNL A   1      42.503  31.103  32.091  1.00  0.00     0.074 A 
ATOM     55  C   UNL A   1      41.341  31.963  32.042  1.00  0.00     0.031 C 
ATOM     56  C   UNL A   1      40.725  26.069  28.519  1.00  0.00     0.029 A 
ATOM     57  C   UNL A   1      42.015  26.289  29.173  1.00  0.00     0.049 A 
ATOM     58  H   UNL A   1      42.561  27.904  30.369  1.00  0.00     0.167 HD
ATOM     59  C   UNL A   1      43.629  31.384  32.790  1.00  0.00     0.037 A 
ATOM     60  C   UNL A   1      43.079  25.464  29.115  1.00  0.00     0.037 A 
ATOM     61  C   UNL A   1      44.786  30.529  32.842  1.00  0.00     0.049 A 
ATOM     62  C   UNL A   1      44.345  25.823  29.851  1.00  0.00     0.074 A 
ATOM     63  C   UNL A   1      45.966  30.720  33.539  1.00  0.00     0.029 A 
ATOM     64  N   UNL A   1      44.911  29.325  32.165  1.00  0.00    -0.354 N 
ATOM     65  N   UNL A   1      44.593  26.872  30.599  1.00  0.00    -0.248 NA
ATOM     66  C   UNL A   1      45.473  24.888  29.734  1.00  0.00     0.031 C 
ATOM     67  C   UNL A   1      46.822  29.650  33.252  1.00  0.00     0.029 A 
ATOM     68  C   UNL A   1      46.158  28.773  32.410  1.00  0.00     0.049 A 
ATOM     69  H   UNL A   1      44.217  28.923  31.597  1.00  0.00     0.167 HD
ATOM     70  C   UNL A   1      45.897  26.712  31.059  1.00  0.00     0.074 A 
ATOM     71  C   UNL A   1      46.382  25.461  30.513  1.00  0.00     0.031 C 
ATOM     72  C   UNL A   1      46.627  27.526  31.862  1.00  0.00     0.037 A 
BRANCH  59  73
ATOM     73  C   UNL A   1      43.670  32.685  33.539  1.00  0.00     0.058 A 
ATOM     74  C   UNL A   1      43.309  32.767  34.893  1.00  0.00     0.135 A 
ATOM     75  C   UNL A   1      44.094  33.862  32.901  1.00  0.00     0.135 A 
ATOM     76  F   UNL A   1      42.879  31.675  35.545  1.00  0.00    -0.206 F 
ATOM     77  C   UNL A   1      43.341  33.975  35.582  1.00  0.00     0.059 A 
ATOM     78  C   UNL A   1      44.156  35.076  33.576  1.00  0.00     0.059 A 
ATOM     79  F   UNL A   1      44.447  33.837  31.606  1.00  0.00    -0.206 F 
ATOM     80  C   UNL A   1      43.763  35.126  34.913  1.00  0.00     0.060 A 
BRANCH  80  81
ATOM     81  S   UNL A   1      43.797  36.689  35.816  1.00  0.00     0.124 S 
ATOM     82  O   UNL A   1      42.378  36.894  36.093  1.00  0.00    -0.237 OA
ATOM     83  O   UNL A   1      44.627  36.366  36.972  1.00  0.00    -0.237 OA
ATOM     84  O   UNL A   1      44.391  37.620  34.861  1.00  0.00    -0.744 OA
ENDBRANCH  80  81
ENDBRANCH  59  73
BRANCH  60  85
ATOM     85  C   UNL A   1      43.002  24.214  28.313  1.00  0.00     0.058 A 
ATOM     86  C   UNL A   1      42.688  22.986  28.912  1.00  0.00     0.135 A 
ATOM     87  C   UNL A   1      43.242  24.226  26.931  1.00  0.00     0.135 A 
ATOM     88  F   UNL A   1      42.462  22.923  30.234  1.00  0.00    -0.206 F 
ATOM     89  C   UNL A   1      42.620  21.811  28.172  1.00  0.00     0.059 A 
ATOM     90  C   UNL A   1      43.161  23.069  26.165  1.00  0.00     0.059 A 
ATOM     91  F   UNL A   1      43.532  25.379  26.307  1.00  0.00    -0.206 F 
ATOM     92  C   UNL A   1      42.856  21.863  26.796  1.00  0.00     0.060 A 
BRANCH  92  93
ATOM     93  S   UNL A   1      42.703  20.347  25.826  1.00  0.00     0.124 S 
ATOM     94  O   UNL A   1      43.582  20.630  24.699  1.00  0.00    -0.237 OA
ATOM     95  O   UNL A   1      43.170  19.333  26.766  1.00  0.00    -0.237 OA
ATOM     96  O   UNL A   1      41.276  20.294  25.521  1.00  0.00    -0.744 OA
ENDBRANCH  92  93
ENDBRANCH  60  85
BRANCH  72  97
ATOM     97  C   UNL A   1      48.018  27.083  32.222  1.00  0.00     0.058 A 
ATOM     98  C   UNL A   1      48.260  26.231  33.311  1.00  0.00     0.135 A 
ATOM     99  C   UNL A   1      49.115  27.468  31.434  1.00  0.00     0.135 A 
ATOM    100  F   UNL A   1      47.247  25.838  34.099  1.00  0.00    -0.206 F 
ATOM    101  C   UNL A   1      49.544  25.793  33.618  1.00  0.00     0.059 A 
ATOM    102  C   UNL A   1      50.404  27.023  31.709  1.00  0.00     0.059 A 
ATOM    103  F   UNL A   1      48.936  28.273  30.374  1.00  0.00    -0.206 F 
ATOM    104  C   UNL A   1      50.610  26.194  32.811  1.00  0.00     0.060 A 
BRANCH 104 105
ATOM    105  S   UNL A   1      52.268  25.589  33.197  1.00  0.00     0.124 S 
ATOM    106  O   UNL A   1      52.108  25.158  34.582  1.00  0.00    -0.237 OA
ATOM    107  O   UNL A   1      52.450  24.522  32.219  1.00  0.00    -0.237 OA
ATOM    108  O   UNL A   1      53.112  26.764  32.998  1.00  0.00    -0.744 OA
ENDBRANCH 104 105
ENDBRANCH  72  97
ENDBRANCH  46  47
ENDBRANCH  39  41
ENDBRANCH  38  39
ENDBRANCH  37  38
ENDBRANCH  36  37
ENDBRANCH  35  36
ENDBRANCH  34  35
ENDBRANCH   1  34
TORSDOF 25
ENDMDL
MODEL 2
REMARK VINA RESULT:      -7.7      0.352      2.294
REMARK SMILES O=C(/C=C/c1ccc(NC(=O)c2cc(C(F)(F)F)cc(C(F)(F)F)c2)cc1)OCCOCCOCCOC(=O)c1ccc(-c2c3nc(c(-c4c(F)cc(S(=O)(=O)[O-])cc4F)c4ccc([nH]4)c(-c4c(F)cc(S(=O)(=O)[O-])cc4F)c4nc(c(-c5c(F)cc(S(=O)(=O)[O-])cc5F)c5ccc2[nH]5)C=C4)C=C3)cc1
REMARK SMILES IDX 32 1 31 2 30 3 29 4 28 5 2 6 1 7 3 8 4 9 5 10 6 11 27 12
REMARK SMILES IDX 7 13 26 14 8 15 9 16 10 17 11 19 12 20 13 21 25 22 14 23
REMARK SMILES IDX 20 24 19 25 15 26 16 27 17 28 18 29 21 30 22 31 23 32 24 33
REMARK SMILES IDX 33 34 34 35 35 36 36 37 37 38 38 39 39 40 40 41 41 42 105 43
REMARK SMILES IDX 42 44 104 45 43 46 44 47 45 48 98 49 46 50 103 51 97 52
REMARK SMILES IDX 99 53 47 54 102 55 96 56 95 57 48 59 82 60 61 61 81 62 62 63
REMARK SMILES IDX 65 64 80 65 100 66 63 67 64 68 79 70 101 71 66 72 49 73
REMARK SMILES IDX 50 74 59 75 51 76 52 77 58 78 60 79 53 80 54 81 55 82 56 83
REMARK SMILES IDX 57 84 83 85 84 86 93 87 85 88 86 89 92 90 94 91 87 92 88 93
REMARK SMILES IDX 89 94 90 95 91 96 67 97 68 98 77 99 69 100 70 101 76 102
REMARK SMILES IDX 78 103 71 104 72 105 73 106 74 107 75 108
REMARK H PARENT 9 18 99 58 65 69
REMARK Flexibility Score: inf
ROOT
ATOM      1  C   UNL A   1      36.491  32.805  32.089  1.00  0.00     0.188 C 
ENDROOT
BRANCH   1   2
ATOM      2  O   UNL A   1      37.232  32.096  33.058  1.00  0.00    -0.376 OA
BRANCH   2   3
ATOM      3  C   UNL A   1      37.763  32.703  34.216  1.00  0.00     0.202 C 
BRANCH   3   4
ATOM      4  C   UNL A   1      38.450  31.922  35.340  1.00  0.00     0.261 C 
BRANCH   4   5
ATOM      5  O   UNL A   1      39.740  31.371  35.052  1.00  0.00    -0.460 OA
BRANCH   5   6
ATOM      6  C   UNL A   1      39.833  30.100  34.596  1.00  0.00     0.330 C 
ATOM      7  O   UNL A   1      38.987  29.579  33.887  1.00  0.00    -0.247 OA
BRANCH   6   8
ATOM      8  C   UNL A   1      40.819  29.313  35.355  1.00  0.00     0.094 C 
ATOM      9  C   UNL A   1      41.650  28.464  34.737  1.00  0.00     0.015 C 
BRANCH   9  10
ATOM     10  C   UNL A   1      42.736  27.770  35.435  1.00  0.00    -0.025 A 
ATOM     11  C   UNL A   1      42.419  26.937  36.512  1.00  0.00     0.010 A 
ATOM     12  C   UNL A   1      44.080  27.945  35.098  1.00  0.00     0.010 A 
ATOM     13  C   UNL A   1      43.422  26.284  37.236  1.00  0.00     0.027 A 
ATOM     14  C   UNL A   1      45.082  27.281  35.818  1.00  0.00     0.027 A 
ATOM     15  C   UNL A   1      44.762  26.428  36.880  1.00  0.00     0.041 A 
BRANCH  15  16
ATOM     16  N   UNL A   1      45.833  25.825  37.568  1.00  0.00    -0.322 N 
ATOM     17  C   UNL A   1      46.224  24.514  37.717  1.00  0.00     0.255 C 
ATOM     18  H   UNL A   1      46.416  26.467  38.035  1.00  0.00     0.170 HD
ATOM     19  O   UNL A   1      46.963  24.192  38.646  1.00  0.00    -0.269 OA
BRANCH  17  20
ATOM     20  C   UNL A   1      45.840  23.457  36.751  1.00  0.00     0.041 A 
ATOM     21  C   UNL A   1      45.171  23.835  35.580  1.00  0.00     0.027 A 
ATOM     22  C   UNL A   1      46.076  22.103  37.014  1.00  0.00     0.027 A 
ATOM     23  C   UNL A   1      44.782  22.872  34.635  1.00  0.00     0.057 A 
ATOM     24  C   UNL A   1      45.736  21.127  36.064  1.00  0.00     0.057 A 
ATOM     25  C   UNL A   1      45.082  21.522  34.883  1.00  0.00     0.026 A 
BRANCH  23  26
ATOM     26  C   UNL A   1      44.068  23.297  33.374  1.00  0.00     0.416 C 
ATOM     27  F   UNL A   1      42.952  22.560  33.122  1.00  0.00    -0.166 F 
ATOM     28  F   UNL A   1      43.660  24.596  33.423  1.00  0.00    -0.166 F 
ATOM     29  F   UNL A   1      44.841  23.198  32.256  1.00  0.00    -0.166 F 
ENDBRANCH  23  26
BRANCH  24  30
ATOM     30  C   UNL A   1      46.076  19.674  36.288  1.00  0.00     0.416 C 
ATOM     31  F   UNL A   1      44.981  18.917  36.568  1.00  0.00    -0.166 F 
ATOM     32  F   UNL A   1      46.650  19.107  35.190  1.00  0.00    -0.166 F 
ATOM     33  F   UNL A   1      46.948  19.474  37.311  1.00  0.00    -0.166 F 
ENDBRANCH  24  30
ENDBRANCH  17  20
ENDBRANCH  15  16
ENDBRANCH   9  10
ENDBRANCH   6   8
ENDBRANCH   5   6
ENDBRANCH   4   5
ENDBRANCH   3   4
ENDBRANCH   2   3
ENDBRANCH   1   2
BRANCH   1  34
ATOM     34  C   UNL A   1      35.080  32.316  31.738  1.00  0.00     0.188 C 
BRANCH  34  35
ATOM     35  O   UNL A   1      34.262  33.046  30.836  1.00  0.00    -0.376 OA
BRANCH  35  36
ATOM     36  C   UNL A   1      34.643  33.183  29.474  1.00  0.00     0.202 C 
BRANCH  36  37
ATOM     37  C   UNL A   1      33.842  32.438  28.402  1.00  0.00     0.261 C 
BRANCH  37  38
ATOM     38  O   UNL A   1      34.641  31.621  27.533  1.00  0.00    -0.460 OA
BRANCH  38  39
ATOM     39  C   UNL A   1      34.825  30.344  27.951  1.00  0.00     0.338 C 
ATOM     40  O   UNL A   1      34.090  29.393  27.755  1.00  0.00    -0.246 OA
BRANCH  39  41
ATOM     41  C   UNL A   1      36.141  30.202  28.606  1.00  0.00     0.060 A 
ATOM     42  C   UNL A   1      37.242  30.827  28.011  1.00  0.00     0.016 A 
ATOM     43  C   UNL A   1      36.312  29.378  29.719  1.00  0.00     0.016 A 
ATOM     44  C   UNL A   1      38.528  30.592  28.502  1.00  0.00     0.010 A 
ATOM     45  C   UNL A   1      37.601  29.142  30.211  1.00  0.00     0.010 A 
ATOM     46  C   UNL A   1      38.718  29.715  29.579  1.00  0.00    -0.014 A 
BRANCH  46  47
ATOM     47  C   UNL A   1      40.089  29.264  29.929  1.00  0.00     0.031 A 
ATOM     48  C   UNL A   1      40.956  30.164  30.772  1.00  0.00     0.074 A 
ATOM     49  C   UNL A   1      40.553  28.068  29.527  1.00  0.00     0.049 A 
ATOM     50  N   UNL A   1      42.188  29.990  31.173  1.00  0.00    -0.248 NA
ATOM     51  C   UNL A   1      40.348  31.427  31.222  1.00  0.00     0.031 C 
ATOM     52  C   UNL A   1      39.805  27.092  28.736  1.00  0.00     0.029 A 
ATOM     53  N   UNL A   1      41.774  27.474  29.729  1.00  0.00    -0.354 N 
ATOM     54  C   UNL A   1      42.507  31.121  31.916  1.00  0.00     0.074 A 
ATOM     55  C   UNL A   1      41.347  31.986  31.888  1.00  0.00     0.031 C 
ATOM     56  C   UNL A   1      40.588  26.022  28.512  1.00  0.00     0.029 A 
ATOM     57  C   UNL A   1      41.900  26.249  29.118  1.00  0.00     0.049 A 
ATOM     58  H   UNL A   1      42.493  27.887  30.261  1.00  0.00     0.167 HD
ATOM     59  C   UNL A   1      43.656  31.410  32.572  1.00  0.00     0.037 A 
ATOM     60  C   UNL A   1      42.958  25.418  29.042  1.00  0.00     0.037 A 
ATOM     61  C   UNL A   1      44.810  30.550  32.605  1.00  0.00     0.049 A 
ATOM     62  C   UNL A   1      44.249  25.786  29.729  1.00  0.00     0.074 A 
ATOM     63  C   UNL A   1      46.014  30.750  33.258  1.00  0.00     0.029 A 
ATOM     64  N   UNL A   1      44.908  29.332  31.949  1.00  0.00    -0.354 N 
ATOM     65  N   UNL A   1      44.527  26.849  30.446  1.00  0.00    -0.248 NA
ATOM     66  C   UNL A   1      45.368  24.842  29.594  1.00  0.00     0.031 C 
ATOM     67  C   UNL A   1      46.855  29.670  32.965  1.00  0.00     0.029 A 
ATOM     68  C   UNL A   1      46.159  28.779  32.164  1.00  0.00     0.049 A 
ATOM     69  H   UNL A   1      44.193  28.921  31.412  1.00  0.00     0.167 HD
ATOM     70  C   UNL A   1      45.844  26.691  30.866  1.00  0.00     0.074 A 
ATOM     71  C   UNL A   1      46.305  25.427  30.331  1.00  0.00     0.031 C 
ATOM     72  C   UNL A   1      46.604  27.518  31.627  1.00  0.00     0.037 A 
BRANCH  59  73
ATOM     73  C   UNL A   1      43.728  32.726  33.292  1.00  0.00     0.058 A 
ATOM     74  C   UNL A   1      44.121  33.904  32.637  1.00  0.00     0.135 A 
ATOM     75  C   UNL A   1      43.379  32.815  34.650  1.00  0.00     0.135 A 
ATOM     76  F   UNL A   1      44.481  33.870  31.345  1.00  0.00    -0.206 F 
ATOM     77  C   UNL A   1      44.192  35.119  33.309  1.00  0.00     0.059 A 
ATOM     78  C   UNL A   1      43.421  34.025  35.336  1.00  0.00     0.059 A 
ATOM     79  F   UNL A   1      42.999  31.718  35.323  1.00  0.00    -0.206 F 
ATOM     80  C   UNL A   1      43.844  35.169  34.661  1.00  0.00     0.060 A 
BRANCH  80  81
ATOM     81  S   UNL A   1      43.945  36.752  35.524  1.00  0.00     0.124 S 
ATOM     82  O   UNL A   1      42.729  37.413  35.060  1.00  0.00    -0.237 OA
ATOM     83  O   UNL A   1      43.949  36.345  36.926  1.00  0.00    -0.237 OA
ATOM     84  O   UNL A   1      45.197  37.325  35.038  1.00  0.00    -0.744 OA
ENDBRANCH  80  81
ENDBRANCH  59  73
BRANCH  60  85
ATOM     85  C   UNL A   1      42.849  24.152  28.270  1.00  0.00     0.058 A 
ATOM     86  C   UNL A   1      42.968  24.142  26.873  1.00  0.00     0.135 A 
ATOM     87  C   UNL A   1      42.622  22.927  28.917  1.00  0.00     0.135 A 
ATOM     88  F   UNL A   1      43.173  25.290  26.209  1.00  0.00    -0.206 F 
ATOM     89  C   UNL A   1      42.861  22.963  26.142  1.00  0.00     0.059 A 
ATOM     90  C   UNL A   1      42.531  21.734  28.211  1.00  0.00     0.059 A 
ATOM     91  F   UNL A   1      42.516  22.881  30.255  1.00  0.00    -0.206 F 
ATOM     92  C   UNL A   1      42.644  21.763  26.821  1.00  0.00     0.060 A 
BRANCH  92  93
ATOM     93  S   UNL A   1      42.571  20.226  25.875  1.00  0.00     0.124 S 
ATOM     94  O   UNL A   1      43.030  19.254  26.859  1.00  0.00    -0.237 OA
ATOM     95  O   UNL A   1      41.158  20.155  25.514  1.00  0.00    -0.237 OA
ATOM     96  O   UNL A   1      43.480  20.481  24.762  1.00  0.00    -0.744 OA
ENDBRANCH  92  93
ENDBRANCH  60  85
BRANCH  72  97
ATOM     97  C   UNL A   1      48.004  27.075  31.951  1.00  0.00     0.058 A 
ATOM     98  C   UNL A   1      49.105  27.502  31.191  1.00  0.00     0.135 A 
ATOM     99  C   UNL A   1      48.254  26.262  33.069  1.00  0.00     0.135 A 
ATOM    100  F   UNL A   1      48.920  28.275  30.111  1.00  0.00    -0.206 F 
ATOM    101  C   UNL A   1      50.403  27.121  31.517  1.00  0.00     0.059 A 
ATOM    102  C   UNL A   1      49.546  25.888  33.426  1.00  0.00     0.059 A 
ATOM    103  F   UNL A   1      47.238  25.836  33.835  1.00  0.00    -0.206 F 
ATOM    104  C   UNL A   1      50.613  26.315  32.637  1.00  0.00     0.060 A 
BRANCH 104 105
ATOM    105  S   UNL A   1      52.306  25.857  33.072  1.00  0.00     0.124 S 
ATOM    106  O   UNL A   1      52.349  24.460  32.654  1.00  0.00    -0.237 OA
ATOM    107  O   UNL A   1      53.099  26.784  32.270  1.00  0.00    -0.237 OA
ATOM    108  O   UNL A   1      52.358  26.084  34.514  1.00  0.00    -0.744 OA
ENDBRANCH 104 105
ENDBRANCH  72  97
ENDBRANCH  46  47
ENDBRANCH  39  41
ENDBRANCH  38  39
ENDBRANCH  37  38
ENDBRANCH  36  37
ENDBRANCH  35  36
ENDBRANCH  34  35
ENDBRANCH   1  34
TORSDOF 25
ENDMDL
MODEL 3
REMARK VINA RESULT:      -7.5      1.388      2.371
REMARK SMILES O=C(/C=C/c1ccc(NC(=O)c2cc(C(F)(F)F)cc(C(F)(F)F)c2)cc1)OCCOCCOCCOC(=O)c1ccc(-c2c3nc(c(-c4c(F)cc(S(=O)(=O)[O-])cc4F)c4ccc([nH]4)c(-c4c(F)cc(S(=O)(=O)[O-])cc4F)c4nc(c(-c5c(F)cc(S(=O)(=O)[O-])cc5F)c5ccc2[nH]5)C=C4)C=C3)cc1
REMARK SMILES IDX 32 1 31 2 30 3 29 4 28 5 2 6 1 7 3 8 4 9 5 10 6 11 27 12
REMARK SMILES IDX 7 13 26 14 8 15 9 16 10 17 11 19 12 20 13 21 25 22 14 23
REMARK SMILES IDX 20 24 19 25 15 26 16 27 17 28 18 29 21 30 22 31 23 32 24 33
REMARK SMILES IDX 33 34 34 35 35 36 36 37 37 38 38 39 39 40 40 41 41 42 105 43
REMARK SMILES IDX 42 44 104 45 43 46 44 47 45 48 98 49 46 50 103 51 97 52
REMARK SMILES IDX 99 53 47 54 102 55 96 56 95 57 48 59 82 60 61 61 81 62 62 63
REMARK SMILES IDX 65 64 80 65 100 66 63 67 64 68 79 70 101 71 66 72 49 73
REMARK SMILES IDX 50 74 59 75 51 76 52 77 58 78 60 79 53 80 54 81 55 82 56 83
REMARK SMILES IDX 57 84 83 85 84 86 93 87 85 88 86 89 92 90 94 91 87 92 88 93
REMARK SMILES IDX 89 94 90 95 91 96 67 97 68 98 77 99 69 100 70 101 76 102
REMARK SMILES IDX 78 103 71 104 72 105 73 106 74 107 75 108
REMARK H PARENT 9 18 99 58 65 69
REMARK Flexibility Score: inf
ROOT
ATOM      1  C   UNL A   1      36.526  33.095  32.627  1.00  0.00     0.188 C 
ENDROOT
BRANCH   1   2
ATOM      2  O   UNL A   1      37.280  32.327  33.540  1.00  0.00    -0.376 OA
BRANCH   2   3
ATOM      3  C   UNL A   1      37.449  32.690  34.893  1.00  0.00     0.202 C 
BRANCH   3   4
ATOM      4  C   UNL A   1      38.016  31.745  35.956  1.00  0.00     0.261 C 
BRANCH   4   5
ATOM      5  O   UNL A   1      39.299  31.165  35.690  1.00  0.00    -0.460 OA
BRANCH   5   6
ATOM      6  C   UNL A   1      39.370  29.992  35.017  1.00  0.00     0.330 C 
ATOM      7  O   UNL A   1      38.628  29.704  34.092  1.00  0.00    -0.247 OA
BRANCH   6   8
ATOM      8  C   UNL A   1      40.139  28.979  35.758  1.00  0.00     0.094 C 
ATOM      9  C   UNL A   1      41.392  28.666  35.405  1.00  0.00     0.015 C 
BRANCH   9  10
ATOM     10  C   UNL A   1      42.238  27.768  36.197  1.00  0.00    -0.025 A 
ATOM     11  C   UNL A   1      41.668  26.613  36.741  1.00  0.00     0.010 A 
ATOM     12  C   UNL A   1      43.579  28.045  36.471  1.00  0.00     0.010 A 
ATOM     13  C   UNL A   1      42.422  25.745  37.537  1.00  0.00     0.027 A 
ATOM     14  C   UNL A   1      44.335  27.169  37.261  1.00  0.00     0.027 A 
ATOM     15  C   UNL A   1      43.770  25.999  37.784  1.00  0.00     0.041 A 
BRANCH  15  16
ATOM     16  N   UNL A   1      44.593  25.191  38.592  1.00  0.00    -0.322 N 
ATOM     17  C   UNL A   1      45.279  24.023  38.348  1.00  0.00     0.255 C 
ATOM     18  H   UNL A   1      44.698  25.526  39.512  1.00  0.00     0.170 HD
ATOM     19  O   UNL A   1      45.631  23.306  39.284  1.00  0.00    -0.269 OA
BRANCH  17  20
ATOM     20  C   UNL A   1      45.680  23.610  36.982  1.00  0.00     0.041 A 
ATOM     21  C   UNL A   1      44.759  23.771  35.938  1.00  0.00     0.027 A 
ATOM     22  C   UNL A   1      46.921  23.013  36.731  1.00  0.00     0.027 A 
ATOM     23  C   UNL A   1      45.089  23.391  34.627  1.00  0.00     0.057 A 
ATOM     24  C   UNL A   1      47.289  22.666  35.422  1.00  0.00     0.057 A 
ATOM     25  C   UNL A   1      46.363  22.852  34.380  1.00  0.00     0.026 A 
BRANCH  23  26
ATOM     26  C   UNL A   1      44.088  23.578  33.513  1.00  0.00     0.416 C 
ATOM     27  F   UNL A   1      44.520  23.080  32.322  1.00  0.00    -0.166 F 
ATOM     28  F   UNL A   1      42.902  22.960  33.773  1.00  0.00    -0.166 F 
ATOM     29  F   UNL A   1      43.777  24.885  33.280  1.00  0.00    -0.166 F 
ENDBRANCH  23  26
BRANCH  24  30
ATOM     30  C   UNL A   1      48.662  22.117  35.122  1.00  0.00     0.416 C 
ATOM     31  F   UNL A   1      48.641  20.791  34.818  1.00  0.00    -0.166 F 
ATOM     32  F   UNL A   1      49.239  22.734  34.052  1.00  0.00    -0.166 F 
ATOM     33  F   UNL A   1      49.538  22.255  36.151  1.00  0.00    -0.166 F 
ENDBRANCH  24  30
ENDBRANCH  17  20
ENDBRANCH  15  16
ENDBRANCH   9  10
ENDBRANCH   6   8
ENDBRANCH   5   6
ENDBRANCH   4   5
ENDBRANCH   3   4
ENDBRANCH   2   3
ENDBRANCH   1   2
BRANCH   1  34
ATOM     34  C   UNL A   1      35.118  32.618  32.250  1.00  0.00     0.188 C 
BRANCH  34  35
ATOM     35  O   UNL A   1      34.165  33.521  31.708  1.00  0.00    -0.376 OA
BRANCH  35  36
ATOM     36  C   UNL A   1      34.446  34.220  30.504  1.00  0.00     0.202 C 
BRANCH  36  37
ATOM     37  C   UNL A   1      34.200  33.518  29.166  1.00  0.00     0.261 C 
BRANCH  37  38
ATOM     38  O   UNL A   1      35.399  33.167  28.456  1.00  0.00    -0.460 OA
BRANCH  38  39
ATOM     39  C   UNL A   1      35.639  31.837  28.352  1.00  0.00     0.338 C 
ATOM     40  O   UNL A   1      35.060  31.040  27.635  1.00  0.00    -0.246 OA
BRANCH  39  41
ATOM     41  C   UNL A   1      36.816  31.462  29.159  1.00  0.00     0.060 A 
ATOM     42  C   UNL A   1      37.982  32.222  29.015  1.00  0.00     0.016 A 
ATOM     43  C   UNL A   1      36.814  30.317  29.957  1.00  0.00     0.016 A 
ATOM     44  C   UNL A   1      39.164  31.813  29.634  1.00  0.00     0.010 A 
ATOM     45  C   UNL A   1      37.999  29.906  30.578  1.00  0.00     0.010 A 
ATOM     46  C   UNL A   1      39.189  30.630  30.385  1.00  0.00    -0.014 A 
BRANCH  46  47
ATOM     47  C   UNL A   1      40.489  30.060  30.820  1.00  0.00     0.031 A 
ATOM     48  C   UNL A   1      41.248  30.745  31.928  1.00  0.00     0.074 A 
ATOM     49  C   UNL A   1      40.982  28.942  30.261  1.00  0.00     0.049 A 
ATOM     50  N   UNL A   1      42.410  30.445  32.448  1.00  0.00    -0.248 NA
ATOM     51  C   UNL A   1      40.608  31.928  32.528  1.00  0.00     0.031 C 
ATOM     52  C   UNL A   1      40.333  28.166  29.206  1.00  0.00     0.029 A 
ATOM     53  N   UNL A   1      42.153  28.266  30.505  1.00  0.00    -0.354 N 
ATOM     54  C   UNL A   1      42.644  31.400  33.430  1.00  0.00     0.074 A 
ATOM     55  C   UNL A   1      41.516  32.306  33.415  1.00  0.00     0.031 C 
ATOM     56  C   UNL A   1      41.120  27.123  28.886  1.00  0.00     0.029 A 
ATOM     57  C   UNL A   1      42.339  27.173  29.693  1.00  0.00     0.049 A 
ATOM     58  H   UNL A   1      42.798  28.538  31.196  1.00  0.00     0.167 HD
ATOM     59  C   UNL A   1      43.696  31.510  34.275  1.00  0.00     0.037 A 
ATOM     60  C   UNL A   1      43.382  26.324  29.599  1.00  0.00     0.037 A 
ATOM     61  C   UNL A   1      44.819  30.608  34.294  1.00  0.00     0.049 A 
ATOM     62  C   UNL A   1      44.571  26.499  30.508  1.00  0.00     0.074 A 
ATOM     63  C   UNL A   1      45.924  30.627  35.127  1.00  0.00     0.029 A 
ATOM     64  N   UNL A   1      44.983  29.531  33.436  1.00  0.00    -0.354 N 
ATOM     65  N   UNL A   1      44.767  27.394  31.446  1.00  0.00    -0.248 NA
ATOM     66  C   UNL A   1      45.681  25.548  30.343  1.00  0.00     0.031 C 
ATOM     67  C   UNL A   1      46.777  29.584  34.746  1.00  0.00     0.029 A 
ATOM     68  C   UNL A   1      46.182  28.892  33.704  1.00  0.00     0.049 A 
ATOM     69  H   UNL A   1      44.342  29.261  32.740  1.00  0.00     0.167 HD
ATOM     70  C   UNL A   1      46.011  27.101  31.998  1.00  0.00     0.074 A 
ATOM     71  C   UNL A   1      46.518  25.941  31.296  1.00  0.00     0.031 C 
ATOM     72  C   UNL A   1      46.673  27.736  32.998  1.00  0.00     0.037 A 
BRANCH  59  73
ATOM     73  C   UNL A   1      43.692  32.662  35.238  1.00  0.00     0.058 A 
ATOM     74  C   UNL A   1      43.096  32.562  36.505  1.00  0.00     0.135 A 
ATOM     75  C   UNL A   1      44.309  33.877  34.897  1.00  0.00     0.135 A 
ATOM     76  F   UNL A   1      42.478  31.429  36.873  1.00  0.00    -0.206 F 
ATOM     77  C   UNL A   1      43.089  33.634  37.391  1.00  0.00     0.059 A 
ATOM     78  C   UNL A   1      44.333  34.955  35.776  1.00  0.00     0.059 A 
ATOM     79  F   UNL A   1      44.890  34.025  33.696  1.00  0.00    -0.206 F 
ATOM     80  C   UNL A   1      43.707  34.829  37.015  1.00  0.00     0.060 A 
BRANCH  80  81
ATOM     81  S   UNL A   1      43.686  36.215  38.172  1.00  0.00     0.124 S 
ATOM     82  O   UNL A   1      42.941  35.647  39.291  1.00  0.00    -0.237 OA
ATOM     83  O   UNL A   1      45.108  36.447  38.410  1.00  0.00    -0.237 OA
ATOM     84  O   UNL A   1      42.999  37.268  37.429  1.00  0.00    -0.744 OA
ENDBRANCH  80  81
ENDBRANCH  59  73
BRANCH  60  85
ATOM     85  C   UNL A   1      43.356  25.232  28.590  1.00  0.00     0.058 A 
ATOM     86  C   UNL A   1      43.032  23.917  28.952  1.00  0.00     0.135 A 
ATOM     87  C   UNL A   1      43.658  25.485  27.243  1.00  0.00     0.135 A 
ATOM     88  F   UNL A   1      42.748  23.624  30.231  1.00  0.00    -0.206 F 
ATOM     89  C   UNL A   1      43.012  22.888  28.017  1.00  0.00     0.059 A 
ATOM     90  C   UNL A   1      43.626  24.478  26.286  1.00  0.00     0.059 A 
ATOM     91  F   UNL A   1      43.960  26.730  26.842  1.00  0.00    -0.206 F 
ATOM     92  C   UNL A   1      43.309  23.179  26.684  1.00  0.00     0.060 A 
BRANCH  92  93
ATOM     93  S   UNL A   1      43.219  21.854  25.460  1.00  0.00     0.124 S 
ATOM     94  O   UNL A   1      41.887  21.315  25.709  1.00  0.00    -0.237 OA
ATOM     95  O   UNL A   1      43.392  22.582  24.207  1.00  0.00    -0.237 OA
ATOM     96  O   UNL A   1      44.334  20.987  25.830  1.00  0.00    -0.744 OA
ENDBRANCH  92  93
ENDBRANCH  60  85
BRANCH  72  97
ATOM     97  C   UNL A   1      48.006  27.178  33.413  1.00  0.00     0.058 A 
ATOM     98  C   UNL A   1      49.187  27.506  32.728  1.00  0.00     0.135 A 
ATOM     99  C   UNL A   1      48.113  26.352  34.544  1.00  0.00     0.135 A 
ATOM    100  F   UNL A   1      49.139  28.287  31.638  1.00  0.00    -0.206 F 
ATOM    101  C   UNL A   1      50.424  27.019  33.138  1.00  0.00     0.059 A 
ATOM    102  C   UNL A   1      49.342  25.872  34.986  1.00  0.00     0.059 A 
ATOM    103  F   UNL A   1      47.016  26.017  35.242  1.00  0.00    -0.206 F 
ATOM    104  C   UNL A   1      50.491  26.203  34.269  1.00  0.00     0.060 A 
BRANCH 104 105
ATOM    105  S   UNL A   1      52.107  25.606  34.814  1.00  0.00     0.124 S 
ATOM    106  O   UNL A   1      51.885  24.165  34.864  1.00  0.00    -0.237 OA
ATOM    107  O   UNL A   1      52.991  26.075  33.752  1.00  0.00    -0.237 OA
ATOM    108  O   UNL A   1      52.290  26.260  36.107  1.00  0.00    -0.744 OA
ENDBRANCH 104 105
ENDBRANCH  72  97
ENDBRANCH  46  47
ENDBRANCH  39  41
ENDBRANCH  38  39
ENDBRANCH  37  38
ENDBRANCH  36  37
ENDBRANCH  35  36
ENDBRANCH  34  35
ENDBRANCH   1  34
TORSDOF 25
ENDMDL
