MODEL 1
REMARK VINA RESULT:     -10.9      0.000      0.000
REMARK SMILES O=C(Cc1ccccc1)Nc1cccc(C(=O)Nc2ccccc2C(=O)OCCOCCOCCOC(=O)c2ccc(-c3c4nc(c(-c5c(F)cc(S(=O)(=O)[O-])cc5F)c5ccc([nH]5)c(-c5c(F)cc(S(=O)(=O)[O-])cc5F)c5nc(c(-c6c(F)cc(S(=O)(=O)[O-])cc6F)c6ccc3[nH]6)C=C5)C=C4)cc2)c1
REMARK SMILES IDX 31 1 30 2 29 3 28 4 27 5 25 6 26 7 24 8 19 9 20 10 21 11
REMARK SMILES IDX 23 12 22 13 18 14 16 15 17 16 15 18 11 19 12 20 105 21 13 22
REMARK SMILES IDX 14 23 10 24 1 25 2 26 3 28 4 29 5 30 9 31 6 32 8 33 7 34
REMARK SMILES IDX 32 35 33 36 34 37 35 38 36 39 37 40 38 41 39 42 40 43 104 44
REMARK SMILES IDX 41 45 103 46 42 47 43 48 44 49 97 50 45 51 102 52 96 53
REMARK SMILES IDX 98 54 46 55 101 56 95 57 94 58 47 60 81 61 60 62 80 63 61 64
REMARK SMILES IDX 64 65 79 66 99 67 62 68 63 69 78 71 100 72 65 73 48 74 49 75
REMARK SMILES IDX 58 76 50 77 51 78 57 79 59 80 52 81 53 82 54 83 55 84 56 85
REMARK SMILES IDX 82 86 83 87 92 88 84 89 85 90 91 91 93 92 86 93 87 94 88 95
REMARK SMILES IDX 89 96 90 97 66 98 67 99 76 100 68 101 69 102 75 103 77 104
REMARK SMILES IDX 70 105 71 106 72 107 73 108 74 109
REMARK H PARENT 18 17 10 27 98 59 64 70
REMARK Flexibility Score: inf
ROOT
ATOM      1  C   UNL A   1      34.835  30.174  27.421  1.00  0.00     0.188 C 
ENDROOT
BRANCH   1   2
ATOM      2  O   UNL A   1      34.604  29.299  26.344  1.00  0.00    -0.376 OA
BRANCH   2   3
ATOM      3  C   UNL A   1      33.814  28.141  26.513  1.00  0.00     0.202 C 
BRANCH   3   4
ATOM      4  C   UNL A   1      33.635  27.024  25.478  1.00  0.00     0.261 C 
BRANCH   4   5
ATOM      5  O   UNL A   1      34.488  25.877  25.536  1.00  0.00    -0.460 OA
BRANCH   5   6
ATOM      6  C   UNL A   1      34.375  25.035  24.476  1.00  0.00     0.340 C 
ATOM      7  O   UNL A   1      34.039  25.364  23.345  1.00  0.00    -0.246 OA
BRANCH   6   8
ATOM      8  C   UNL A   1      34.893  23.675  24.774  1.00  0.00     0.083 A 
ATOM      9  C   UNL A   1      34.431  22.459  24.237  1.00  0.00     0.056 A 
ATOM     10  C   UNL A   1      34.988  21.265  24.738  1.00  0.00     0.027 A 
ATOM     11  C   UNL A   1      36.030  21.273  25.671  1.00  0.00     0.002 A 
ATOM     12  C   UNL A   1      35.919  23.665  25.748  1.00  0.00     0.018 A 
ATOM     13  C   UNL A   1      36.501  22.476  26.175  1.00  0.00     0.001 A 
BRANCH   9  14
ATOM     14  N   UNL A   1      33.482  22.261  23.204  1.00  0.00    -0.321 N 
ATOM     15  C   UNL A   1      32.117  22.449  23.125  1.00  0.00     0.255 C 
ATOM     16  O   UNL A   1      31.499  22.016  22.153  1.00  0.00    -0.269 OA
ATOM     17  H   UNL A   1      33.877  21.916  22.370  1.00  0.00     0.170 HD
BRANCH  15  18
ATOM     18  C   UNL A   1      31.375  23.208  24.162  1.00  0.00     0.042 A 
ATOM     19  C   UNL A   1      30.427  25.310  24.823  1.00  0.00     0.041 A 
ATOM     20  C   UNL A   1      30.656  24.973  26.166  1.00  0.00     0.026 A 
ATOM     21  C   UNL A   1      30.659  24.361  23.833  1.00  0.00     0.040 A 
ATOM     22  C   UNL A   1      31.173  23.722  26.508  1.00  0.00     0.003 A 
ATOM     23  C   UNL A   1      31.561  22.844  25.500  1.00  0.00     0.014 A 
BRANCH  19  24
ATOM     24  N   UNL A   1      30.251  26.676  24.525  1.00  0.00    -0.326 N 
ATOM     25  O   UNL A   1      31.340  26.951  22.487  1.00  0.00    -0.274 OA
ATOM     26  C   UNL A   1      30.858  27.414  23.519  1.00  0.00     0.228 C 
ATOM     27  H   UNL A   1      29.620  27.166  25.100  1.00  0.00     0.169 HD
BRANCH  26  28
ATOM     28  C   UNL A   1      30.991  28.901  23.855  1.00  0.00     0.135 C 
BRANCH  28  29
ATOM     29  C   UNL A   1      29.849  29.729  23.331  1.00  0.00    -0.039 A 
ATOM     30  C   UNL A   1      29.418  30.869  24.025  1.00  0.00     0.004 A 
ATOM     31  C   UNL A   1      29.170  29.333  22.173  1.00  0.00     0.004 A 
ATOM     32  C   UNL A   1      28.272  31.547  23.618  1.00  0.00     0.000 A 
ATOM     33  C   UNL A   1      28.045  30.036  21.748  1.00  0.00     0.000 A 
ATOM     34  C   UNL A   1      27.583  31.127  22.484  1.00  0.00     0.000 A 
ENDBRANCH  28  29
ENDBRANCH  26  28
ENDBRANCH  19  24
ENDBRANCH  15  18
ENDBRANCH   9  14
ENDBRANCH   6   8
ENDBRANCH   5   6
ENDBRANCH   4   5
ENDBRANCH   3   4
ENDBRANCH   2   3
ENDBRANCH   1   2
BRANCH   1  35
ATOM     35  C   UNL A   1      33.769  31.265  27.673  1.00  0.00     0.188 C 
BRANCH  35  36
ATOM     36  O   UNL A   1      34.137  32.533  28.179  1.00  0.00    -0.376 OA
BRANCH  36  37
ATOM     37  C   UNL A   1      35.244  32.615  29.058  1.00  0.00     0.202 C 
BRANCH  37  38
ATOM     38  C   UNL A   1      35.177  32.018  30.478  1.00  0.00     0.261 C 
BRANCH  38  39
ATOM     39  O   UNL A   1      36.167  31.026  30.807  1.00  0.00    -0.460 OA
BRANCH  39  40
ATOM     40  C   UNL A   1      37.316  31.488  31.368  1.00  0.00     0.338 C 
ATOM     41  O   UNL A   1      37.410  32.182  32.370  1.00  0.00    -0.246 OA
BRANCH  40  42
ATOM     42  C   UNL A   1      38.485  30.831  30.730  1.00  0.00     0.060 A 
ATOM     43  C   UNL A   1      39.536  30.377  31.548  1.00  0.00     0.016 A 
ATOM     44  C   UNL A   1      38.555  30.663  29.348  1.00  0.00     0.016 A 
ATOM     45  C   UNL A   1      40.670  29.783  30.986  1.00  0.00     0.010 A 
ATOM     46  C   UNL A   1      39.709  30.104  28.783  1.00  0.00     0.010 A 
ATOM     47  C   UNL A   1      40.787  29.696  29.594  1.00  0.00    -0.014 A 
BRANCH  47  48
ATOM     48  C   UNL A   1      42.115  29.444  28.976  1.00  0.00     0.031 A 
ATOM     49  C   UNL A   1      42.394  28.050  28.475  1.00  0.00     0.074 A 
ATOM     50  C   UNL A   1      43.055  30.401  28.857  1.00  0.00     0.049 A 
ATOM     51  N   UNL A   1      43.503  27.535  28.016  1.00  0.00    -0.248 NA
ATOM     52  C   UNL A   1      41.261  27.107  28.505  1.00  0.00     0.031 C 
ATOM     53  C   UNL A   1      42.896  31.803  29.241  1.00  0.00     0.029 A 
ATOM     54  N   UNL A   1      44.346  30.327  28.391  1.00  0.00    -0.354 N 
ATOM     55  C   UNL A   1      43.210  26.207  27.726  1.00  0.00     0.074 A 
ATOM     56  C   UNL A   1      41.824  25.989  28.074  1.00  0.00     0.031 C 
ATOM     57  C   UNL A   1      44.055  32.450  29.020  1.00  0.00     0.029 A 
ATOM     58  C   UNL A   1      45.051  31.503  28.518  1.00  0.00     0.049 A 
ATOM     59  H   UNL A   1      44.732  29.507  28.004  1.00  0.00     0.167 HD
ATOM     60  C   UNL A   1      44.022  25.253  27.215  1.00  0.00     0.037 A 
ATOM     61  C   UNL A   1      46.355  31.769  28.288  1.00  0.00     0.037 A 
ATOM     62  C   UNL A   1      45.399  25.472  26.862  1.00  0.00     0.049 A 
ATOM     63  C   UNL A   1      47.262  30.666  27.791  1.00  0.00     0.074 A 
ATOM     64  C   UNL A   1      46.299  24.572  26.319  1.00  0.00     0.029 A 
ATOM     65  N   UNL A   1      46.077  26.671  27.021  1.00  0.00    -0.354 N 
ATOM     66  N   UNL A   1      46.970  29.418  27.508  1.00  0.00    -0.248 NA
ATOM     67  C   UNL A   1      48.679  31.008  27.582  1.00  0.00     0.031 C 
ATOM     68  C   UNL A   1      47.537  25.210  26.203  1.00  0.00     0.029 A 
ATOM     69  C   UNL A   1      47.391  26.526  26.608  1.00  0.00     0.049 A 
ATOM     70  H   UNL A   1      45.683  27.501  27.373  1.00  0.00     0.167 HD
ATOM     71  C   UNL A   1      48.153  28.842  27.047  1.00  0.00     0.074 A 
ATOM     72  C   UNL A   1      49.163  29.877  27.087  1.00  0.00     0.031 C 
ATOM     73  C   UNL A   1      48.380  27.574  26.623  1.00  0.00     0.037 A 
BRANCH  60  74
ATOM     74  C   UNL A   1      43.459  23.871  27.034  1.00  0.00     0.058 A 
ATOM     75  C   UNL A   1      43.223  23.016  28.123  1.00  0.00     0.135 A 
ATOM     76  C   UNL A   1      43.093  23.420  25.755  1.00  0.00     0.135 A 
ATOM     77  F   UNL A   1      43.577  23.388  29.363  1.00  0.00    -0.206 F 
ATOM     78  C   UNL A   1      42.652  21.760  27.949  1.00  0.00     0.059 A 
ATOM     79  C   UNL A   1      42.494  22.179  25.562  1.00  0.00     0.059 A 
ATOM     80  F   UNL A   1      43.305  24.194  24.680  1.00  0.00    -0.206 F 
ATOM     81  C   UNL A   1      42.283  21.354  26.664  1.00  0.00     0.060 A 
BRANCH  81  82
ATOM     82  S   UNL A   1      41.504  19.739  26.463  1.00  0.00     0.124 S 
ATOM     83  O   UNL A   1      42.186  19.232  25.275  1.00  0.00    -0.237 OA
ATOM     84  O   UNL A   1      41.840  19.074  27.717  1.00  0.00    -0.237 OA
ATOM     85  O   UNL A   1      40.092  20.061  26.285  1.00  0.00    -0.744 OA
ENDBRANCH  81  82
ENDBRANCH  60  74
BRANCH  61  86
ATOM     86  C   UNL A   1      46.908  33.129  28.552  1.00  0.00     0.058 A 
ATOM     87  C   UNL A   1      46.888  34.128  27.566  1.00  0.00     0.135 A 
ATOM     88  C   UNL A   1      47.514  33.443  29.780  1.00  0.00     0.135 A 
ATOM     89  F   UNL A   1      46.340  33.874  26.368  1.00  0.00    -0.206 F 
ATOM     90  C   UNL A   1      47.470  35.375  27.774  1.00  0.00     0.059 A 
ATOM     91  C   UNL A   1      48.076  34.693  30.023  1.00  0.00     0.059 A 
ATOM     92  F   UNL A   1      47.560  32.528  30.762  1.00  0.00    -0.206 F 
ATOM     93  C   UNL A   1      48.062  35.649  29.008  1.00  0.00     0.060 A 
BRANCH  93  94
ATOM     94  S   UNL A   1      48.797  37.277  29.279  1.00  0.00     0.124 S 
ATOM     95  O   UNL A   1      48.901  37.314  30.733  1.00  0.00    -0.237 OA
ATOM     96  O   UNL A   1      50.057  37.172  28.550  1.00  0.00    -0.237 OA
ATOM     97  O   UNL A   1      47.819  38.189  28.692  1.00  0.00    -0.744 OA
ENDBRANCH  93  94
ENDBRANCH  61  86
BRANCH  73  98
ATOM     98  C   UNL A   1      49.750  27.236  26.097  1.00  0.00     0.058 A 
ATOM     99  C   UNL A   1      50.782  26.783  26.933  1.00  0.00     0.135 A 
ATOM    100  C   UNL A   1      50.006  27.292  24.716  1.00  0.00     0.135 A 
ATOM    101  F   UNL A   1      50.594  26.712  28.261  1.00  0.00    -0.206 F 
ATOM    102  C   UNL A   1      52.024  26.416  26.423  1.00  0.00     0.059 A 
ATOM    103  C   UNL A   1      51.230  26.899  24.180  1.00  0.00     0.059 A 
ATOM    104  F   UNL A   1      49.052  27.705  23.867  1.00  0.00    -0.206 F 
ATOM    105  C   UNL A   1      52.236  26.472  25.044  1.00  0.00     0.060 A 
BRANCH 105 106
ATOM    106  S   UNL A   1      53.837  25.949  24.390  1.00  0.00     0.124 S 
ATOM    107  O   UNL A   1      53.686  26.246  22.970  1.00  0.00    -0.237 OA
ATOM    108  O   UNL A   1      54.766  26.805  25.122  1.00  0.00    -0.237 OA
ATOM    109  O   UNL A   1      53.898  24.531  24.731  1.00  0.00    -0.744 OA
ENDBRANCH 105 106
ENDBRANCH  73  98
ENDBRANCH  47  48
ENDBRANCH  40  42
ENDBRANCH  39  40
ENDBRANCH  38  39
ENDBRANCH  37  38
ENDBRANCH  36  37
ENDBRANCH  35  36
ENDBRANCH   1  35
TORSDOF 25
ENDMDL
MODEL 2
REMARK VINA RESULT:      -9.6      6.156     10.473
REMARK SMILES O=C(Cc1ccccc1)Nc1cccc(C(=O)Nc2ccccc2C(=O)OCCOCCOCCOC(=O)c2ccc(-c3c4nc(c(-c5c(F)cc(S(=O)(=O)[O-])cc5F)c5ccc([nH]5)c(-c5c(F)cc(S(=O)(=O)[O-])cc5F)c5nc(c(-c6c(F)cc(S(=O)(=O)[O-])cc6F)c6ccc3[nH]6)C=C5)C=C4)cc2)c1
REMARK SMILES IDX 31 1 30 2 29 3 28 4 27 5 25 6 26 7 24 8 19 9 20 10 21 11
REMARK SMILES IDX 23 12 22 13 18 14 16 15 17 16 15 18 11 19 12 20 105 21 13 22
REMARK SMILES IDX 14 23 10 24 1 25 2 26 3 28 4 29 5 30 9 31 6 32 8 33 7 34
REMARK SMILES IDX 32 35 33 36 34 37 35 38 36 39 37 40 38 41 39 42 40 43 104 44
REMARK SMILES IDX 41 45 103 46 42 47 43 48 44 49 97 50 45 51 102 52 96 53
REMARK SMILES IDX 98 54 46 55 101 56 95 57 94 58 47 60 81 61 60 62 80 63 61 64
REMARK SMILES IDX 64 65 79 66 99 67 62 68 63 69 78 71 100 72 65 73 48 74 49 75
REMARK SMILES IDX 58 76 50 77 51 78 57 79 59 80 52 81 53 82 54 83 55 84 56 85
REMARK SMILES IDX 82 86 83 87 92 88 84 89 85 90 91 91 93 92 86 93 87 94 88 95
REMARK SMILES IDX 89 96 90 97 66 98 67 99 76 100 68 101 69 102 75 103 77 104
REMARK SMILES IDX 70 105 71 106 72 107 73 108 74 109
REMARK H PARENT 18 17 10 27 98 59 64 70
REMARK Flexibility Score: inf
ROOT
ATOM      1  C   UNL A   1      37.018  32.899  35.065  1.00  0.00     0.188 C 
ENDROOT
BRANCH   1   2
ATOM      2  O   UNL A   1      37.414  31.552  34.997  1.00  0.00    -0.376 OA
BRANCH   2   3
ATOM      3  C   UNL A   1      38.245  31.097  33.948  1.00  0.00     0.202 C 
BRANCH   3   4
ATOM      4  C   UNL A   1      39.260  29.953  34.047  1.00  0.00     0.261 C 
BRANCH   4   5
ATOM      5  O   UNL A   1      40.518  30.078  33.377  1.00  0.00    -0.460 OA
BRANCH   5   6
ATOM      6  C   UNL A   1      41.016  28.913  32.887  1.00  0.00     0.340 C 
ATOM      7  O   UNL A   1      40.945  27.824  33.444  1.00  0.00    -0.246 OA
BRANCH   6   8
ATOM      8  C   UNL A   1      41.500  29.046  31.488  1.00  0.00     0.083 A 
ATOM      9  C   UNL A   1      41.366  30.170  30.652  1.00  0.00     0.056 A 
ATOM     10  C   UNL A   1      41.799  30.051  29.317  1.00  0.00     0.027 A 
ATOM     11  C   UNL A   1      42.426  28.893  28.845  1.00  0.00     0.002 A 
ATOM     12  C   UNL A   1      42.098  27.867  30.985  1.00  0.00     0.018 A 
ATOM     13  C   UNL A   1      42.580  27.798  29.683  1.00  0.00     0.001 A 
BRANCH   9  14
ATOM     14  N   UNL A   1      40.878  31.458  30.985  1.00  0.00    -0.321 N 
ATOM     15  C   UNL A   1      39.718  32.139  30.676  1.00  0.00     0.255 C 
ATOM     16  O   UNL A   1      39.625  33.336  30.946  1.00  0.00    -0.269 OA
ATOM     17  H   UNL A   1      41.494  31.976  31.553  1.00  0.00     0.170 HD
BRANCH  15  18
ATOM     18  C   UNL A   1      38.551  31.451  30.069  1.00  0.00     0.042 A 
ATOM     19  C   UNL A   1      36.308  31.647  29.244  1.00  0.00     0.041 A 
ATOM     20  C   UNL A   1      36.073  30.313  29.610  1.00  0.00     0.026 A 
ATOM     21  C   UNL A   1      37.593  32.167  29.346  1.00  0.00     0.040 A 
ATOM     22  C   UNL A   1      37.102  29.527  30.135  1.00  0.00     0.003 A 
ATOM     23  C   UNL A   1      38.341  30.106  30.392  1.00  0.00     0.014 A 
BRANCH  19  24
ATOM     24  N   UNL A   1      35.179  32.471  29.066  1.00  0.00    -0.326 N 
ATOM     25  O   UNL A   1      36.056  34.626  29.029  1.00  0.00    -0.274 OA
ATOM     26  C   UNL A   1      35.109  33.854  29.161  1.00  0.00     0.228 C 
ATOM     27  H   UNL A   1      34.337  32.010  28.847  1.00  0.00     0.169 HD
BRANCH  26  28
ATOM     28  C   UNL A   1      33.727  34.364  29.574  1.00  0.00     0.135 C 
BRANCH  28  29
ATOM     29  C   UNL A   1      33.756  35.210  30.818  1.00  0.00    -0.039 A 
ATOM     30  C   UNL A   1      33.183  36.490  30.823  1.00  0.00     0.004 A 
ATOM     31  C   UNL A   1      34.407  34.745  31.966  1.00  0.00     0.004 A 
ATOM     32  C   UNL A   1      33.340  37.325  31.926  1.00  0.00     0.000 A 
ATOM     33  C   UNL A   1      34.530  35.570  33.081  1.00  0.00     0.000 A 
ATOM     34  C   UNL A   1      34.018  36.867  33.052  1.00  0.00     0.000 A 
ENDBRANCH  28  29
ENDBRANCH  26  28
ENDBRANCH  19  24
ENDBRANCH  15  18
ENDBRANCH   9  14
ENDBRANCH   6   8
ENDBRANCH   5   6
ENDBRANCH   4   5
ENDBRANCH   3   4
ENDBRANCH   2   3
ENDBRANCH   1   2
BRANCH   1  35
ATOM     35  C   UNL A   1      36.878  33.513  36.478  1.00  0.00     0.188 C 
BRANCH  35  36
ATOM     36  O   UNL A   1      36.989  32.704  37.633  1.00  0.00    -0.376 OA
BRANCH  36  37
ATOM     37  C   UNL A   1      37.327  33.322  38.861  1.00  0.00     0.202 C 
BRANCH  37  38
ATOM     38  C   UNL A   1      38.134  32.566  39.935  1.00  0.00     0.261 C 
BRANCH  38  39
ATOM     39  O   UNL A   1      39.528  32.342  39.655  1.00  0.00    -0.460 OA
BRANCH  39  40
ATOM     40  C   UNL A   1      40.269  33.448  39.379  1.00  0.00     0.338 C 
ATOM     41  O   UNL A   1      40.496  34.381  40.134  1.00  0.00    -0.246 OA
BRANCH  40  42
ATOM     42  C   UNL A   1      40.984  33.263  38.090  1.00  0.00     0.060 A 
ATOM     43  C   UNL A   1      40.292  32.689  37.007  1.00  0.00     0.016 A 
ATOM     44  C   UNL A   1      42.317  33.644  37.941  1.00  0.00     0.016 A 
ATOM     45  C   UNL A   1      40.936  32.467  35.788  1.00  0.00     0.010 A 
ATOM     46  C   UNL A   1      42.973  33.384  36.730  1.00  0.00     0.010 A 
ATOM     47  C   UNL A   1      42.299  32.761  35.662  1.00  0.00    -0.014 A 
BRANCH  47  48
ATOM     48  C   UNL A   1      43.082  32.180  34.539  1.00  0.00     0.031 A 
ATOM     49  C   UNL A   1      43.226  33.011  33.290  1.00  0.00     0.074 A 
ATOM     50  C   UNL A   1      43.649  30.960  34.605  1.00  0.00     0.049 A 
ATOM     51  N   UNL A   1      43.742  32.695  32.133  1.00  0.00    -0.248 NA
ATOM     52  C   UNL A   1      42.706  34.389  33.360  1.00  0.00     0.031 C 
ATOM     53  C   UNL A   1      43.642  30.079  35.771  1.00  0.00     0.029 A 
ATOM     54  N   UNL A   1      44.331  30.245  33.649  1.00  0.00    -0.354 N 
ATOM     55  C   UNL A   1      43.589  33.821  31.331  1.00  0.00     0.074 A 
ATOM     56  C   UNL A   1      42.919  34.824  32.127  1.00  0.00     0.031 C 
ATOM     57  C   UNL A   1      44.266  28.929  35.452  1.00  0.00     0.029 A 
ATOM     58  C   UNL A   1      44.680  28.975  34.050  1.00  0.00     0.049 A 
ATOM     59  H   UNL A   1      44.549  30.607  32.759  1.00  0.00     0.167 HD
ATOM     60  C   UNL A   1      43.973  34.004  30.047  1.00  0.00     0.037 A 
ATOM     61  C   UNL A   1      45.236  27.960  33.353  1.00  0.00     0.037 A 
ATOM     62  C   UNL A   1      44.647  33.009  29.258  1.00  0.00     0.049 A 
ATOM     63  C   UNL A   1      45.586  28.164  31.896  1.00  0.00     0.074 A 
ATOM     64  C   UNL A   1      45.094  33.107  27.952  1.00  0.00     0.029 A 
ATOM     65  N   UNL A   1      44.967  31.733  29.696  1.00  0.00    -0.354 N 
ATOM     66  N   UNL A   1      45.449  29.237  31.153  1.00  0.00    -0.248 NA
ATOM     67  C   UNL A   1      46.167  27.016  31.180  1.00  0.00     0.031 C 
ATOM     68  C   UNL A   1      45.632  31.872  27.582  1.00  0.00     0.029 A 
ATOM     69  C   UNL A   1      45.584  31.026  28.677  1.00  0.00     0.049 A 
ATOM     70  H   UNL A   1      44.783  31.382  30.598  1.00  0.00     0.167 HD
ATOM     71  C   UNL A   1      45.966  28.907  29.901  1.00  0.00     0.074 A 
ATOM     72  C   UNL A   1      46.419  27.536  29.987  1.00  0.00     0.031 C 
ATOM     73  C   UNL A   1      46.061  29.670  28.785  1.00  0.00     0.037 A 
BRANCH  60  74
ATOM     74  C   UNL A   1      43.647  35.319  29.395  1.00  0.00     0.058 A 
ATOM     75  C   UNL A   1      44.573  36.373  29.346  1.00  0.00     0.135 A 
ATOM     76  C   UNL A   1      42.409  35.504  28.758  1.00  0.00     0.135 A 
ATOM     77  F   UNL A   1      45.761  36.258  29.961  1.00  0.00    -0.206 F 
ATOM     78  C   UNL A   1      44.280  37.566  28.695  1.00  0.00     0.059 A 
ATOM     79  C   UNL A   1      42.107  36.677  28.075  1.00  0.00     0.059 A 
ATOM     80  F   UNL A   1      41.485  34.531  28.782  1.00  0.00    -0.206 F 
ATOM     81  C   UNL A   1      43.047  37.706  28.055  1.00  0.00     0.060 A 
BRANCH  81  82
ATOM     82  S   UNL A   1      42.701  39.245  27.178  1.00  0.00     0.124 S 
ATOM     83  O   UNL A   1      41.473  38.904  26.464  1.00  0.00    -0.237 OA
ATOM     84  O   UNL A   1      42.553  40.198  28.272  1.00  0.00    -0.237 OA
ATOM     85  O   UNL A   1      43.881  39.432  26.340  1.00  0.00    -0.744 OA
ENDBRANCH  81  82
ENDBRANCH  60  74
BRANCH  61  86
ATOM     86  C   UNL A   1      45.476  26.638  34.001  1.00  0.00     0.058 A 
ATOM     87  C   UNL A   1      44.520  25.612  33.938  1.00  0.00     0.135 A 
ATOM     88  C   UNL A   1      46.645  26.390  34.740  1.00  0.00     0.135 A 
ATOM     89  F   UNL A   1      43.377  25.804  33.263  1.00  0.00    -0.206 F 
ATOM     90  C   UNL A   1      44.698  24.403  34.604  1.00  0.00     0.059 A 
ATOM     91  C   UNL A   1      46.860  25.178  35.388  1.00  0.00     0.059 A 
ATOM     92  F   UNL A   1      47.596  27.333  34.832  1.00  0.00    -0.206 F 
ATOM     93  C   UNL A   1      45.873  24.194  35.326  1.00  0.00     0.060 A 
BRANCH  93  94
ATOM     94  S   UNL A   1      46.108  22.613  36.170  1.00  0.00     0.124 S 
ATOM     95  O   UNL A   1      46.036  23.014  37.570  1.00  0.00    -0.237 OA
ATOM     96  O   UNL A   1      44.984  21.827  35.670  1.00  0.00    -0.237 OA
ATOM     97  O   UNL A   1      47.422  22.177  35.705  1.00  0.00    -0.744 OA
ENDBRANCH  93  94
ENDBRANCH  61  86
BRANCH  73  98
ATOM     98  C   UNL A   1      46.743  29.082  27.578  1.00  0.00     0.058 A 
ATOM     99  C   UNL A   1      48.135  29.128  27.409  1.00  0.00     0.135 A 
ATOM    100  C   UNL A   1      45.990  28.391  26.613  1.00  0.00     0.135 A 
ATOM    101  F   UNL A   1      48.903  29.777  28.298  1.00  0.00    -0.206 F 
ATOM    102  C   UNL A   1      48.755  28.526  26.317  1.00  0.00     0.059 A 
ATOM    103  C   UNL A   1      46.592  27.754  25.530  1.00  0.00     0.059 A 
ATOM    104  F   UNL A   1      44.656  28.304  26.731  1.00  0.00    -0.206 F 
ATOM    105  C   UNL A   1      47.975  27.836  25.386  1.00  0.00     0.060 A 
BRANCH 105 106
ATOM    106  S   UNL A   1      48.797  27.021  24.001  1.00  0.00     0.124 S 
ATOM    107  O   UNL A   1      47.817  26.005  23.633  1.00  0.00    -0.237 OA
ATOM    108  O   UNL A   1      48.962  28.116  23.049  1.00  0.00    -0.237 OA
ATOM    109  O   UNL A   1      50.034  26.515  24.586  1.00  0.00    -0.744 OA
ENDBRANCH 105 106
ENDBRANCH  73  98
ENDBRANCH  47  48
ENDBRANCH  40  42
ENDBRANCH  39  40
ENDBRANCH  38  39
ENDBRANCH  37  38
ENDBRANCH  36  37
ENDBRANCH  35  36
ENDBRANCH   1  35
TORSDOF 25
ENDMDL
MODEL 3
REMARK VINA RESULT:      -9.0      7.641     10.703
REMARK SMILES O=C(Cc1ccccc1)Nc1cccc(C(=O)Nc2ccccc2C(=O)OCCOCCOCCOC(=O)c2ccc(-c3c4nc(c(-c5c(F)cc(S(=O)(=O)[O-])cc5F)c5ccc([nH]5)c(-c5c(F)cc(S(=O)(=O)[O-])cc5F)c5nc(c(-c6c(F)cc(S(=O)(=O)[O-])cc6F)c6ccc3[nH]6)C=C5)C=C4)cc2)c1
REMARK SMILES IDX 31 1 30 2 29 3 28 4 27 5 25 6 26 7 24 8 19 9 20 10 21 11
REMARK SMILES IDX 23 12 22 13 18 14 16 15 17 16 15 18 11 19 12 20 105 21 13 22
REMARK SMILES IDX 14 23 10 24 1 25 2 26 3 28 4 29 5 30 9 31 6 32 8 33 7 34
REMARK SMILES IDX 32 35 33 36 34 37 35 38 36 39 37 40 38 41 39 42 40 43 104 44
REMARK SMILES IDX 41 45 103 46 42 47 43 48 44 49 97 50 45 51 102 52 96 53
REMARK SMILES IDX 98 54 46 55 101 56 95 57 94 58 47 60 81 61 60 62 80 63 61 64
REMARK SMILES IDX 64 65 79 66 99 67 62 68 63 69 78 71 100 72 65 73 48 74 49 75
REMARK SMILES IDX 58 76 50 77 51 78 57 79 59 80 52 81 53 82 54 83 55 84 56 85
REMARK SMILES IDX 82 86 83 87 92 88 84 89 85 90 91 91 93 92 86 93 87 94 88 95
REMARK SMILES IDX 89 96 90 97 66 98 67 99 76 100 68 101 69 102 75 103 77 104
REMARK SMILES IDX 70 105 71 106 72 107 73 108 74 109
REMARK H PARENT 18 17 10 27 98 59 64 70
REMARK Flexibility Score: inf
ROOT
ATOM      1  C   UNL A   1      34.992  29.627  27.550  1.00  0.00     0.188 C 
ENDROOT
BRANCH   1   2
ATOM      2  O   UNL A   1      34.317  28.764  26.669  1.00  0.00    -0.376 OA
BRANCH   2   3
ATOM      3  C   UNL A   1      33.180  28.043  27.096  1.00  0.00     0.202 C 
BRANCH   3   4
ATOM      4  C   UNL A   1      32.568  26.834  26.378  1.00  0.00     0.261 C 
BRANCH   4   5
ATOM      5  O   UNL A   1      33.238  25.572  26.446  1.00  0.00    -0.460 OA
BRANCH   5   6
ATOM      6  C   UNL A   1      33.996  25.275  25.358  1.00  0.00     0.340 C 
ATOM      7  O   UNL A   1      34.416  26.090  24.546  1.00  0.00    -0.246 OA
BRANCH   6   8
ATOM      8  C   UNL A   1      34.440  23.857  25.346  1.00  0.00     0.083 A 
ATOM      9  C   UNL A   1      34.542  23.015  24.223  1.00  0.00     0.056 A 
ATOM     10  C   UNL A   1      34.880  21.664  24.444  1.00  0.00     0.027 A 
ATOM     11  C   UNL A   1      35.195  21.182  25.719  1.00  0.00     0.002 A 
ATOM     12  C   UNL A   1      34.721  23.345  26.634  1.00  0.00     0.018 A 
ATOM     13  C   UNL A   1      35.119  22.025  26.818  1.00  0.00     0.001 A 
BRANCH   9  14
ATOM     14  N   UNL A   1      34.387  23.351  22.856  1.00  0.00    -0.321 N 
ATOM     15  C   UNL A   1      33.301  23.732  22.094  1.00  0.00     0.255 C 
ATOM     16  O   UNL A   1      33.409  23.788  20.869  1.00  0.00    -0.269 OA
ATOM     17  H   UNL A   1      35.226  23.303  22.343  1.00  0.00     0.170 HD
BRANCH  15  18
ATOM     18  C   UNL A   1      32.014  24.127  22.716  1.00  0.00     0.042 A 
ATOM     19  C   UNL A   1      30.529  25.918  23.301  1.00  0.00     0.041 A 
ATOM     20  C   UNL A   1      30.073  25.162  24.393  1.00  0.00     0.026 A 
ATOM     21  C   UNL A   1      31.397  25.336  22.384  1.00  0.00     0.040 A 
ATOM     22  C   UNL A   1      30.533  23.859  24.599  1.00  0.00     0.003 A 
ATOM     23  C   UNL A   1      31.529  23.348  23.772  1.00  0.00     0.014 A 
BRANCH  19  24
ATOM     24  N   UNL A   1      30.312  27.309  23.350  1.00  0.00    -0.326 N 
ATOM     25  O   UNL A   1      32.444  28.217  23.132  1.00  0.00    -0.274 OA
ATOM     26  C   UNL A   1      31.261  28.316  23.454  1.00  0.00     0.228 C 
ATOM     27  H   UNL A   1      29.374  27.602  23.304  1.00  0.00     0.169 HD
BRANCH  26  28
ATOM     28  C   UNL A   1      30.731  29.581  24.131  1.00  0.00     0.135 C 
BRANCH  28  29
ATOM     29  C   UNL A   1      29.686  30.293  23.317  1.00  0.00    -0.039 A 
ATOM     30  C   UNL A   1      29.515  29.994  21.957  1.00  0.00     0.004 A 
ATOM     31  C   UNL A   1      28.912  31.303  23.899  1.00  0.00     0.004 A 
ATOM     32  C   UNL A   1      28.652  30.754  21.173  1.00  0.00     0.000 A 
ATOM     33  C   UNL A   1      28.022  32.039  23.119  1.00  0.00     0.000 A 
ATOM     34  C   UNL A   1      27.910  31.780  21.754  1.00  0.00     0.000 A 
ENDBRANCH  28  29
ENDBRANCH  26  28
ENDBRANCH  19  24
ENDBRANCH  15  18
ENDBRANCH   9  14
ENDBRANCH   6   8
ENDBRANCH   5   6
ENDBRANCH   4   5
ENDBRANCH   3   4
ENDBRANCH   2   3
ENDBRANCH   1   2
BRANCH   1  35
ATOM     35  C   UNL A   1      34.603  31.123  27.493  1.00  0.00     0.188 C 
BRANCH  35  36
ATOM     36  O   UNL A   1      35.471  32.116  28.004  1.00  0.00    -0.376 OA
BRANCH  36  37
ATOM     37  C   UNL A   1      35.528  32.308  29.406  1.00  0.00     0.202 C 
BRANCH  37  38
ATOM     38  C   UNL A   1      34.455  33.138  30.137  1.00  0.00     0.261 C 
BRANCH  38  39
ATOM     39  O   UNL A   1      34.254  32.845  31.533  1.00  0.00    -0.460 OA
BRANCH  39  40
ATOM     40  C   UNL A   1      34.575  33.836  32.406  1.00  0.00     0.338 C 
ATOM     41  O   UNL A   1      33.833  34.718  32.813  1.00  0.00    -0.246 OA
BRANCH  40  42
ATOM     42  C   UNL A   1      35.909  33.568  33.001  1.00  0.00     0.060 A 
ATOM     43  C   UNL A   1      36.226  32.254  33.390  1.00  0.00     0.016 A 
ATOM     44  C   UNL A   1      36.840  34.591  33.181  1.00  0.00     0.016 A 
ATOM     45  C   UNL A   1      37.457  31.964  33.984  1.00  0.00     0.010 A 
ATOM     46  C   UNL A   1      38.058  34.307  33.813  1.00  0.00     0.010 A 
ATOM     47  C   UNL A   1      38.357  33.002  34.252  1.00  0.00    -0.014 A 
BRANCH  47  48
ATOM     48  C   UNL A   1      39.468  32.789  35.217  1.00  0.00     0.031 A 
ATOM     49  C   UNL A   1      40.738  32.174  34.688  1.00  0.00     0.074 A 
ATOM     50  C   UNL A   1      39.373  33.120  36.519  1.00  0.00     0.049 A 
ATOM     51  N   UNL A   1      41.800  31.768  35.332  1.00  0.00    -0.248 NA
ATOM     52  C   UNL A   1      40.813  31.985  33.227  1.00  0.00     0.031 C 
ATOM     53  C   UNL A   1      38.230  33.778  37.148  1.00  0.00     0.029 A 
ATOM     54  N   UNL A   1      40.258  32.925  37.552  1.00  0.00    -0.354 N 
ATOM     55  C   UNL A   1      42.656  31.256  34.363  1.00  0.00     0.074 A 
ATOM     56  C   UNL A   1      41.987  31.387  33.089  1.00  0.00     0.031 C 
ATOM     57  C   UNL A   1      38.472  33.908  38.467  1.00  0.00     0.029 A 
ATOM     58  C   UNL A   1      39.768  33.306  38.782  1.00  0.00     0.049 A 
ATOM     59  H   UNL A   1      41.158  32.547  37.426  1.00  0.00     0.167 HD
ATOM     60  C   UNL A   1      43.890  30.724  34.520  1.00  0.00     0.037 A 
ATOM     61  C   UNL A   1      40.293  33.154  40.017  1.00  0.00     0.037 A 
ATOM     62  C   UNL A   1      44.560  30.602  35.787  1.00  0.00     0.049 A 
ATOM     63  C   UNL A   1      41.641  32.486  40.174  1.00  0.00     0.074 A 
ATOM     64  C   UNL A   1      45.820  30.093  36.046  1.00  0.00     0.029 A 
ATOM     65  N   UNL A   1      44.023  30.984  37.007  1.00  0.00    -0.354 N 
ATOM     66  N   UNL A   1      42.446  32.017  39.250  1.00  0.00    -0.248 NA
ATOM     67  C   UNL A   1      42.151  32.323  41.545  1.00  0.00     0.031 C 
ATOM     68  C   UNL A   1      46.023  30.116  37.428  1.00  0.00     0.029 A 
ATOM     69  C   UNL A   1      44.919  30.701  38.024  1.00  0.00     0.049 A 
ATOM     70  H   UNL A   1      43.138  31.397  37.131  1.00  0.00     0.167 HD
ATOM     71  C   UNL A   1      43.573  31.549  39.923  1.00  0.00     0.074 A 
ATOM     72  C   UNL A   1      43.347  31.791  41.331  1.00  0.00     0.031 C 
ATOM     73  C   UNL A   1      44.695  30.977  39.421  1.00  0.00     0.037 A 
BRANCH  60  74
ATOM     74  C   UNL A   1      44.593  30.202  33.298  1.00  0.00     0.058 A 
ATOM     75  C   UNL A   1      45.464  31.003  32.543  1.00  0.00     0.135 A 
ATOM     76  C   UNL A   1      44.435  28.860  32.912  1.00  0.00     0.135 A 
ATOM     77  F   UNL A   1      45.631  32.298  32.853  1.00  0.00    -0.206 F 
ATOM     78  C   UNL A   1      46.149  30.494  31.445  1.00  0.00     0.059 A 
ATOM     79  C   UNL A   1      45.134  28.323  31.836  1.00  0.00     0.059 A 
ATOM     80  F   UNL A   1      43.607  28.054  33.594  1.00  0.00    -0.206 F 
ATOM     81  C   UNL A   1      45.984  29.150  31.104  1.00  0.00     0.060 A 
BRANCH  81  82
ATOM     82  S   UNL A   1      46.914  28.496  29.703  1.00  0.00     0.124 S 
ATOM     83  O   UNL A   1      48.135  29.295  29.765  1.00  0.00    -0.237 OA
ATOM     84  O   UNL A   1      47.060  27.089  30.058  1.00  0.00    -0.237 OA
ATOM     85  O   UNL A   1      46.046  28.766  28.562  1.00  0.00    -0.744 OA
ENDBRANCH  81  82
ENDBRANCH  60  74
BRANCH  61  86
ATOM     86  C   UNL A   1      39.540  33.608  41.221  1.00  0.00     0.058 A 
ATOM     87  C   UNL A   1      39.747  34.883  41.772  1.00  0.00     0.135 A 
ATOM     88  C   UNL A   1      38.633  32.759  41.877  1.00  0.00     0.135 A 
ATOM     89  F   UNL A   1      40.617  35.726  41.197  1.00  0.00    -0.206 F 
ATOM     90  C   UNL A   1      39.107  35.289  42.940  1.00  0.00     0.059 A 
ATOM     91  C   UNL A   1      37.959  33.154  43.028  1.00  0.00     0.059 A 
ATOM     92  F   UNL A   1      38.392  31.530  41.394  1.00  0.00    -0.206 F 
ATOM     93  C   UNL A   1      38.213  34.417  43.561  1.00  0.00     0.060 A 
BRANCH  93  94
ATOM     94  S   UNL A   1      37.370  34.959  45.065  1.00  0.00     0.124 S 
ATOM     95  O   UNL A   1      38.367  35.842  45.658  1.00  0.00    -0.237 OA
ATOM     96  O   UNL A   1      36.176  35.608  44.531  1.00  0.00    -0.237 OA
ATOM     97  O   UNL A   1      37.126  33.710  45.781  1.00  0.00    -0.744 OA
ENDBRANCH  93  94
ENDBRANCH  61  86
BRANCH  73  98
ATOM     98  C   UNL A   1      45.806  30.632  40.378  1.00  0.00     0.058 A 
ATOM     99  C   UNL A   1      46.806  31.552  40.725  1.00  0.00     0.135 A 
ATOM    100  C   UNL A   1      45.819  29.380  41.018  1.00  0.00     0.135 A 
ATOM    101  F   UNL A   1      46.845  32.761  40.143  1.00  0.00    -0.206 F 
ATOM    102  C   UNL A   1      47.792  31.239  41.657  1.00  0.00     0.059 A 
ATOM    103  C   UNL A   1      46.776  29.057  41.977  1.00  0.00     0.059 A 
ATOM    104  F   UNL A   1      44.878  28.466  40.735  1.00  0.00    -0.206 F 
ATOM    105  C   UNL A   1      47.764  29.990  42.283  1.00  0.00     0.060 A 
BRANCH 105 106
ATOM    106  S   UNL A   1      49.020  29.613  43.523  1.00  0.00     0.124 S 
ATOM    107  O   UNL A   1      48.650  28.257  43.916  1.00  0.00    -0.237 OA
ATOM    108  O   UNL A   1      50.259  29.736  42.760  1.00  0.00    -0.237 OA
ATOM    109  O   UNL A   1      48.814  30.638  44.541  1.00  0.00    -0.744 OA
ENDBRANCH 105 106
ENDBRANCH  73  98
ENDBRANCH  47  48
ENDBRANCH  40  42
ENDBRANCH  39  40
ENDBRANCH  38  39
ENDBRANCH  37  38
ENDBRANCH  36  37
ENDBRANCH  35  36
ENDBRANCH   1  35
TORSDOF 25
ENDMDL
