MODEL 1
REMARK VINA RESULT:     -10.5      0.000      0.000
REMARK SMILES CC[C@](C)(NC(=O)c1nc2nccc(C)n2n1)C(=O)OCCOCCOCCOC(=O)c1ccc(-c2c3nc(c(-c4c(F)cc(S(=O)(=O)[O-])cc4F)c4ccc([nH]4)c(-c4c(F)cc(S(=O)(=O)[O-])cc4F)c4nc(c(-c5c(F)cc(S(=O)(=O)[O-])cc5F)c5ccc2[nH]5)C=C4)C=C3)cc1
REMARK SMILES IDX 25 1 24 2 23 3 22 4 21 5 20 6 18 7 19 8 3 9 4 10 2 11 1 12
REMARK SMILES IDX 5 13 6 14 7 16 8 17 9 18 17 19 10 20 16 21 11 22 14 23 12 24
REMARK SMILES IDX 13 25 15 26 26 27 27 28 28 29 29 30 30 31 31 32 32 33 33 34
REMARK SMILES IDX 97 35 34 36 96 37 35 38 36 39 37 40 90 41 38 42 95 43 89 44
REMARK SMILES IDX 91 45 39 46 94 47 88 48 87 49 40 51 74 52 53 53 73 54 54 55
REMARK SMILES IDX 57 56 72 57 92 58 55 59 56 60 71 62 93 63 58 64 41 65 42 66
REMARK SMILES IDX 51 67 43 68 44 69 50 70 52 71 45 72 46 73 47 74 48 75 49 76
REMARK SMILES IDX 75 77 76 78 85 79 77 80 78 81 84 82 86 83 79 84 80 85 81 86
REMARK SMILES IDX 82 87 83 88 59 89 60 90 69 91 61 92 62 93 68 94 70 95 63 96
REMARK SMILES IDX 64 97 65 98 66 99 67 100
REMARK H PARENT 5 15 91 50 57 61
REMARK Flexibility Score: inf
ROOT
ATOM      1  C   UNL A   1      39.549  21.239  26.123  1.00  0.00     0.188 C 
ENDROOT
BRANCH   1   2
ATOM      2  C   UNL A   1      38.094  21.536  25.821  1.00  0.00     0.188 C 
BRANCH   2   3
ATOM      3  O   UNL A   1      37.788  22.250  24.628  1.00  0.00    -0.376 OA
BRANCH   3   4
ATOM      4  C   UNL A   1      37.208  23.534  24.834  1.00  0.00     0.202 C 
BRANCH   4   5
ATOM      5  C   UNL A   1      35.747  23.735  24.374  1.00  0.00     0.261 C 
BRANCH   5   6
ATOM      6  O   UNL A   1      34.854  22.766  24.945  1.00  0.00    -0.462 OA
BRANCH   6   7
ATOM      7  C   UNL A   1      33.525  23.025  24.882  1.00  0.00     0.331 C 
ATOM      8  O   UNL A   1      33.015  23.747  24.031  1.00  0.00    -0.249 OA
BRANCH   7   9
ATOM      9  C   UNL A   1      32.713  22.311  26.022  1.00  0.00     0.135 C 
ATOM     10  C   UNL A   1      33.802  21.600  26.893  1.00  0.00     0.047 C 
BRANCH   9  11
ATOM     11  C   UNL A   1      31.782  21.274  25.324  1.00  0.00     0.037 C 
ATOM     12  C   UNL A   1      32.465  20.083  24.649  1.00  0.00     0.007 C 
ENDBRANCH   9  11
BRANCH   9  13
ATOM     13  N   UNL A   1      31.910  23.176  26.972  1.00  0.00    -0.334 N 
ATOM     14  C   UNL A   1      30.742  23.910  26.745  1.00  0.00     0.291 C 
ATOM     15  H   UNL A   1      32.265  23.229  27.889  1.00  0.00     0.165 HD
ATOM     16  O   UNL A   1      29.693  23.476  27.227  1.00  0.00    -0.266 OA
BRANCH  14  17
ATOM     17  C   UNL A   1      30.833  25.306  26.209  1.00  0.00     0.241 A 
ATOM     18  N   UNL A   1      31.742  26.205  26.702  1.00  0.00    -0.184 NA
ATOM     19  N   UNL A   1      30.008  25.867  25.300  1.00  0.00    -0.139 NA
ATOM     20  C   UNL A   1      31.632  27.286  25.982  1.00  0.00     0.253 A 
ATOM     21  N   UNL A   1      30.587  27.089  25.086  1.00  0.00    -0.201 N 
ATOM     22  N   UNL A   1      32.455  28.378  25.941  1.00  0.00    -0.220 NA
ATOM     23  C   UNL A   1      30.341  28.035  24.080  1.00  0.00     0.045 A 
ATOM     24  C   UNL A   1      32.239  29.213  24.975  1.00  0.00     0.117 A 
ATOM     25  C   UNL A   1      31.148  29.109  23.970  1.00  0.00     0.044 A 
ATOM     26  C   UNL A   1      29.205  27.777  23.153  1.00  0.00     0.067 C 
ENDBRANCH  14  17
ENDBRANCH   9  13
ENDBRANCH   7   9
ENDBRANCH   6   7
ENDBRANCH   5   6
ENDBRANCH   4   5
ENDBRANCH   3   4
ENDBRANCH   2   3
ENDBRANCH   1   2
BRANCH   1  27
ATOM     27  O   UNL A   1      40.014  19.960  25.680  1.00  0.00    -0.376 OA
BRANCH  27  28
ATOM     28  C   UNL A   1      41.060  19.262  26.400  1.00  0.00     0.202 C 
BRANCH  28  29
ATOM     29  C   UNL A   1      42.538  19.363  25.973  1.00  0.00     0.261 C 
BRANCH  29  30
ATOM     30  O   UNL A   1      42.834  20.573  25.299  1.00  0.00    -0.460 OA
BRANCH  30  31
ATOM     31  C   UNL A   1      43.179  21.567  26.129  1.00  0.00     0.338 C 
ATOM     32  O   UNL A   1      42.881  21.673  27.320  1.00  0.00    -0.246 OA
BRANCH  31  33
ATOM     33  C   UNL A   1      44.082  22.472  25.395  1.00  0.00     0.060 A 
ATOM     34  C   UNL A   1      45.265  22.718  26.075  1.00  0.00     0.016 A 
ATOM     35  C   UNL A   1      43.454  23.413  24.583  1.00  0.00     0.016 A 
ATOM     36  C   UNL A   1      45.323  23.965  26.596  1.00  0.00     0.010 A 
ATOM     37  C   UNL A   1      43.468  24.653  25.115  1.00  0.00     0.010 A 
ATOM     38  C   UNL A   1      44.285  24.824  26.230  1.00  0.00    -0.014 A 
BRANCH  38  39
ATOM     39  C   UNL A   1      43.995  25.903  27.115  1.00  0.00     0.031 A 
ATOM     40  C   UNL A   1      45.040  26.912  26.981  1.00  0.00     0.074 A 
ATOM     41  C   UNL A   1      42.876  25.902  27.854  1.00  0.00     0.049 A 
ATOM     42  N   UNL A   1      46.099  27.019  27.708  1.00  0.00    -0.248 NA
ATOM     43  C   UNL A   1      45.114  27.606  25.682  1.00  0.00     0.031 C 
ATOM     44  C   UNL A   1      41.702  25.025  27.783  1.00  0.00     0.029 A 
ATOM     45  N   UNL A   1      42.519  26.819  28.780  1.00  0.00    -0.354 N 
ATOM     46  C   UNL A   1      46.814  28.024  27.085  1.00  0.00     0.074 A 
ATOM     47  C   UNL A   1      46.364  28.062  25.720  1.00  0.00     0.031 C 
ATOM     48  C   UNL A   1      40.675  25.612  28.443  1.00  0.00     0.029 A 
ATOM     49  C   UNL A   1      41.158  26.827  29.070  1.00  0.00     0.049 A 
ATOM     50  H   UNL A   1      43.163  27.428  29.212  1.00  0.00     0.167 HD
ATOM     51  C   UNL A   1      47.391  29.013  27.811  1.00  0.00     0.037 A 
ATOM     52  C   UNL A   1      40.542  27.896  29.635  1.00  0.00     0.037 A 
ATOM     53  C   UNL A   1      47.488  28.664  29.206  1.00  0.00     0.049 A 
ATOM     54  C   UNL A   1      41.633  28.714  30.268  1.00  0.00     0.074 A 
ATOM     55  C   UNL A   1      48.100  27.631  29.890  1.00  0.00     0.029 A 
ATOM     56  N   UNL A   1      46.521  29.163  30.051  1.00  0.00    -0.354 N 
ATOM     57  N   UNL A   1      42.373  28.292  31.264  1.00  0.00    -0.248 NA
ATOM     58  C   UNL A   1      42.243  29.760  29.452  1.00  0.00     0.031 C 
ATOM     59  C   UNL A   1      47.192  27.275  30.929  1.00  0.00     0.029 A 
ATOM     60  C   UNL A   1      46.098  28.142  30.869  1.00  0.00     0.049 A 
ATOM     61  H   UNL A   1      46.191  30.090  30.066  1.00  0.00     0.167 HD
ATOM     62  C   UNL A   1      43.667  28.714  30.966  1.00  0.00     0.074 A 
ATOM     63  C   UNL A   1      43.512  29.659  29.864  1.00  0.00     0.031 C 
ATOM     64  C   UNL A   1      44.765  28.048  31.436  1.00  0.00     0.037 A 
BRANCH  51  65
ATOM     65  C   UNL A   1      47.478  30.413  27.288  1.00  0.00     0.058 A 
ATOM     66  C   UNL A   1      48.723  31.048  27.229  1.00  0.00     0.135 A 
ATOM     67  C   UNL A   1      46.348  31.226  27.021  1.00  0.00     0.135 A 
ATOM     68  F   UNL A   1      49.844  30.370  27.513  1.00  0.00    -0.206 F 
ATOM     69  C   UNL A   1      48.837  32.405  26.934  1.00  0.00     0.059 A 
ATOM     70  C   UNL A   1      46.444  32.552  26.643  1.00  0.00     0.059 A 
ATOM     71  F   UNL A   1      45.093  30.802  27.207  1.00  0.00    -0.206 F 
ATOM     72  C   UNL A   1      47.692  33.145  26.640  1.00  0.00     0.060 A 
BRANCH  72  73
ATOM     73  S   UNL A   1      47.824  34.911  26.340  1.00  0.00     0.124 S 
ATOM     74  O   UNL A   1      49.110  35.212  26.958  1.00  0.00    -0.237 OA
ATOM     75  O   UNL A   1      47.781  34.972  24.883  1.00  0.00    -0.237 OA
ATOM     76  O   UNL A   1      46.653  35.457  27.020  1.00  0.00    -0.744 OA
ENDBRANCH  72  73
ENDBRANCH  51  65
BRANCH  52  77
ATOM     77  C   UNL A   1      39.224  28.463  29.241  1.00  0.00     0.058 A 
ATOM     78  C   UNL A   1      38.184  28.586  30.178  1.00  0.00     0.135 A 
ATOM     79  C   UNL A   1      39.038  29.141  28.017  1.00  0.00     0.135 A 
ATOM     80  F   UNL A   1      38.286  27.994  31.377  1.00  0.00    -0.206 F 
ATOM     81  C   UNL A   1      37.049  29.371  29.934  1.00  0.00     0.059 A 
ATOM     82  C   UNL A   1      37.913  29.917  27.747  1.00  0.00     0.059 A 
ATOM     83  F   UNL A   1      39.988  29.150  27.072  1.00  0.00    -0.206 F 
ATOM     84  C   UNL A   1      36.934  30.050  28.722  1.00  0.00     0.060 A 
BRANCH  84  85
ATOM     85  S   UNL A   1      35.561  31.199  28.468  1.00  0.00     0.124 S 
ATOM     86  O   UNL A   1      36.207  32.287  27.742  1.00  0.00    -0.237 OA
ATOM     87  O   UNL A   1      34.621  30.389  27.701  1.00  0.00    -0.237 OA
ATOM     88  O   UNL A   1      35.134  31.525  29.827  1.00  0.00    -0.744 OA
ENDBRANCH  84  85
ENDBRANCH  52  77
BRANCH  64  89
ATOM     89  C   UNL A   1      44.556  26.977  32.481  1.00  0.00     0.058 A 
ATOM     90  C   UNL A   1      44.312  25.622  32.189  1.00  0.00     0.135 A 
ATOM     91  C   UNL A   1      44.783  27.305  33.825  1.00  0.00     0.135 A 
ATOM     92  F   UNL A   1      44.188  25.209  30.919  1.00  0.00    -0.206 F 
ATOM     93  C   UNL A   1      44.259  24.647  33.188  1.00  0.00     0.059 A 
ATOM     94  C   UNL A   1      44.764  26.347  34.835  1.00  0.00     0.059 A 
ATOM     95  F   UNL A   1      45.087  28.570  34.164  1.00  0.00    -0.206 F 
ATOM     96  C   UNL A   1      44.489  25.020  34.512  1.00  0.00     0.060 A 
BRANCH  96  97
ATOM     97  S   UNL A   1      44.486  23.754  35.802  1.00  0.00     0.124 S 
ATOM     98  O   UNL A   1      44.140  22.552  35.052  1.00  0.00    -0.237 OA
ATOM     99  O   UNL A   1      45.855  23.814  36.308  1.00  0.00    -0.237 OA
ATOM    100  O   UNL A   1      43.464  24.221  36.737  1.00  0.00    -0.744 OA
ENDBRANCH  96  97
ENDBRANCH  64  89
ENDBRANCH  38  39
ENDBRANCH  31  33
ENDBRANCH  30  31
ENDBRANCH  29  30
ENDBRANCH  28  29
ENDBRANCH  27  28
ENDBRANCH   1  27
TORSDOF 23
ENDMDL
MODEL 2
REMARK VINA RESULT:     -10.0      2.804      9.241
REMARK SMILES CC[C@](C)(NC(=O)c1nc2nccc(C)n2n1)C(=O)OCCOCCOCCOC(=O)c1ccc(-c2c3nc(c(-c4c(F)cc(S(=O)(=O)[O-])cc4F)c4ccc([nH]4)c(-c4c(F)cc(S(=O)(=O)[O-])cc4F)c4nc(c(-c5c(F)cc(S(=O)(=O)[O-])cc5F)c5ccc2[nH]5)C=C4)C=C3)cc1
REMARK SMILES IDX 25 1 24 2 23 3 22 4 21 5 20 6 18 7 19 8 3 9 4 10 2 11 1 12
REMARK SMILES IDX 5 13 6 14 7 16 8 17 9 18 17 19 10 20 16 21 11 22 14 23 12 24
REMARK SMILES IDX 13 25 15 26 26 27 27 28 28 29 29 30 30 31 31 32 32 33 33 34
REMARK SMILES IDX 97 35 34 36 96 37 35 38 36 39 37 40 90 41 38 42 95 43 89 44
REMARK SMILES IDX 91 45 39 46 94 47 88 48 87 49 40 51 74 52 53 53 73 54 54 55
REMARK SMILES IDX 57 56 72 57 92 58 55 59 56 60 71 62 93 63 58 64 41 65 42 66
REMARK SMILES IDX 51 67 43 68 44 69 50 70 52 71 45 72 46 73 47 74 48 75 49 76
REMARK SMILES IDX 75 77 76 78 85 79 77 80 78 81 84 82 86 83 79 84 80 85 81 86
REMARK SMILES IDX 82 87 83 88 59 89 60 90 69 91 61 92 62 93 68 94 70 95 63 96
REMARK SMILES IDX 64 97 65 98 66 99 67 100
REMARK H PARENT 5 15 91 50 57 61
REMARK Flexibility Score: inf
ROOT
ATOM      1  C   UNL A   1      32.574  29.402  25.665  1.00  0.00     0.188 C 
ENDROOT
BRANCH   1   2
ATOM      2  C   UNL A   1      31.286  30.056  25.205  1.00  0.00     0.188 C 
BRANCH   2   3
ATOM      3  O   UNL A   1      30.731  29.643  23.961  1.00  0.00    -0.376 OA
BRANCH   3   4
ATOM      4  C   UNL A   1      30.281  28.293  23.928  1.00  0.00     0.202 C 
BRANCH   4   5
ATOM      5  C   UNL A   1      31.174  27.263  23.200  1.00  0.00     0.261 C 
BRANCH   5   6
ATOM      6  O   UNL A   1      31.718  26.279  24.094  1.00  0.00    -0.462 OA
BRANCH   6   7
ATOM      7  C   UNL A   1      33.043  26.011  23.998  1.00  0.00     0.331 C 
ATOM      8  O   UNL A   1      33.900  26.875  23.841  1.00  0.00    -0.249 OA
BRANCH   7   9
ATOM      9  C   UNL A   1      33.360  24.475  24.098  1.00  0.00     0.135 C 
ATOM     10  C   UNL A   1      34.682  24.401  24.935  1.00  0.00     0.047 C 
BRANCH   9  11
ATOM     11  C   UNL A   1      33.584  23.970  22.641  1.00  0.00     0.037 C 
ATOM     12  C   UNL A   1      32.915  22.648  22.261  1.00  0.00     0.007 C 
ENDBRANCH   9  11
BRANCH   9  13
ATOM     13  N   UNL A   1      32.359  23.588  24.809  1.00  0.00    -0.334 N 
ATOM     14  C   UNL A   1      32.555  22.666  25.842  1.00  0.00     0.291 C 
ATOM     15  H   UNL A   1      31.429  23.674  24.498  1.00  0.00     0.165 HD
ATOM     16  O   UNL A   1      32.157  22.976  26.967  1.00  0.00    -0.266 OA
BRANCH  14  17
ATOM     17  C   UNL A   1      32.948  21.257  25.516  1.00  0.00     0.241 A 
ATOM     18  N   UNL A   1      32.010  20.290  25.266  1.00  0.00    -0.184 NA
ATOM     19  N   UNL A   1      34.201  20.755  25.531  1.00  0.00    -0.139 NA
ATOM     20  C   UNL A   1      32.660  19.210  24.936  1.00  0.00     0.253 A 
ATOM     21  N   UNL A   1      34.018  19.482  25.060  1.00  0.00    -0.201 N 
ATOM     22  N   UNL A   1      32.178  18.049  24.397  1.00  0.00    -0.220 NA
ATOM     23  C   UNL A   1      34.962  18.544  24.620  1.00  0.00     0.045 A 
ATOM     24  C   UNL A   1      33.066  17.218  23.954  1.00  0.00     0.117 A 
ATOM     25  C   UNL A   1      34.540  17.400  24.044  1.00  0.00     0.044 A 
ATOM     26  C   UNL A   1      36.402  18.883  24.785  1.00  0.00     0.067 C 
ENDBRANCH  14  17
ENDBRANCH   9  13
ENDBRANCH   7   9
ENDBRANCH   6   7
ENDBRANCH   5   6
ENDBRANCH   4   5
ENDBRANCH   3   4
ENDBRANCH   2   3
ENDBRANCH   1   2
BRANCH   1  27
ATOM     27  O   UNL A   1      33.451  30.247  26.416  1.00  0.00    -0.376 OA
BRANCH  27  28
ATOM     28  C   UNL A   1      34.450  29.679  27.301  1.00  0.00     0.202 C 
BRANCH  28  29
ATOM     29  C   UNL A   1      35.633  30.519  27.822  1.00  0.00     0.261 C 
BRANCH  29  30
ATOM     30  O   UNL A   1      35.267  31.392  28.875  1.00  0.00    -0.460 OA
BRANCH  30  31
ATOM     31  C   UNL A   1      36.165  32.363  29.089  1.00  0.00     0.338 C 
ATOM     32  O   UNL A   1      36.568  33.192  28.271  1.00  0.00    -0.246 OA
BRANCH  31  33
ATOM     33  C   UNL A   1      36.515  32.345  30.521  1.00  0.00     0.060 A 
ATOM     34  C   UNL A   1      37.580  33.178  30.825  1.00  0.00     0.016 A 
ATOM     35  C   UNL A   1      36.267  31.142  31.180  1.00  0.00     0.016 A 
ATOM     36  C   UNL A   1      38.718  32.499  31.096  1.00  0.00     0.010 A 
ATOM     37  C   UNL A   1      37.393  30.437  31.416  1.00  0.00     0.010 A 
ATOM     38  C   UNL A   1      38.590  31.111  31.185  1.00  0.00    -0.014 A 
BRANCH  38  39
ATOM     39  C   UNL A   1      39.759  30.336  30.935  1.00  0.00     0.031 A 
ATOM     40  C   UNL A   1      40.486  30.168  32.189  1.00  0.00     0.074 A 
ATOM     41  C   UNL A   1      40.007  29.843  29.713  1.00  0.00     0.049 A 
ATOM     42  N   UNL A   1      41.453  30.905  32.618  1.00  0.00    -0.248 NA
ATOM     43  C   UNL A   1      39.816  29.366  33.229  1.00  0.00     0.031 C 
ATOM     44  C   UNL A   1      39.142  29.782  28.530  1.00  0.00     0.029 A 
ATOM     45  N   UNL A   1      41.107  29.159  29.325  1.00  0.00    -0.354 N 
ATOM     46  C   UNL A   1      41.682  30.420  33.892  1.00  0.00     0.074 A 
ATOM     47  C   UNL A   1      40.464  29.784  34.315  1.00  0.00     0.031 C 
ATOM     48  C   UNL A   1      39.654  28.880  27.658  1.00  0.00     0.029 A 
ATOM     49  C   UNL A   1      40.923  28.404  28.172  1.00  0.00     0.049 A 
ATOM     50  H   UNL A   1      41.962  29.193  29.815  1.00  0.00     0.167 HD
ATOM     51  C   UNL A   1      42.947  30.196  34.328  1.00  0.00     0.037 A 
ATOM     52  C   UNL A   1      41.729  27.361  27.850  1.00  0.00     0.037 A 
ATOM     53  C   UNL A   1      43.921  30.863  33.503  1.00  0.00     0.049 A 
ATOM     54  C   UNL A   1      42.990  27.554  28.645  1.00  0.00     0.074 A 
ATOM     55  C   UNL A   1      44.138  32.184  33.161  1.00  0.00     0.029 A 
ATOM     56  N   UNL A   1      44.555  30.109  32.539  1.00  0.00    -0.354 N 
ATOM     57  N   UNL A   1      43.806  28.566  28.478  1.00  0.00    -0.248 NA
ATOM     58  C   UNL A   1      43.053  26.928  29.963  1.00  0.00     0.031 C 
ATOM     59  C   UNL A   1      44.512  32.162  31.785  1.00  0.00     0.029 A 
ATOM     60  C   UNL A   1      44.565  30.830  31.368  1.00  0.00     0.049 A 
ATOM     61  H   UNL A   1      44.936  29.210  32.668  1.00  0.00     0.167 HD
ATOM     62  C   UNL A   1      44.182  28.953  29.763  1.00  0.00     0.074 A 
ATOM     63  C   UNL A   1      43.726  27.871  30.632  1.00  0.00     0.031 C 
ATOM     64  C   UNL A   1      44.561  30.237  30.044  1.00  0.00     0.037 A 
BRANCH  51  65
ATOM     65  C   UNL A   1      43.262  29.058  35.248  1.00  0.00     0.058 A 
ATOM     66  C   UNL A   1      43.885  29.318  36.473  1.00  0.00     0.135 A 
ATOM     67  C   UNL A   1      43.148  27.694  34.882  1.00  0.00     0.135 A 
ATOM     68  F   UNL A   1      44.080  30.580  36.881  1.00  0.00    -0.206 F 
ATOM     69  C   UNL A   1      44.372  28.289  37.278  1.00  0.00     0.059 A 
ATOM     70  C   UNL A   1      43.546  26.655  35.702  1.00  0.00     0.059 A 
ATOM     71  F   UNL A   1      42.734  27.304  33.670  1.00  0.00    -0.206 F 
ATOM     72  C   UNL A   1      44.194  26.963  36.883  1.00  0.00     0.060 A 
BRANCH  72  73
ATOM     73  S   UNL A   1      44.891  25.637  37.873  1.00  0.00     0.124 S 
ATOM     74  O   UNL A   1      44.364  25.958  39.195  1.00  0.00    -0.237 OA
ATOM     75  O   UNL A   1      44.333  24.454  37.228  1.00  0.00    -0.237 OA
ATOM     76  O   UNL A   1      46.331  25.814  37.708  1.00  0.00    -0.744 OA
ENDBRANCH  72  73
ENDBRANCH  51  65
BRANCH  52  77
ATOM     77  C   UNL A   1      41.292  26.038  27.327  1.00  0.00     0.058 A 
ATOM     78  C   UNL A   1      42.085  25.330  26.408  1.00  0.00     0.135 A 
ATOM     79  C   UNL A   1      40.228  25.318  27.911  1.00  0.00     0.135 A 
ATOM     80  F   UNL A   1      43.132  25.929  25.822  1.00  0.00    -0.206 F 
ATOM     81  C   UNL A   1      41.865  23.977  26.120  1.00  0.00     0.059 A 
ATOM     82  C   UNL A   1      39.982  23.975  27.630  1.00  0.00     0.059 A 
ATOM     83  F   UNL A   1      39.444  25.867  28.848  1.00  0.00    -0.206 F 
ATOM     84  C   UNL A   1      40.822  23.303  26.754  1.00  0.00     0.060 A 
BRANCH  84  85
ATOM     85  S   UNL A   1      40.638  21.519  26.521  1.00  0.00     0.124 S 
ATOM     86  O   UNL A   1      39.337  21.431  25.867  1.00  0.00    -0.237 OA
ATOM     87  O   UNL A   1      41.794  21.199  25.690  1.00  0.00    -0.237 OA
ATOM     88  O   UNL A   1      40.687  20.991  27.882  1.00  0.00    -0.744 OA
ENDBRANCH  84  85
ENDBRANCH  52  77
BRANCH  64  89
ATOM     89  C   UNL A   1      44.794  31.180  28.887  1.00  0.00     0.058 A 
ATOM     90  C   UNL A   1      43.796  31.987  28.309  1.00  0.00     0.135 A 
ATOM     91  C   UNL A   1      46.112  31.401  28.464  1.00  0.00     0.135 A 
ATOM     92  F   UNL A   1      42.527  31.911  28.733  1.00  0.00    -0.206 F 
ATOM     93  C   UNL A   1      44.089  32.941  27.331  1.00  0.00     0.059 A 
ATOM     94  C   UNL A   1      46.434  32.365  27.512  1.00  0.00     0.059 A 
ATOM     95  F   UNL A   1      47.121  30.711  29.023  1.00  0.00    -0.206 F 
ATOM     96  C   UNL A   1      45.415  33.124  26.939  1.00  0.00     0.060 A 
BRANCH  96  97
ATOM     97  S   UNL A   1      45.809  34.400  25.722  1.00  0.00     0.124 S 
ATOM     98  O   UNL A   1      47.230  34.169  25.482  1.00  0.00    -0.237 OA
ATOM     99  O   UNL A   1      44.916  34.067  24.614  1.00  0.00    -0.237 OA
ATOM    100  O   UNL A   1      45.489  35.646  26.415  1.00  0.00    -0.744 OA
ENDBRANCH  96  97
ENDBRANCH  64  89
ENDBRANCH  38  39
ENDBRANCH  31  33
ENDBRANCH  30  31
ENDBRANCH  29  30
ENDBRANCH  28  29
ENDBRANCH  27  28
ENDBRANCH   1  27
TORSDOF 23
ENDMDL
MODEL 3
REMARK VINA RESULT:      -9.3      3.381      9.409
REMARK SMILES CC[C@](C)(NC(=O)c1nc2nccc(C)n2n1)C(=O)OCCOCCOCCOC(=O)c1ccc(-c2c3nc(c(-c4c(F)cc(S(=O)(=O)[O-])cc4F)c4ccc([nH]4)c(-c4c(F)cc(S(=O)(=O)[O-])cc4F)c4nc(c(-c5c(F)cc(S(=O)(=O)[O-])cc5F)c5ccc2[nH]5)C=C4)C=C3)cc1
REMARK SMILES IDX 25 1 24 2 23 3 22 4 21 5 20 6 18 7 19 8 3 9 4 10 2 11 1 12
REMARK SMILES IDX 5 13 6 14 7 16 8 17 9 18 17 19 10 20 16 21 11 22 14 23 12 24
REMARK SMILES IDX 13 25 15 26 26 27 27 28 28 29 29 30 30 31 31 32 32 33 33 34
REMARK SMILES IDX 97 35 34 36 96 37 35 38 36 39 37 40 90 41 38 42 95 43 89 44
REMARK SMILES IDX 91 45 39 46 94 47 88 48 87 49 40 51 74 52 53 53 73 54 54 55
REMARK SMILES IDX 57 56 72 57 92 58 55 59 56 60 71 62 93 63 58 64 41 65 42 66
REMARK SMILES IDX 51 67 43 68 44 69 50 70 52 71 45 72 46 73 47 74 48 75 49 76
REMARK SMILES IDX 75 77 76 78 85 79 77 80 78 81 84 82 86 83 79 84 80 85 81 86
REMARK SMILES IDX 82 87 83 88 59 89 60 90 69 91 61 92 62 93 68 94 70 95 63 96
REMARK SMILES IDX 64 97 65 98 66 99 67 100
REMARK H PARENT 5 15 91 50 57 61
REMARK Flexibility Score: inf
ROOT
ATOM      1  C   UNL A   1      40.205  23.542  27.686  1.00  0.00     0.188 C 
ENDROOT
BRANCH   1   2
ATOM      2  C   UNL A   1      39.658  23.949  26.332  1.00  0.00     0.188 C 
BRANCH   2   3
ATOM      3  O   UNL A   1      38.443  23.350  25.892  1.00  0.00    -0.376 OA
BRANCH   3   4
ATOM      4  C   UNL A   1      37.260  24.001  26.343  1.00  0.00     0.202 C 
BRANCH   4   5
ATOM      5  C   UNL A   1      35.928  23.600  25.670  1.00  0.00     0.261 C 
BRANCH   5   6
ATOM      6  O   UNL A   1      35.630  24.407  24.520  1.00  0.00    -0.462 OA
BRANCH   6   7
ATOM      7  C   UNL A   1      34.785  23.891  23.595  1.00  0.00     0.331 C 
ATOM      8  O   UNL A   1      35.124  23.067  22.751  1.00  0.00    -0.249 OA
BRANCH   7   9
ATOM      9  C   UNL A   1      33.329  24.469  23.715  1.00  0.00     0.135 C 
ATOM     10  C   UNL A   1      32.858  24.659  22.233  1.00  0.00     0.047 C 
BRANCH   9  11
ATOM     11  C   UNL A   1      33.452  25.839  24.447  1.00  0.00     0.037 C 
ATOM     12  C   UNL A   1      32.317  26.841  24.227  1.00  0.00     0.007 C 
ENDBRANCH   9  11
BRANCH   9  13
ATOM     13  N   UNL A   1      32.276  23.612  24.386  1.00  0.00    -0.334 N 
ATOM     14  C   UNL A   1      32.383  22.765  25.493  1.00  0.00     0.291 C 
ATOM     15  H   UNL A   1      31.379  23.659  23.982  1.00  0.00     0.165 HD
ATOM     16  O   UNL A   1      31.874  23.141  26.551  1.00  0.00    -0.266 OA
BRANCH  14  17
ATOM     17  C   UNL A   1      32.823  21.345  25.302  1.00  0.00     0.241 A 
ATOM     18  N   UNL A   1      31.918  20.323  25.187  1.00  0.00    -0.184 NA
ATOM     19  N   UNL A   1      34.096  20.895  25.327  1.00  0.00    -0.139 NA
ATOM     20  C   UNL A   1      32.601  19.239  24.949  1.00  0.00     0.253 A 
ATOM     21  N   UNL A   1      33.950  19.574  24.998  1.00  0.00    -0.201 N 
ATOM     22  N   UNL A   1      32.151  18.010  24.551  1.00  0.00    -0.220 NA
ATOM     23  C   UNL A   1      34.918  18.630  24.626  1.00  0.00     0.045 A 
ATOM     24  C   UNL A   1      33.059  17.171  24.167  1.00  0.00     0.117 A 
ATOM     25  C   UNL A   1      34.526  17.417  24.187  1.00  0.00     0.044 A 
ATOM     26  C   UNL A   1      36.348  19.039  24.704  1.00  0.00     0.067 C 
ENDBRANCH  14  17
ENDBRANCH   9  13
ENDBRANCH   7   9
ENDBRANCH   6   7
ENDBRANCH   5   6
ENDBRANCH   4   5
ENDBRANCH   3   4
ENDBRANCH   2   3
ENDBRANCH   1   2
BRANCH   1  27
ATOM     27  O   UNL A   1      40.441  22.140  27.851  1.00  0.00    -0.376 OA
BRANCH  27  28
ATOM     28  C   UNL A   1      41.771  21.589  27.684  1.00  0.00     0.202 C 
BRANCH  28  29
ATOM     29  C   UNL A   1      42.079  20.546  26.592  1.00  0.00     0.261 C 
BRANCH  29  30
ATOM     30  O   UNL A   1      42.502  21.133  25.374  1.00  0.00    -0.460 OA
BRANCH  30  31
ATOM     31  C   UNL A   1      43.799  21.472  25.377  1.00  0.00     0.338 C 
ATOM     32  O   UNL A   1      44.712  20.902  25.978  1.00  0.00    -0.246 OA
BRANCH  31  33
ATOM     33  C   UNL A   1      43.972  22.594  24.436  1.00  0.00     0.060 A 
ATOM     34  C   UNL A   1      45.271  22.704  23.965  1.00  0.00     0.016 A 
ATOM     35  C   UNL A   1      43.139  23.689  24.653  1.00  0.00     0.016 A 
ATOM     36  C   UNL A   1      45.936  23.757  24.494  1.00  0.00     0.010 A 
ATOM     37  C   UNL A   1      43.783  24.729  25.221  1.00  0.00     0.010 A 
ATOM     38  C   UNL A   1      45.171  24.626  25.275  1.00  0.00    -0.014 A 
BRANCH  38  39
ATOM     39  C   UNL A   1      45.864  25.397  26.252  1.00  0.00     0.031 A 
ATOM     40  C   UNL A   1      45.394  25.006  27.577  1.00  0.00     0.074 A 
ATOM     41  C   UNL A   1      46.819  26.266  25.889  1.00  0.00     0.049 A 
ATOM     42  N   UNL A   1      44.457  25.574  28.256  1.00  0.00    -0.248 NA
ATOM     43  C   UNL A   1      45.715  23.631  28.003  1.00  0.00     0.031 C 
ATOM     44  C   UNL A   1      47.475  26.454  24.590  1.00  0.00     0.029 A 
ATOM     45  N   UNL A   1      47.498  27.107  26.701  1.00  0.00    -0.354 N 
ATOM     46  C   UNL A   1      44.308  24.744  29.350  1.00  0.00     0.074 A 
ATOM     47  C   UNL A   1      44.804  23.452  28.957  1.00  0.00     0.031 C 
ATOM     48  C   UNL A   1      48.617  27.160  24.774  1.00  0.00     0.029 A 
ATOM     49  C   UNL A   1      48.697  27.563  26.164  1.00  0.00     0.049 A 
ATOM     50  H   UNL A   1      47.173  27.373  27.593  1.00  0.00     0.167 HD
ATOM     51  C   UNL A   1      44.198  25.261  30.599  1.00  0.00     0.037 A 
ATOM     52  C   UNL A   1      49.695  28.062  26.936  1.00  0.00     0.037 A 
ATOM     53  C   UNL A   1      43.875  26.664  30.569  1.00  0.00     0.049 A 
ATOM     54  C   UNL A   1      49.055  28.444  28.242  1.00  0.00     0.074 A 
ATOM     55  C   UNL A   1      42.825  27.391  30.038  1.00  0.00     0.029 A 
ATOM     56  N   UNL A   1      44.913  27.556  30.732  1.00  0.00    -0.354 N 
ATOM     57  N   UNL A   1      48.149  29.383  28.360  1.00  0.00    -0.248 NA
ATOM     58  C   UNL A   1      49.028  27.432  29.295  1.00  0.00     0.031 C 
ATOM     59  C   UNL A   1      43.416  28.573  29.503  1.00  0.00     0.029 A 
ATOM     60  C   UNL A   1      44.784  28.543  29.783  1.00  0.00     0.049 A 
ATOM     61  H   UNL A   1      45.624  27.496  31.410  1.00  0.00     0.167 HD
ATOM     62  C   UNL A   1      47.203  28.874  29.247  1.00  0.00     0.074 A 
ATOM     63  C   UNL A   1      47.829  27.690  29.828  1.00  0.00     0.031 C 
ATOM     64  C   UNL A   1      45.897  29.281  29.215  1.00  0.00     0.037 A 
BRANCH  51  65
ATOM     65  C   UNL A   1      44.780  24.559  31.786  1.00  0.00     0.058 A 
ATOM     66  C   UNL A   1      44.109  23.458  32.330  1.00  0.00     0.135 A 
ATOM     67  C   UNL A   1      45.881  25.050  32.531  1.00  0.00     0.135 A 
ATOM     68  F   UNL A   1      43.027  22.953  31.719  1.00  0.00    -0.206 F 
ATOM     69  C   UNL A   1      44.501  22.889  33.540  1.00  0.00     0.059 A 
ATOM     70  C   UNL A   1      46.339  24.449  33.688  1.00  0.00     0.059 A 
ATOM     71  F   UNL A   1      46.506  26.193  32.226  1.00  0.00    -0.206 F 
ATOM     72  C   UNL A   1      45.618  23.391  34.208  1.00  0.00     0.060 A 
BRANCH  72  73
ATOM     73  S   UNL A   1      46.078  22.717  35.808  1.00  0.00     0.124 S 
ATOM     74  O   UNL A   1      45.530  21.368  35.719  1.00  0.00    -0.237 OA
ATOM     75  O   UNL A   1      47.532  22.825  35.772  1.00  0.00    -0.237 OA
ATOM     76  O   UNL A   1      45.411  23.608  36.754  1.00  0.00    -0.744 OA
ENDBRANCH  72  73
ENDBRANCH  51  65
BRANCH  52  77
ATOM     77  C   UNL A   1      51.147  27.770  26.798  1.00  0.00     0.058 A 
ATOM     78  C   UNL A   1      51.632  26.456  26.916  1.00  0.00     0.135 A 
ATOM     79  C   UNL A   1      52.056  28.720  26.284  1.00  0.00     0.135 A 
ATOM     80  F   UNL A   1      50.830  25.483  27.373  1.00  0.00    -0.206 F 
ATOM     81  C   UNL A   1      52.923  26.097  26.507  1.00  0.00     0.059 A 
ATOM     82  C   UNL A   1      53.348  28.390  25.883  1.00  0.00     0.059 A 
ATOM     83  F   UNL A   1      51.688  29.991  26.066  1.00  0.00    -0.206 F 
ATOM     84  C   UNL A   1      53.766  27.070  25.972  1.00  0.00     0.060 A 
BRANCH  84  85
ATOM     85  S   UNL A   1      55.366  26.584  25.283  1.00  0.00     0.124 S 
ATOM     86  O   UNL A   1      55.029  26.323  23.888  1.00  0.00    -0.237 OA
ATOM     87  O   UNL A   1      56.180  27.768  25.533  1.00  0.00    -0.237 OA
ATOM     88  O   UNL A   1      55.730  25.405  26.065  1.00  0.00    -0.744 OA
ENDBRANCH  84  85
ENDBRANCH  52  77
BRANCH  64  89
ATOM     89  C   UNL A   1      45.542  30.470  28.354  1.00  0.00     0.058 A 
ATOM     90  C   UNL A   1      45.719  31.812  28.744  1.00  0.00     0.135 A 
ATOM     91  C   UNL A   1      45.173  30.241  27.022  1.00  0.00     0.135 A 
ATOM     92  F   UNL A   1      46.171  32.112  29.970  1.00  0.00    -0.206 F 
ATOM     93  C   UNL A   1      45.502  32.874  27.862  1.00  0.00     0.059 A 
ATOM     94  C   UNL A   1      44.980  31.281  26.116  1.00  0.00     0.059 A 
ATOM     95  F   UNL A   1      45.052  28.982  26.567  1.00  0.00    -0.206 F 
ATOM     96  C   UNL A   1      45.134  32.597  26.546  1.00  0.00     0.060 A 
BRANCH  96  97
ATOM     97  S   UNL A   1      44.915  33.963  25.383  1.00  0.00     0.124 S 
ATOM     98  O   UNL A   1      44.389  33.283  24.204  1.00  0.00    -0.237 OA
ATOM     99  O   UNL A   1      43.973  34.830  26.088  1.00  0.00    -0.237 OA
ATOM    100  O   UNL A   1      46.262  34.509  25.238  1.00  0.00    -0.744 OA
ENDBRANCH  96  97
ENDBRANCH  64  89
ENDBRANCH  38  39
ENDBRANCH  31  33
ENDBRANCH  30  31
ENDBRANCH  29  30
ENDBRANCH  28  29
ENDBRANCH  27  28
ENDBRANCH   1  27
TORSDOF 23
ENDMDL
