MODEL 1
REMARK VINA RESULT:      -8.5      0.000      0.000
REMARK SMILES COc1cc(/C=C/C(=O)c2ccc(OCC(=O)OCCOCCOCCOC(=O)c3ccc(-c4c5nc(c(-c6c(F)cc(S(=O)(=O)[O-])cc6F)c6ccc([nH]6)c(-c6c(F)cc(S(=O)(=O)[O-])cc6F)c6nc(c(-c7c(F)cc(S(=O)(=O)[O-])cc7F)c7ccc4[nH]7)C=C6)C=C5)cc3)cc2)cc2c1OCCO2
REMARK SMILES IDX 21 1 20 2 19 3 18 4 16 5 17 6 15 7 14 8 13 9 10 10 11 11
REMARK SMILES IDX 97 12 12 13 96 14 8 15 9 16 7 17 6 18 5 19 3 20 4 21 100 22
REMARK SMILES IDX 99 23 101 24 98 25 104 26 102 27 103 28 2 29 1 30 22 31
REMARK SMILES IDX 23 32 24 33 25 34 26 35 27 36 28 37 29 38 30 39 31 40 95 41
REMARK SMILES IDX 32 42 94 43 33 44 34 45 35 46 88 47 36 48 93 49 87 50 89 51
REMARK SMILES IDX 37 52 92 53 86 54 85 55 38 57 72 58 51 59 71 60 52 61 55 62
REMARK SMILES IDX 70 63 90 64 53 65 54 66 69 68 91 69 56 70 39 71 40 72 49 73
REMARK SMILES IDX 41 74 42 75 48 76 50 77 43 78 44 79 45 80 46 81 47 82 73 83
REMARK SMILES IDX 74 84 83 85 75 86 76 87 82 88 84 89 77 90 78 91 79 92 80 93
REMARK SMILES IDX 81 94 57 95 58 96 67 97 59 98 60 99 66 100 68 101 61 102
REMARK SMILES IDX 62 103 63 104 64 105 65 106
REMARK H PARENT 89 56 55 67
REMARK Flexibility Score: inf
ROOT
ATOM      1  O   UNL A   1      30.302  27.299  24.720  1.00  0.00    -0.376 OA
ENDROOT
BRANCH   1   2
ATOM      2  C   UNL A   1      30.309  25.876  24.786  1.00  0.00     0.202 C 
BRANCH   2   3
ATOM      3  C   UNL A   1      29.920  25.187  23.470  1.00  0.00     0.261 C 
BRANCH   3   4
ATOM      4  O   UNL A   1      31.060  24.499  22.900  1.00  0.00    -0.461 OA
BRANCH   4   5
ATOM      5  C   UNL A   1      32.000  25.256  22.274  1.00  0.00     0.344 C 
ATOM      6  O   UNL A   1      31.761  26.323  21.720  1.00  0.00    -0.248 OA
BRANCH   5   7
ATOM      7  C   UNL A   1      33.436  24.719  22.482  1.00  0.00     0.351 C 
BRANCH   7   8
ATOM      8  O   UNL A   1      34.014  24.871  23.776  1.00  0.00    -0.482 OA
BRANCH   8   9
ATOM      9  C   UNL A   1      35.016  24.026  24.187  1.00  0.00     0.120 A 
ATOM     10  C   UNL A   1      37.328  22.717  25.221  1.00  0.00     0.022 A 
ATOM     11  C   UNL A   1      36.543  23.546  26.034  1.00  0.00     0.016 A 
ATOM     12  C   UNL A   1      36.867  22.439  23.931  1.00  0.00     0.016 A 
ATOM     13  C   UNL A   1      35.408  24.195  25.518  1.00  0.00     0.047 A 
ATOM     14  C   UNL A   1      35.705  23.080  23.423  1.00  0.00     0.047 A 
BRANCH  10  15
ATOM     15  C   UNL A   1      38.636  22.246  25.790  1.00  0.00     0.185 C 
ATOM     16  O   UNL A   1      38.771  21.060  26.080  1.00  0.00    -0.289 OA
BRANCH  15  17
ATOM     17  C   UNL A   1      39.675  23.266  26.175  1.00  0.00     0.053 C 
ATOM     18  C   UNL A   1      39.818  23.573  27.483  1.00  0.00     0.012 C 
BRANCH  18  19
ATOM     19  C   UNL A   1      40.538  24.740  28.047  1.00  0.00    -0.018 A 
ATOM     20  C   UNL A   1      42.722  25.725  28.673  1.00  0.00     0.165 A 
ATOM     21  C   UNL A   1      41.930  24.670  28.183  1.00  0.00     0.058 A 
ATOM     22  C   UNL A   1      42.114  26.953  28.911  1.00  0.00     0.203 A 
ATOM     23  C   UNL A   1      40.729  27.073  28.688  1.00  0.00     0.165 A 
ATOM     24  O   UNL A   1      42.901  28.019  29.271  1.00  0.00    -0.483 OA
ATOM     25  C   UNL A   1      39.939  25.969  28.309  1.00  0.00     0.058 A 
ATOM     26  O   UNL A   1      40.075  28.281  28.780  1.00  0.00    -0.486 OA
ATOM     27  C   UNL A   1      42.146  29.175  29.635  1.00  0.00     0.271 C 
ATOM     28  C   UNL A   1      40.996  29.372  28.668  1.00  0.00     0.271 C 
BRANCH  20  29
ATOM     29  O   UNL A   1      44.052  25.420  28.796  1.00  0.00    -0.493 OA
ATOM     30  C   UNL A   1      44.396  24.190  29.429  1.00  0.00     0.278 C 
ENDBRANCH  20  29
ENDBRANCH  18  19
ENDBRANCH  15  17
ENDBRANCH  10  15
ENDBRANCH   8   9
ENDBRANCH   7   8
ENDBRANCH   5   7
ENDBRANCH   4   5
ENDBRANCH   3   4
ENDBRANCH   2   3
ENDBRANCH   1   2
BRANCH   1  31
ATOM     31  C   UNL A   1      31.433  27.969  25.271  1.00  0.00     0.188 C 
BRANCH  31  32
ATOM     32  C   UNL A   1      32.020  29.118  24.440  1.00  0.00     0.188 C 
BRANCH  32  33
ATOM     33  O   UNL A   1      33.230  29.611  25.001  1.00  0.00    -0.376 OA
BRANCH  33  34
ATOM     34  C   UNL A   1      33.279  29.494  26.415  1.00  0.00     0.202 C 
BRANCH  34  35
ATOM     35  C   UNL A   1      33.211  30.871  27.091  1.00  0.00     0.261 C 
BRANCH  35  36
ATOM     36  O   UNL A   1      34.226  31.245  28.068  1.00  0.00    -0.460 OA
BRANCH  36  37
ATOM     37  C   UNL A   1      34.521  32.551  28.210  1.00  0.00     0.338 C 
ATOM     38  O   UNL A   1      33.741  33.472  28.065  1.00  0.00    -0.246 OA
BRANCH  37  39
ATOM     39  C   UNL A   1      35.918  32.831  28.598  1.00  0.00     0.060 A 
ATOM     40  C   UNL A   1      36.879  31.862  28.301  1.00  0.00     0.016 A 
ATOM     41  C   UNL A   1      36.229  33.855  29.493  1.00  0.00     0.016 A 
ATOM     42  C   UNL A   1      38.123  31.879  28.937  1.00  0.00     0.010 A 
ATOM     43  C   UNL A   1      37.496  33.898  30.099  1.00  0.00     0.010 A 
ATOM     44  C   UNL A   1      38.455  32.905  29.837  1.00  0.00    -0.014 A 
BRANCH  44  45
ATOM     45  C   UNL A   1      39.833  33.003  30.399  1.00  0.00     0.031 A 
ATOM     46  C   UNL A   1      40.806  34.074  29.980  1.00  0.00     0.074 A 
ATOM     47  C   UNL A   1      40.221  32.081  31.303  1.00  0.00     0.049 A 
ATOM     48  N   UNL A   1      42.079  34.190  30.274  1.00  0.00    -0.248 NA
ATOM     49  C   UNL A   1      40.288  35.157  29.133  1.00  0.00     0.031 C 
ATOM     50  C   UNL A   1      39.370  31.013  31.832  1.00  0.00     0.029 A 
ATOM     51  N   UNL A   1      41.426  31.887  31.932  1.00  0.00    -0.354 N 
ATOM     52  C   UNL A   1      42.523  35.342  29.634  1.00  0.00     0.074 A 
ATOM     53  C   UNL A   1      41.377  35.893  28.937  1.00  0.00     0.031 C 
ATOM     54  C   UNL A   1      40.071  30.288  32.714  1.00  0.00     0.029 A 
ATOM     55  C   UNL A   1      41.442  30.787  32.755  1.00  0.00     0.049 A 
ATOM     56  H   UNL A   1      42.202  32.479  31.805  1.00  0.00     0.167 HD
ATOM     57  C   UNL A   1      43.769  35.882  29.623  1.00  0.00     0.037 A 
ATOM     58  C   UNL A   1      42.449  30.205  33.432  1.00  0.00     0.037 A 
ATOM     59  C   UNL A   1      44.910  35.334  30.319  1.00  0.00     0.049 A 
ATOM     60  C   UNL A   1      43.831  30.772  33.342  1.00  0.00     0.074 A 
ATOM     61  C   UNL A   1      46.211  35.812  30.354  1.00  0.00     0.029 A 
ATOM     62  N   UNL A   1      44.892  34.189  31.100  1.00  0.00    -0.354 N 
ATOM     63  N   UNL A   1      44.244  31.831  32.687  1.00  0.00    -0.248 NA
ATOM     64  C   UNL A   1      44.891  30.056  34.064  1.00  0.00     0.031 C 
ATOM     65  C   UNL A   1      46.985  34.937  31.126  1.00  0.00     0.029 A 
ATOM     66  C   UNL A   1      46.160  33.935  31.605  1.00  0.00     0.049 A 
ATOM     67  H   UNL A   1      44.096  33.636  31.272  1.00  0.00     0.167 HD
ATOM     68  C   UNL A   1      45.611  31.911  32.923  1.00  0.00     0.074 A 
ATOM     69  C   UNL A   1      45.952  30.802  33.791  1.00  0.00     0.031 C 
ATOM     70  C   UNL A   1      46.498  32.822  32.457  1.00  0.00     0.037 A 
BRANCH  57  71
ATOM     71  C   UNL A   1      43.987  37.121  28.794  1.00  0.00     0.058 A 
ATOM     72  C   UNL A   1      44.363  37.053  27.443  1.00  0.00     0.135 A 
ATOM     73  C   UNL A   1      43.759  38.392  29.346  1.00  0.00     0.135 A 
ATOM     74  F   UNL A   1      44.597  35.865  26.867  1.00  0.00    -0.206 F 
ATOM     75  C   UNL A   1      44.531  38.204  26.676  1.00  0.00     0.059 A 
ATOM     76  C   UNL A   1      43.903  39.555  28.594  1.00  0.00     0.059 A 
ATOM     77  F   UNL A   1      43.387  38.514  30.630  1.00  0.00    -0.206 F 
ATOM     78  C   UNL A   1      44.306  39.452  27.263  1.00  0.00     0.060 A 
BRANCH  78  79
ATOM     79  S   UNL A   1      44.536  40.940  26.266  1.00  0.00     0.124 S 
ATOM     80  O   UNL A   1      45.288  40.414  25.132  1.00  0.00    -0.237 OA
ATOM     81  O   UNL A   1      43.163  41.348  25.981  1.00  0.00    -0.237 OA
ATOM     82  O   UNL A   1      45.279  41.831  27.152  1.00  0.00    -0.744 OA
ENDBRANCH  78  79
ENDBRANCH  57  71
BRANCH  58  83
ATOM     83  C   UNL A   1      42.170  28.983  34.226  1.00  0.00     0.058 A 
ATOM     84  C   UNL A   1      42.378  27.709  33.681  1.00  0.00     0.135 A 
ATOM     85  C   UNL A   1      41.761  29.068  35.567  1.00  0.00     0.135 A 
ATOM     86  F   UNL A   1      42.761  27.582  32.401  1.00  0.00    -0.206 F 
ATOM     87  C   UNL A   1      42.204  26.559  34.441  1.00  0.00     0.059 A 
ATOM     88  C   UNL A   1      41.603  27.933  36.353  1.00  0.00     0.059 A 
ATOM     89  F   UNL A   1      41.564  30.269  36.134  1.00  0.00    -0.206 F 
ATOM     90  C   UNL A   1      41.826  26.682  35.780  1.00  0.00     0.060 A 
BRANCH  90  91
ATOM     91  S   UNL A   1      41.704  25.192  36.792  1.00  0.00     0.124 S 
ATOM     92  O   UNL A   1      40.477  25.446  37.538  1.00  0.00    -0.237 OA
ATOM     93  O   UNL A   1      41.634  24.138  35.786  1.00  0.00    -0.237 OA
ATOM     94  O   UNL A   1      42.937  25.220  37.573  1.00  0.00    -0.744 OA
ENDBRANCH  90  91
ENDBRANCH  58  83
BRANCH  70  95
ATOM     95  C   UNL A   1      47.927  32.663  32.892  1.00  0.00     0.058 A 
ATOM     96  C   UNL A   1      48.823  31.849  32.181  1.00  0.00     0.135 A 
ATOM     97  C   UNL A   1      48.409  33.335  34.026  1.00  0.00     0.135 A 
ATOM     98  F   UNL A   1      48.408  31.175  31.096  1.00  0.00    -0.206 F 
ATOM     99  C   UNL A   1      50.143  31.688  32.593  1.00  0.00     0.059 A 
ATOM    100  C   UNL A   1      49.730  33.202  34.446  1.00  0.00     0.059 A 
ATOM    101  F   UNL A   1      47.594  34.128  34.739  1.00  0.00    -0.206 F 
ATOM    102  C   UNL A   1      50.585  32.364  33.731  1.00  0.00     0.060 A 
BRANCH 102 103
ATOM    103  S   UNL A   1      52.302  32.159  34.254  1.00  0.00     0.124 S 
ATOM    104  O   UNL A   1      53.004  32.200  32.975  1.00  0.00    -0.237 OA
ATOM    105  O   UNL A   1      52.506  33.311  35.126  1.00  0.00    -0.237 OA
ATOM    106  O   UNL A   1      52.297  30.864  34.928  1.00  0.00    -0.744 OA
ENDBRANCH 102 103
ENDBRANCH  70  95
ENDBRANCH  44  45
ENDBRANCH  37  39
ENDBRANCH  36  37
ENDBRANCH  35  36
ENDBRANCH  34  35
ENDBRANCH  33  34
ENDBRANCH  32  33
ENDBRANCH  31  32
ENDBRANCH   1  31
TORSDOF 26
ENDMDL
MODEL 2
REMARK VINA RESULT:      -7.9      5.569     13.471
REMARK SMILES COc1cc(/C=C/C(=O)c2ccc(OCC(=O)OCCOCCOCCOC(=O)c3ccc(-c4c5nc(c(-c6c(F)cc(S(=O)(=O)[O-])cc6F)c6ccc([nH]6)c(-c6c(F)cc(S(=O)(=O)[O-])cc6F)c6nc(c(-c7c(F)cc(S(=O)(=O)[O-])cc7F)c7ccc4[nH]7)C=C6)C=C5)cc3)cc2)cc2c1OCCO2
REMARK SMILES IDX 21 1 20 2 19 3 18 4 16 5 17 6 15 7 14 8 13 9 10 10 11 11
REMARK SMILES IDX 97 12 12 13 96 14 8 15 9 16 7 17 6 18 5 19 3 20 4 21 100 22
REMARK SMILES IDX 99 23 101 24 98 25 104 26 102 27 103 28 2 29 1 30 22 31
REMARK SMILES IDX 23 32 24 33 25 34 26 35 27 36 28 37 29 38 30 39 31 40 95 41
REMARK SMILES IDX 32 42 94 43 33 44 34 45 35 46 88 47 36 48 93 49 87 50 89 51
REMARK SMILES IDX 37 52 92 53 86 54 85 55 38 57 72 58 51 59 71 60 52 61 55 62
REMARK SMILES IDX 70 63 90 64 53 65 54 66 69 68 91 69 56 70 39 71 40 72 49 73
REMARK SMILES IDX 41 74 42 75 48 76 50 77 43 78 44 79 45 80 46 81 47 82 73 83
REMARK SMILES IDX 74 84 83 85 75 86 76 87 82 88 84 89 77 90 78 91 79 92 80 93
REMARK SMILES IDX 81 94 57 95 58 96 67 97 59 98 60 99 66 100 68 101 61 102
REMARK SMILES IDX 62 103 63 104 64 105 65 106
REMARK H PARENT 89 56 55 67
REMARK Flexibility Score: inf
ROOT
ATOM      1  O   UNL A   1      45.830  37.696  32.070  1.00  0.00    -0.376 OA
ENDROOT
BRANCH   1   2
ATOM      2  C   UNL A   1      44.698  37.130  32.724  1.00  0.00     0.202 C 
BRANCH   2   3
ATOM      3  C   UNL A   1      44.988  35.804  33.442  1.00  0.00     0.261 C 
BRANCH   3   4
ATOM      4  O   UNL A   1      43.987  35.545  34.456  1.00  0.00    -0.461 OA
BRANCH   4   5
ATOM      5  C   UNL A   1      44.089  36.229  35.626  1.00  0.00     0.344 C 
ATOM      6  O   UNL A   1      45.139  36.383  36.240  1.00  0.00    -0.248 OA
BRANCH   5   7
ATOM      7  C   UNL A   1      42.773  36.943  36.017  1.00  0.00     0.351 C 
BRANCH   7   8
ATOM      8  O   UNL A   1      42.040  36.412  37.118  1.00  0.00    -0.482 OA
BRANCH   8   9
ATOM      9  C   UNL A   1      41.158  35.376  36.925  1.00  0.00     0.120 A 
ATOM     10  C   UNL A   1      38.953  33.596  36.613  1.00  0.00     0.022 A 
ATOM     11  C   UNL A   1      39.041  34.776  35.862  1.00  0.00     0.016 A 
ATOM     12  C   UNL A   1      40.045  33.248  37.414  1.00  0.00     0.016 A 
ATOM     13  C   UNL A   1      40.126  35.655  36.024  1.00  0.00     0.047 A 
ATOM     14  C   UNL A   1      41.150  34.129  37.555  1.00  0.00     0.047 A 
BRANCH  10  15
ATOM     15  C   UNL A   1      37.660  32.834  36.538  1.00  0.00     0.185 C 
ATOM     16  O   UNL A   1      37.616  31.686  36.971  1.00  0.00    -0.289 OA
BRANCH  15  17
ATOM     17  C   UNL A   1      36.512  33.420  35.759  1.00  0.00     0.053 C 
ATOM     18  C   UNL A   1      36.388  33.089  34.455  1.00  0.00     0.012 C 
BRANCH  18  19
ATOM     19  C   UNL A   1      35.544  33.768  33.443  1.00  0.00    -0.018 A 
ATOM     20  C   UNL A   1      34.659  35.916  32.584  1.00  0.00     0.165 A 
ATOM     21  C   UNL A   1      35.405  35.160  33.507  1.00  0.00     0.058 A 
ATOM     22  C   UNL A   1      34.138  35.270  31.468  1.00  0.00     0.203 A 
ATOM     23  C   UNL A   1      34.349  33.884  31.333  1.00  0.00     0.165 A 
ATOM     24  O   UNL A   1      33.516  36.021  30.503  1.00  0.00    -0.483 OA
ATOM     25  C   UNL A   1      35.000  33.131  32.332  1.00  0.00     0.058 A 
ATOM     26  O   UNL A   1      33.977  33.193  30.202  1.00  0.00    -0.486 OA
ATOM     27  C   UNL A   1      32.894  35.229  29.491  1.00  0.00     0.271 C 
ATOM     28  C   UNL A   1      33.803  34.084  29.093  1.00  0.00     0.271 C 
BRANCH  20  29
ATOM     29  O   UNL A   1      34.591  37.253  32.875  1.00  0.00    -0.493 OA
ATOM     30  C   UNL A   1      33.539  37.694  33.730  1.00  0.00     0.278 C 
ENDBRANCH  20  29
ENDBRANCH  18  19
ENDBRANCH  15  17
ENDBRANCH  10  15
ENDBRANCH   8   9
ENDBRANCH   7   8
ENDBRANCH   5   7
ENDBRANCH   4   5
ENDBRANCH   3   4
ENDBRANCH   2   3
ENDBRANCH   1   2
BRANCH   1  31
ATOM     31  C   UNL A   1      45.740  37.845  30.654  1.00  0.00     0.188 C 
BRANCH  31  32
ATOM     32  C   UNL A   1      45.805  39.278  30.112  1.00  0.00     0.188 C 
BRANCH  32  33
ATOM     33  O   UNL A   1      45.122  39.404  28.871  1.00  0.00    -0.376 OA
BRANCH  33  34
ATOM     34  C   UNL A   1      45.902  40.029  27.864  1.00  0.00     0.202 C 
BRANCH  34  35
ATOM     35  C   UNL A   1      47.154  39.201  27.534  1.00  0.00     0.261 C 
BRANCH  35  36
ATOM     36  O   UNL A   1      47.010  37.817  27.104  1.00  0.00    -0.460 OA
BRANCH  36  37
ATOM     37  C   UNL A   1      47.763  36.880  27.710  1.00  0.00     0.338 C 
ATOM     38  O   UNL A   1      48.843  37.073  28.236  1.00  0.00    -0.246 OA
BRANCH  37  39
ATOM     39  C   UNL A   1      47.171  35.528  27.731  1.00  0.00     0.060 A 
ATOM     40  C   UNL A   1      47.297  34.784  28.906  1.00  0.00     0.016 A 
ATOM     41  C   UNL A   1      46.783  34.890  26.552  1.00  0.00     0.016 A 
ATOM     42  C   UNL A   1      47.095  33.401  28.894  1.00  0.00     0.010 A 
ATOM     43  C   UNL A   1      46.536  33.506  26.550  1.00  0.00     0.010 A 
ATOM     44  C   UNL A   1      46.699  32.743  27.718  1.00  0.00    -0.014 A 
BRANCH  44  45
ATOM     45  C   UNL A   1      46.340  31.296  27.744  1.00  0.00     0.031 A 
ATOM     46  C   UNL A   1      47.340  30.207  27.454  1.00  0.00     0.074 A 
ATOM     47  C   UNL A   1      45.064  30.958  28.018  1.00  0.00     0.049 A 
ATOM     48  N   UNL A   1      47.135  28.922  27.296  1.00  0.00    -0.248 NA
ATOM     49  C   UNL A   1      48.750  30.605  27.337  1.00  0.00     0.031 C 
ATOM     50  C   UNL A   1      43.999  31.905  28.357  1.00  0.00     0.029 A 
ATOM     51  N   UNL A   1      44.443  29.735  28.048  1.00  0.00    -0.354 N 
ATOM     52  C   UNL A   1      48.379  28.357  27.039  1.00  0.00     0.074 A 
ATOM     53  C   UNL A   1      49.339  29.445  27.068  1.00  0.00     0.031 C 
ATOM     54  C   UNL A   1      42.864  31.229  28.578  1.00  0.00     0.029 A 
ATOM     55  C   UNL A   1      43.097  29.812  28.317  1.00  0.00     0.049 A 
ATOM     56  H   UNL A   1      44.915  28.885  27.892  1.00  0.00     0.167 HD
ATOM     57  C   UNL A   1      48.690  27.058  26.794  1.00  0.00     0.037 A 
ATOM     58  C   UNL A   1      42.139  28.867  28.309  1.00  0.00     0.037 A 
ATOM     59  C   UNL A   1      47.735  25.974  26.768  1.00  0.00     0.049 A 
ATOM     60  C   UNL A   1      42.491  27.454  27.959  1.00  0.00     0.074 A 
ATOM     61  C   UNL A   1      47.962  24.629  26.519  1.00  0.00     0.029 A 
ATOM     62  N   UNL A   1      46.373  26.106  26.996  1.00  0.00    -0.354 N 
ATOM     63  N   UNL A   1      43.664  26.949  27.665  1.00  0.00    -0.248 NA
ATOM     64  C   UNL A   1      41.387  26.486  27.919  1.00  0.00     0.031 C 
ATOM     65  C   UNL A   1      46.734  23.956  26.562  1.00  0.00     0.029 A 
ATOM     66  C   UNL A   1      45.747  24.873  26.876  1.00  0.00     0.049 A 
ATOM     67  H   UNL A   1      45.918  26.951  27.212  1.00  0.00     0.167 HD
ATOM     68  C   UNL A   1      43.441  25.602  27.409  1.00  0.00     0.074 A 
ATOM     69  C   UNL A   1      42.023  25.368  27.598  1.00  0.00     0.031 C 
ATOM     70  C   UNL A   1      44.334  24.648  27.049  1.00  0.00     0.037 A 
BRANCH  57  71
ATOM     71  C   UNL A   1      50.128  26.726  26.491  1.00  0.00     0.058 A 
ATOM     72  C   UNL A   1      50.664  26.861  25.201  1.00  0.00     0.135 A 
ATOM     73  C   UNL A   1      50.995  26.326  27.520  1.00  0.00     0.135 A 
ATOM     74  F   UNL A   1      49.879  27.238  24.180  1.00  0.00    -0.206 F 
ATOM     75  C   UNL A   1      52.003  26.583  24.936  1.00  0.00     0.059 A 
ATOM     76  C   UNL A   1      52.342  26.060  27.284  1.00  0.00     0.059 A 
ATOM     77  F   UNL A   1      50.538  26.191  28.775  1.00  0.00    -0.206 F 
ATOM     78  C   UNL A   1      52.833  26.176  25.984  1.00  0.00     0.060 A 
BRANCH  78  79
ATOM     79  S   UNL A   1      54.566  25.807  25.632  1.00  0.00     0.124 S 
ATOM     80  O   UNL A   1      54.998  27.042  24.987  1.00  0.00    -0.237 OA
ATOM     81  O   UNL A   1      55.115  25.560  26.962  1.00  0.00    -0.237 OA
ATOM     82  O   UNL A   1      54.493  24.637  24.762  1.00  0.00    -0.744 OA
ENDBRANCH  78  79
ENDBRANCH  57  71
BRANCH  58  83
ATOM     83  C   UNL A   1      40.740  29.258  28.611  1.00  0.00     0.058 A 
ATOM     84  C   UNL A   1      39.799  29.408  27.585  1.00  0.00     0.135 A 
ATOM     85  C   UNL A   1      40.302  29.417  29.937  1.00  0.00     0.135 A 
ATOM     86  F   UNL A   1      40.176  29.274  26.304  1.00  0.00    -0.206 F 
ATOM     87  C   UNL A   1      38.466  29.690  27.860  1.00  0.00     0.059 A 
ATOM     88  C   UNL A   1      38.971  29.675  30.237  1.00  0.00     0.059 A 
ATOM     89  F   UNL A   1      41.168  29.268  30.952  1.00  0.00    -0.206 F 
ATOM     90  C   UNL A   1      38.060  29.811  29.190  1.00  0.00     0.060 A 
BRANCH  90  91
ATOM     91  S   UNL A   1      36.309  30.070  29.548  1.00  0.00     0.124 S 
ATOM     92  O   UNL A   1      35.677  29.355  28.445  1.00  0.00    -0.237 OA
ATOM     93  O   UNL A   1      36.168  29.464  30.867  1.00  0.00    -0.237 OA
ATOM     94  O   UNL A   1      36.176  31.524  29.519  1.00  0.00    -0.744 OA
ENDBRANCH  90  91
ENDBRANCH  58  83
BRANCH  70  95
ATOM     95  C   UNL A   1      43.800  23.259  26.849  1.00  0.00     0.058 A 
ATOM     96  C   UNL A   1      43.507  22.422  27.937  1.00  0.00     0.135 A 
ATOM     97  C   UNL A   1      43.572  22.759  25.557  1.00  0.00     0.135 A 
ATOM     98  F   UNL A   1      43.720  22.849  29.192  1.00  0.00    -0.206 F 
ATOM     99  C   UNL A   1      43.029  21.129  27.751  1.00  0.00     0.059 A 
ATOM    100  C   UNL A   1      43.077  21.475  25.348  1.00  0.00     0.059 A 
ATOM    101  F   UNL A   1      43.833  23.521  24.482  1.00  0.00    -0.206 F 
ATOM    102  C   UNL A   1      42.822  20.662  26.452  1.00  0.00     0.060 A 
BRANCH 102 103
ATOM    103  S   UNL A   1      42.190  18.986  26.219  1.00  0.00     0.124 S 
ATOM    104  O   UNL A   1      43.141  18.447  25.252  1.00  0.00    -0.237 OA
ATOM    105  O   UNL A   1      42.270  18.428  27.565  1.00  0.00    -0.237 OA
ATOM    106  O   UNL A   1      40.836  19.202  25.717  1.00  0.00    -0.744 OA
ENDBRANCH 102 103
ENDBRANCH  70  95
ENDBRANCH  44  45
ENDBRANCH  37  39
ENDBRANCH  36  37
ENDBRANCH  35  36
ENDBRANCH  34  35
ENDBRANCH  33  34
ENDBRANCH  32  33
ENDBRANCH  31  32
ENDBRANCH   1  31
TORSDOF 26
ENDMDL
MODEL 3
REMARK VINA RESULT:      -7.9      4.662     12.699
REMARK SMILES COc1cc(/C=C/C(=O)c2ccc(OCC(=O)OCCOCCOCCOC(=O)c3ccc(-c4c5nc(c(-c6c(F)cc(S(=O)(=O)[O-])cc6F)c6ccc([nH]6)c(-c6c(F)cc(S(=O)(=O)[O-])cc6F)c6nc(c(-c7c(F)cc(S(=O)(=O)[O-])cc7F)c7ccc4[nH]7)C=C6)C=C5)cc3)cc2)cc2c1OCCO2
REMARK SMILES IDX 21 1 20 2 19 3 18 4 16 5 17 6 15 7 14 8 13 9 10 10 11 11
REMARK SMILES IDX 97 12 12 13 96 14 8 15 9 16 7 17 6 18 5 19 3 20 4 21 100 22
REMARK SMILES IDX 99 23 101 24 98 25 104 26 102 27 103 28 2 29 1 30 22 31
REMARK SMILES IDX 23 32 24 33 25 34 26 35 27 36 28 37 29 38 30 39 31 40 95 41
REMARK SMILES IDX 32 42 94 43 33 44 34 45 35 46 88 47 36 48 93 49 87 50 89 51
REMARK SMILES IDX 37 52 92 53 86 54 85 55 38 57 72 58 51 59 71 60 52 61 55 62
REMARK SMILES IDX 70 63 90 64 53 65 54 66 69 68 91 69 56 70 39 71 40 72 49 73
REMARK SMILES IDX 41 74 42 75 48 76 50 77 43 78 44 79 45 80 46 81 47 82 73 83
REMARK SMILES IDX 74 84 83 85 75 86 76 87 82 88 84 89 77 90 78 91 79 92 80 93
REMARK SMILES IDX 81 94 57 95 58 96 67 97 59 98 60 99 66 100 68 101 61 102
REMARK SMILES IDX 62 103 63 104 64 105 65 106
REMARK H PARENT 89 56 55 67
REMARK Flexibility Score: inf
ROOT
ATOM      1  O   UNL A   1      46.070  26.322  28.360  1.00  0.00    -0.376 OA
ENDROOT
BRANCH   1   2
ATOM      2  C   UNL A   1      46.388  27.100  29.510  1.00  0.00     0.202 C 
BRANCH   2   3
ATOM      3  C   UNL A   1      45.665  28.453  29.569  1.00  0.00     0.261 C 
BRANCH   3   4
ATOM      4  O   UNL A   1      46.153  29.244  30.680  1.00  0.00    -0.461 OA
BRANCH   4   5
ATOM      5  C   UNL A   1      46.091  30.596  30.562  1.00  0.00     0.344 C 
ATOM      6  O   UNL A   1      47.075  31.320  30.455  1.00  0.00    -0.248 OA
BRANCH   5   7
ATOM      7  C   UNL A   1      44.643  31.116  30.401  1.00  0.00     0.351 C 
BRANCH   7   8
ATOM      8  O   UNL A   1      44.465  32.515  30.195  1.00  0.00    -0.482 OA
BRANCH   8   9
ATOM      9  C   UNL A   1      44.299  33.354  31.270  1.00  0.00     0.120 A 
ATOM     10  C   UNL A   1      44.483  35.165  33.465  1.00  0.00     0.022 A 
ATOM     11  C   UNL A   1      44.986  35.507  32.202  1.00  0.00     0.016 A 
ATOM     12  C   UNL A   1      43.765  33.971  33.581  1.00  0.00     0.016 A 
ATOM     13  C   UNL A   1      44.900  34.608  31.124  1.00  0.00     0.047 A 
ATOM     14  C   UNL A   1      43.660  33.078  32.482  1.00  0.00     0.047 A 
BRANCH  10  15
ATOM     15  C   UNL A   1      44.814  36.087  34.604  1.00  0.00     0.185 C 
ATOM     16  O   UNL A   1      44.710  35.677  35.756  1.00  0.00    -0.289 OA
BRANCH  15  17
ATOM     17  C   UNL A   1      45.071  37.542  34.313  1.00  0.00     0.053 C 
ATOM     18  C   UNL A   1      44.059  38.283  33.808  1.00  0.00     0.012 C 
BRANCH  18  19
ATOM     19  C   UNL A   1      44.168  39.618  33.173  1.00  0.00    -0.018 A 
ATOM     20  C   UNL A   1      44.833  40.914  31.170  1.00  0.00     0.165 A 
ATOM     21  C   UNL A   1      44.711  39.709  31.885  1.00  0.00     0.058 A 
ATOM     22  C   UNL A   1      44.264  42.063  31.709  1.00  0.00     0.203 A 
ATOM     23  C   UNL A   1      43.627  41.975  32.961  1.00  0.00     0.165 A 
ATOM     24  O   UNL A   1      44.271  43.215  30.962  1.00  0.00    -0.483 OA
ATOM     25  C   UNL A   1      43.621  40.780  33.709  1.00  0.00     0.058 A 
ATOM     26  O   UNL A   1      42.932  43.031  33.505  1.00  0.00    -0.486 OA
ATOM     27  C   UNL A   1      43.799  44.353  31.682  1.00  0.00     0.271 C 
ATOM     28  C   UNL A   1      42.575  43.984  32.496  1.00  0.00     0.271 C 
BRANCH  20  29
ATOM     29  O   UNL A   1      45.462  40.790  29.959  1.00  0.00    -0.493 OA
ATOM     30  C   UNL A   1      46.851  40.470  29.962  1.00  0.00     0.278 C 
ENDBRANCH  20  29
ENDBRANCH  18  19
ENDBRANCH  15  17
ENDBRANCH  10  15
ENDBRANCH   8   9
ENDBRANCH   7   8
ENDBRANCH   5   7
ENDBRANCH   4   5
ENDBRANCH   3   4
ENDBRANCH   2   3
ENDBRANCH   1   2
BRANCH   1  31
ATOM     31  C   UNL A   1      45.259  25.169  28.573  1.00  0.00     0.188 C 
BRANCH  31  32
ATOM     32  C   UNL A   1      44.913  24.337  27.332  1.00  0.00     0.188 C 
BRANCH  32  33
ATOM     33  O   UNL A   1      44.056  23.247  27.649  1.00  0.00    -0.376 OA
BRANCH  33  34
ATOM     34  C   UNL A   1      43.689  22.475  26.516  1.00  0.00     0.202 C 
BRANCH  34  35
ATOM     35  C   UNL A   1      42.220  22.712  26.132  1.00  0.00     0.261 C 
BRANCH  35  36
ATOM     36  O   UNL A   1      41.694  24.070  26.099  1.00  0.00    -0.460 OA
BRANCH  36  37
ATOM     37  C   UNL A   1      40.468  24.290  26.611  1.00  0.00     0.338 C 
ATOM     38  O   UNL A   1      39.494  23.580  26.444  1.00  0.00    -0.246 OA
BRANCH  37  39
ATOM     39  C   UNL A   1      40.358  25.494  27.458  1.00  0.00     0.060 A 
ATOM     40  C   UNL A   1      41.457  26.354  27.505  1.00  0.00     0.016 A 
ATOM     41  C   UNL A   1      39.346  25.618  28.412  1.00  0.00     0.016 A 
ATOM     42  C   UNL A   1      41.576  27.295  28.532  1.00  0.00     0.010 A 
ATOM     43  C   UNL A   1      39.445  26.595  29.417  1.00  0.00     0.010 A 
ATOM     44  C   UNL A   1      40.566  27.438  29.496  1.00  0.00    -0.014 A 
BRANCH  44  45
ATOM     45  C   UNL A   1      40.626  28.540  30.499  1.00  0.00     0.031 A 
ATOM     46  C   UNL A   1      41.638  28.568  31.615  1.00  0.00     0.074 A 
ATOM     47  C   UNL A   1      39.723  29.537  30.408  1.00  0.00     0.049 A 
ATOM     48  N   UNL A   1      41.711  29.382  32.640  1.00  0.00    -0.248 NA
ATOM     49  C   UNL A   1      42.709  27.563  31.573  1.00  0.00     0.031 C 
ATOM     50  C   UNL A   1      38.712  29.661  29.356  1.00  0.00     0.029 A 
ATOM     51  N   UNL A   1      39.501  30.628  31.211  1.00  0.00    -0.354 N 
ATOM     52  C   UNL A   1      42.818  28.980  33.379  1.00  0.00     0.074 A 
ATOM     53  C   UNL A   1      43.391  27.847  32.678  1.00  0.00     0.031 C 
ATOM     54  C   UNL A   1      37.992  30.771  29.566  1.00  0.00     0.029 A 
ATOM     55  C   UNL A   1      38.433  31.394  30.810  1.00  0.00     0.049 A 
ATOM     56  H   UNL A   1      40.054  30.841  31.997  1.00  0.00     0.167 HD
ATOM     57  C   UNL A   1      43.303  29.501  34.535  1.00  0.00     0.037 A 
ATOM     58  C   UNL A   1      37.834  32.449  31.393  1.00  0.00     0.037 A 
ATOM     59  C   UNL A   1      42.734  30.631  35.232  1.00  0.00     0.049 A 
ATOM     60  C   UNL A   1      38.338  32.957  32.708  1.00  0.00     0.074 A 
ATOM     61  C   UNL A   1      43.158  31.218  36.415  1.00  0.00     0.029 A 
ATOM     62  N   UNL A   1      41.620  31.345  34.817  1.00  0.00    -0.354 N 
ATOM     63  N   UNL A   1      39.353  32.530  33.419  1.00  0.00    -0.248 NA
ATOM     64  C   UNL A   1      37.605  34.078  33.311  1.00  0.00     0.031 C 
ATOM     65  C   UNL A   1      42.279  32.263  36.731  1.00  0.00     0.029 A 
ATOM     66  C   UNL A   1      41.332  32.352  35.726  1.00  0.00     0.049 A 
ATOM     67  H   UNL A   1      41.109  31.164  33.995  1.00  0.00     0.167 HD
ATOM     68  C   UNL A   1      39.383  33.333  34.553  1.00  0.00     0.074 A 
ATOM     69  C   UNL A   1      38.295  34.281  34.425  1.00  0.00     0.031 C 
ATOM     70  C   UNL A   1      40.238  33.284  35.603  1.00  0.00     0.037 A 
BRANCH  57  71
ATOM     71  C   UNL A   1      44.500  28.830  35.157  1.00  0.00     0.058 A 
ATOM     72  C   UNL A   1      45.810  29.264  34.902  1.00  0.00     0.135 A 
ATOM     73  C   UNL A   1      44.328  27.775  36.069  1.00  0.00     0.135 A 
ATOM     74  F   UNL A   1      46.033  30.266  34.037  1.00  0.00    -0.206 F 
ATOM     75  C   UNL A   1      46.909  28.658  35.507  1.00  0.00     0.059 A 
ATOM     76  C   UNL A   1      45.409  27.166  36.700  1.00  0.00     0.059 A 
ATOM     77  F   UNL A   1      43.095  27.327  36.358  1.00  0.00    -0.206 F 
ATOM     78  C   UNL A   1      46.699  27.604  36.400  1.00  0.00     0.060 A 
BRANCH  78  79
ATOM     79  S   UNL A   1      48.128  26.816  37.172  1.00  0.00     0.124 S 
ATOM     80  O   UNL A   1      48.093  25.492  36.562  1.00  0.00    -0.237 OA
ATOM     81  O   UNL A   1      49.231  27.677  36.754  1.00  0.00    -0.237 OA
ATOM     82  O   UNL A   1      47.811  26.859  38.596  1.00  0.00    -0.744 OA
ENDBRANCH  78  79
ENDBRANCH  57  71
BRANCH  58  83
ATOM     83  C   UNL A   1      36.655  33.062  30.733  1.00  0.00     0.058 A 
ATOM     84  C   UNL A   1      35.355  32.758  31.156  1.00  0.00     0.135 A 
ATOM     85  C   UNL A   1      36.811  34.019  29.716  1.00  0.00     0.135 A 
ATOM     86  F   UNL A   1      35.161  31.843  32.119  1.00  0.00    -0.206 F 
ATOM     87  C   UNL A   1      34.247  33.390  30.604  1.00  0.00     0.059 A 
ATOM     88  C   UNL A   1      35.720  34.681  29.166  1.00  0.00     0.059 A 
ATOM     89  F   UNL A   1      38.040  34.352  29.290  1.00  0.00    -0.206 F 
ATOM     90  C   UNL A   1      34.441  34.358  29.617  1.00  0.00     0.060 A 
BRANCH  90  91
ATOM     91  S   UNL A   1      33.008  35.253  28.980  1.00  0.00     0.124 S 
ATOM     92  O   UNL A   1      32.514  34.327  27.966  1.00  0.00    -0.237 OA
ATOM     93  O   UNL A   1      32.178  35.398  30.171  1.00  0.00    -0.237 OA
ATOM     94  O   UNL A   1      33.589  36.493  28.476  1.00  0.00    -0.744 OA
ENDBRANCH  90  91
ENDBRANCH  58  83
BRANCH  70  95
ATOM     95  C   UNL A   1      40.034  34.297  36.693  1.00  0.00     0.058 A 
ATOM     96  C   UNL A   1      39.232  34.019  37.810  1.00  0.00     0.135 A 
ATOM     97  C   UNL A   1      40.652  35.556  36.625  1.00  0.00     0.135 A 
ATOM     98  F   UNL A   1      38.609  32.834  37.916  1.00  0.00    -0.206 F 
ATOM     99  C   UNL A   1      39.029  34.964  38.812  1.00  0.00     0.059 A 
ATOM    100  C   UNL A   1      40.478  36.509  37.624  1.00  0.00     0.059 A 
ATOM    101  F   UNL A   1      41.433  35.870  35.578  1.00  0.00    -0.206 F 
ATOM    102  C   UNL A   1      39.653  36.208  38.707  1.00  0.00     0.060 A 
BRANCH 102 103
ATOM    103  S   UNL A   1      39.394  37.425  40.017  1.00  0.00     0.124 S 
ATOM    104  O   UNL A   1      38.800  36.604  41.066  1.00  0.00    -0.237 OA
ATOM    105  O   UNL A   1      40.749  37.902  40.277  1.00  0.00    -0.237 OA
ATOM    106  O   UNL A   1      38.501  38.401  39.400  1.00  0.00    -0.744 OA
ENDBRANCH 102 103
ENDBRANCH  70  95
ENDBRANCH  44  45
ENDBRANCH  37  39
ENDBRANCH  36  37
ENDBRANCH  35  36
ENDBRANCH  34  35
ENDBRANCH  33  34
ENDBRANCH  32  33
ENDBRANCH  31  32
ENDBRANCH   1  31
TORSDOF 26
ENDMDL
