MODEL 1
REMARK VINA RESULT:     -10.5      0.000      0.000
REMARK SMILES Cc1nn(C)cc1CNC(=O)[C@H]1[C@@H]2CC[C@@H](C2)[C@@H]1C(=O)OCCOCCOCCOC(=O)c1ccc(-c2c3nc(c(-c4c(F)cc(S(=O)(=O)[O-])cc4F)c4ccc([nH]4)c(-c4c(F)cc(S(=O)(=O)[O-])cc4F)c4nc(c(-c5c(F)cc(S(=O)(=O)[O-])cc5F)c5ccc2[nH]5)C=C4)C=C3)cc1
REMARK SMILES IDX 25 1 24 2 23 3 22 4 21 5 19 6 20 7 18 8 12 9 13 10 14 11
REMARK SMILES IDX 17 12 16 13 15 14 10 15 9 16 11 18 8 19 7 20 1 21 2 22 3 23
REMARK SMILES IDX 4 24 6 25 5 26 26 27 27 28 28 29 29 30 30 31 31 32 32 33
REMARK SMILES IDX 33 34 34 35 98 36 35 37 97 38 36 39 37 40 38 41 91 42 39 43
REMARK SMILES IDX 96 44 90 45 92 46 40 47 95 48 89 49 88 50 41 52 75 53 54 54
REMARK SMILES IDX 74 55 55 56 58 57 73 58 93 59 56 60 57 61 72 63 94 64 59 65
REMARK SMILES IDX 42 66 43 67 52 68 44 69 45 70 51 71 53 72 46 73 47 74 48 75
REMARK SMILES IDX 49 76 50 77 76 78 77 79 86 80 78 81 79 82 85 83 87 84 80 85
REMARK SMILES IDX 81 86 82 87 83 88 84 89 60 90 61 91 70 92 62 93 63 94 69 95
REMARK SMILES IDX 71 96 64 97 65 98 66 99 67 100 68 101
REMARK H PARENT 9 17 92 51 58 62
REMARK Flexibility Score: inf
ROOT
ATOM      1  C   UNL A   1      34.967  31.764  27.866  1.00  0.00     0.188 C 
ENDROOT
BRANCH   1   2
ATOM      2  O   UNL A   1      34.424  30.458  27.997  1.00  0.00    -0.376 OA
BRANCH   2   3
ATOM      3  C   UNL A   1      34.965  29.372  27.264  1.00  0.00     0.202 C 
BRANCH   3   4
ATOM      4  C   UNL A   1      34.046  28.656  26.262  1.00  0.00     0.261 C 
BRANCH   4   5
ATOM      5  O   UNL A   1      33.355  27.457  26.678  1.00  0.00    -0.463 OA
BRANCH   5   6
ATOM      6  C   UNL A   1      32.016  27.610  26.844  1.00  0.00     0.310 C 
ATOM      7  O   UNL A   1      31.513  28.446  27.585  1.00  0.00    -0.252 OA
BRANCH   6   8
ATOM      8  C   UNL A   1      31.147  26.653  26.062  1.00  0.00     0.115 C 
ATOM      9  C   UNL A   1      31.828  25.499  25.305  1.00  0.00     0.096 C 
ATOM     10  C   UNL A   1      30.899  25.363  24.049  1.00  0.00     0.002 C 
ATOM     11  C   UNL A   1      31.283  26.439  23.027  1.00  0.00     0.005 C 
ATOM     12  C   UNL A   1      29.547  25.919  24.528  1.00  0.00     0.009 C 
ATOM     13  C   UNL A   1      30.164  27.231  25.024  1.00  0.00     0.004 C 
ATOM     14  C   UNL A   1      30.856  27.729  23.736  1.00  0.00     0.005 C 
BRANCH   9  15
ATOM     15  C   UNL A   1      31.805  24.227  26.148  1.00  0.00     0.224 C 
ATOM     16  N   UNL A   1      32.609  23.178  25.824  1.00  0.00    -0.352 N 
ATOM     17  H   UNL A   1      32.660  22.475  26.511  1.00  0.00     0.163 HD
ATOM     18  O   UNL A   1      31.088  24.116  27.141  1.00  0.00    -0.275 OA
BRANCH  16  19
ATOM     19  C   UNL A   1      33.402  22.924  24.642  1.00  0.00     0.155 C 
BRANCH  19  20
ATOM     20  C   UNL A   1      34.232  21.702  24.812  1.00  0.00     0.012 A 
ATOM     21  C   UNL A   1      32.480  19.801  24.348  1.00  0.00     0.069 C 
ATOM     22  C   UNL A   1      33.829  20.344  24.638  1.00  0.00     0.064 A 
ATOM     23  N   UNL A   1      34.857  19.494  24.742  1.00  0.00    -0.178 NA
ATOM     24  N   UNL A   1      35.920  20.291  24.950  1.00  0.00    -0.275 N 
ATOM     25  C   UNL A   1      35.581  21.603  25.097  1.00  0.00     0.114 A 
ATOM     26  C   UNL A   1      37.254  19.737  24.936  1.00  0.00     0.173 C 
ENDBRANCH  19  20
ENDBRANCH  16  19
ENDBRANCH   9  15
ENDBRANCH   6   8
ENDBRANCH   5   6
ENDBRANCH   4   5
ENDBRANCH   3   4
ENDBRANCH   2   3
ENDBRANCH   1   2
BRANCH   1  27
ATOM     27  C   UNL A   1      34.286  32.955  28.537  1.00  0.00     0.188 C 
BRANCH  27  28
ATOM     28  O   UNL A   1      35.153  33.685  29.383  1.00  0.00    -0.376 OA
BRANCH  28  29
ATOM     29  C   UNL A   1      34.852  33.670  30.768  1.00  0.00     0.202 C 
BRANCH  29  30
ATOM     30  C   UNL A   1      35.157  32.293  31.372  1.00  0.00     0.261 C 
BRANCH  30  31
ATOM     31  O   UNL A   1      36.530  31.875  31.234  1.00  0.00    -0.460 OA
BRANCH  31  32
ATOM     32  C   UNL A   1      36.737  30.559  30.984  1.00  0.00     0.338 C 
ATOM     33  O   UNL A   1      35.880  29.689  30.952  1.00  0.00    -0.246 OA
BRANCH  32  34
ATOM     34  C   UNL A   1      38.124  30.385  30.479  1.00  0.00     0.060 A 
ATOM     35  C   UNL A   1      38.310  30.215  29.099  1.00  0.00     0.016 A 
ATOM     36  C   UNL A   1      39.231  30.439  31.329  1.00  0.00     0.016 A 
ATOM     37  C   UNL A   1      39.593  30.027  28.578  1.00  0.00     0.010 A 
ATOM     38  C   UNL A   1      40.516  30.242  30.808  1.00  0.00     0.010 A 
ATOM     39  C   UNL A   1      40.700  29.984  29.436  1.00  0.00    -0.014 A 
BRANCH  39  40
ATOM     40  C   UNL A   1      41.995  29.446  28.933  1.00  0.00     0.031 A 
ATOM     41  C   UNL A   1      43.180  30.379  28.876  1.00  0.00     0.074 A 
ATOM     42  C   UNL A   1      42.150  28.154  28.589  1.00  0.00     0.049 A 
ATOM     43  N   UNL A   1      44.411  30.143  28.503  1.00  0.00    -0.248 NA
ATOM     44  C   UNL A   1      42.941  31.769  29.303  1.00  0.00     0.031 C 
ATOM     45  C   UNL A   1      41.104  27.133  28.621  1.00  0.00     0.029 A 
ATOM     46  N   UNL A   1      43.263  27.478  28.144  1.00  0.00    -0.354 N 
ATOM     47  C   UNL A   1      45.090  31.349  28.647  1.00  0.00     0.074 A 
ATOM     48  C   UNL A   1      44.125  32.325  29.100  1.00  0.00     0.031 C 
ATOM     49  C   UNL A   1      41.626  25.961  28.215  1.00  0.00     0.029 A 
ATOM     50  C   UNL A   1      43.035  26.149  27.871  1.00  0.00     0.049 A 
ATOM     51  H   UNL A   1      44.142  27.906  28.032  1.00  0.00     0.167 HD
ATOM     52  C   UNL A   1      46.402  31.620  28.441  1.00  0.00     0.037 A 
ATOM     53  C   UNL A   1      43.864  25.198  27.390  1.00  0.00     0.037 A 
ATOM     54  C   UNL A   1      47.369  30.653  27.990  1.00  0.00     0.049 A 
ATOM     55  C   UNL A   1      45.308  25.539  27.110  1.00  0.00     0.074 A 
ATOM     56  C   UNL A   1      48.723  30.834  27.764  1.00  0.00     0.029 A 
ATOM     57  N   UNL A   1      47.090  29.329  27.693  1.00  0.00    -0.354 N 
ATOM     58  N   UNL A   1      45.940  26.678  27.275  1.00  0.00    -0.248 NA
ATOM     59  C   UNL A   1      46.156  24.457  26.586  1.00  0.00     0.031 C 
ATOM     60  C   UNL A   1      49.251  29.633  27.278  1.00  0.00     0.029 A 
ATOM     61  C   UNL A   1      48.240  28.686  27.262  1.00  0.00     0.049 A 
ATOM     62  H   UNL A   1      46.204  28.906  27.775  1.00  0.00     0.167 HD
ATOM     63  C   UNL A   1      47.263  26.439  26.908  1.00  0.00     0.074 A 
ATOM     64  C   UNL A   1      47.344  25.045  26.529  1.00  0.00     0.031 C 
ATOM     65  C   UNL A   1      48.316  27.296  26.888  1.00  0.00     0.037 A 
BRANCH  52  66
ATOM     66  C   UNL A   1      46.865  33.031  28.683  1.00  0.00     0.058 A 
ATOM     67  C   UNL A   1      47.373  33.441  29.927  1.00  0.00     0.135 A 
ATOM     68  C   UNL A   1      46.831  33.978  27.647  1.00  0.00     0.135 A 
ATOM     69  F   UNL A   1      47.408  32.583  30.960  1.00  0.00    -0.206 F 
ATOM     70  C   UNL A   1      47.809  34.745  30.141  1.00  0.00     0.059 A 
ATOM     71  C   UNL A   1      47.290  35.279  27.829  1.00  0.00     0.059 A 
ATOM     72  F   UNL A   1      46.351  33.642  26.439  1.00  0.00    -0.206 F 
ATOM     73  C   UNL A   1      47.766  35.657  29.084  1.00  0.00     0.060 A 
BRANCH  73  74
ATOM     74  S   UNL A   1      48.345  37.340  29.376  1.00  0.00     0.124 S 
ATOM     75  O   UNL A   1      49.551  37.101  30.164  1.00  0.00    -0.237 OA
ATOM     76  O   UNL A   1      48.562  37.834  28.020  1.00  0.00    -0.237 OA
ATOM     77  O   UNL A   1      47.239  37.962  30.097  1.00  0.00    -0.744 OA
ENDBRANCH  73  74
ENDBRANCH  52  66
BRANCH  53  78
ATOM     78  C   UNL A   1      43.358  23.819  27.135  1.00  0.00     0.058 A 
ATOM     79  C   UNL A   1      43.201  22.894  28.178  1.00  0.00     0.135 A 
ATOM     80  C   UNL A   1      43.054  23.389  25.834  1.00  0.00     0.135 A 
ATOM     81  F   UNL A   1      43.497  23.248  29.438  1.00  0.00    -0.206 F 
ATOM     82  C   UNL A   1      42.781  21.589  27.942  1.00  0.00     0.059 A 
ATOM     83  C   UNL A   1      42.603  22.098  25.574  1.00  0.00     0.059 A 
ATOM     84  F   UNL A   1      43.184  24.232  24.798  1.00  0.00    -0.206 F 
ATOM     85  C   UNL A   1      42.480  21.201  26.635  1.00  0.00     0.060 A 
BRANCH  85  86
ATOM     86  S   UNL A   1      41.888  19.520  26.342  1.00  0.00     0.124 S 
ATOM     87  O   UNL A   1      42.296  18.845  27.569  1.00  0.00    -0.237 OA
ATOM     88  O   UNL A   1      40.454  19.726  26.173  1.00  0.00    -0.237 OA
ATOM     89  O   UNL A   1      42.603  19.119  25.134  1.00  0.00    -0.744 OA
ENDBRANCH  85  86
ENDBRANCH  53  78
BRANCH  65  90
ATOM     90  C   UNL A   1      49.658  26.741  26.482  1.00  0.00     0.058 A 
ATOM     91  C   UNL A   1      50.082  26.720  25.144  1.00  0.00     0.135 A 
ATOM     92  C   UNL A   1      50.539  26.231  27.451  1.00  0.00     0.135 A 
ATOM     93  F   UNL A   1      49.284  27.194  24.175  1.00  0.00    -0.206 F 
ATOM     94  C   UNL A   1      51.307  26.167  24.775  1.00  0.00     0.059 A 
ATOM     95  C   UNL A   1      51.782  25.707  27.110  1.00  0.00     0.059 A 
ATOM     96  F   UNL A   1      50.197  26.243  28.750  1.00  0.00    -0.206 F 
ATOM     97  C   UNL A   1      52.147  25.656  25.767  1.00  0.00     0.060 A 
BRANCH  97  98
ATOM     98  S   UNL A   1      53.724  24.927  25.275  1.00  0.00     0.124 S 
ATOM     99  O   UNL A   1      54.025  25.672  24.057  1.00  0.00    -0.237 OA
ATOM    100  O   UNL A   1      54.576  25.218  26.424  1.00  0.00    -0.237 OA
ATOM    101  O   UNL A   1      53.401  23.516  25.084  1.00  0.00    -0.744 OA
ENDBRANCH  97  98
ENDBRANCH  65  90
ENDBRANCH  39  40
ENDBRANCH  32  34
ENDBRANCH  31  32
ENDBRANCH  30  31
ENDBRANCH  29  30
ENDBRANCH  28  29
ENDBRANCH  27  28
ENDBRANCH   1  27
TORSDOF 23
ENDMDL
MODEL 2
REMARK VINA RESULT:     -10.4      1.967      3.872
REMARK SMILES Cc1nn(C)cc1CNC(=O)[C@H]1[C@@H]2CC[C@@H](C2)[C@@H]1C(=O)OCCOCCOCCOC(=O)c1ccc(-c2c3nc(c(-c4c(F)cc(S(=O)(=O)[O-])cc4F)c4ccc([nH]4)c(-c4c(F)cc(S(=O)(=O)[O-])cc4F)c4nc(c(-c5c(F)cc(S(=O)(=O)[O-])cc5F)c5ccc2[nH]5)C=C4)C=C3)cc1
REMARK SMILES IDX 25 1 24 2 23 3 22 4 21 5 19 6 20 7 18 8 12 9 13 10 14 11
REMARK SMILES IDX 17 12 16 13 15 14 10 15 9 16 11 18 8 19 7 20 1 21 2 22 3 23
REMARK SMILES IDX 4 24 6 25 5 26 26 27 27 28 28 29 29 30 30 31 31 32 32 33
REMARK SMILES IDX 33 34 34 35 98 36 35 37 97 38 36 39 37 40 38 41 91 42 39 43
REMARK SMILES IDX 96 44 90 45 92 46 40 47 95 48 89 49 88 50 41 52 75 53 54 54
REMARK SMILES IDX 74 55 55 56 58 57 73 58 93 59 56 60 57 61 72 63 94 64 59 65
REMARK SMILES IDX 42 66 43 67 52 68 44 69 45 70 51 71 53 72 46 73 47 74 48 75
REMARK SMILES IDX 49 76 50 77 76 78 77 79 86 80 78 81 79 82 85 83 87 84 80 85
REMARK SMILES IDX 81 86 82 87 83 88 84 89 60 90 61 91 70 92 62 93 63 94 69 95
REMARK SMILES IDX 71 96 64 97 65 98 66 99 67 100 68 101
REMARK H PARENT 9 17 92 51 58 62
REMARK Flexibility Score: inf
ROOT
ATOM      1  C   UNL A   1      34.490  30.259  27.188  1.00  0.00     0.188 C 
ENDROOT
BRANCH   1   2
ATOM      2  O   UNL A   1      33.701  29.080  27.269  1.00  0.00    -0.376 OA
BRANCH   2   3
ATOM      3  C   UNL A   1      32.287  29.149  27.203  1.00  0.00     0.202 C 
BRANCH   3   4
ATOM      4  C   UNL A   1      31.493  27.863  27.473  1.00  0.00     0.261 C 
BRANCH   4   5
ATOM      5  O   UNL A   1      30.926  27.141  26.357  1.00  0.00    -0.463 OA
BRANCH   5   6
ATOM      6  C   UNL A   1      31.413  25.885  26.194  1.00  0.00     0.310 C 
ATOM      7  O   UNL A   1      31.005  24.911  26.816  1.00  0.00    -0.252 OA
BRANCH   6   8
ATOM      8  C   UNL A   1      32.534  25.741  25.192  1.00  0.00     0.115 C 
ATOM      9  C   UNL A   1      32.181  25.766  23.693  1.00  0.00     0.096 C 
ATOM     10  C   UNL A   1      33.245  24.772  23.110  1.00  0.00     0.002 C 
ATOM     11  C   UNL A   1      32.762  23.336  23.337  1.00  0.00     0.005 C 
ATOM     12  C   UNL A   1      34.400  24.831  24.125  1.00  0.00     0.009 C 
ATOM     13  C   UNL A   1      33.484  24.533  25.316  1.00  0.00     0.004 C 
ATOM     14  C   UNL A   1      32.845  23.202  24.862  1.00  0.00     0.005 C 
BRANCH   9  15
ATOM     15  C   UNL A   1      32.372  27.171  23.129  1.00  0.00     0.224 C 
ATOM     16  N   UNL A   1      31.297  27.986  22.951  1.00  0.00    -0.352 N 
ATOM     17  H   UNL A   1      31.523  28.924  22.751  1.00  0.00     0.163 HD
ATOM     18  O   UNL A   1      33.482  27.614  22.841  1.00  0.00    -0.275 OA
BRANCH  16  19
ATOM     19  C   UNL A   1      29.879  27.707  23.007  1.00  0.00     0.155 C 
BRANCH  19  20
ATOM     20  C   UNL A   1      29.085  28.932  22.719  1.00  0.00     0.012 A 
ATOM     21  C   UNL A   1      26.686  28.206  23.503  1.00  0.00     0.069 C 
ATOM     22  C   UNL A   1      27.700  29.154  22.980  1.00  0.00     0.064 A 
ATOM     23  N   UNL A   1      27.331  30.413  22.718  1.00  0.00    -0.178 NA
ATOM     24  N   UNL A   1      28.468  31.010  22.321  1.00  0.00    -0.275 N 
ATOM     25  C   UNL A   1      29.515  30.144  22.212  1.00  0.00     0.114 A 
ATOM     26  C   UNL A   1      28.502  32.440  22.119  1.00  0.00     0.173 C 
ENDBRANCH  19  20
ENDBRANCH  16  19
ENDBRANCH   9  15
ENDBRANCH   6   8
ENDBRANCH   5   6
ENDBRANCH   4   5
ENDBRANCH   3   4
ENDBRANCH   2   3
ENDBRANCH   1   2
BRANCH   1  27
ATOM     27  C   UNL A   1      34.008  31.558  27.831  1.00  0.00     0.188 C 
BRANCH  27  28
ATOM     28  O   UNL A   1      35.066  32.441  28.154  1.00  0.00    -0.376 OA
BRANCH  28  29
ATOM     29  C   UNL A   1      34.801  33.410  29.153  1.00  0.00     0.202 C 
BRANCH  29  30
ATOM     30  C   UNL A   1      35.226  32.894  30.533  1.00  0.00     0.261 C 
BRANCH  30  31
ATOM     31  O   UNL A   1      35.945  31.645  30.504  1.00  0.00    -0.460 OA
BRANCH  31  32
ATOM     32  C   UNL A   1      36.967  31.516  31.386  1.00  0.00     0.338 C 
ATOM     33  O   UNL A   1      36.917  31.752  32.584  1.00  0.00    -0.246 OA
BRANCH  32  34
ATOM     34  C   UNL A   1      38.074  30.778  30.725  1.00  0.00     0.060 A 
ATOM     35  C   UNL A   1      39.008  30.117  31.537  1.00  0.00     0.016 A 
ATOM     36  C   UNL A   1      38.172  30.687  29.335  1.00  0.00     0.016 A 
ATOM     37  C   UNL A   1      40.079  29.427  30.963  1.00  0.00     0.010 A 
ATOM     38  C   UNL A   1      39.250  30.002  28.760  1.00  0.00     0.010 A 
ATOM     39  C   UNL A   1      40.238  29.412  29.570  1.00  0.00    -0.014 A 
BRANCH  39  40
ATOM     40  C   UNL A   1      41.541  28.984  28.988  1.00  0.00     0.031 A 
ATOM     41  C   UNL A   1      42.651  30.002  28.902  1.00  0.00     0.074 A 
ATOM     42  C   UNL A   1      41.771  27.715  28.600  1.00  0.00     0.049 A 
ATOM     43  N   UNL A   1      43.876  29.867  28.462  1.00  0.00    -0.248 NA
ATOM     44  C   UNL A   1      42.335  31.359  29.380  1.00  0.00     0.031 C 
ATOM     45  C   UNL A   1      40.804  26.620  28.653  1.00  0.00     0.029 A 
ATOM     46  N   UNL A   1      42.905  27.135  28.081  1.00  0.00    -0.354 N 
ATOM     47  C   UNL A   1      44.472  31.115  28.608  1.00  0.00     0.074 A 
ATOM     48  C   UNL A   1      43.464  32.006  29.136  1.00  0.00     0.031 C 
ATOM     49  C   UNL A   1      41.388  25.500  28.187  1.00  0.00     0.029 A 
ATOM     50  C   UNL A   1      42.761  25.801  27.780  1.00  0.00     0.049 A 
ATOM     51  H   UNL A   1      43.745  27.629  27.939  1.00  0.00     0.167 HD
ATOM     52  C   UNL A   1      45.749  31.487  28.346  1.00  0.00     0.037 A 
ATOM     53  C   UNL A   1      43.631  24.925  27.231  1.00  0.00     0.037 A 
ATOM     54  C   UNL A   1      46.759  30.606  27.820  1.00  0.00     0.049 A 
ATOM     55  C   UNL A   1      45.030  25.379  26.892  1.00  0.00     0.074 A 
ATOM     56  C   UNL A   1      48.083  30.892  27.533  1.00  0.00     0.029 A 
ATOM     57  N   UNL A   1      46.561  29.273  27.498  1.00  0.00    -0.354 N 
ATOM     58  N   UNL A   1      45.586  26.556  27.059  1.00  0.00    -0.248 NA
ATOM     59  C   UNL A   1      45.926  24.376  26.295  1.00  0.00     0.031 C 
ATOM     60  C   UNL A   1      48.671  29.746  26.987  1.00  0.00     0.029 A 
ATOM     61  C   UNL A   1      47.731  28.727  26.993  1.00  0.00     0.049 A 
ATOM     62  H   UNL A   1      45.714  28.784  27.611  1.00  0.00     0.167 HD
ATOM     63  C   UNL A   1      46.902  26.425  26.620  1.00  0.00     0.074 A 
ATOM     64  C   UNL A   1      47.064  25.050  26.198  1.00  0.00     0.031 C 
ATOM     65  C   UNL A   1      47.888  27.357  26.574  1.00  0.00     0.037 A 
BRANCH  52  66
ATOM     66  C   UNL A   1      46.121  32.922  28.606  1.00  0.00     0.058 A 
ATOM     67  C   UNL A   1      46.655  33.337  29.838  1.00  0.00     0.135 A 
ATOM     68  C   UNL A   1      45.972  33.889  27.599  1.00  0.00     0.135 A 
ATOM     69  F   UNL A   1      46.798  32.459  30.844  1.00  0.00    -0.206 F 
ATOM     70  C   UNL A   1      47.006  34.663  30.069  1.00  0.00     0.059 A 
ATOM     71  C   UNL A   1      46.345  35.215  27.797  1.00  0.00     0.059 A 
ATOM     72  F   UNL A   1      45.463  33.549  26.405  1.00  0.00    -0.206 F 
ATOM     73  C   UNL A   1      46.850  35.595  29.041  1.00  0.00     0.060 A 
BRANCH  73  74
ATOM     74  S   UNL A   1      47.320  37.309  29.353  1.00  0.00     0.124 S 
ATOM     75  O   UNL A   1      46.527  38.016  28.352  1.00  0.00    -0.237 OA
ATOM     76  O   UNL A   1      46.906  37.497  30.739  1.00  0.00    -0.237 OA
ATOM     77  O   UNL A   1      48.762  37.313  29.127  1.00  0.00    -0.744 OA
ENDBRANCH  73  74
ENDBRANCH  52  66
BRANCH  53  78
ATOM     78  C   UNL A   1      43.213  23.520  26.962  1.00  0.00     0.058 A 
ATOM     79  C   UNL A   1      43.080  22.585  27.999  1.00  0.00     0.135 A 
ATOM     80  C   UNL A   1      42.972  23.076  25.652  1.00  0.00     0.135 A 
ATOM     81  F   UNL A   1      43.318  22.953  29.267  1.00  0.00    -0.206 F 
ATOM     82  C   UNL A   1      42.743  21.258  27.750  1.00  0.00     0.059 A 
ATOM     83  C   UNL A   1      42.605  21.762  25.378  1.00  0.00     0.059 A 
ATOM     84  F   UNL A   1      43.083  23.928  24.620  1.00  0.00    -0.206 F 
ATOM     85  C   UNL A   1      42.503  20.857  26.434  1.00  0.00     0.060 A 
BRANCH  85  86
ATOM     86  S   UNL A   1      42.018  19.145  26.124  1.00  0.00     0.124 S 
ATOM     87  O   UNL A   1      42.280  18.524  27.417  1.00  0.00    -0.237 OA
ATOM     88  O   UNL A   1      40.614  19.287  25.755  1.00  0.00    -0.237 OA
ATOM     89  O   UNL A   1      42.905  18.738  25.038  1.00  0.00    -0.744 OA
ENDBRANCH  85  86
ENDBRANCH  53  78
BRANCH  65  90
ATOM     90  C   UNL A   1      49.244  26.912  26.088  1.00  0.00     0.058 A 
ATOM     91  C   UNL A   1      50.176  26.294  26.938  1.00  0.00     0.135 A 
ATOM     92  C   UNL A   1      49.614  27.098  24.745  1.00  0.00     0.135 A 
ATOM     93  F   UNL A   1      49.877  26.089  28.231  1.00  0.00    -0.206 F 
ATOM     94  C   UNL A   1      51.441  25.925  26.489  1.00  0.00     0.059 A 
ATOM     95  C   UNL A   1      50.860  26.705  24.266  1.00  0.00     0.059 A 
ATOM     96  F   UNL A   1      48.758  27.665  23.879  1.00  0.00    -0.206 F 
ATOM     97  C   UNL A   1      51.777  26.141  25.151  1.00  0.00     0.060 A 
BRANCH  97  98
ATOM     98  S   UNL A   1      53.426  25.674  24.584  1.00  0.00     0.124 S 
ATOM     99  O   UNL A   1      54.268  26.590  25.347  1.00  0.00    -0.237 OA
ATOM    100  O   UNL A   1      53.504  24.269  24.970  1.00  0.00    -0.237 OA
ATOM    101  O   UNL A   1      53.373  25.921  23.145  1.00  0.00    -0.744 OA
ENDBRANCH  97  98
ENDBRANCH  65  90
ENDBRANCH  39  40
ENDBRANCH  32  34
ENDBRANCH  31  32
ENDBRANCH  30  31
ENDBRANCH  29  30
ENDBRANCH  28  29
ENDBRANCH  27  28
ENDBRANCH   1  27
TORSDOF 23
ENDMDL
MODEL 3
REMARK VINA RESULT:     -10.3      6.171      8.360
REMARK SMILES Cc1nn(C)cc1CNC(=O)[C@H]1[C@@H]2CC[C@@H](C2)[C@@H]1C(=O)OCCOCCOCCOC(=O)c1ccc(-c2c3nc(c(-c4c(F)cc(S(=O)(=O)[O-])cc4F)c4ccc([nH]4)c(-c4c(F)cc(S(=O)(=O)[O-])cc4F)c4nc(c(-c5c(F)cc(S(=O)(=O)[O-])cc5F)c5ccc2[nH]5)C=C4)C=C3)cc1
REMARK SMILES IDX 25 1 24 2 23 3 22 4 21 5 19 6 20 7 18 8 12 9 13 10 14 11
REMARK SMILES IDX 17 12 16 13 15 14 10 15 9 16 11 18 8 19 7 20 1 21 2 22 3 23
REMARK SMILES IDX 4 24 6 25 5 26 26 27 27 28 28 29 29 30 30 31 31 32 32 33
REMARK SMILES IDX 33 34 34 35 98 36 35 37 97 38 36 39 37 40 38 41 91 42 39 43
REMARK SMILES IDX 96 44 90 45 92 46 40 47 95 48 89 49 88 50 41 52 75 53 54 54
REMARK SMILES IDX 74 55 55 56 58 57 73 58 93 59 56 60 57 61 72 63 94 64 59 65
REMARK SMILES IDX 42 66 43 67 52 68 44 69 45 70 51 71 53 72 46 73 47 74 48 75
REMARK SMILES IDX 49 76 50 77 76 78 77 79 86 80 78 81 79 82 85 83 87 84 80 85
REMARK SMILES IDX 81 86 82 87 83 88 84 89 60 90 61 91 70 92 62 93 63 94 69 95
REMARK SMILES IDX 71 96 64 97 65 98 66 99 67 100 68 101
REMARK H PARENT 9 17 92 51 58 62
REMARK Flexibility Score: inf
ROOT
ATOM      1  C   UNL A   1      34.546  32.983  28.938  1.00  0.00     0.188 C 
ENDROOT
BRANCH   1   2
ATOM      2  O   UNL A   1      34.223  31.641  28.599  1.00  0.00    -0.376 OA
BRANCH   2   3
ATOM      3  C   UNL A   1      33.743  31.316  27.305  1.00  0.00     0.202 C 
BRANCH   3   4
ATOM      4  C   UNL A   1      32.609  30.286  27.201  1.00  0.00     0.261 C 
BRANCH   4   5
ATOM      5  O   UNL A   1      32.922  28.938  26.786  1.00  0.00    -0.463 OA
BRANCH   5   6
ATOM      6  C   UNL A   1      31.934  28.036  27.013  1.00  0.00     0.310 C 
ATOM      7  O   UNL A   1      31.267  28.001  28.040  1.00  0.00    -0.252 OA
BRANCH   6   8
ATOM      8  C   UNL A   1      31.702  27.027  25.912  1.00  0.00     0.115 C 
ATOM      9  C   UNL A   1      32.511  25.717  25.939  1.00  0.00     0.096 C 
ATOM     10  C   UNL A   1      32.703  25.442  24.407  1.00  0.00     0.002 C 
ATOM     11  C   UNL A   1      33.860  26.303  23.888  1.00  0.00     0.005 C 
ATOM     12  C   UNL A   1      31.515  26.165  23.750  1.00  0.00     0.009 C 
ATOM     13  C   UNL A   1      31.825  27.494  24.448  1.00  0.00     0.004 C 
ATOM     14  C   UNL A   1      33.286  27.720  23.998  1.00  0.00     0.005 C 
BRANCH   9  15
ATOM     15  C   UNL A   1      31.698  24.609  26.601  1.00  0.00     0.224 C 
ATOM     16  N   UNL A   1      32.324  23.505  27.095  1.00  0.00    -0.352 N 
ATOM     17  H   UNL A   1      31.754  22.928  27.654  1.00  0.00     0.163 HD
ATOM     18  O   UNL A   1      30.477  24.681  26.727  1.00  0.00    -0.275 OA
BRANCH  16  19
ATOM     19  C   UNL A   1      33.684  23.040  26.938  1.00  0.00     0.155 C 
BRANCH  19  20
ATOM     20  C   UNL A   1      33.741  21.867  26.023  1.00  0.00     0.012 A 
ATOM     21  C   UNL A   1      36.320  21.674  25.569  1.00  0.00     0.069 C 
ATOM     22  C   UNL A   1      34.902  21.253  25.466  1.00  0.00     0.064 A 
ATOM     23  N   UNL A   1      34.608  20.138  24.788  1.00  0.00    -0.178 NA
ATOM     24  N   UNL A   1      33.277  20.012  24.928  1.00  0.00    -0.275 N 
ATOM     25  C   UNL A   1      32.706  21.070  25.571  1.00  0.00     0.114 A 
ATOM     26  C   UNL A   1      32.611  18.814  24.473  1.00  0.00     0.173 C 
ENDBRANCH  19  20
ENDBRANCH  16  19
ENDBRANCH   9  15
ENDBRANCH   6   8
ENDBRANCH   5   6
ENDBRANCH   4   5
ENDBRANCH   3   4
ENDBRANCH   2   3
ENDBRANCH   1   2
BRANCH   1  27
ATOM     27  C   UNL A   1      33.722  34.141  28.378  1.00  0.00     0.188 C 
BRANCH  27  28
ATOM     28  O   UNL A   1      34.377  35.390  28.490  1.00  0.00    -0.376 OA
BRANCH  28  29
ATOM     29  C   UNL A   1      33.557  36.517  28.749  1.00  0.00     0.202 C 
BRANCH  29  30
ATOM     30  C   UNL A   1      32.454  36.161  29.755  1.00  0.00     0.261 C 
BRANCH  30  31
ATOM     31  O   UNL A   1      32.700  36.630  31.096  1.00  0.00    -0.460 OA
BRANCH  31  32
ATOM     32  C   UNL A   1      32.579  35.713  32.087  1.00  0.00     0.338 C 
ATOM     33  O   UNL A   1      31.551  35.428  32.682  1.00  0.00    -0.246 OA
BRANCH  32  34
ATOM     34  C   UNL A   1      33.829  34.911  32.145  1.00  0.00     0.060 A 
ATOM     35  C   UNL A   1      33.743  33.582  32.587  1.00  0.00     0.016 A 
ATOM     36  C   UNL A   1      35.057  35.429  31.727  1.00  0.00     0.016 A 
ATOM     37  C   UNL A   1      34.894  32.795  32.679  1.00  0.00     0.010 A 
ATOM     38  C   UNL A   1      36.211  34.641  31.828  1.00  0.00     0.010 A 
ATOM     39  C   UNL A   1      36.145  33.337  32.352  1.00  0.00    -0.014 A 
BRANCH  39  40
ATOM     40  C   UNL A   1      37.383  32.625  32.775  1.00  0.00     0.031 A 
ATOM     41  C   UNL A   1      38.022  33.021  34.084  1.00  0.00     0.074 A 
ATOM     42  C   UNL A   1      37.906  31.610  32.061  1.00  0.00     0.049 A 
ATOM     43  N   UNL A   1      39.082  32.535  34.676  1.00  0.00    -0.248 NA
ATOM     44  C   UNL A   1      37.371  34.115  34.825  1.00  0.00     0.031 C 
ATOM     45  C   UNL A   1      37.380  31.099  30.796  1.00  0.00     0.029 A 
ATOM     46  N   UNL A   1      39.006  30.821  32.308  1.00  0.00    -0.354 N 
ATOM     47  C   UNL A   1      39.226  33.262  35.853  1.00  0.00     0.074 A 
ATOM     48  C   UNL A   1      38.171  34.250  35.871  1.00  0.00     0.031 C 
ATOM     49  C   UNL A   1      38.158  30.082  30.379  1.00  0.00     0.029 A 
ATOM     50  C   UNL A   1      39.250  29.883  31.333  1.00  0.00     0.049 A 
ATOM     51  H   UNL A   1      39.568  30.919  33.110  1.00  0.00     0.167 HD
ATOM     52  C   UNL A   1      40.140  33.112  36.843  1.00  0.00     0.037 A 
ATOM     53  C   UNL A   1      40.242  28.975  31.216  1.00  0.00     0.037 A 
ATOM     54  C   UNL A   1      41.193  32.130  36.833  1.00  0.00     0.049 A 
ATOM     55  C   UNL A   1      41.285  28.867  32.303  1.00  0.00     0.074 A 
ATOM     56  C   UNL A   1      42.160  31.897  37.796  1.00  0.00     0.029 A 
ATOM     57  N   UNL A   1      41.424  31.223  35.810  1.00  0.00    -0.354 N 
ATOM     58  N   UNL A   1      41.392  29.545  33.422  1.00  0.00    -0.248 NA
ATOM     59  C   UNL A   1      42.339  27.859  32.114  1.00  0.00     0.031 C 
ATOM     60  C   UNL A   1      43.007  30.885  37.332  1.00  0.00     0.029 A 
ATOM     61  C   UNL A   1      42.531  30.444  36.108  1.00  0.00     0.049 A 
ATOM     62  H   UNL A   1      40.881  31.143  34.993  1.00  0.00     0.167 HD
ATOM     63  C   UNL A   1      42.503  29.022  34.082  1.00  0.00     0.074 A 
ATOM     64  C   UNL A   1      43.022  27.961  33.246  1.00  0.00     0.031 C 
ATOM     65  C   UNL A   1      43.043  29.387  35.273  1.00  0.00     0.037 A 
BRANCH  52  66
ATOM     66  C   UNL A   1      40.052  34.050  38.016  1.00  0.00     0.058 A 
ATOM     67  C   UNL A   1      40.694  35.300  38.015  1.00  0.00     0.135 A 
ATOM     68  C   UNL A   1      39.288  33.709  39.144  1.00  0.00     0.135 A 
ATOM     69  F   UNL A   1      41.456  35.669  36.974  1.00  0.00    -0.206 F 
ATOM     70  C   UNL A   1      40.600  36.167  39.100  1.00  0.00     0.059 A 
ATOM     71  C   UNL A   1      39.154  34.572  40.227  1.00  0.00     0.059 A 
ATOM     72  F   UNL A   1      38.656  32.525  39.200  1.00  0.00    -0.206 F 
ATOM     73  C   UNL A   1      39.825  35.794  40.201  1.00  0.00     0.060 A 
BRANCH  73  74
ATOM     74  S   UNL A   1      39.705  36.935  41.594  1.00  0.00     0.124 S 
ATOM     75  O   UNL A   1      39.255  38.156  40.933  1.00  0.00    -0.237 OA
ATOM     76  O   UNL A   1      38.722  36.278  42.450  1.00  0.00    -0.237 OA
ATOM     77  O   UNL A   1      41.065  36.973  42.122  1.00  0.00    -0.744 OA
ENDBRANCH  73  74
ENDBRANCH  52  66
BRANCH  53  78
ATOM     78  C   UNL A   1      40.311  28.084  30.023  1.00  0.00     0.058 A 
ATOM     79  C   UNL A   1      39.523  26.927  29.929  1.00  0.00     0.135 A 
ATOM     80  C   UNL A   1      41.194  28.357  28.966  1.00  0.00     0.135 A 
ATOM     81  F   UNL A   1      38.677  26.610  30.920  1.00  0.00    -0.206 F 
ATOM     82  C   UNL A   1      39.620  26.062  28.842  1.00  0.00     0.059 A 
ATOM     83  C   UNL A   1      41.288  27.524  27.855  1.00  0.00     0.059 A 
ATOM     84  F   UNL A   1      41.970  29.452  29.002  1.00  0.00    -0.206 F 
ATOM     85  C   UNL A   1      40.503  26.372  27.807  1.00  0.00     0.060 A 
BRANCH  85  86
ATOM     86  S   UNL A   1      40.588  25.270  26.379  1.00  0.00     0.124 S 
ATOM     87  O   UNL A   1      39.182  24.937  26.179  1.00  0.00    -0.237 OA
ATOM     88  O   UNL A   1      41.192  26.129  25.366  1.00  0.00    -0.237 OA
ATOM     89  O   UNL A   1      41.435  24.178  26.849  1.00  0.00    -0.744 OA
ENDBRANCH  85  86
ENDBRANCH  53  78
BRANCH  65  90
ATOM     90  C   UNL A   1      44.234  28.604  35.766  1.00  0.00     0.058 A 
ATOM     91  C   UNL A   1      45.552  28.976  35.451  1.00  0.00     0.135 A 
ATOM     92  C   UNL A   1      44.054  27.470  36.575  1.00  0.00     0.135 A 
ATOM     93  F   UNL A   1      45.786  30.051  34.683  1.00  0.00    -0.206 F 
ATOM     94  C   UNL A   1      46.643  28.222  35.878  1.00  0.00     0.059 A 
ATOM     95  C   UNL A   1      45.131  26.723  37.042  1.00  0.00     0.059 A 
ATOM     96  F   UNL A   1      42.818  27.078  36.926  1.00  0.00    -0.206 F 
ATOM     97  C   UNL A   1      46.422  27.093  36.668  1.00  0.00     0.060 A 
BRANCH  97  98
ATOM     98  S   UNL A   1      47.843  26.114  37.200  1.00  0.00     0.124 S 
ATOM     99  O   UNL A   1      48.928  26.745  36.456  1.00  0.00    -0.237 OA
ATOM    100  O   UNL A   1      47.852  26.333  38.643  1.00  0.00    -0.237 OA
ATOM    101  O   UNL A   1      47.498  24.759  36.780  1.00  0.00    -0.744 OA
ENDBRANCH  97  98
ENDBRANCH  65  90
ENDBRANCH  39  40
ENDBRANCH  32  34
ENDBRANCH  31  32
ENDBRANCH  30  31
ENDBRANCH  29  30
ENDBRANCH  28  29
ENDBRANCH  27  28
ENDBRANCH   1  27
TORSDOF 23
ENDMDL
