MODEL 1
REMARK VINA RESULT:      -6.6      0.000      0.000
REMARK SMILES NS(=O)(=O)c1ccc(-n2nc(NC(=O)NCCCCCCCCCCC(=O)OCCOCCOCCOC(=O)c3ccc(-c4c5nc(c(-c6c(F)cc(S(=O)(=O)[O-])cc6F)c6ccc([nH]6)c(-c6c(F)cc(S(=O)(=O)[O-])cc6F)c6nc(c(-c7c(F)cc(S(=O)(=O)[O-])cc7F)c7ccc4[nH]7)C=C6)C=C5)cc3)cc2-c2ccccc2)cc1
REMARK SMILES IDX 26 1 27 2 25 3 24 4 23 5 22 6 21 7 20 8 19 9 18 10 17 11
REMARK SMILES IDX 16 12 15 13 12 14 13 15 14 17 11 19 9 20 10 21 107 22 106 23
REMARK SMILES IDX 8 24 5 25 6 26 115 27 7 28 114 29 2 30 3 31 4 32 1 33 108 36
REMARK SMILES IDX 109 37 113 38 110 39 112 40 111 41 28 42 29 43 30 44 31 45
REMARK SMILES IDX 32 46 33 47 34 48 35 49 36 50 37 51 38 52 39 53 40 54 41 55
REMARK SMILES IDX 105 56 42 57 104 58 43 59 44 60 45 61 98 62 46 63 103 64
REMARK SMILES IDX 97 65 99 66 47 67 102 68 96 69 95 70 48 72 82 73 61 74 81 75
REMARK SMILES IDX 62 76 65 77 80 78 100 79 63 80 64 81 79 83 101 84 66 85
REMARK SMILES IDX 49 86 50 87 59 88 51 89 52 90 58 91 60 92 53 93 54 94 55 95
REMARK SMILES IDX 56 96 57 97 83 98 84 99 93 100 85 101 86 102 92 103 94 104
REMARK SMILES IDX 87 105 88 106 89 107 90 108 91 109 67 110 68 111 77 112
REMARK SMILES IDX 69 113 70 114 76 115 78 116 71 117 72 118 73 119 74 120
REMARK SMILES IDX 75 121
REMARK H PARENT 12 16 15 18 1 34 1 35 99 71 65 82
REMARK Flexibility Score: inf
ROOT
ATOM      1  C   UNL A   1      39.411  29.302  29.213  1.00  0.00     0.305 C 
ATOM      2  O   UNL A   1      38.732  29.668  28.260  1.00  0.00    -0.252 OA
ENDROOT
BRANCH   1   3
ATOM      3  C   UNL A   1      39.500  27.841  29.630  1.00  0.00     0.123 C 
BRANCH   3   4
ATOM      4  C   UNL A   1      40.398  26.892  28.825  1.00  0.00     0.012 C 
BRANCH   4   5
ATOM      5  C   UNL A   1      39.938  26.587  27.399  1.00  0.00     0.001 C 
BRANCH   5   6
ATOM      6  C   UNL A   1      40.934  27.028  26.334  1.00  0.00     0.000 C 
BRANCH   6   7
ATOM      7  C   UNL A   1      41.613  28.350  26.675  1.00  0.00     0.000 C 
BRANCH   7   8
ATOM      8  C   UNL A   1      43.137  28.250  26.766  1.00  0.00     0.000 C 
BRANCH   8   9
ATOM      9  C   UNL A   1      43.855  28.073  25.421  1.00  0.00     0.000 C 
BRANCH   9  10
ATOM     10  C   UNL A   1      44.523  26.708  25.213  1.00  0.00     0.002 C 
BRANCH  10  11
ATOM     11  C   UNL A   1      46.042  26.739  25.070  1.00  0.00     0.021 C 
BRANCH  11  12
ATOM     12  C   UNL A   1      46.799  26.806  26.384  1.00  0.00     0.117 C 
BRANCH  12  13
ATOM     13  N   UNL A   1      48.185  26.401  26.299  1.00  0.00    -0.338 N 
ATOM     14  N   UNL A   1      48.695  26.078  28.599  1.00  0.00    -0.291 N 
ATOM     15  C   UNL A   1      49.055  26.118  27.294  1.00  0.00     0.320 C 
ATOM     16  H   UNL A   1      49.434  26.236  29.231  1.00  0.00     0.173 HD
ATOM     17  O   UNL A   1      50.251  26.016  27.005  1.00  0.00    -0.248 OA
ATOM     18  H   UNL A   1      48.546  26.318  25.387  1.00  0.00     0.165 HD
BRANCH  14  19
ATOM     19  C   UNL A   1      47.474  25.854  29.192  1.00  0.00     0.157 A 
ATOM     20  N   UNL A   1      45.491  25.154  29.456  1.00  0.00    -0.231 N 
ATOM     21  N   UNL A   1      46.704  24.783  28.995  1.00  0.00    -0.149 NA
ATOM     22  C   UNL A   1      45.595  26.233  30.327  1.00  0.00     0.076 A 
ATOM     23  C   UNL A   1      46.875  26.723  30.132  1.00  0.00     0.078 A 
BRANCH  20  24
ATOM     24  C   UNL A   1      44.315  24.513  28.981  1.00  0.00     0.065 A 
ATOM     25  C   UNL A   1      42.122  23.135  27.953  1.00  0.00     0.082 A 
ATOM     26  C   UNL A   1      42.679  22.735  29.171  1.00  0.00     0.024 A 
ATOM     27  C   UNL A   1      42.619  24.252  27.273  1.00  0.00     0.024 A 
ATOM     28  C   UNL A   1      43.778  23.421  29.683  1.00  0.00     0.030 A 
ATOM     29  C   UNL A   1      43.704  24.961  27.804  1.00  0.00     0.030 A 
BRANCH  25  30
ATOM     30  S   UNL A   1      40.803  22.151  27.303  1.00  0.00     0.238 S 
ATOM     31  O   UNL A   1      39.625  22.987  27.221  1.00  0.00    -0.207 OA
ATOM     32  O   UNL A   1      40.814  20.887  27.997  1.00  0.00    -0.207 OA
BRANCH  30  33
ATOM     33  N   UNL A   1      41.245  21.818  25.722  1.00  0.00    -0.225 NA
ATOM     34  H   UNL A   1      40.629  21.101  25.341  1.00  0.00     0.137 HD
ATOM     35  H   UNL A   1      42.208  21.485  25.701  1.00  0.00     0.137 HD
ENDBRANCH  30  33
ENDBRANCH  25  30
ENDBRANCH  20  24
BRANCH  22  36
ATOM     36  C   UNL A   1      44.524  26.664  31.224  1.00  0.00     0.000 A 
ATOM     37  C   UNL A   1      43.502  27.495  30.735  1.00  0.00     0.010 A 
ATOM     38  C   UNL A   1      44.527  26.318  32.578  1.00  0.00     0.010 A 
ATOM     39  C   UNL A   1      42.536  28.018  31.592  1.00  0.00     0.001 A 
ATOM     40  C   UNL A   1      43.548  26.833  33.434  1.00  0.00     0.001 A 
ATOM     41  C   UNL A   1      42.564  27.689  32.943  1.00  0.00     0.000 A 
ENDBRANCH  22  36
ENDBRANCH  14  19
ENDBRANCH  12  13
ENDBRANCH  11  12
ENDBRANCH  10  11
ENDBRANCH   9  10
ENDBRANCH   8   9
ENDBRANCH   7   8
ENDBRANCH   6   7
ENDBRANCH   5   6
ENDBRANCH   4   5
ENDBRANCH   3   4
ENDBRANCH   1   3
BRANCH   1  42
ATOM     42  O   UNL A   1      40.202  30.113  29.951  1.00  0.00    -0.463 OA
BRANCH  42  43
ATOM     43  C   UNL A   1      39.723  30.564  31.227  1.00  0.00     0.261 C 
BRANCH  43  44
ATOM     44  C   UNL A   1      38.326  31.200  31.147  1.00  0.00     0.202 C 
BRANCH  44  45
ATOM     45  O   UNL A   1      37.287  30.490  31.819  1.00  0.00    -0.376 OA
BRANCH  45  46
ATOM     46  C   UNL A   1      35.978  30.594  31.252  1.00  0.00     0.188 C 
BRANCH  46  47
ATOM     47  C   UNL A   1      35.640  31.957  30.639  1.00  0.00     0.188 C 
BRANCH  47  48
ATOM     48  O   UNL A   1      34.533  32.596  31.259  1.00  0.00    -0.376 OA
BRANCH  48  49
ATOM     49  C   UNL A   1      34.461  32.782  32.671  1.00  0.00     0.202 C 
BRANCH  49  50
ATOM     50  C   UNL A   1      34.212  34.148  33.320  1.00  0.00     0.261 C 
BRANCH  50  51
ATOM     51  O   UNL A   1      35.327  34.750  33.947  1.00  0.00    -0.460 OA
BRANCH  51  52
ATOM     52  C   UNL A   1      36.089  34.019  34.784  1.00  0.00     0.338 C 
ATOM     53  O   UNL A   1      35.833  33.666  35.916  1.00  0.00    -0.246 OA
BRANCH  52  54
ATOM     54  C   UNL A   1      37.294  33.681  34.003  1.00  0.00     0.060 A 
ATOM     55  C   UNL A   1      38.153  32.729  34.536  1.00  0.00     0.016 A 
ATOM     56  C   UNL A   1      37.647  34.473  32.890  1.00  0.00     0.016 A 
ATOM     57  C   UNL A   1      39.481  32.829  34.197  1.00  0.00     0.010 A 
ATOM     58  C   UNL A   1      38.965  34.584  32.564  1.00  0.00     0.010 A 
ATOM     59  C   UNL A   1      39.862  33.860  33.333  1.00  0.00    -0.014 A 
BRANCH  59  60
ATOM     60  C   UNL A   1      41.247  34.250  33.298  1.00  0.00     0.031 A 
ATOM     61  C   UNL A   1      41.971  33.637  32.176  1.00  0.00     0.074 A 
ATOM     62  C   UNL A   1      41.719  35.166  34.166  1.00  0.00     0.049 A 
ATOM     63  N   UNL A   1      42.802  32.651  32.226  1.00  0.00    -0.248 NA
ATOM     64  C   UNL A   1      41.533  33.993  30.816  1.00  0.00     0.031 C 
ATOM     65  C   UNL A   1      40.966  36.007  35.104  1.00  0.00     0.029 A 
ATOM     66  N   UNL A   1      42.992  35.608  34.321  1.00  0.00    -0.354 N 
ATOM     67  C   UNL A   1      43.198  32.465  30.909  1.00  0.00     0.074 A 
ATOM     68  C   UNL A   1      42.198  33.093  30.092  1.00  0.00     0.031 C 
ATOM     69  C   UNL A   1      41.766  37.000  35.556  1.00  0.00     0.029 A 
ATOM     70  C   UNL A   1      43.108  36.791  35.044  1.00  0.00     0.049 A 
ATOM     71  H   UNL A   1      43.769  35.131  33.951  1.00  0.00     0.167 HD
ATOM     72  C   UNL A   1      44.481  32.123  30.613  1.00  0.00     0.037 A 
ATOM     73  C   UNL A   1      44.224  37.564  35.106  1.00  0.00     0.037 A 
ATOM     74  C   UNL A   1      45.159  31.594  31.772  1.00  0.00     0.049 A 
ATOM     75  C   UNL A   1      45.366  36.692  34.699  1.00  0.00     0.074 A 
ATOM     76  C   UNL A   1      44.935  30.527  32.620  1.00  0.00     0.029 A 
ATOM     77  N   UNL A   1      46.022  32.434  32.439  1.00  0.00    -0.354 N 
ATOM     78  N   UNL A   1      45.771  35.661  35.392  1.00  0.00    -0.248 NA
ATOM     79  C   UNL A   1      45.728  36.669  33.288  1.00  0.00     0.031 C 
ATOM     80  C   UNL A   1      45.307  30.992  33.915  1.00  0.00     0.029 A 
ATOM     81  C   UNL A   1      45.797  32.293  33.786  1.00  0.00     0.049 A 
ATOM     82  H   UNL A   1      46.684  33.030  32.023  1.00  0.00     0.167 HD
ATOM     83  C   UNL A   1      46.068  34.684  34.449  1.00  0.00     0.074 A 
ATOM     84  C   UNL A   1      46.089  35.388  33.170  1.00  0.00     0.031 C 
ATOM     85  C   UNL A   1      45.977  33.355  34.755  1.00  0.00     0.037 A 
BRANCH  72  86
ATOM     86  C   UNL A   1      45.214  32.646  29.403  1.00  0.00     0.058 A 
ATOM     87  C   UNL A   1      45.688  33.970  29.416  1.00  0.00     0.135 A 
ATOM     88  C   UNL A   1      45.240  32.002  28.142  1.00  0.00     0.135 A 
ATOM     89  F   UNL A   1      45.693  34.682  30.554  1.00  0.00    -0.206 F 
ATOM     90  C   UNL A   1      46.098  34.625  28.255  1.00  0.00     0.059 A 
ATOM     91  C   UNL A   1      45.704  32.613  26.988  1.00  0.00     0.059 A 
ATOM     92  F   UNL A   1      44.727  30.785  27.937  1.00  0.00    -0.206 F 
ATOM     93  C   UNL A   1      46.089  33.938  27.043  1.00  0.00     0.060 A 
BRANCH  93  94
ATOM     94  S   UNL A   1      46.515  34.804  25.527  1.00  0.00     0.124 S 
ATOM     95  O   UNL A   1      47.919  34.440  25.372  1.00  0.00    -0.237 OA
ATOM     96  O   UNL A   1      45.587  34.210  24.571  1.00  0.00    -0.237 OA
ATOM     97  O   UNL A   1      46.257  36.204  25.856  1.00  0.00    -0.744 OA
ENDBRANCH  93  94
ENDBRANCH  72  86
BRANCH  73  98
ATOM     98  C   UNL A   1      44.297  39.052  35.083  1.00  0.00     0.058 A 
ATOM     99  C   UNL A   1      45.102  39.759  35.995  1.00  0.00     0.135 A 
ATOM    100  C   UNL A   1      43.800  39.799  33.994  1.00  0.00     0.135 A 
ATOM    101  F   UNL A   1      45.640  39.125  37.049  1.00  0.00    -0.206 F 
ATOM    102  C   UNL A   1      45.432  41.109  35.815  1.00  0.00     0.059 A 
ATOM    103  C   UNL A   1      44.105  41.145  33.800  1.00  0.00     0.059 A 
ATOM    104  F   UNL A   1      43.073  39.218  33.028  1.00  0.00    -0.206 F 
ATOM    105  C   UNL A   1      44.942  41.789  34.700  1.00  0.00     0.060 A 
BRANCH 105 106
ATOM    106  S   UNL A   1      45.495  43.480  34.368  1.00  0.00     0.124 S 
ATOM    107  O   UNL A   1      46.639  43.605  35.262  1.00  0.00    -0.237 OA
ATOM    108  O   UNL A   1      45.801  43.431  32.943  1.00  0.00    -0.237 OA
ATOM    109  O   UNL A   1      44.334  44.292  34.724  1.00  0.00    -0.744 OA
ENDBRANCH 105 106
ENDBRANCH  73  98
BRANCH  85 110
ATOM    110  C   UNL A   1      45.828  32.967  36.206  1.00  0.00     0.058 A 
ATOM    111  C   UNL A   1      44.596  32.844  36.875  1.00  0.00     0.135 A 
ATOM    112  C   UNL A   1      46.971  32.534  36.894  1.00  0.00     0.135 A 
ATOM    113  F   UNL A   1      43.445  33.144  36.254  1.00  0.00    -0.206 F 
ATOM    114  C   UNL A   1      44.509  32.338  38.174  1.00  0.00     0.059 A 
ATOM    115  C   UNL A   1      46.906  31.998  38.176  1.00  0.00     0.059 A 
ATOM    116  F   UNL A   1      48.170  32.568  36.288  1.00  0.00    -0.206 F 
ATOM    117  C   UNL A   1      45.671  31.910  38.815  1.00  0.00     0.060 A 
BRANCH 117 118
ATOM    118  S   UNL A   1      45.549  31.161  40.455  1.00  0.00     0.124 S 
ATOM    119  O   UNL A   1      44.734  29.979  40.195  1.00  0.00    -0.237 OA
ATOM    120  O   UNL A   1      46.948  30.905  40.791  1.00  0.00    -0.237 OA
ATOM    121  O   UNL A   1      44.907  32.199  41.257  1.00  0.00    -0.744 OA
ENDBRANCH 117 118
ENDBRANCH  85 110
ENDBRANCH  59  60
ENDBRANCH  52  54
ENDBRANCH  51  52
ENDBRANCH  50  51
ENDBRANCH  49  50
ENDBRANCH  48  49
ENDBRANCH  47  48
ENDBRANCH  46  47
ENDBRANCH  45  46
ENDBRANCH  44  45
ENDBRANCH  43  44
ENDBRANCH  42  43
ENDBRANCH   1  42
TORSDOF 35
ENDMDL
MODEL 2
REMARK VINA RESULT:      -5.8      1.907      3.196
REMARK SMILES NS(=O)(=O)c1ccc(-n2nc(NC(=O)NCCCCCCCCCCC(=O)OCCOCCOCCOC(=O)c3ccc(-c4c5nc(c(-c6c(F)cc(S(=O)(=O)[O-])cc6F)c6ccc([nH]6)c(-c6c(F)cc(S(=O)(=O)[O-])cc6F)c6nc(c(-c7c(F)cc(S(=O)(=O)[O-])cc7F)c7ccc4[nH]7)C=C6)C=C5)cc3)cc2-c2ccccc2)cc1
REMARK SMILES IDX 26 1 27 2 25 3 24 4 23 5 22 6 21 7 20 8 19 9 18 10 17 11
REMARK SMILES IDX 16 12 15 13 12 14 13 15 14 17 11 19 9 20 10 21 107 22 106 23
REMARK SMILES IDX 8 24 5 25 6 26 115 27 7 28 114 29 2 30 3 31 4 32 1 33 108 36
REMARK SMILES IDX 109 37 113 38 110 39 112 40 111 41 28 42 29 43 30 44 31 45
REMARK SMILES IDX 32 46 33 47 34 48 35 49 36 50 37 51 38 52 39 53 40 54 41 55
REMARK SMILES IDX 105 56 42 57 104 58 43 59 44 60 45 61 98 62 46 63 103 64
REMARK SMILES IDX 97 65 99 66 47 67 102 68 96 69 95 70 48 72 82 73 61 74 81 75
REMARK SMILES IDX 62 76 65 77 80 78 100 79 63 80 64 81 79 83 101 84 66 85
REMARK SMILES IDX 49 86 50 87 59 88 51 89 52 90 58 91 60 92 53 93 54 94 55 95
REMARK SMILES IDX 56 96 57 97 83 98 84 99 93 100 85 101 86 102 92 103 94 104
REMARK SMILES IDX 87 105 88 106 89 107 90 108 91 109 67 110 68 111 77 112
REMARK SMILES IDX 69 113 70 114 76 115 78 116 71 117 72 118 73 119 74 120
REMARK SMILES IDX 75 121
REMARK H PARENT 12 16 15 18 1 34 1 35 99 71 65 82
REMARK Flexibility Score: inf
ROOT
ATOM      1  C   UNL A   1      39.953  29.405  29.298  1.00  0.00     0.305 C 
ATOM      2  O   UNL A   1      39.382  29.890  28.328  1.00  0.00    -0.252 OA
ENDROOT
BRANCH   1   3
ATOM      3  C   UNL A   1      40.016  27.902  29.533  1.00  0.00     0.123 C 
BRANCH   3   4
ATOM      4  C   UNL A   1      40.880  27.041  28.602  1.00  0.00     0.012 C 
BRANCH   4   5
ATOM      5  C   UNL A   1      40.453  27.010  27.135  1.00  0.00     0.001 C 
BRANCH   5   6
ATOM      6  C   UNL A   1      41.617  27.160  26.163  1.00  0.00     0.000 C 
BRANCH   6   7
ATOM      7  C   UNL A   1      42.655  28.171  26.639  1.00  0.00     0.000 C 
BRANCH   7   8
ATOM      8  C   UNL A   1      44.086  27.629  26.629  1.00  0.00     0.000 C 
BRANCH   8   9
ATOM      9  C   UNL A   1      44.696  27.442  25.233  1.00  0.00     0.000 C 
BRANCH   9  10
ATOM     10  C   UNL A   1      45.695  26.285  25.107  1.00  0.00     0.002 C 
BRANCH  10  11
ATOM     11  C   UNL A   1      47.147  26.697  24.882  1.00  0.00     0.021 C 
BRANCH  11  12
ATOM     12  C   UNL A   1      47.939  26.942  26.154  1.00  0.00     0.117 C 
BRANCH  12  13
ATOM     13  N   UNL A   1      49.136  26.140  26.279  1.00  0.00    -0.338 N 
ATOM     14  N   UNL A   1      48.777  25.134  28.403  1.00  0.00    -0.291 N 
ATOM     15  C   UNL A   1      49.540  25.363  27.308  1.00  0.00     0.320 C 
ATOM     16  H   UNL A   1      49.286  24.888  29.210  1.00  0.00     0.173 HD
ATOM     17  O   UNL A   1      50.704  24.949  27.298  1.00  0.00    -0.248 OA
ATOM     18  H   UNL A   1      49.743  26.164  25.504  1.00  0.00     0.165 HD
BRANCH  14  19
ATOM     19  C   UNL A   1      47.414  25.185  28.580  1.00  0.00     0.157 A 
ATOM     20  N   UNL A   1      45.542  25.555  29.501  1.00  0.00    -0.231 N 
ATOM     21  N   UNL A   1      46.762  26.097  29.303  1.00  0.00    -0.149 NA
ATOM     22  C   UNL A   1      45.274  24.565  28.562  1.00  0.00     0.076 A 
ATOM     23  C   UNL A   1      46.500  24.287  27.983  1.00  0.00     0.078 A 
BRANCH  20  24
ATOM     24  C   UNL A   1      44.748  25.959  30.610  1.00  0.00     0.065 A 
ATOM     25  C   UNL A   1      43.338  26.865  32.836  1.00  0.00     0.082 A 
ATOM     26  C   UNL A   1      43.199  27.528  31.613  1.00  0.00     0.024 A 
ATOM     27  C   UNL A   1      44.134  25.719  32.939  1.00  0.00     0.024 A 
ATOM     28  C   UNL A   1      43.907  27.078  30.502  1.00  0.00     0.030 A 
ATOM     29  C   UNL A   1      44.821  25.247  31.814  1.00  0.00     0.030 A 
BRANCH  25  30
ATOM     30  S   UNL A   1      42.502  27.556  34.233  1.00  0.00     0.238 S 
ATOM     31  O   UNL A   1      41.086  27.581  33.934  1.00  0.00    -0.207 OA
ATOM     32  O   UNL A   1      43.231  28.731  34.645  1.00  0.00    -0.207 OA
BRANCH  30  33
ATOM     33  N   UNL A   1      42.697  26.433  35.458  1.00  0.00    -0.225 NA
ATOM     34  H   UNL A   1      42.279  26.790  36.317  1.00  0.00     0.137 HD
ATOM     35  H   UNL A   1      43.691  26.263  35.610  1.00  0.00     0.137 HD
ENDBRANCH  30  33
ENDBRANCH  25  30
ENDBRANCH  20  24
BRANCH  22  36
ATOM     36  C   UNL A   1      43.943  24.016  28.313  1.00  0.00     0.000 A 
ATOM     37  C   UNL A   1      43.345  23.182  29.273  1.00  0.00     0.010 A 
ATOM     38  C   UNL A   1      43.274  24.251  27.108  1.00  0.00     0.010 A 
ATOM     39  C   UNL A   1      42.132  22.549  29.012  1.00  0.00     0.001 A 
ATOM     40  C   UNL A   1      42.049  23.625  26.854  1.00  0.00     0.001 A 
ATOM     41  C   UNL A   1      41.487  22.768  27.799  1.00  0.00     0.000 A 
ENDBRANCH  22  36
ENDBRANCH  14  19
ENDBRANCH  12  13
ENDBRANCH  11  12
ENDBRANCH  10  11
ENDBRANCH   9  10
ENDBRANCH   8   9
ENDBRANCH   7   8
ENDBRANCH   6   7
ENDBRANCH   5   6
ENDBRANCH   4   5
ENDBRANCH   3   4
ENDBRANCH   1   3
BRANCH   1  42
ATOM     42  O   UNL A   1      40.642  30.115  30.220  1.00  0.00    -0.463 OA
BRANCH  42  43
ATOM     43  C   UNL A   1      40.047  30.323  31.510  1.00  0.00     0.261 C 
BRANCH  43  44
ATOM     44  C   UNL A   1      38.620  30.887  31.423  1.00  0.00     0.202 C 
BRANCH  44  45
ATOM     45  O   UNL A   1      37.590  30.035  31.923  1.00  0.00    -0.376 OA
BRANCH  45  46
ATOM     46  C   UNL A   1      36.275  30.263  31.409  1.00  0.00     0.188 C 
BRANCH  46  47
ATOM     47  C   UNL A   1      36.041  31.653  30.809  1.00  0.00     0.188 C 
BRANCH  47  48
ATOM     48  O   UNL A   1      35.089  32.425  31.527  1.00  0.00    -0.376 OA
BRANCH  48  49
ATOM     49  C   UNL A   1      35.235  32.701  32.919  1.00  0.00     0.202 C 
BRANCH  49  50
ATOM     50  C   UNL A   1      34.871  34.052  33.544  1.00  0.00     0.261 C 
BRANCH  50  51
ATOM     51  O   UNL A   1      35.870  34.658  34.340  1.00  0.00    -0.460 OA
BRANCH  51  52
ATOM     52  C   UNL A   1      36.665  33.884  35.104  1.00  0.00     0.338 C 
ATOM     53  O   UNL A   1      36.460  33.477  36.228  1.00  0.00    -0.246 OA
BRANCH  52  54
ATOM     54  C   UNL A   1      37.832  33.581  34.253  1.00  0.00     0.060 A 
ATOM     55  C   UNL A   1      38.640  32.518  34.634  1.00  0.00     0.016 A 
ATOM     56  C   UNL A   1      38.211  34.489  33.242  1.00  0.00     0.016 A 
ATOM     57  C   UNL A   1      39.965  32.583  34.274  1.00  0.00     0.010 A 
ATOM     58  C   UNL A   1      39.526  34.564  32.897  1.00  0.00     0.010 A 
ATOM     59  C   UNL A   1      40.391  33.694  33.541  1.00  0.00    -0.014 A 
BRANCH  59  60
ATOM     60  C   UNL A   1      41.798  34.002  33.518  1.00  0.00     0.031 A 
ATOM     61  C   UNL A   1      42.425  33.655  32.236  1.00  0.00     0.074 A 
ATOM     62  C   UNL A   1      42.371  34.640  34.557  1.00  0.00     0.049 A 
ATOM     63  N   UNL A   1      43.187  32.645  31.985  1.00  0.00    -0.248 NA
ATOM     64  C   UNL A   1      41.949  34.369  31.038  1.00  0.00     0.031 C 
ATOM     65  C   UNL A   1      41.722  35.256  35.721  1.00  0.00     0.029 A 
ATOM     66  N   UNL A   1      43.678  34.958  34.738  1.00  0.00    -0.354 N 
ATOM     67  C   UNL A   1      43.508  32.778  30.642  1.00  0.00     0.074 A 
ATOM     68  C   UNL A   1      42.516  33.647  30.072  1.00  0.00     0.031 C 
ATOM     69  C   UNL A   1      42.610  36.056  36.357  1.00  0.00     0.029 A 
ATOM     70  C   UNL A   1      43.908  35.911  35.725  1.00  0.00     0.049 A 
ATOM     71  H   UNL A   1      44.402  34.548  34.212  1.00  0.00     0.167 HD
ATOM     72  C   UNL A   1      44.748  32.451  30.190  1.00  0.00     0.037 A 
ATOM     73  C   UNL A   1      45.077  36.579  35.909  1.00  0.00     0.037 A 
ATOM     74  C   UNL A   1      45.441  31.610  31.135  1.00  0.00     0.049 A 
ATOM     75  C   UNL A   1      46.136  35.778  35.227  1.00  0.00     0.074 A 
ATOM     76  C   UNL A   1      45.184  30.376  31.701  1.00  0.00     0.029 A 
ATOM     77  N   UNL A   1      46.390  32.203  31.935  1.00  0.00    -0.354 N 
ATOM     78  N   UNL A   1      46.500  34.583  35.613  1.00  0.00    -0.248 NA
ATOM     79  C   UNL A   1      46.429  36.094  33.835  1.00  0.00     0.031 C 
ATOM     80  C   UNL A   1      45.646  30.476  33.045  1.00  0.00     0.029 A 
ATOM     81  C   UNL A   1      46.219  31.738  33.216  1.00  0.00     0.049 A 
ATOM     82  H   UNL A   1      47.072  32.848  31.642  1.00  0.00     0.167 HD
ATOM     83  C   UNL A   1      46.684  33.863  34.438  1.00  0.00     0.074 A 
ATOM     84  C   UNL A   1      46.695  34.867  33.377  1.00  0.00     0.031 C 
ATOM     85  C   UNL A   1      46.516  32.507  34.407  1.00  0.00     0.037 A 
BRANCH  72  86
ATOM     86  C   UNL A   1      45.458  33.224  29.106  1.00  0.00     0.058 A 
ATOM     87  C   UNL A   1      45.961  32.527  27.993  1.00  0.00     0.135 A 
ATOM     88  C   UNL A   1      45.896  34.564  29.234  1.00  0.00     0.135 A 
ATOM     89  F   UNL A   1      45.626  31.244  27.783  1.00  0.00    -0.206 F 
ATOM     90  C   UNL A   1      46.879  33.097  27.111  1.00  0.00     0.059 A 
ATOM     91  C   UNL A   1      46.757  35.171  28.333  1.00  0.00     0.059 A 
ATOM     92  F   UNL A   1      45.598  35.329  30.290  1.00  0.00    -0.206 F 
ATOM     93  C   UNL A   1      47.279  34.417  27.299  1.00  0.00     0.060 A 
BRANCH  93  94
ATOM     94  S   UNL A   1      48.538  35.127  26.230  1.00  0.00     0.124 S 
ATOM     95  O   UNL A   1      48.101  34.657  24.920  1.00  0.00    -0.237 OA
ATOM     96  O   UNL A   1      48.381  36.554  26.487  1.00  0.00    -0.237 OA
ATOM     97  O   UNL A   1      49.776  34.537  26.733  1.00  0.00    -0.744 OA
ENDBRANCH  93  94
ENDBRANCH  72  86
BRANCH  73  98
ATOM     98  C   UNL A   1      45.252  38.018  36.255  1.00  0.00     0.058 A 
ATOM     99  C   UNL A   1      44.735  39.036  35.433  1.00  0.00     0.135 A 
ATOM    100  C   UNL A   1      45.686  38.422  37.535  1.00  0.00     0.135 A 
ATOM    101  F   UNL A   1      44.275  38.741  34.207  1.00  0.00    -0.206 F 
ATOM    102  C   UNL A   1      44.612  40.362  35.868  1.00  0.00     0.059 A 
ATOM    103  C   UNL A   1      45.584  39.737  37.987  1.00  0.00     0.059 A 
ATOM    104  F   UNL A   1      46.139  37.530  38.428  1.00  0.00    -0.206 F 
ATOM    105  C   UNL A   1      45.023  40.699  37.158  1.00  0.00     0.060 A 
BRANCH 105 106
ATOM    106  S   UNL A   1      44.716  42.366  37.789  1.00  0.00     0.124 S 
ATOM    107  O   UNL A   1      45.475  42.363  39.035  1.00  0.00    -0.237 OA
ATOM    108  O   UNL A   1      45.248  43.205  36.721  1.00  0.00    -0.237 OA
ATOM    109  O   UNL A   1      43.264  42.408  37.945  1.00  0.00    -0.744 OA
ENDBRANCH 105 106
ENDBRANCH  73  98
BRANCH  85 110
ATOM    110  C   UNL A   1      46.409  31.772  35.721  1.00  0.00     0.058 A 
ATOM    111  C   UNL A   1      47.510  31.379  36.505  1.00  0.00     0.135 A 
ATOM    112  C   UNL A   1      45.135  31.619  36.289  1.00  0.00     0.135 A 
ATOM    113  F   UNL A   1      48.764  31.582  36.077  1.00  0.00    -0.206 F 
ATOM    114  C   UNL A   1      47.349  30.835  37.782  1.00  0.00     0.059 A 
ATOM    115  C   UNL A   1      44.952  31.108  37.571  1.00  0.00     0.059 A 
ATOM    116  F   UNL A   1      44.048  32.032  35.617  1.00  0.00    -0.206 F 
ATOM    117  C   UNL A   1      46.064  30.711  38.310  1.00  0.00     0.060 A 
BRANCH 117 118
ATOM    118  S   UNL A   1      45.859  30.104  39.999  1.00  0.00     0.124 S 
ATOM    119  O   UNL A   1      44.467  30.436  40.280  1.00  0.00    -0.237 OA
ATOM    120  O   UNL A   1      46.157  28.680  39.863  1.00  0.00    -0.237 OA
ATOM    121  O   UNL A   1      46.849  30.865  40.758  1.00  0.00    -0.744 OA
ENDBRANCH 117 118
ENDBRANCH  85 110
ENDBRANCH  59  60
ENDBRANCH  52  54
ENDBRANCH  51  52
ENDBRANCH  50  51
ENDBRANCH  49  50
ENDBRANCH  48  49
ENDBRANCH  47  48
ENDBRANCH  46  47
ENDBRANCH  45  46
ENDBRANCH  44  45
ENDBRANCH  43  44
ENDBRANCH  42  43
ENDBRANCH   1  42
TORSDOF 35
ENDMDL
MODEL 3
REMARK VINA RESULT:      -5.3      4.096     10.338
REMARK SMILES NS(=O)(=O)c1ccc(-n2nc(NC(=O)NCCCCCCCCCCC(=O)OCCOCCOCCOC(=O)c3ccc(-c4c5nc(c(-c6c(F)cc(S(=O)(=O)[O-])cc6F)c6ccc([nH]6)c(-c6c(F)cc(S(=O)(=O)[O-])cc6F)c6nc(c(-c7c(F)cc(S(=O)(=O)[O-])cc7F)c7ccc4[nH]7)C=C6)C=C5)cc3)cc2-c2ccccc2)cc1
REMARK SMILES IDX 26 1 27 2 25 3 24 4 23 5 22 6 21 7 20 8 19 9 18 10 17 11
REMARK SMILES IDX 16 12 15 13 12 14 13 15 14 17 11 19 9 20 10 21 107 22 106 23
REMARK SMILES IDX 8 24 5 25 6 26 115 27 7 28 114 29 2 30 3 31 4 32 1 33 108 36
REMARK SMILES IDX 109 37 113 38 110 39 112 40 111 41 28 42 29 43 30 44 31 45
REMARK SMILES IDX 32 46 33 47 34 48 35 49 36 50 37 51 38 52 39 53 40 54 41 55
REMARK SMILES IDX 105 56 42 57 104 58 43 59 44 60 45 61 98 62 46 63 103 64
REMARK SMILES IDX 97 65 99 66 47 67 102 68 96 69 95 70 48 72 82 73 61 74 81 75
REMARK SMILES IDX 62 76 65 77 80 78 100 79 63 80 64 81 79 83 101 84 66 85
REMARK SMILES IDX 49 86 50 87 59 88 51 89 52 90 58 91 60 92 53 93 54 94 55 95
REMARK SMILES IDX 56 96 57 97 83 98 84 99 93 100 85 101 86 102 92 103 94 104
REMARK SMILES IDX 87 105 88 106 89 107 90 108 91 109 67 110 68 111 77 112
REMARK SMILES IDX 69 113 70 114 76 115 78 116 71 117 72 118 73 119 74 120
REMARK SMILES IDX 75 121
REMARK H PARENT 12 16 15 18 1 34 1 35 99 71 65 82
REMARK Flexibility Score: inf
ROOT
ATOM      1  C   UNL A   1      41.178  26.808  28.448  1.00  0.00     0.305 C 
ATOM      2  O   UNL A   1      40.074  26.832  28.979  1.00  0.00    -0.252 OA
ENDROOT
BRANCH   1   3
ATOM      3  C   UNL A   1      42.166  25.675  28.685  1.00  0.00     0.123 C 
BRANCH   3   4
ATOM      4  C   UNL A   1      43.668  25.991  28.710  1.00  0.00     0.012 C 
BRANCH   4   5
ATOM      5  C   UNL A   1      44.104  27.080  29.691  1.00  0.00     0.001 C 
BRANCH   5   6
ATOM      6  C   UNL A   1      45.567  26.973  30.102  1.00  0.00     0.000 C 
BRANCH   6   7
ATOM      7  C   UNL A   1      45.855  27.654  31.436  1.00  0.00     0.000 C 
BRANCH   7   8
ATOM      8  C   UNL A   1      44.657  28.417  32.004  1.00  0.00     0.000 C 
BRANCH   8   9
ATOM      9  C   UNL A   1      44.499  29.853  31.484  1.00  0.00     0.000 C 
BRANCH   9  10
ATOM     10  C   UNL A   1      43.116  30.192  30.912  1.00  0.00     0.002 C 
BRANCH  10  11
ATOM     11  C   UNL A   1      41.930  29.714  31.745  1.00  0.00     0.021 C 
BRANCH  11  12
ATOM     12  C   UNL A   1      41.868  30.293  33.146  1.00  0.00     0.117 C 
BRANCH  12  13
ATOM     13  N   UNL A   1      41.754  29.308  34.199  1.00  0.00    -0.338 N 
ATOM     14  N   UNL A   1      39.603  29.828  35.066  1.00  0.00    -0.291 N 
ATOM     15  C   UNL A   1      40.760  29.125  35.095  1.00  0.00     0.320 C 
ATOM     16  H   UNL A   1      39.141  29.889  35.934  1.00  0.00     0.173 HD
ATOM     17  O   UNL A   1      40.973  28.372  36.050  1.00  0.00    -0.248 OA
ATOM     18  H   UNL A   1      42.510  28.680  34.272  1.00  0.00     0.165 HD
BRANCH  14  19
ATOM     19  C   UNL A   1      38.964  30.474  34.032  1.00  0.00     0.157 A 
ATOM     20  N   UNL A   1      37.702  31.843  33.022  1.00  0.00    -0.231 N 
ATOM     21  N   UNL A   1      38.591  31.754  34.033  1.00  0.00    -0.149 NA
ATOM     22  C   UNL A   1      37.851  30.788  32.128  1.00  0.00     0.076 A 
ATOM     23  C   UNL A   1      38.642  29.870  32.796  1.00  0.00     0.078 A 
BRANCH  20  24
ATOM     24  C   UNL A   1      36.724  32.876  33.014  1.00  0.00     0.065 A 
ATOM     25  C   UNL A   1      34.784  34.865  32.812  1.00  0.00     0.082 A 
ATOM     26  C   UNL A   1      34.401  33.559  33.126  1.00  0.00     0.024 A 
ATOM     27  C   UNL A   1      36.134  35.195  32.653  1.00  0.00     0.024 A 
ATOM     28  C   UNL A   1      35.371  32.563  33.223  1.00  0.00     0.030 A 
ATOM     29  C   UNL A   1      37.112  34.201  32.781  1.00  0.00     0.030 A 
BRANCH  25  30
ATOM     30  S   UNL A   1      33.494  36.056  32.590  1.00  0.00     0.238 S 
ATOM     31  O   UNL A   1      33.678  37.097  33.579  1.00  0.00    -0.207 OA
ATOM     32  O   UNL A   1      32.253  35.337  32.438  1.00  0.00    -0.207 OA
BRANCH  30  33
ATOM     33  N   UNL A   1      33.807  36.767  31.107  1.00  0.00    -0.225 NA
ATOM     34  H   UNL A   1      34.069  36.047  30.434  1.00  0.00     0.137 HD
ATOM     35  H   UNL A   1      34.571  37.435  31.204  1.00  0.00     0.137 HD
ENDBRANCH  30  33
ENDBRANCH  25  30
ENDBRANCH  20  24
BRANCH  22  36
ATOM     36  C   UNL A   1      37.266  30.765  30.789  1.00  0.00     0.000 A 
ATOM     37  C   UNL A   1      37.227  31.946  30.028  1.00  0.00     0.010 A 
ATOM     38  C   UNL A   1      36.685  29.604  30.270  1.00  0.00     0.010 A 
ATOM     39  C   UNL A   1      36.571  31.982  28.800  1.00  0.00     0.001 A 
ATOM     40  C   UNL A   1      36.039  29.639  29.031  1.00  0.00     0.001 A 
ATOM     41  C   UNL A   1      35.972  30.828  28.305  1.00  0.00     0.000 A 
ENDBRANCH  22  36
ENDBRANCH  14  19
ENDBRANCH  12  13
ENDBRANCH  11  12
ENDBRANCH  10  11
ENDBRANCH   9  10
ENDBRANCH   8   9
ENDBRANCH   7   8
ENDBRANCH   6   7
ENDBRANCH   5   6
ENDBRANCH   4   5
ENDBRANCH   3   4
ENDBRANCH   1   3
BRANCH   1  42
ATOM     42  O   UNL A   1      41.621  27.719  27.553  1.00  0.00    -0.463 OA
BRANCH  42  43
ATOM     43  C   UNL A   1      41.533  27.407  26.154  1.00  0.00     0.261 C 
BRANCH  43  44
ATOM     44  C   UNL A   1      42.709  27.974  25.343  1.00  0.00     0.202 C 
BRANCH  44  45
ATOM     45  O   UNL A   1      43.727  28.621  26.105  1.00  0.00    -0.376 OA
BRANCH  45  46
ATOM     46  C   UNL A   1      45.075  28.390  25.686  1.00  0.00     0.188 C 
BRANCH  46  47
ATOM     47  C   UNL A   1      46.092  29.436  26.156  1.00  0.00     0.188 C 
BRANCH  47  48
ATOM     48  O   UNL A   1      45.650  30.774  25.973  1.00  0.00    -0.376 OA
BRANCH  48  49
ATOM     49  C   UNL A   1      45.211  31.580  27.065  1.00  0.00     0.202 C 
BRANCH  49  50
ATOM     50  C   UNL A   1      44.847  33.061  26.914  1.00  0.00     0.261 C 
BRANCH  50  51
ATOM     51  O   UNL A   1      44.468  33.732  28.099  1.00  0.00    -0.460 OA
BRANCH  51  52
ATOM     52  C   UNL A   1      43.727  34.854  28.016  1.00  0.00     0.338 C 
ATOM     53  O   UNL A   1      43.525  35.547  27.042  1.00  0.00    -0.246 OA
BRANCH  52  54
ATOM     54  C   UNL A   1      43.157  35.034  29.364  1.00  0.00     0.060 A 
ATOM     55  C   UNL A   1      43.681  36.054  30.147  1.00  0.00     0.016 A 
ATOM     56  C   UNL A   1      42.288  34.055  29.889  1.00  0.00     0.016 A 
ATOM     57  C   UNL A   1      43.635  35.879  31.509  1.00  0.00     0.010 A 
ATOM     58  C   UNL A   1      42.255  33.872  31.238  1.00  0.00     0.010 A 
ATOM     59  C   UNL A   1      43.053  34.709  32.001  1.00  0.00    -0.014 A 
BRANCH  59  60
ATOM     60  C   UNL A   1      43.361  34.302  33.348  1.00  0.00     0.031 A 
ATOM     61  C   UNL A   1      42.370  34.786  34.318  1.00  0.00     0.074 A 
ATOM     62  C   UNL A   1      44.399  33.476  33.588  1.00  0.00     0.049 A 
ATOM     63  N   UNL A   1      42.502  35.762  35.152  1.00  0.00    -0.248 NA
ATOM     64  C   UNL A   1      40.990  34.294  34.174  1.00  0.00     0.031 C 
ATOM     65  C   UNL A   1      45.228  32.746  32.621  1.00  0.00     0.029 A 
ATOM     66  N   UNL A   1      44.872  33.038  34.782  1.00  0.00    -0.354 N 
ATOM     67  C   UNL A   1      41.293  35.804  35.830  1.00  0.00     0.074 A 
ATOM     68  C   UNL A   1      40.343  35.105  35.010  1.00  0.00     0.031 C 
ATOM     69  C   UNL A   1      45.941  31.797  33.270  1.00  0.00     0.029 A 
ATOM     70  C   UNL A   1      45.717  31.935  34.697  1.00  0.00     0.049 A 
ATOM     71  H   UNL A   1      44.636  33.464  35.637  1.00  0.00     0.167 HD
ATOM     72  C   UNL A   1      41.253  36.099  37.157  1.00  0.00     0.037 A 
ATOM     73  C   UNL A   1      46.099  31.161  35.747  1.00  0.00     0.037 A 
ATOM     74  C   UNL A   1      42.474  36.738  37.585  1.00  0.00     0.049 A 
ATOM     75  C   UNL A   1      45.868  31.972  36.979  1.00  0.00     0.074 A 
ATOM     76  C   UNL A   1      43.142  37.891  37.219  1.00  0.00     0.029 A 
ATOM     77  N   UNL A   1      43.393  35.963  38.254  1.00  0.00    -0.354 N 
ATOM     78  N   UNL A   1      46.527  33.066  37.258  1.00  0.00    -0.248 NA
ATOM     79  C   UNL A   1      44.576  31.843  37.638  1.00  0.00     0.031 C 
ATOM     80  C   UNL A   1      44.526  37.559  37.286  1.00  0.00     0.029 A 
ATOM     81  C   UNL A   1      44.638  36.246  37.747  1.00  0.00     0.049 A 
ATOM     82  H   UNL A   1      43.195  35.319  38.970  1.00  0.00     0.167 HD
ATOM     83  C   UNL A   1      45.579  33.935  37.786  1.00  0.00     0.074 A 
ATOM     84  C   UNL A   1      44.412  33.100  38.060  1.00  0.00     0.031 C 
ATOM     85  C   UNL A   1      45.724  35.290  37.676  1.00  0.00     0.037 A 
BRANCH  72  86
ATOM     86  C   UNL A   1      40.291  35.443  38.117  1.00  0.00     0.058 A 
ATOM     87  C   UNL A   1      39.570  36.251  39.014  1.00  0.00     0.135 A 
ATOM     88  C   UNL A   1      40.241  34.052  38.374  1.00  0.00     0.135 A 
ATOM     89  F   UNL A   1      39.562  37.586  38.875  1.00  0.00    -0.206 F 
ATOM     90  C   UNL A   1      38.903  35.722  40.119  1.00  0.00     0.059 A 
ATOM     91  C   UNL A   1      39.531  33.500  39.430  1.00  0.00     0.059 A 
ATOM     92  F   UNL A   1      40.956  33.158  37.683  1.00  0.00    -0.206 F 
ATOM     93  C   UNL A   1      38.902  34.345  40.323  1.00  0.00     0.060 A 
BRANCH  93  94
ATOM     94  S   UNL A   1      38.134  33.665  41.800  1.00  0.00     0.124 S 
ATOM     95  O   UNL A   1      36.870  34.391  41.827  1.00  0.00    -0.237 OA
ATOM     96  O   UNL A   1      38.054  32.246  41.469  1.00  0.00    -0.237 OA
ATOM     97  O   UNL A   1      39.083  34.004  42.858  1.00  0.00    -0.744 OA
ENDBRANCH  93  94
ENDBRANCH  72  86
BRANCH  73  98
ATOM     98  C   UNL A   1      46.241  29.678  35.772  1.00  0.00     0.058 A 
ATOM     99  C   UNL A   1      45.117  28.837  35.871  1.00  0.00     0.135 A 
ATOM    100  C   UNL A   1      47.453  29.046  35.422  1.00  0.00     0.135 A 
ATOM    101  F   UNL A   1      43.916  29.354  36.175  1.00  0.00    -0.206 F 
ATOM    102  C   UNL A   1      45.180  27.464  35.596  1.00  0.00     0.059 A 
ATOM    103  C   UNL A   1      47.543  27.681  35.154  1.00  0.00     0.059 A 
ATOM    104  F   UNL A   1      48.577  29.754  35.239  1.00  0.00    -0.206 F 
ATOM    105  C   UNL A   1      46.398  26.899  35.218  1.00  0.00     0.060 A 
BRANCH 105 106
ATOM    106  S   UNL A   1      46.458  25.167  34.698  1.00  0.00     0.124 S 
ATOM    107  O   UNL A   1      47.849  25.023  34.286  1.00  0.00    -0.237 OA
ATOM    108  O   UNL A   1      46.079  24.464  35.919  1.00  0.00    -0.237 OA
ATOM    109  O   UNL A   1      45.478  25.103  33.617  1.00  0.00    -0.744 OA
ENDBRANCH 105 106
ENDBRANCH  73  98
BRANCH  85 110
ATOM    110  C   UNL A   1      47.061  35.829  37.229  1.00  0.00     0.058 A 
ATOM    111  C   UNL A   1      48.164  36.027  38.081  1.00  0.00     0.135 A 
ATOM    112  C   UNL A   1      47.284  35.984  35.853  1.00  0.00     0.135 A 
ATOM    113  F   UNL A   1      48.061  35.803  39.400  1.00  0.00    -0.206 F 
ATOM    114  C   UNL A   1      49.421  36.386  37.589  1.00  0.00     0.059 A 
ATOM    115  C   UNL A   1      48.534  36.312  35.337  1.00  0.00     0.059 A 
ATOM    116  F   UNL A   1      46.287  35.750  34.983  1.00  0.00    -0.206 F 
ATOM    117  C   UNL A   1      49.598  36.519  36.212  1.00  0.00     0.060 A 
BRANCH 117 118
ATOM    118  S   UNL A   1      51.245  36.884  35.565  1.00  0.00     0.124 S 
ATOM    119  O   UNL A   1      51.965  35.645  35.839  1.00  0.00    -0.237 OA
ATOM    120  O   UNL A   1      50.978  37.165  34.157  1.00  0.00    -0.237 OA
ATOM    121  O   UNL A   1      51.671  38.041  36.350  1.00  0.00    -0.744 OA
ENDBRANCH 117 118
ENDBRANCH  85 110
ENDBRANCH  59  60
ENDBRANCH  52  54
ENDBRANCH  51  52
ENDBRANCH  50  51
ENDBRANCH  49  50
ENDBRANCH  48  49
ENDBRANCH  47  48
ENDBRANCH  46  47
ENDBRANCH  45  46
ENDBRANCH  44  45
ENDBRANCH  43  44
ENDBRANCH  42  43
ENDBRANCH   1  42
TORSDOF 35
ENDMDL
