MODEL 1
REMARK VINA RESULT:     -10.6      0.000      0.000
REMARK SMILES Cc1cc2c(c(C)c1Cl)C=C(C(=O)OCCOCCOCCOC(=O)c1ccc(-c3c4nc(c(-c5c(F)cc(S(=O)(=O)[O-])cc5F)c5ccc([nH]5)c(-c5c(F)cc(S(=O)(=O)[O-])cc5F)c5nc(c(-c6c(F)cc(S(=O)(=O)[O-])cc6F)c6ccc3[nH]6)C=C5)C=C4)cc1)[C@@H](C(F)(F)F)O2
REMARK SMILES IDX 19 1 18 2 17 3 16 4 15 5 14 6 12 7 13 8 11 9 1 10 2 11 3 12
REMARK SMILES IDX 8 13 4 14 6 15 9 16 5 17 97 18 7 19 10 20 92 21 93 22 94 23
REMARK SMILES IDX 95 24 96 25 20 26 21 27 22 28 23 29 24 30 25 31 26 32 27 33
REMARK SMILES IDX 91 34 28 35 90 36 29 37 30 38 31 39 84 40 32 41 89 42 83 43
REMARK SMILES IDX 85 44 33 45 88 46 82 47 81 48 34 50 68 51 47 52 67 53 48 54
REMARK SMILES IDX 51 55 66 56 86 57 49 58 50 59 65 61 87 62 52 63 35 64 36 65
REMARK SMILES IDX 45 66 37 67 38 68 44 69 46 70 39 71 40 72 41 73 42 74 43 75
REMARK SMILES IDX 69 76 70 77 79 78 71 79 72 80 78 81 80 82 73 83 74 84 75 85
REMARK SMILES IDX 76 86 77 87 53 88 54 89 63 90 55 91 56 92 62 93 64 94 57 95
REMARK SMILES IDX 58 96 59 97 60 98 61 99
REMARK H PARENT 85 49 51 60
REMARK Flexibility Score: inf
ROOT
ATOM      1  C   UNL A   1      34.448  32.255  27.977  1.00  0.00     0.188 C 
ENDROOT
BRANCH   1   2
ATOM      2  C   UNL A   1      34.760  30.780  27.651  1.00  0.00     0.188 C 
BRANCH   2   3
ATOM      3  O   UNL A   1      33.883  30.014  26.851  1.00  0.00    -0.376 OA
BRANCH   3   4
ATOM      4  C   UNL A   1      32.500  30.315  26.780  1.00  0.00     0.202 C 
BRANCH   4   5
ATOM      5  C   UNL A   1      31.601  29.798  25.653  1.00  0.00     0.261 C 
BRANCH   5   6
ATOM      6  O   UNL A   1      31.382  28.383  25.671  1.00  0.00    -0.460 OA
BRANCH   6   7
ATOM      7  C   UNL A   1      31.033  27.850  24.477  1.00  0.00     0.338 C 
ATOM      8  O   UNL A   1      30.136  28.227  23.739  1.00  0.00    -0.246 OA
BRANCH   7   9
ATOM      9  C   UNL A   1      31.982  26.784  24.115  1.00  0.00     0.087 C 
ATOM     10  C   UNL A   1      36.588  22.271  24.109  1.00  0.00     0.046 C 
ATOM     11  C   UNL A   1      35.310  23.034  24.332  1.00  0.00    -0.028 A 
ATOM     12  C   UNL A   1      34.999  24.039  23.406  1.00  0.00     0.052 A 
ATOM     13  C   UNL A   1      34.461  22.846  25.440  1.00  0.00     0.047 A 
ATOM     14  C   UNL A   1      33.914  24.888  23.606  1.00  0.00     0.128 A 
ATOM     15  C   UNL A   1      33.324  23.668  25.633  1.00  0.00    -0.021 A 
ATOM     16  Cl  UNL A   1      34.851  21.613  26.599  1.00  0.00    -0.084 Cl
ATOM     17  C   UNL A   1      33.099  24.741  24.733  1.00  0.00     0.022 A 
ATOM     18  O   UNL A   1      33.745  25.843  22.642  1.00  0.00    -0.475 OA
ATOM     19  C   UNL A   1      32.366  23.443  26.784  1.00  0.00     0.047 C 
ATOM     20  C   UNL A   1      32.092  25.769  24.982  1.00  0.00     0.027 C 
ATOM     21  C   UNL A   1      32.770  26.896  22.846  1.00  0.00     0.316 C 
BRANCH  21  22
ATOM     22  C   UNL A   1      33.492  28.245  22.709  1.00  0.00     0.430 C 
ATOM     23  F   UNL A   1      32.618  29.241  22.419  1.00  0.00    -0.167 F 
ATOM     24  F   UNL A   1      34.114  28.605  23.857  1.00  0.00    -0.167 F 
ATOM     25  F   UNL A   1      34.425  28.230  21.730  1.00  0.00    -0.167 F 
ENDBRANCH  21  22
ENDBRANCH   7   9
ENDBRANCH   6   7
ENDBRANCH   5   6
ENDBRANCH   4   5
ENDBRANCH   3   4
ENDBRANCH   2   3
ENDBRANCH   1   2
BRANCH   1  26
ATOM     26  O   UNL A   1      35.396  33.277  27.743  1.00  0.00    -0.376 OA
BRANCH  26  27
ATOM     27  C   UNL A   1      36.075  33.883  28.829  1.00  0.00     0.202 C 
BRANCH  27  28
ATOM     28  C   UNL A   1      35.985  33.363  30.270  1.00  0.00     0.261 C 
BRANCH  28  29
ATOM     29  O   UNL A   1      37.135  32.663  30.753  1.00  0.00    -0.460 OA
BRANCH  29  30
ATOM     30  C   UNL A   1      37.000  31.313  30.793  1.00  0.00     0.338 C 
ATOM     31  O   UNL A   1      35.993  30.679  31.056  1.00  0.00    -0.246 OA
BRANCH  30  32
ATOM     32  C   UNL A   1      38.233  30.692  30.281  1.00  0.00     0.060 A 
ATOM     33  C   UNL A   1      39.252  30.389  31.194  1.00  0.00     0.016 A 
ATOM     34  C   UNL A   1      38.402  30.456  28.917  1.00  0.00     0.016 A 
ATOM     35  C   UNL A   1      40.459  29.863  30.739  1.00  0.00     0.010 A 
ATOM     36  C   UNL A   1      39.623  29.954  28.459  1.00  0.00     0.010 A 
ATOM     37  C   UNL A   1      40.663  29.680  29.365  1.00  0.00    -0.014 A 
BRANCH  37  38
ATOM     38  C   UNL A   1      42.018  29.370  28.857  1.00  0.00     0.031 A 
ATOM     39  C   UNL A   1      42.320  27.959  28.434  1.00  0.00     0.074 A 
ATOM     40  C   UNL A   1      42.957  30.327  28.760  1.00  0.00     0.049 A 
ATOM     41  N   UNL A   1      43.446  27.441  28.022  1.00  0.00    -0.248 NA
ATOM     42  C   UNL A   1      41.196  27.007  28.480  1.00  0.00     0.031 C 
ATOM     43  C   UNL A   1      42.765  31.739  29.086  1.00  0.00     0.029 A 
ATOM     44  N   UNL A   1      44.269  30.248  28.363  1.00  0.00    -0.354 N 
ATOM     45  C   UNL A   1      43.169  26.106  27.751  1.00  0.00     0.074 A 
ATOM     46  C   UNL A   1      41.776  25.887  28.073  1.00  0.00     0.031 C 
ATOM     47  C   UNL A   1      43.922  32.393  28.886  1.00  0.00     0.029 A 
ATOM     48  C   UNL A   1      44.944  31.441  28.452  1.00  0.00     0.049 A 
ATOM     49  H   UNL A   1      44.685  29.415  28.045  1.00  0.00     0.167 HD
ATOM     50  C   UNL A   1      44.000  25.152  27.271  1.00  0.00     0.037 A 
ATOM     51  C   UNL A   1      46.243  31.723  28.227  1.00  0.00     0.037 A 
ATOM     52  C   UNL A   1      45.391  25.370  26.975  1.00  0.00     0.049 A 
ATOM     53  C   UNL A   1      47.173  30.623  27.785  1.00  0.00     0.074 A 
ATOM     54  C   UNL A   1      46.325  24.460  26.512  1.00  0.00     0.029 A 
ATOM     55  N   UNL A   1      46.049  26.582  27.115  1.00  0.00    -0.354 N 
ATOM     56  N   UNL A   1      46.906  29.359  27.550  1.00  0.00    -0.248 NA
ATOM     57  C   UNL A   1      48.582  30.985  27.575  1.00  0.00     0.031 C 
ATOM     58  C   UNL A   1      47.558  25.113  26.411  1.00  0.00     0.029 A 
ATOM     59  C   UNL A   1      47.380  26.442  26.760  1.00  0.00     0.049 A 
ATOM     60  H   UNL A   1      45.632  27.420  27.422  1.00  0.00     0.167 HD
ATOM     61  C   UNL A   1      48.103  28.785  27.135  1.00  0.00     0.074 A 
ATOM     62  C   UNL A   1      49.097  29.839  27.149  1.00  0.00     0.031 C 
ATOM     63  C   UNL A   1      48.355  27.504  26.769  1.00  0.00     0.037 A 
BRANCH  50  64
ATOM     64  C   UNL A   1      43.429  23.780  27.057  1.00  0.00     0.058 A 
ATOM     65  C   UNL A   1      43.130  23.301  25.772  1.00  0.00     0.135 A 
ATOM     66  C   UNL A   1      43.213  22.919  28.145  1.00  0.00     0.135 A 
ATOM     67  F   UNL A   1      43.296  24.093  24.701  1.00  0.00    -0.206 F 
ATOM     68  C   UNL A   1      42.623  22.022  25.573  1.00  0.00     0.059 A 
ATOM     69  C   UNL A   1      42.728  21.626  27.967  1.00  0.00     0.059 A 
ATOM     70  F   UNL A   1      43.475  23.330  29.395  1.00  0.00    -0.206 F 
ATOM     71  C   UNL A   1      42.428  21.190  26.678  1.00  0.00     0.060 A 
BRANCH  71  72
ATOM     72  S   UNL A   1      41.782  19.527  26.399  1.00  0.00     0.124 S 
ATOM     73  O   UNL A   1      40.345  19.775  26.360  1.00  0.00    -0.237 OA
ATOM     74  O   UNL A   1      42.399  19.164  25.127  1.00  0.00    -0.237 OA
ATOM     75  O   UNL A   1      42.257  18.779  27.559  1.00  0.00    -0.744 OA
ENDBRANCH  71  72
ENDBRANCH  50  64
BRANCH  51  76
ATOM     76  C   UNL A   1      46.744  33.111  28.417  1.00  0.00     0.058 A 
ATOM     77  C   UNL A   1      46.760  34.024  27.353  1.00  0.00     0.135 A 
ATOM     78  C   UNL A   1      47.207  33.553  29.666  1.00  0.00     0.135 A 
ATOM     79  F   UNL A   1      46.340  33.642  26.137  1.00  0.00    -0.206 F 
ATOM     80  C   UNL A   1      47.221  35.325  27.517  1.00  0.00     0.059 A 
ATOM     81  C   UNL A   1      47.651  34.858  29.860  1.00  0.00     0.059 A 
ATOM     82  F   UNL A   1      47.206  32.720  30.718  1.00  0.00    -0.206 F 
ATOM     83  C   UNL A   1      47.659  35.735  28.778  1.00  0.00     0.060 A 
BRANCH  83  84
ATOM     84  S   UNL A   1      48.198  37.446  28.991  1.00  0.00     0.124 S 
ATOM     85  O   UNL A   1      48.722  37.422  30.351  1.00  0.00    -0.237 OA
ATOM     86  O   UNL A   1      49.188  37.587  27.927  1.00  0.00    -0.237 OA
ATOM     87  O   UNL A   1      46.970  38.211  28.800  1.00  0.00    -0.744 OA
ENDBRANCH  83  84
ENDBRANCH  51  76
BRANCH  63  88
ATOM     88  C   UNL A   1      49.748  27.169  26.308  1.00  0.00     0.058 A 
ATOM     89  C   UNL A   1      50.756  26.791  27.207  1.00  0.00     0.135 A 
ATOM     90  C   UNL A   1      50.055  27.161  24.936  1.00  0.00     0.135 A 
ATOM     91  F   UNL A   1      50.514  26.785  28.528  1.00  0.00    -0.206 F 
ATOM     92  C   UNL A   1      52.026  26.435  26.766  1.00  0.00     0.059 A 
ATOM     93  C   UNL A   1      51.311  26.786  24.471  1.00  0.00     0.059 A 
ATOM     94  F   UNL A   1      49.123  27.503  24.033  1.00  0.00    -0.206 F 
ATOM     95  C   UNL A   1      52.294  26.433  25.396  1.00  0.00     0.060 A 
BRANCH  95  96
ATOM     96  S   UNL A   1      53.937  25.936  24.835  1.00  0.00     0.124 S 
ATOM     97  O   UNL A   1      54.093  26.744  23.630  1.00  0.00    -0.237 OA
ATOM     98  O   UNL A   1      54.780  26.316  25.965  1.00  0.00    -0.237 OA
ATOM     99  O   UNL A   1      53.803  24.500  24.614  1.00  0.00    -0.744 OA
ENDBRANCH  95  96
ENDBRANCH  63  88
ENDBRANCH  37  38
ENDBRANCH  30  32
ENDBRANCH  29  30
ENDBRANCH  28  29
ENDBRANCH  27  28
ENDBRANCH  26  27
ENDBRANCH   1  26
TORSDOF 21
ENDMDL
MODEL 2
REMARK VINA RESULT:     -10.5      6.181     11.499
REMARK SMILES Cc1cc2c(c(C)c1Cl)C=C(C(=O)OCCOCCOCCOC(=O)c1ccc(-c3c4nc(c(-c5c(F)cc(S(=O)(=O)[O-])cc5F)c5ccc([nH]5)c(-c5c(F)cc(S(=O)(=O)[O-])cc5F)c5nc(c(-c6c(F)cc(S(=O)(=O)[O-])cc6F)c6ccc3[nH]6)C=C5)C=C4)cc1)[C@@H](C(F)(F)F)O2
REMARK SMILES IDX 19 1 18 2 17 3 16 4 15 5 14 6 12 7 13 8 11 9 1 10 2 11 3 12
REMARK SMILES IDX 8 13 4 14 6 15 9 16 5 17 97 18 7 19 10 20 92 21 93 22 94 23
REMARK SMILES IDX 95 24 96 25 20 26 21 27 22 28 23 29 24 30 25 31 26 32 27 33
REMARK SMILES IDX 91 34 28 35 90 36 29 37 30 38 31 39 84 40 32 41 89 42 83 43
REMARK SMILES IDX 85 44 33 45 88 46 82 47 81 48 34 50 68 51 47 52 67 53 48 54
REMARK SMILES IDX 51 55 66 56 86 57 49 58 50 59 65 61 87 62 52 63 35 64 36 65
REMARK SMILES IDX 45 66 37 67 38 68 44 69 46 70 39 71 40 72 41 73 42 74 43 75
REMARK SMILES IDX 69 76 70 77 79 78 71 79 72 80 78 81 80 82 73 83 74 84 75 85
REMARK SMILES IDX 76 86 77 87 53 88 54 89 63 90 55 91 56 92 62 93 64 94 57 95
REMARK SMILES IDX 58 96 59 97 60 98 61 99
REMARK H PARENT 85 49 51 60
REMARK Flexibility Score: inf
ROOT
ATOM      1  C   UNL A   1      39.585  21.072  26.129  1.00  0.00     0.188 C 
ENDROOT
BRANCH   1   2
ATOM      2  C   UNL A   1      38.374  21.888  25.631  1.00  0.00     0.188 C 
BRANCH   2   3
ATOM      3  O   UNL A   1      37.057  21.406  25.803  1.00  0.00    -0.376 OA
BRANCH   3   4
ATOM      4  C   UNL A   1      36.187  21.231  24.698  1.00  0.00     0.202 C 
BRANCH   4   5
ATOM      5  C   UNL A   1      34.794  21.864  24.639  1.00  0.00     0.261 C 
BRANCH   5   6
ATOM      6  O   UNL A   1      34.789  23.294  24.708  1.00  0.00    -0.460 OA
BRANCH   6   7
ATOM      7  C   UNL A   1      33.891  23.814  25.577  1.00  0.00     0.338 C 
ATOM      8  O   UNL A   1      33.700  23.464  26.731  1.00  0.00    -0.246 OA
BRANCH   7   9
ATOM      9  C   UNL A   1      33.224  24.975  24.963  1.00  0.00     0.087 C 
ATOM     10  C   UNL A   1      29.800  30.318  23.820  1.00  0.00     0.046 C 
ATOM     11  C   UNL A   1      30.861  29.346  24.262  1.00  0.00    -0.028 A 
ATOM     12  C   UNL A   1      30.944  28.133  23.563  1.00  0.00     0.052 A 
ATOM     13  C   UNL A   1      31.711  29.552  25.366  1.00  0.00     0.047 A 
ATOM     14  C   UNL A   1      31.797  27.118  23.987  1.00  0.00     0.128 A 
ATOM     15  C   UNL A   1      32.621  28.550  25.780  1.00  0.00    -0.021 A 
ATOM     16  Cl  UNL A   1      31.600  31.045  26.245  1.00  0.00    -0.084 Cl
ATOM     17  C   UNL A   1      32.604  27.297  25.114  1.00  0.00     0.022 A 
ATOM     18  O   UNL A   1      31.755  25.979  23.232  1.00  0.00    -0.475 OA
ATOM     19  C   UNL A   1      33.585  28.775  26.926  1.00  0.00     0.047 C 
ATOM     20  C   UNL A   1      33.339  26.138  25.615  1.00  0.00     0.027 C 
ATOM     21  C   UNL A   1      32.453  24.794  23.691  1.00  0.00     0.316 C 
BRANCH  21  22
ATOM     22  C   UNL A   1      31.438  23.644  23.765  1.00  0.00     0.430 C 
ATOM     23  F   UNL A   1      31.979  22.485  23.312  1.00  0.00    -0.167 F 
ATOM     24  F   UNL A   1      31.035  23.405  25.036  1.00  0.00    -0.167 F 
ATOM     25  F   UNL A   1      30.332  23.888  23.028  1.00  0.00    -0.167 F 
ENDBRANCH  21  22
ENDBRANCH   7   9
ENDBRANCH   6   7
ENDBRANCH   5   6
ENDBRANCH   4   5
ENDBRANCH   3   4
ENDBRANCH   2   3
ENDBRANCH   1   2
BRANCH   1  26
ATOM     26  O   UNL A   1      40.111  21.254  27.428  1.00  0.00    -0.376 OA
BRANCH  26  27
ATOM     27  C   UNL A   1      41.470  21.617  27.604  1.00  0.00     0.202 C 
BRANCH  27  28
ATOM     28  C   UNL A   1      42.234  22.510  26.618  1.00  0.00     0.261 C 
BRANCH  28  29
ATOM     29  O   UNL A   1      41.553  23.690  26.189  1.00  0.00    -0.460 OA
BRANCH  29  30
ATOM     30  C   UNL A   1      42.341  24.789  26.074  1.00  0.00     0.338 C 
ATOM     31  O   UNL A   1      43.193  25.001  25.229  1.00  0.00    -0.246 OA
BRANCH  30  32
ATOM     32  C   UNL A   1      41.889  25.808  27.037  1.00  0.00     0.060 A 
ATOM     33  C   UNL A   1      42.556  27.040  27.061  1.00  0.00     0.016 A 
ATOM     34  C   UNL A   1      40.856  25.535  27.934  1.00  0.00     0.016 A 
ATOM     35  C   UNL A   1      42.200  28.003  28.003  1.00  0.00     0.010 A 
ATOM     36  C   UNL A   1      40.520  26.492  28.895  1.00  0.00     0.010 A 
ATOM     37  C   UNL A   1      41.208  27.717  28.949  1.00  0.00    -0.014 A 
BRANCH  37  38
ATOM     38  C   UNL A   1      41.007  28.623  30.102  1.00  0.00     0.031 A 
ATOM     39  C   UNL A   1      41.894  28.462  31.304  1.00  0.00     0.074 A 
ATOM     40  C   UNL A   1      40.064  29.582  30.073  1.00  0.00     0.049 A 
ATOM     41  N   UNL A   1      41.862  29.093  32.448  1.00  0.00    -0.248 NA
ATOM     42  C   UNL A   1      42.964  27.455  31.199  1.00  0.00     0.031 C 
ATOM     43  C   UNL A   1      39.183  29.869  28.942  1.00  0.00     0.029 A 
ATOM     44  N   UNL A   1      39.687  30.487  31.033  1.00  0.00    -0.354 N 
ATOM     45  C   UNL A   1      42.908  28.568  33.197  1.00  0.00     0.074 A 
ATOM     46  C   UNL A   1      43.539  27.547  32.389  1.00  0.00     0.031 C 
ATOM     47  C   UNL A   1      38.359  30.877  29.279  1.00  0.00     0.029 A 
ATOM     48  C   UNL A   1      38.631  31.280  30.658  1.00  0.00     0.049 A 
ATOM     49  H   UNL A   1      40.132  30.559  31.908  1.00  0.00     0.167 HD
ATOM     50  C   UNL A   1      43.311  28.911  34.443  1.00  0.00     0.037 A 
ATOM     51  C   UNL A   1      37.951  32.211  31.358  1.00  0.00     0.037 A 
ATOM     52  C   UNL A   1      42.665  29.911  35.250  1.00  0.00     0.049 A 
ATOM     53  C   UNL A   1      38.356  32.509  32.778  1.00  0.00     0.074 A 
ATOM     54  C   UNL A   1      42.979  30.313  36.538  1.00  0.00     0.029 A 
ATOM     55  N   UNL A   1      41.573  30.667  34.851  1.00  0.00    -0.354 N 
ATOM     56  N   UNL A   1      39.335  31.993  33.485  1.00  0.00    -0.248 NA
ATOM     57  C   UNL A   1      37.565  33.517  33.499  1.00  0.00     0.031 C 
ATOM     58  C   UNL A   1      42.050  31.282  36.931  1.00  0.00     0.029 A 
ATOM     59  C   UNL A   1      41.191  31.523  35.871  1.00  0.00     0.049 A 
ATOM     60  H   UNL A   1      41.133  30.604  33.972  1.00  0.00     0.167 HD
ATOM     61  C   UNL A   1      39.298  32.636  34.718  1.00  0.00     0.074 A 
ATOM     62  C   UNL A   1      38.200  33.580  34.662  1.00  0.00     0.031 C 
ATOM     63  C   UNL A   1      40.103  32.466  35.795  1.00  0.00     0.037 A 
BRANCH  50  64
ATOM     64  C   UNL A   1      44.493  28.183  35.014  1.00  0.00     0.058 A 
ATOM     65  C   UNL A   1      45.798  28.681  34.878  1.00  0.00     0.135 A 
ATOM     66  C   UNL A   1      44.317  26.993  35.739  1.00  0.00     0.135 A 
ATOM     67  F   UNL A   1      46.023  29.802  34.175  1.00  0.00    -0.206 F 
ATOM     68  C   UNL A   1      46.890  28.018  35.428  1.00  0.00     0.059 A 
ATOM     69  C   UNL A   1      45.392  26.326  36.317  1.00  0.00     0.059 A 
ATOM     70  F   UNL A   1      43.090  26.470  35.892  1.00  0.00    -0.206 F 
ATOM     71  C   UNL A   1      46.675  26.842  36.149  1.00  0.00     0.060 A 
BRANCH  71  72
ATOM     72  S   UNL A   1      48.103  26.001  36.868  1.00  0.00     0.124 S 
ATOM     73  O   UNL A   1      49.175  26.431  35.976  1.00  0.00    -0.237 OA
ATOM     74  O   UNL A   1      48.140  26.555  38.218  1.00  0.00    -0.237 OA
ATOM     75  O   UNL A   1      47.745  24.589  36.782  1.00  0.00    -0.744 OA
ENDBRANCH  71  72
ENDBRANCH  50  64
BRANCH  51  76
ATOM     76  C   UNL A   1      36.812  32.929  30.725  1.00  0.00     0.058 A 
ATOM     77  C   UNL A   1      35.489  32.527  30.956  1.00  0.00     0.135 A 
ATOM     78  C   UNL A   1      37.024  34.035  29.887  1.00  0.00     0.135 A 
ATOM     79  F   UNL A   1      35.238  31.466  31.738  1.00  0.00    -0.206 F 
ATOM     80  C   UNL A   1      34.414  33.191  30.375  1.00  0.00     0.059 A 
ATOM     81  C   UNL A   1      35.964  34.730  29.314  1.00  0.00     0.059 A 
ATOM     82  F   UNL A   1      38.271  34.463  29.640  1.00  0.00    -0.206 F 
ATOM     83  C   UNL A   1      34.662  34.297  29.560  1.00  0.00     0.060 A 
BRANCH  83  84
ATOM     84  S   UNL A   1      33.255  35.188  28.860  1.00  0.00     0.124 S 
ATOM     85  O   UNL A   1      33.920  36.216  28.069  1.00  0.00    -0.237 OA
ATOM     86  O   UNL A   1      32.576  34.139  28.106  1.00  0.00    -0.237 OA
ATOM     87  O   UNL A   1      32.539  35.665  30.040  1.00  0.00    -0.744 OA
ENDBRANCH  83  84
ENDBRANCH  51  76
BRANCH  63  88
ATOM     88  C   UNL A   1      39.865  33.345  36.994  1.00  0.00     0.058 A 
ATOM     89  C   UNL A   1      40.523  34.572  37.155  1.00  0.00     0.135 A 
ATOM     90  C   UNL A   1      38.909  32.980  37.958  1.00  0.00     0.135 A 
ATOM     91  F   UNL A   1      41.447  34.966  36.264  1.00  0.00    -0.206 F 
ATOM     92  C   UNL A   1      40.259  35.400  38.242  1.00  0.00     0.059 A 
ATOM     93  C   UNL A   1      38.611  33.803  39.039  1.00  0.00     0.059 A 
ATOM     94  F   UNL A   1      38.242  31.821  37.844  1.00  0.00    -0.206 F 
ATOM     95  C   UNL A   1      39.299  35.009  39.177  1.00  0.00     0.060 A 
BRANCH  95  96
ATOM     96  S   UNL A   1      38.941  36.108  40.563  1.00  0.00     0.124 S 
ATOM     97  O   UNL A   1      38.656  37.364  39.877  1.00  0.00    -0.237 OA
ATOM     98  O   UNL A   1      37.795  35.456  41.191  1.00  0.00    -0.237 OA
ATOM     99  O   UNL A   1      40.173  36.086  41.345  1.00  0.00    -0.744 OA
ENDBRANCH  95  96
ENDBRANCH  63  88
ENDBRANCH  37  38
ENDBRANCH  30  32
ENDBRANCH  29  30
ENDBRANCH  28  29
ENDBRANCH  27  28
ENDBRANCH  26  27
ENDBRANCH   1  26
TORSDOF 21
ENDMDL
MODEL 3
REMARK VINA RESULT:     -10.3      6.868     12.099
REMARK SMILES Cc1cc2c(c(C)c1Cl)C=C(C(=O)OCCOCCOCCOC(=O)c1ccc(-c3c4nc(c(-c5c(F)cc(S(=O)(=O)[O-])cc5F)c5ccc([nH]5)c(-c5c(F)cc(S(=O)(=O)[O-])cc5F)c5nc(c(-c6c(F)cc(S(=O)(=O)[O-])cc6F)c6ccc3[nH]6)C=C5)C=C4)cc1)[C@@H](C(F)(F)F)O2
REMARK SMILES IDX 19 1 18 2 17 3 16 4 15 5 14 6 12 7 13 8 11 9 1 10 2 11 3 12
REMARK SMILES IDX 8 13 4 14 6 15 9 16 5 17 97 18 7 19 10 20 92 21 93 22 94 23
REMARK SMILES IDX 95 24 96 25 20 26 21 27 22 28 23 29 24 30 25 31 26 32 27 33
REMARK SMILES IDX 91 34 28 35 90 36 29 37 30 38 31 39 84 40 32 41 89 42 83 43
REMARK SMILES IDX 85 44 33 45 88 46 82 47 81 48 34 50 68 51 47 52 67 53 48 54
REMARK SMILES IDX 51 55 66 56 86 57 49 58 50 59 65 61 87 62 52 63 35 64 36 65
REMARK SMILES IDX 45 66 37 67 38 68 44 69 46 70 39 71 40 72 41 73 42 74 43 75
REMARK SMILES IDX 69 76 70 77 79 78 71 79 72 80 78 81 80 82 73 83 74 84 75 85
REMARK SMILES IDX 76 86 77 87 53 88 54 89 63 90 55 91 56 92 62 93 64 94 57 95
REMARK SMILES IDX 58 96 59 97 60 98 61 99
REMARK H PARENT 85 49 51 60
REMARK Flexibility Score: inf
ROOT
ATOM      1  C   UNL A   1      36.554  20.811  25.090  1.00  0.00     0.188 C 
ENDROOT
BRANCH   1   2
ATOM      2  C   UNL A   1      35.079  20.781  24.638  1.00  0.00     0.188 C 
BRANCH   2   3
ATOM      3  O   UNL A   1      34.079  20.229  25.470  1.00  0.00    -0.376 OA
BRANCH   3   4
ATOM      4  C   UNL A   1      33.254  21.053  26.276  1.00  0.00     0.202 C 
BRANCH   4   5
ATOM      5  C   UNL A   1      33.824  22.065  27.272  1.00  0.00     0.261 C 
BRANCH   5   6
ATOM      6  O   UNL A   1      33.634  23.435  26.901  1.00  0.00    -0.460 OA
BRANCH   6   7
ATOM      7  C   UNL A   1      32.340  23.832  26.848  1.00  0.00     0.338 C 
ATOM      8  O   UNL A   1      31.441  23.501  27.603  1.00  0.00    -0.246 OA
BRANCH   7   9
ATOM      9  C   UNL A   1      32.176  24.838  25.785  1.00  0.00     0.087 C 
ATOM     10  C   UNL A   1      30.252  29.780  22.117  1.00  0.00     0.046 C 
ATOM     11  C   UNL A   1      30.856  28.936  23.208  1.00  0.00    -0.028 A 
ATOM     12  C   UNL A   1      31.192  27.616  22.878  1.00  0.00     0.052 A 
ATOM     13  C   UNL A   1      31.030  29.369  24.536  1.00  0.00     0.047 A 
ATOM     14  C   UNL A   1      31.625  26.721  23.852  1.00  0.00     0.128 A 
ATOM     15  C   UNL A   1      31.517  28.487  25.531  1.00  0.00    -0.021 A 
ATOM     16  Cl  UNL A   1      30.598  30.998  24.954  1.00  0.00    -0.084 Cl
ATOM     17  C   UNL A   1      31.748  27.131  25.184  1.00  0.00     0.022 A 
ATOM     18  O   UNL A   1      31.889  25.459  23.398  1.00  0.00    -0.475 OA
ATOM     19  C   UNL A   1      31.769  28.949  26.950  1.00  0.00     0.047 C 
ATOM     20  C   UNL A   1      32.029  26.106  26.187  1.00  0.00     0.027 C 
ATOM     21  C   UNL A   1      32.158  24.400  24.351  1.00  0.00     0.316 C 
BRANCH  21  22
ATOM     22  C   UNL A   1      31.164  23.260  24.088  1.00  0.00     0.430 C 
ATOM     23  F   UNL A   1      30.401  23.012  25.182  1.00  0.00    -0.167 F 
ATOM     24  F   UNL A   1      30.305  23.558  23.084  1.00  0.00    -0.167 F 
ATOM     25  F   UNL A   1      31.785  22.105  23.759  1.00  0.00    -0.167 F 
ENDBRANCH  21  22
ENDBRANCH   7   9
ENDBRANCH   6   7
ENDBRANCH   5   6
ENDBRANCH   4   5
ENDBRANCH   3   4
ENDBRANCH   2   3
ENDBRANCH   1   2
BRANCH   1  26
ATOM     26  O   UNL A   1      37.047  21.839  25.925  1.00  0.00    -0.376 OA
BRANCH  26  27
ATOM     27  C   UNL A   1      38.379  22.303  25.775  1.00  0.00     0.202 C 
BRANCH  27  28
ATOM     28  C   UNL A   1      38.840  23.692  26.234  1.00  0.00     0.261 C 
BRANCH  28  29
ATOM     29  O   UNL A   1      39.937  23.714  27.149  1.00  0.00    -0.460 OA
BRANCH  29  30
ATOM     30  C   UNL A   1      40.831  24.713  26.938  1.00  0.00     0.338 C 
ATOM     31  O   UNL A   1      41.618  24.816  26.013  1.00  0.00    -0.246 OA
BRANCH  30  32
ATOM     32  C   UNL A   1      40.591  25.787  27.916  1.00  0.00     0.060 A 
ATOM     33  C   UNL A   1      41.498  26.855  27.965  1.00  0.00     0.016 A 
ATOM     34  C   UNL A   1      39.516  25.720  28.802  1.00  0.00     0.016 A 
ATOM     35  C   UNL A   1      41.341  27.855  28.922  1.00  0.00     0.010 A 
ATOM     36  C   UNL A   1      39.376  26.710  29.777  1.00  0.00     0.010 A 
ATOM     37  C   UNL A   1      40.302  27.766  29.857  1.00  0.00    -0.014 A 
BRANCH  37  38
ATOM     38  C   UNL A   1      40.282  28.676  31.024  1.00  0.00     0.031 A 
ATOM     39  C   UNL A   1      39.326  29.836  31.012  1.00  0.00     0.074 A 
ATOM     40  C   UNL A   1      41.087  28.466  32.080  1.00  0.00     0.049 A 
ATOM     41  N   UNL A   1      39.176  30.795  31.887  1.00  0.00    -0.248 NA
ATOM     42  C   UNL A   1      38.412  29.921  29.860  1.00  0.00     0.031 C 
ATOM     43  C   UNL A   1      42.014  27.345  32.229  1.00  0.00     0.029 A 
ATOM     44  N   UNL A   1      41.257  29.199  33.228  1.00  0.00    -0.354 N 
ATOM     45  C   UNL A   1      38.150  31.594  31.397  1.00  0.00     0.074 A 
ATOM     46  C   UNL A   1      37.733  31.024  30.135  1.00  0.00     0.031 C 
ATOM     47  C   UNL A   1      42.664  27.472  33.399  1.00  0.00     0.029 A 
ATOM     48  C   UNL A   1      42.225  28.698  34.063  1.00  0.00     0.049 A 
ATOM     49  H   UNL A   1      40.734  30.008  33.432  1.00  0.00     0.167 HD
ATOM     50  C   UNL A   1      37.602  32.700  31.953  1.00  0.00     0.037 A 
ATOM     51  C   UNL A   1      42.713  29.188  35.221  1.00  0.00     0.037 A 
ATOM     52  C   UNL A   1      38.037  33.275  33.198  1.00  0.00     0.049 A 
ATOM     53  C   UNL A   1      42.154  30.473  35.773  1.00  0.00     0.074 A 
ATOM     54  C   UNL A   1      37.565  34.412  33.832  1.00  0.00     0.029 A 
ATOM     55  N   UNL A   1      39.049  32.762  33.997  1.00  0.00    -0.354 N 
ATOM     56  N   UNL A   1      41.196  31.233  35.293  1.00  0.00    -0.248 NA
ATOM     57  C   UNL A   1      42.739  30.971  37.027  1.00  0.00     0.031 C 
ATOM     58  C   UNL A   1      38.319  34.607  34.994  1.00  0.00     0.029 A 
ATOM     59  C   UNL A   1      39.225  33.565  35.111  1.00  0.00     0.049 A 
ATOM     60  H   UNL A   1      39.565  31.948  33.800  1.00  0.00     0.167 HD
ATOM     61  C   UNL A   1      41.043  32.276  36.200  1.00  0.00     0.074 A 
ATOM     62  C   UNL A   1      42.005  32.051  37.260  1.00  0.00     0.031 C 
ATOM     63  C   UNL A   1      40.180  33.321  36.163  1.00  0.00     0.037 A 
BRANCH  50  64
ATOM     64  C   UNL A   1      36.484  33.369  31.207  1.00  0.00     0.058 A 
ATOM     65  C   UNL A   1      35.161  33.326  31.674  1.00  0.00     0.135 A 
ATOM     66  C   UNL A   1      36.742  34.093  30.033  1.00  0.00     0.135 A 
ATOM     67  F   UNL A   1      34.857  32.628  32.779  1.00  0.00    -0.206 F 
ATOM     68  C   UNL A   1      34.130  33.966  30.994  1.00  0.00     0.059 A 
ATOM     69  C   UNL A   1      35.730  34.760  29.349  1.00  0.00     0.059 A 
ATOM     70  F   UNL A   1      37.989  34.159  29.539  1.00  0.00    -0.206 F 
ATOM     71  C   UNL A   1      34.426  34.684  29.834  1.00  0.00     0.060 A 
BRANCH  71  72
ATOM     72  S   UNL A   1      33.077  35.520  28.972  1.00  0.00     0.124 S 
ATOM     73  O   UNL A   1      33.802  36.531  28.208  1.00  0.00    -0.237 OA
ATOM     74  O   UNL A   1      32.489  34.436  28.192  1.00  0.00    -0.237 OA
ATOM     75  O   UNL A   1      32.246  36.031  30.057  1.00  0.00    -0.744 OA
ENDBRANCH  71  72
ENDBRANCH  50  64
BRANCH  51  76
ATOM     76  C   UNL A   1      43.794  28.460  35.937  1.00  0.00     0.058 A 
ATOM     77  C   UNL A   1      45.143  28.775  35.718  1.00  0.00     0.135 A 
ATOM     78  C   UNL A   1      43.501  27.444  36.859  1.00  0.00     0.135 A 
ATOM     79  F   UNL A   1      45.473  29.729  34.834  1.00  0.00    -0.206 F 
ATOM     80  C   UNL A   1      46.165  28.106  36.383  1.00  0.00     0.059 A 
ATOM     81  C   UNL A   1      44.505  26.776  37.555  1.00  0.00     0.059 A 
ATOM     82  F   UNL A   1      42.226  27.109  37.109  1.00  0.00    -0.206 F 
ATOM     83  C   UNL A   1      45.835  27.111  37.305  1.00  0.00     0.060 A 
BRANCH  83  84
ATOM     84  S   UNL A   1      47.169  26.292  38.207  1.00  0.00     0.124 S 
ATOM     85  O   UNL A   1      47.457  27.265  39.255  1.00  0.00    -0.237 OA
ATOM     86  O   UNL A   1      46.527  25.056  38.641  1.00  0.00    -0.237 OA
ATOM     87  O   UNL A   1      48.208  26.130  37.194  1.00  0.00    -0.744 OA
ENDBRANCH  83  84
ENDBRANCH  51  76
BRANCH  63  88
ATOM     88  C   UNL A   1      40.196  34.284  37.320  1.00  0.00     0.058 A 
ATOM     89  C   UNL A   1      40.943  35.470  37.286  1.00  0.00     0.135 A 
ATOM     90  C   UNL A   1      39.396  34.044  38.450  1.00  0.00     0.135 A 
ATOM     91  F   UNL A   1      41.726  35.745  36.231  1.00  0.00    -0.206 F 
ATOM     92  C   UNL A   1      40.912  36.377  38.340  1.00  0.00     0.059 A 
ATOM     93  C   UNL A   1      39.330  34.948  39.505  1.00  0.00     0.059 A 
ATOM     94  F   UNL A   1      38.652  32.929  38.527  1.00  0.00    -0.206 F 
ATOM     95  C   UNL A   1      40.101  36.110  39.445  1.00  0.00     0.060 A 
BRANCH  95  96
ATOM     96  S   UNL A   1      40.044  37.311  40.790  1.00  0.00     0.124 S 
ATOM     97  O   UNL A   1      40.000  36.441  41.961  1.00  0.00    -0.237 OA
ATOM     98  O   UNL A   1      41.288  38.053  40.599  1.00  0.00    -0.237 OA
ATOM     99  O   UNL A   1      38.824  38.066  40.523  1.00  0.00    -0.744 OA
ENDBRANCH  95  96
ENDBRANCH  63  88
ENDBRANCH  37  38
ENDBRANCH  30  32
ENDBRANCH  29  30
ENDBRANCH  28  29
ENDBRANCH  27  28
ENDBRANCH  26  27
ENDBRANCH   1  26
TORSDOF 21
ENDMDL
