MODEL 1
REMARK VINA RESULT:     -11.4      0.000      0.000
REMARK SMILES CC1(C)[C@H](O)CC[C@@]2(C)[C@H]3Cc4c(oc(C(=O)OCCOCCOCCOC(=O)c5ccc(-c6c7nc(c(-c8c(F)cc(S(=O)(=O)[O-])cc8F)c8ccc([nH]8)c(-c8c(F)cc(S(=O)(=O)[O-])cc8F)c8nc(c(-c9c(F)cc(S(=O)(=O)[O-])cc9F)c9ccc6[nH]9)C=C8)C=C7)cc5)cc4=O)O[C@@]3(C)CC[C@@H]12
REMARK SMILES IDX 23 1 22 2 21 3 20 4 19 5 18 6 16 7 17 8 15 9 1 10 2 11 3 12
REMARK SMILES IDX 4 13 104 14 6 15 8 16 103 17 7 18 9 19 10 20 102 21 100 22
REMARK SMILES IDX 11 23 101 24 99 25 12 26 13 27 97 28 14 29 96 30 98 31 5 32
REMARK SMILES IDX 24 34 25 35 26 36 27 37 28 38 29 39 30 40 31 41 95 42 32 43
REMARK SMILES IDX 94 44 33 45 34 46 35 47 88 48 36 49 93 50 87 51 89 52 37 53
REMARK SMILES IDX 92 54 86 55 85 56 38 58 72 59 51 60 71 61 52 62 55 63 70 64
REMARK SMILES IDX 90 65 53 66 54 67 69 69 91 70 56 71 39 72 40 73 49 74 41 75
REMARK SMILES IDX 42 76 48 77 50 78 43 79 44 80 45 81 46 82 47 83 73 84 74 85
REMARK SMILES IDX 83 86 75 87 76 88 82 89 84 90 77 91 78 92 79 93 80 94 81 95
REMARK SMILES IDX 57 96 58 97 67 98 59 99 60 100 66 101 68 102 61 103 62 104
REMARK SMILES IDX 63 105 64 106 65 107
REMARK H PARENT 5 33 89 57 55 68
REMARK Flexibility Score: inf
ROOT
ATOM      1  C   UNL A   1      34.509  34.077  30.229  1.00  0.00     0.188 C 
ENDROOT
BRANCH   1   2
ATOM      2  C   UNL A   1      35.139  33.260  29.080  1.00  0.00     0.188 C 
BRANCH   2   3
ATOM      3  O   UNL A   1      34.568  31.999  28.832  1.00  0.00    -0.376 OA
BRANCH   3   4
ATOM      4  C   UNL A   1      34.561  31.439  27.533  1.00  0.00     0.202 C 
BRANCH   4   5
ATOM      5  C   UNL A   1      33.997  30.062  27.137  1.00  0.00     0.261 C 
BRANCH   5   6
ATOM      6  O   UNL A   1      32.597  29.834  27.299  1.00  0.00    -0.457 OA
BRANCH   6   7
ATOM      7  C   UNL A   1      31.899  29.569  26.160  1.00  0.00     0.374 C 
ATOM      8  O   UNL A   1      31.413  30.399  25.410  1.00  0.00    -0.242 OA
BRANCH   7   9
ATOM      9  C   UNL A   1      31.892  28.107  25.891  1.00  0.00     0.219 A 
ATOM     10  C   UNL A   1      33.262  22.421  26.691  1.00  0.00     0.014 C 
ATOM     11  C   UNL A   1      34.291  22.081  25.555  1.00  0.00    -0.006 C 
ATOM     12  C   UNL A   1      35.507  22.913  26.021  1.00  0.00     0.014 C 
ATOM     13  C   UNL A   1      34.356  20.541  25.717  1.00  0.00     0.120 C 
ATOM     14  C   UNL A   1      34.051  22.161  23.947  1.00  0.00     0.004 C 
ATOM     15  C   UNL A   1      33.057  19.920  25.058  1.00  0.00     0.033 C 
ATOM     16  C   UNL A   1      32.578  22.056  23.510  1.00  0.00    -0.022 C 
ATOM     17  C   UNL A   1      34.900  23.081  23.078  1.00  0.00     0.009 C 
ATOM     18  C   UNL A   1      31.971  20.929  24.446  1.00  0.00     0.010 C 
ATOM     19  C   UNL A   1      32.380  21.423  22.095  1.00  0.00     0.012 C 
ATOM     20  C   UNL A   1      31.974  23.550  23.396  1.00  0.00     0.044 C 
ATOM     21  C   UNL A   1      34.434  24.507  23.128  1.00  0.00     0.049 C 
ATOM     22  C   UNL A   1      32.948  24.649  22.739  1.00  0.00     0.113 C 
ATOM     23  C   UNL A   1      31.308  24.064  24.682  1.00  0.00     0.055 C 
ATOM     24  C   UNL A   1      32.869  24.645  21.193  1.00  0.00     0.057 C 
ATOM     25  O   UNL A   1      32.572  26.018  23.025  1.00  0.00    -0.458 OA
ATOM     26  C   UNL A   1      31.672  25.438  25.123  1.00  0.00     0.081 A 
ATOM     27  C   UNL A   1      32.212  26.345  24.303  1.00  0.00     0.292 A 
ATOM     28  C   UNL A   1      31.323  25.849  26.499  1.00  0.00     0.192 A 
ATOM     29  O   UNL A   1      32.358  27.680  24.660  1.00  0.00    -0.418 OA
ATOM     30  C   UNL A   1      31.421  27.275  26.826  1.00  0.00     0.107 A 
ATOM     31  O   UNL A   1      30.929  25.054  27.344  1.00  0.00    -0.289 OA
BRANCH  13  32
ATOM     32  O   UNL A   1      35.523  19.994  25.097  1.00  0.00    -0.393 OA
ATOM     33  H   UNL A   1      35.708  20.475  24.276  1.00  0.00     0.210 HD
ENDBRANCH  13  32
ENDBRANCH   7   9
ENDBRANCH   6   7
ENDBRANCH   5   6
ENDBRANCH   4   5
ENDBRANCH   3   4
ENDBRANCH   2   3
ENDBRANCH   1   2
BRANCH   1  34
ATOM     34  O   UNL A   1      33.982  33.410  31.361  1.00  0.00    -0.376 OA
BRANCH  34  35
ATOM     35  C   UNL A   1      34.878  32.847  32.310  1.00  0.00     0.202 C 
BRANCH  35  36
ATOM     36  C   UNL A   1      35.629  31.520  32.075  1.00  0.00     0.261 C 
BRANCH  36  37
ATOM     37  O   UNL A   1      37.008  31.479  32.465  1.00  0.00    -0.460 OA
BRANCH  37  38
ATOM     38  C   UNL A   1      37.833  32.346  31.828  1.00  0.00     0.338 C 
ATOM     39  O   UNL A   1      37.805  33.568  31.876  1.00  0.00    -0.246 OA
BRANCH  38  40
ATOM     40  C   UNL A   1      38.914  31.584  31.179  1.00  0.00     0.060 A 
ATOM     41  C   UNL A   1      39.966  31.087  31.962  1.00  0.00     0.016 A 
ATOM     42  C   UNL A   1      38.898  31.375  29.800  1.00  0.00     0.016 A 
ATOM     43  C   UNL A   1      40.991  30.352  31.372  1.00  0.00     0.010 A 
ATOM     44  C   UNL A   1      39.951  30.676  29.202  1.00  0.00     0.010 A 
ATOM     45  C   UNL A   1      41.007  30.174  29.983  1.00  0.00    -0.014 A 
BRANCH  45  46
ATOM     46  C   UNL A   1      42.229  29.640  29.340  1.00  0.00     0.031 A 
ATOM     47  C   UNL A   1      43.404  30.561  29.178  1.00  0.00     0.074 A 
ATOM     48  C   UNL A   1      42.308  28.358  28.941  1.00  0.00     0.049 A 
ATOM     49  N   UNL A   1      44.585  30.317  28.676  1.00  0.00    -0.248 NA
ATOM     50  C   UNL A   1      43.221  31.943  29.651  1.00  0.00     0.031 C 
ATOM     51  C   UNL A   1      41.250  27.362  29.087  1.00  0.00     0.029 A 
ATOM     52  N   UNL A   1      43.332  27.679  28.330  1.00  0.00    -0.354 N 
ATOM     53  C   UNL A   1      45.290  31.508  28.783  1.00  0.00     0.074 A 
ATOM     54  C   UNL A   1      44.392  32.486  29.357  1.00  0.00     0.031 C 
ATOM     55  C   UNL A   1      41.679  26.195  28.573  1.00  0.00     0.029 A 
ATOM     56  C   UNL A   1      43.031  26.369  28.042  1.00  0.00     0.049 A 
ATOM     57  H   UNL A   1      44.202  28.090  28.118  1.00  0.00     0.167 HD
ATOM     58  C   UNL A   1      46.576  31.761  28.446  1.00  0.00     0.037 A 
ATOM     59  C   UNL A   1      43.762  25.423  27.414  1.00  0.00     0.037 A 
ATOM     60  C   UNL A   1      47.454  30.791  27.847  1.00  0.00     0.049 A 
ATOM     61  C   UNL A   1      45.158  25.753  26.951  1.00  0.00     0.074 A 
ATOM     62  C   UNL A   1      48.775  30.947  27.472  1.00  0.00     0.029 A 
ATOM     63  N   UNL A   1      47.092  29.493  27.515  1.00  0.00    -0.354 N 
ATOM     64  N   UNL A   1      45.831  26.870  27.095  1.00  0.00    -0.248 NA
ATOM     65  C   UNL A   1      45.898  24.697  26.242  1.00  0.00     0.031 C 
ATOM     66  C   UNL A   1      49.194  29.766  26.855  1.00  0.00     0.029 A 
ATOM     67  C   UNL A   1      48.154  28.848  26.906  1.00  0.00     0.049 A 
ATOM     68  H   UNL A   1      46.210  29.090  27.687  1.00  0.00     0.167 HD
ATOM     69  C   UNL A   1      47.080  26.644  26.522  1.00  0.00     0.074 A 
ATOM     70  C   UNL A   1      47.071  25.282  26.028  1.00  0.00     0.031 C 
ATOM     71  C   UNL A   1      48.138  27.488  26.423  1.00  0.00     0.037 A 
BRANCH  58  72
ATOM     72  C   UNL A   1      47.096  33.150  28.691  1.00  0.00     0.058 A 
ATOM     73  C   UNL A   1      47.010  34.152  27.711  1.00  0.00     0.135 A 
ATOM     74  C   UNL A   1      47.674  33.488  29.926  1.00  0.00     0.135 A 
ATOM     75  F   UNL A   1      46.483  33.879  26.507  1.00  0.00    -0.206 F 
ATOM     76  C   UNL A   1      47.510  35.431  27.935  1.00  0.00     0.059 A 
ATOM     77  C   UNL A   1      48.152  34.768  30.181  1.00  0.00     0.059 A 
ATOM     78  F   UNL A   1      47.784  32.567  30.896  1.00  0.00    -0.206 F 
ATOM     79  C   UNL A   1      48.081  35.728  29.173  1.00  0.00     0.060 A 
BRANCH  79  80
ATOM     80  S   UNL A   1      48.742  37.387  29.436  1.00  0.00     0.124 S 
ATOM     81  O   UNL A   1      50.175  37.156  29.280  1.00  0.00    -0.237 OA
ATOM     82  O   UNL A   1      48.103  38.147  28.367  1.00  0.00    -0.237 OA
ATOM     83  O   UNL A   1      48.305  37.718  30.788  1.00  0.00    -0.744 OA
ENDBRANCH  79  80
ENDBRANCH  58  72
BRANCH  59  84
ATOM     84  C   UNL A   1      43.181  24.068  27.211  1.00  0.00     0.058 A 
ATOM     85  C   UNL A   1      42.449  23.762  26.056  1.00  0.00     0.135 A 
ATOM     86  C   UNL A   1      43.395  23.037  28.141  1.00  0.00     0.135 A 
ATOM     87  F   UNL A   1      42.202  24.717  25.147  1.00  0.00    -0.206 F 
ATOM     88  C   UNL A   1      41.958  22.481  25.821  1.00  0.00     0.059 A 
ATOM     89  C   UNL A   1      42.935  21.742  27.918  1.00  0.00     0.059 A 
ATOM     90  F   UNL A   1      44.092  23.277  29.262  1.00  0.00    -0.206 F 
ATOM     91  C   UNL A   1      42.220  21.473  26.751  1.00  0.00     0.060 A 
BRANCH  91  92
ATOM     92  S   UNL A   1      41.657  19.796  26.387  1.00  0.00     0.124 S 
ATOM     93  O   UNL A   1      41.937  19.110  27.644  1.00  0.00    -0.237 OA
ATOM     94  O   UNL A   1      40.247  20.012  26.078  1.00  0.00    -0.237 OA
ATOM     95  O   UNL A   1      42.487  19.398  25.254  1.00  0.00    -0.744 OA
ENDBRANCH  91  92
ENDBRANCH  59  84
BRANCH  71  96
ATOM     96  C   UNL A   1      49.401  26.985  25.776  1.00  0.00     0.058 A 
ATOM     97  C   UNL A   1      49.660  27.192  24.413  1.00  0.00     0.135 A 
ATOM     98  C   UNL A   1      50.425  26.428  26.561  1.00  0.00     0.135 A 
ATOM     99  F   UNL A   1      48.715  27.714  23.617  1.00  0.00    -0.206 F 
ATOM    100  C   UNL A   1      50.896  26.879  23.855  1.00  0.00     0.059 A 
ATOM    101  C   UNL A   1      51.677  26.132  26.029  1.00  0.00     0.059 A 
ATOM    102  F   UNL A   1      50.232  26.217  27.873  1.00  0.00    -0.206 F 
ATOM    103  C   UNL A   1      51.904  26.366  24.675  1.00  0.00     0.060 A 
BRANCH 103 104
ATOM    104  S   UNL A   1      53.531  26.062  23.953  1.00  0.00     0.124 S 
ATOM    105  O   UNL A   1      53.989  24.912  24.727  1.00  0.00    -0.237 OA
ATOM    106  O   UNL A   1      53.205  25.797  22.555  1.00  0.00    -0.237 OA
ATOM    107  O   UNL A   1      54.252  27.308  24.198  1.00  0.00    -0.744 OA
ENDBRANCH 103 104
ENDBRANCH  71  96
ENDBRANCH  45  46
ENDBRANCH  38  40
ENDBRANCH  37  38
ENDBRANCH  36  37
ENDBRANCH  35  36
ENDBRANCH  34  35
ENDBRANCH   1  34
TORSDOF 21
ENDMDL
MODEL 2
REMARK VINA RESULT:     -11.1      4.920      7.110
REMARK SMILES CC1(C)[C@H](O)CC[C@@]2(C)[C@H]3Cc4c(oc(C(=O)OCCOCCOCCOC(=O)c5ccc(-c6c7nc(c(-c8c(F)cc(S(=O)(=O)[O-])cc8F)c8ccc([nH]8)c(-c8c(F)cc(S(=O)(=O)[O-])cc8F)c8nc(c(-c9c(F)cc(S(=O)(=O)[O-])cc9F)c9ccc6[nH]9)C=C8)C=C7)cc5)cc4=O)O[C@@]3(C)CC[C@@H]12
REMARK SMILES IDX 23 1 22 2 21 3 20 4 19 5 18 6 16 7 17 8 15 9 1 10 2 11 3 12
REMARK SMILES IDX 4 13 104 14 6 15 8 16 103 17 7 18 9 19 10 20 102 21 100 22
REMARK SMILES IDX 11 23 101 24 99 25 12 26 13 27 97 28 14 29 96 30 98 31 5 32
REMARK SMILES IDX 24 34 25 35 26 36 27 37 28 38 29 39 30 40 31 41 95 42 32 43
REMARK SMILES IDX 94 44 33 45 34 46 35 47 88 48 36 49 93 50 87 51 89 52 37 53
REMARK SMILES IDX 92 54 86 55 85 56 38 58 72 59 51 60 71 61 52 62 55 63 70 64
REMARK SMILES IDX 90 65 53 66 54 67 69 69 91 70 56 71 39 72 40 73 49 74 41 75
REMARK SMILES IDX 42 76 48 77 50 78 43 79 44 80 45 81 46 82 47 83 73 84 74 85
REMARK SMILES IDX 83 86 75 87 76 88 82 89 84 90 77 91 78 92 79 93 80 94 81 95
REMARK SMILES IDX 57 96 58 97 67 98 59 99 60 100 66 101 68 102 61 103 62 104
REMARK SMILES IDX 63 105 64 106 65 107
REMARK H PARENT 5 33 89 57 55 68
REMARK Flexibility Score: inf
ROOT
ATOM      1  C   UNL A   1      32.886  35.708  30.574  1.00  0.00     0.188 C 
ENDROOT
BRANCH   1   2
ATOM      2  C   UNL A   1      33.758  34.878  29.608  1.00  0.00     0.188 C 
BRANCH   2   3
ATOM      3  O   UNL A   1      34.113  33.590  30.048  1.00  0.00    -0.376 OA
BRANCH   3   4
ATOM      4  C   UNL A   1      35.459  33.155  30.033  1.00  0.00     0.202 C 
BRANCH   4   5
ATOM      5  C   UNL A   1      36.160  32.402  28.887  1.00  0.00     0.261 C 
BRANCH   5   6
ATOM      6  O   UNL A   1      37.295  31.596  29.203  1.00  0.00    -0.457 OA
BRANCH   6   7
ATOM      7  C   UNL A   1      37.095  30.249  29.184  1.00  0.00     0.374 C 
ATOM      8  O   UNL A   1      36.013  29.687  29.192  1.00  0.00    -0.242 OA
BRANCH   7   9
ATOM      9  C   UNL A   1      38.394  29.539  29.050  1.00  0.00     0.219 A 
ATOM     10  C   UNL A   1      43.879  28.554  27.104  1.00  0.00     0.014 C 
ATOM     11  C   UNL A   1      43.744  27.383  26.067  1.00  0.00    -0.006 C 
ATOM     12  C   UNL A   1      42.981  28.103  24.932  1.00  0.00     0.014 C 
ATOM     13  C   UNL A   1      45.244  27.060  25.845  1.00  0.00     0.120 C 
ATOM     14  C   UNL A   1      43.194  25.877  26.341  1.00  0.00     0.004 C 
ATOM     15  C   UNL A   1      45.757  26.222  27.087  1.00  0.00     0.033 C 
ATOM     16  C   UNL A   1      43.305  25.407  27.803  1.00  0.00    -0.022 C 
ATOM     17  C   UNL A   1      41.969  25.349  25.604  1.00  0.00     0.009 C 
ATOM     18  C   UNL A   1      44.722  25.937  28.279  1.00  0.00     0.010 C 
ATOM     19  C   UNL A   1      43.485  23.862  27.961  1.00  0.00     0.012 C 
ATOM     20  C   UNL A   1      41.918  25.754  28.556  1.00  0.00     0.044 C 
ATOM     21  C   UNL A   1      40.683  25.832  26.208  1.00  0.00     0.049 C 
ATOM     22  C   UNL A   1      40.578  25.485  27.708  1.00  0.00     0.113 C 
ATOM     23  C   UNL A   1      41.899  27.126  29.248  1.00  0.00     0.055 C 
ATOM     24  C   UNL A   1      40.110  24.013  27.813  1.00  0.00     0.057 C 
ATOM     25  O   UNL A   1      39.410  26.176  28.215  1.00  0.00    -0.458 OA
ATOM     26  C   UNL A   1      40.700  27.977  29.015  1.00  0.00     0.081 A 
ATOM     27  C   UNL A   1      39.534  27.488  28.583  1.00  0.00     0.292 A 
ATOM     28  C   UNL A   1      40.774  29.407  29.380  1.00  0.00     0.192 A 
ATOM     29  O   UNL A   1      38.368  28.243  28.565  1.00  0.00    -0.418 OA
ATOM     30  C   UNL A   1      39.518  30.162  29.419  1.00  0.00     0.107 A 
ATOM     31  O   UNL A   1      41.828  29.957  29.678  1.00  0.00    -0.289 OA
BRANCH  13  32
ATOM     32  O   UNL A   1      45.452  26.318  24.640  1.00  0.00    -0.393 OA
ATOM     33  H   UNL A   1      44.761  25.643  24.553  1.00  0.00     0.210 HD
ENDBRANCH  13  32
ENDBRANCH   7   9
ENDBRANCH   6   7
ENDBRANCH   5   6
ENDBRANCH   4   5
ENDBRANCH   3   4
ENDBRANCH   2   3
ENDBRANCH   1   2
BRANCH   1  34
ATOM     34  O   UNL A   1      32.755  35.310  31.926  1.00  0.00    -0.376 OA
BRANCH  34  35
ATOM     35  C   UNL A   1      33.665  35.826  32.888  1.00  0.00     0.202 C 
BRANCH  35  36
ATOM     36  C   UNL A   1      35.040  35.187  33.175  1.00  0.00     0.261 C 
BRANCH  36  37
ATOM     37  O   UNL A   1      35.037  33.862  33.724  1.00  0.00    -0.460 OA
BRANCH  37  38
ATOM     38  C   UNL A   1      35.884  33.645  34.759  1.00  0.00     0.338 C 
ATOM     39  O   UNL A   1      35.632  33.724  35.954  1.00  0.00    -0.246 OA
BRANCH  38  40
ATOM     40  C   UNL A   1      37.155  33.118  34.232  1.00  0.00     0.060 A 
ATOM     41  C   UNL A   1      38.361  33.523  34.822  1.00  0.00     0.016 A 
ATOM     42  C   UNL A   1      37.156  32.238  33.149  1.00  0.00     0.016 A 
ATOM     43  C   UNL A   1      39.573  33.026  34.349  1.00  0.00     0.010 A 
ATOM     44  C   UNL A   1      38.376  31.775  32.647  1.00  0.00     0.010 A 
ATOM     45  C   UNL A   1      39.588  32.178  33.236  1.00  0.00    -0.014 A 
BRANCH  45  46
ATOM     46  C   UNL A   1      40.880  31.881  32.575  1.00  0.00     0.031 A 
ATOM     47  C   UNL A   1      41.428  32.890  31.607  1.00  0.00     0.074 A 
ATOM     48  C   UNL A   1      41.568  30.760  32.853  1.00  0.00     0.049 A 
ATOM     49  N   UNL A   1      42.546  32.868  30.932  1.00  0.00    -0.248 NA
ATOM     50  C   UNL A   1      40.603  34.087  31.374  1.00  0.00     0.031 C 
ATOM     51  C   UNL A   1      41.158  29.733  33.806  1.00  0.00     0.029 A 
ATOM     52  N   UNL A   1      42.762  30.303  32.354  1.00  0.00    -0.354 N 
ATOM     53  C   UNL A   1      42.567  34.050  30.204  1.00  0.00     0.074 A 
ATOM     54  C   UNL A   1      41.331  34.747  30.486  1.00  0.00     0.031 C 
ATOM     55  C   UNL A   1      42.085  28.758  33.820  1.00  0.00     0.029 A 
ATOM     56  C   UNL A   1      43.142  29.083  32.861  1.00  0.00     0.049 A 
ATOM     57  H   UNL A   1      43.298  30.802  31.696  1.00  0.00     0.167 HD
ATOM     58  C   UNL A   1      43.536  34.520  29.385  1.00  0.00     0.037 A 
ATOM     59  C   UNL A   1      44.214  28.315  32.576  1.00  0.00     0.037 A 
ATOM     60  C   UNL A   1      44.749  33.808  29.087  1.00  0.00     0.049 A 
ATOM     61  C   UNL A   1      45.234  28.807  31.581  1.00  0.00     0.074 A 
ATOM     62  C   UNL A   1      45.795  34.199  28.273  1.00  0.00     0.029 A 
ATOM     63  N   UNL A   1      45.067  32.547  29.572  1.00  0.00    -0.354 N 
ATOM     64  N   UNL A   1      45.266  29.946  30.929  1.00  0.00    -0.248 NA
ATOM     65  C   UNL A   1      46.365  27.916  31.281  1.00  0.00     0.031 C 
ATOM     66  C   UNL A   1      46.716  33.151  28.214  1.00  0.00     0.029 A 
ATOM     67  C   UNL A   1      46.278  32.131  29.046  1.00  0.00     0.049 A 
ATOM     68  H   UNL A   1      44.515  32.026  30.198  1.00  0.00     0.167 HD
ATOM     69  C   UNL A   1      46.430  29.922  30.166  1.00  0.00     0.074 A 
ATOM     70  C   UNL A   1      47.077  28.654  30.436  1.00  0.00     0.031 C 
ATOM     71  C   UNL A   1      46.919  30.868  29.326  1.00  0.00     0.037 A 
BRANCH  58  72
ATOM     72  C   UNL A   1      43.304  35.855  28.733  1.00  0.00     0.058 A 
ATOM     73  C   UNL A   1      42.795  35.959  27.429  1.00  0.00     0.135 A 
ATOM     74  C   UNL A   1      43.580  37.045  29.426  1.00  0.00     0.135 A 
ATOM     75  F   UNL A   1      42.530  34.853  26.714  1.00  0.00    -0.206 F 
ATOM     76  C   UNL A   1      42.601  37.195  26.822  1.00  0.00     0.059 A 
ATOM     77  C   UNL A   1      43.364  38.292  28.850  1.00  0.00     0.059 A 
ATOM     78  F   UNL A   1      44.071  37.002  30.674  1.00  0.00    -0.206 F 
ATOM     79  C   UNL A   1      42.890  38.356  27.541  1.00  0.00     0.060 A 
BRANCH  79  80
ATOM     80  S   UNL A   1      42.651  39.949  26.727  1.00  0.00     0.124 S 
ATOM     81  O   UNL A   1      41.339  39.768  26.113  1.00  0.00    -0.237 OA
ATOM     82  O   UNL A   1      42.701  40.880  27.850  1.00  0.00    -0.237 OA
ATOM     83  O   UNL A   1      43.772  40.029  25.796  1.00  0.00    -0.744 OA
ENDBRANCH  79  80
ENDBRANCH  58  72
BRANCH  59  84
ATOM     84  C   UNL A   1      44.379  27.006  33.265  1.00  0.00     0.058 A 
ATOM     85  C   UNL A   1      44.168  25.800  32.583  1.00  0.00     0.135 A 
ATOM     86  C   UNL A   1      44.804  26.934  34.602  1.00  0.00     0.135 A 
ATOM     87  F   UNL A   1      43.744  25.814  31.311  1.00  0.00    -0.206 F 
ATOM     88  C   UNL A   1      44.384  24.568  33.195  1.00  0.00     0.059 A 
ATOM     89  C   UNL A   1      45.049  25.717  35.229  1.00  0.00     0.059 A 
ATOM     90  F   UNL A   1      45.022  28.061  35.299  1.00  0.00    -0.206 F 
ATOM     91  C   UNL A   1      44.840  24.537  34.515  1.00  0.00     0.060 A 
BRANCH  91  92
ATOM     92  S   UNL A   1      45.204  22.935  35.264  1.00  0.00     0.124 S 
ATOM     93  O   UNL A   1      45.088  23.239  36.686  1.00  0.00    -0.237 OA
ATOM     94  O   UNL A   1      44.151  22.094  34.703  1.00  0.00    -0.237 OA
ATOM     95  O   UNL A   1      46.553  22.638  34.792  1.00  0.00    -0.744 OA
ENDBRANCH  91  92
ENDBRANCH  59  84
BRANCH  71  96
ATOM     96  C   UNL A   1      48.230  30.606  28.633  1.00  0.00     0.058 A 
ATOM     97  C   UNL A   1      49.452  30.982  29.209  1.00  0.00     0.135 A 
ATOM     98  C   UNL A   1      48.268  29.838  27.457  1.00  0.00     0.135 A 
ATOM     99  F   UNL A   1      49.473  31.722  30.329  1.00  0.00    -0.206 F 
ATOM    100  C   UNL A   1      50.667  30.591  28.652  1.00  0.00     0.059 A 
ATOM    101  C   UNL A   1      49.470  29.414  26.898  1.00  0.00     0.059 A 
ATOM    102  F   UNL A   1      47.126  29.445  26.870  1.00  0.00    -0.206 F 
ATOM    103  C   UNL A   1      50.665  29.792  27.506  1.00  0.00     0.060 A 
BRANCH 103 104
ATOM    104  S   UNL A   1      52.247  29.211  26.858  1.00  0.00     0.124 S 
ATOM    105  O   UNL A   1      52.530  28.080  27.736  1.00  0.00    -0.237 OA
ATOM    106  O   UNL A   1      51.911  28.875  25.478  1.00  0.00    -0.237 OA
ATOM    107  O   UNL A   1      53.128  30.364  27.021  1.00  0.00    -0.744 OA
ENDBRANCH 103 104
ENDBRANCH  71  96
ENDBRANCH  45  46
ENDBRANCH  38  40
ENDBRANCH  37  38
ENDBRANCH  36  37
ENDBRANCH  35  36
ENDBRANCH  34  35
ENDBRANCH   1  34
TORSDOF 21
ENDMDL
MODEL 3
REMARK VINA RESULT:     -10.8      6.306     14.502
REMARK SMILES CC1(C)[C@H](O)CC[C@@]2(C)[C@H]3Cc4c(oc(C(=O)OCCOCCOCCOC(=O)c5ccc(-c6c7nc(c(-c8c(F)cc(S(=O)(=O)[O-])cc8F)c8ccc([nH]8)c(-c8c(F)cc(S(=O)(=O)[O-])cc8F)c8nc(c(-c9c(F)cc(S(=O)(=O)[O-])cc9F)c9ccc6[nH]9)C=C8)C=C7)cc5)cc4=O)O[C@@]3(C)CC[C@@H]12
REMARK SMILES IDX 23 1 22 2 21 3 20 4 19 5 18 6 16 7 17 8 15 9 1 10 2 11 3 12
REMARK SMILES IDX 4 13 104 14 6 15 8 16 103 17 7 18 9 19 10 20 102 21 100 22
REMARK SMILES IDX 11 23 101 24 99 25 12 26 13 27 97 28 14 29 96 30 98 31 5 32
REMARK SMILES IDX 24 34 25 35 26 36 27 37 28 38 29 39 30 40 31 41 95 42 32 43
REMARK SMILES IDX 94 44 33 45 34 46 35 47 88 48 36 49 93 50 87 51 89 52 37 53
REMARK SMILES IDX 92 54 86 55 85 56 38 58 72 59 51 60 71 61 52 62 55 63 70 64
REMARK SMILES IDX 90 65 53 66 54 67 69 69 91 70 56 71 39 72 40 73 49 74 41 75
REMARK SMILES IDX 42 76 48 77 50 78 43 79 44 80 45 81 46 82 47 83 73 84 74 85
REMARK SMILES IDX 83 86 75 87 76 88 82 89 84 90 77 91 78 92 79 93 80 94 81 95
REMARK SMILES IDX 57 96 58 97 67 98 59 99 60 100 66 101 68 102 61 103 62 104
REMARK SMILES IDX 63 105 64 106 65 107
REMARK H PARENT 5 33 89 57 55 68
REMARK Flexibility Score: inf
ROOT
ATOM      1  C   UNL A   1      41.882  20.057  26.244  1.00  0.00     0.188 C 
ENDROOT
BRANCH   1   2
ATOM      2  C   UNL A   1      42.504  18.655  26.068  1.00  0.00     0.188 C 
BRANCH   2   3
ATOM      3  O   UNL A   1      43.538  18.552  25.121  1.00  0.00    -0.376 OA
BRANCH   3   4
ATOM      4  C   UNL A   1      44.895  18.506  25.519  1.00  0.00     0.202 C 
BRANCH   4   5
ATOM      5  C   UNL A   1      46.022  19.429  25.020  1.00  0.00     0.261 C 
BRANCH   5   6
ATOM      6  O   UNL A   1      46.075  20.764  25.525  1.00  0.00    -0.457 OA
BRANCH   6   7
ATOM      7  C   UNL A   1      45.704  21.746  24.658  1.00  0.00     0.374 C 
ATOM      8  O   UNL A   1      44.886  21.635  23.760  1.00  0.00    -0.242 OA
BRANCH   7   9
ATOM      9  C   UNL A   1      46.365  23.027  25.019  1.00  0.00     0.219 A 
ATOM     10  C   UNL A   1      50.750  26.957  25.432  1.00  0.00     0.014 C 
ATOM     11  C   UNL A   1      51.193  26.925  26.938  1.00  0.00    -0.006 C 
ATOM     12  C   UNL A   1      51.832  25.519  27.010  1.00  0.00     0.014 C 
ATOM     13  C   UNL A   1      52.134  28.156  26.958  1.00  0.00     0.120 C 
ATOM     14  C   UNL A   1      50.285  27.274  28.243  1.00  0.00     0.004 C 
ATOM     15  C   UNL A   1      51.240  29.461  26.999  1.00  0.00     0.033 C 
ATOM     16  C   UNL A   1      49.083  28.194  27.964  1.00  0.00    -0.022 C 
ATOM     17  C   UNL A   1      50.037  26.226  29.321  1.00  0.00     0.009 C 
ATOM     18  C   UNL A   1      49.646  29.280  26.956  1.00  0.00     0.010 C 
ATOM     19  C   UNL A   1      48.671  29.085  29.180  1.00  0.00     0.012 C 
ATOM     20  C   UNL A   1      47.795  27.268  27.658  1.00  0.00     0.044 C 
ATOM     21  C   UNL A   1      48.956  25.256  28.940  1.00  0.00     0.049 C 
ATOM     22  C   UNL A   1      47.633  25.967  28.591  1.00  0.00     0.113 C 
ATOM     23  C   UNL A   1      47.587  26.942  26.171  1.00  0.00     0.055 C 
ATOM     24  C   UNL A   1      46.913  26.294  29.923  1.00  0.00     0.057 C 
ATOM     25  O   UNL A   1      46.748  24.957  28.047  1.00  0.00    -0.458 OA
ATOM     26  C   UNL A   1      47.305  25.521  25.829  1.00  0.00     0.081 A 
ATOM     27  C   UNL A   1      46.860  24.633  26.723  1.00  0.00     0.292 A 
ATOM     28  C   UNL A   1      47.422  25.103  24.416  1.00  0.00     0.192 A 
ATOM     29  O   UNL A   1      46.405  23.372  26.359  1.00  0.00    -0.418 OA
ATOM     30  C   UNL A   1      46.870  23.796  24.049  1.00  0.00     0.107 A 
ATOM     31  O   UNL A   1      47.923  25.819  23.557  1.00  0.00    -0.289 OA
BRANCH  13  32
ATOM     32  O   UNL A   1      53.011  28.132  28.088  1.00  0.00    -0.393 OA
ATOM     33  H   UNL A   1      53.740  28.755  27.943  1.00  0.00     0.210 HD
ENDBRANCH  13  32
ENDBRANCH   7   9
ENDBRANCH   6   7
ENDBRANCH   5   6
ENDBRANCH   4   5
ENDBRANCH   3   4
ENDBRANCH   2   3
ENDBRANCH   1   2
BRANCH   1  34
ATOM     34  O   UNL A   1      42.713  21.166  26.533  1.00  0.00    -0.376 OA
BRANCH  34  35
ATOM     35  C   UNL A   1      42.221  22.478  26.294  1.00  0.00     0.202 C 
BRANCH  35  36
ATOM     36  C   UNL A   1      43.139  23.677  25.978  1.00  0.00     0.261 C 
BRANCH  36  37
ATOM     37  O   UNL A   1      42.501  24.948  25.789  1.00  0.00    -0.460 OA
BRANCH  37  38
ATOM     38  C   UNL A   1      43.301  26.037  25.899  1.00  0.00     0.338 C 
ATOM     39  O   UNL A   1      44.057  26.491  25.051  1.00  0.00    -0.246 OA
BRANCH  38  40
ATOM     40  C   UNL A   1      42.999  26.722  27.167  1.00  0.00     0.060 A 
ATOM     41  C   UNL A   1      41.904  26.296  27.932  1.00  0.00     0.016 A 
ATOM     42  C   UNL A   1      43.787  27.793  27.593  1.00  0.00     0.016 A 
ATOM     43  C   UNL A   1      41.609  26.920  29.142  1.00  0.00     0.010 A 
ATOM     44  C   UNL A   1      43.463  28.448  28.785  1.00  0.00     0.010 A 
ATOM     45  C   UNL A   1      42.366  28.023  29.556  1.00  0.00    -0.014 A 
BRANCH  45  46
ATOM     46  C   UNL A   1      41.879  28.844  30.688  1.00  0.00     0.031 A 
ATOM     47  C   UNL A   1      42.631  28.778  31.986  1.00  0.00     0.074 A 
ATOM     48  C   UNL A   1      40.816  29.657  30.557  1.00  0.00     0.049 A 
ATOM     49  N   UNL A   1      42.417  29.423  33.102  1.00  0.00    -0.248 NA
ATOM     50  C   UNL A   1      43.784  27.863  32.027  1.00  0.00     0.031 C 
ATOM     51  C   UNL A   1      40.037  29.838  29.336  1.00  0.00     0.029 A 
ATOM     52  N   UNL A   1      40.212  30.485  31.471  1.00  0.00    -0.354 N 
ATOM     53  C   UNL A   1      43.412  29.002  33.973  1.00  0.00     0.074 A 
ATOM     54  C   UNL A   1      44.205  28.016  33.273  1.00  0.00     0.031 C 
ATOM     55  C   UNL A   1      39.050  30.720  29.577  1.00  0.00     0.029 A 
ATOM     56  C   UNL A   1      39.115  31.148  30.975  1.00  0.00     0.049 A 
ATOM     57  H   UNL A   1      40.534  30.594  32.395  1.00  0.00     0.167 HD
ATOM     58  C   UNL A   1      43.653  29.412  35.240  1.00  0.00     0.037 A 
ATOM     59  C   UNL A   1      38.258  31.995  31.583  1.00  0.00     0.037 A 
ATOM     60  C   UNL A   1      42.842  30.372  35.941  1.00  0.00     0.049 A 
ATOM     61  C   UNL A   1      38.481  32.362  33.028  1.00  0.00     0.074 A 
ATOM     62  C   UNL A   1      43.004  30.857  37.224  1.00  0.00     0.029 A 
ATOM     63  N   UNL A   1      41.703  30.974  35.424  1.00  0.00    -0.354 N 
ATOM     64  N   UNL A   1      39.451  31.992  33.832  1.00  0.00    -0.248 NA
ATOM     65  C   UNL A   1      37.499  33.263  33.652  1.00  0.00     0.031 C 
ATOM     66  C   UNL A   1      41.930  31.703  37.509  1.00  0.00     0.029 A 
ATOM     67  C   UNL A   1      41.133  31.799  36.377  1.00  0.00     0.049 A 
ATOM     68  H   UNL A   1      41.353  30.836  34.515  1.00  0.00     0.167 HD
ATOM     69  C   UNL A   1      39.213  32.634  35.044  1.00  0.00     0.074 A 
ATOM     70  C   UNL A   1      38.006  33.417  34.870  1.00  0.00     0.031 C 
ATOM     71  C   UNL A   1      39.933  32.582  36.192  1.00  0.00     0.037 A 
BRANCH  58  72
ATOM     72  C   UNL A   1      44.824  28.799  35.956  1.00  0.00     0.058 A 
ATOM     73  C   UNL A   1      44.684  27.646  36.745  1.00  0.00     0.135 A 
ATOM     74  C   UNL A   1      46.106  29.362  35.839  1.00  0.00     0.135 A 
ATOM     75  F   UNL A   1      43.477  27.078  36.906  1.00  0.00    -0.206 F 
ATOM     76  C   UNL A   1      45.766  27.094  37.422  1.00  0.00     0.059 A 
ATOM     77  C   UNL A   1      47.207  28.807  36.481  1.00  0.00     0.059 A 
ATOM     78  F   UNL A   1      46.295  30.465  35.098  1.00  0.00    -0.206 F 
ATOM     79  C   UNL A   1      47.024  27.682  37.284  1.00  0.00     0.060 A 
BRANCH  79  80
ATOM     80  S   UNL A   1      48.411  26.961  38.186  1.00  0.00     0.124 S 
ATOM     81  O   UNL A   1      49.329  26.639  37.099  1.00  0.00    -0.237 OA
ATOM     82  O   UNL A   1      48.819  28.061  39.055  1.00  0.00    -0.237 OA
ATOM     83  O   UNL A   1      47.817  25.814  38.865  1.00  0.00    -0.744 OA
ENDBRANCH  79  80
ENDBRANCH  58  72
BRANCH  59  84
ATOM     84  C   UNL A   1      37.123  32.567  30.808  1.00  0.00     0.058 A 
ATOM     85  C   UNL A   1      35.822  32.070  30.963  1.00  0.00     0.135 A 
ATOM     86  C   UNL A   1      37.308  33.656  29.941  1.00  0.00     0.135 A 
ATOM     87  F   UNL A   1      35.596  31.020  31.766  1.00  0.00    -0.206 F 
ATOM     88  C   UNL A   1      34.740  32.639  30.297  1.00  0.00     0.059 A 
ATOM     89  C   UNL A   1      36.240  34.258  29.282  1.00  0.00     0.059 A 
ATOM     90  F   UNL A   1      38.534  34.171  29.759  1.00  0.00    -0.206 F 
ATOM     91  C   UNL A   1      34.957  33.743  29.470  1.00  0.00     0.060 A 
BRANCH  91  92
ATOM     92  S   UNL A   1      33.532  34.527  28.685  1.00  0.00     0.124 S 
ATOM     93  O   UNL A   1      32.692  34.837  29.837  1.00  0.00    -0.237 OA
ATOM     94  O   UNL A   1      34.145  35.669  28.016  1.00  0.00    -0.237 OA
ATOM     95  O   UNL A   1      33.021  33.488  27.796  1.00  0.00    -0.744 OA
ENDBRANCH  91  92
ENDBRANCH  59  84
BRANCH  71  96
ATOM     96  C   UNL A   1      39.474  33.403  37.368  1.00  0.00     0.058 A 
ATOM     97  C   UNL A   1      38.546  32.903  38.294  1.00  0.00     0.135 A 
ATOM     98  C   UNL A   1      40.083  34.637  37.651  1.00  0.00     0.135 A 
ATOM     99  F   UNL A   1      37.929  31.732  38.069  1.00  0.00    -0.206 F 
ATOM    100  C   UNL A   1      38.251  33.591  39.468  1.00  0.00     0.059 A 
ATOM    101  C   UNL A   1      39.823  35.328  38.831  1.00  0.00     0.059 A 
ATOM    102  F   UNL A   1      40.985  35.156  36.802  1.00  0.00    -0.206 F 
ATOM    103  C   UNL A   1      38.908  34.795  39.735  1.00  0.00     0.060 A 
BRANCH 103 104
ATOM    104  S   UNL A   1      38.587  35.620  41.309  1.00  0.00     0.124 S 
ATOM    105  O   UNL A   1      37.284  35.071  41.672  1.00  0.00    -0.237 OA
ATOM    106  O   UNL A   1      39.712  35.175  42.126  1.00  0.00    -0.237 OA
ATOM    107  O   UNL A   1      38.594  37.038  40.960  1.00  0.00    -0.744 OA
ENDBRANCH 103 104
ENDBRANCH  71  96
ENDBRANCH  45  46
ENDBRANCH  38  40
ENDBRANCH  37  38
ENDBRANCH  36  37
ENDBRANCH  35  36
ENDBRANCH  34  35
ENDBRANCH   1  34
TORSDOF 21
ENDMDL
