MODEL 1
REMARK VINA RESULT:      -9.7      0.000      0.000
REMARK SMILES CC1=C(C)C(=O)N(C[C@H](CC(C)C)C(=O)OCCOCCOCCOC(=O)c2ccc(-c3c4nc(c(-c5c(F)cc(S(=O)(=O)[O-])cc5F)c5ccc([nH]5)c(-c5c(F)cc(S(=O)(=O)[O-])cc5F)c5nc(c(-c6c(F)cc(S(=O)(=O)[O-])cc6F)c6ccc3[nH]6)C=C5)C=C4)cc2)C1=O
REMARK SMILES IDX 21 1 20 2 19 3 18 4 17 5 16 6 14 7 15 8 9 9 8 10 7 11 1 12
REMARK SMILES IDX 2 13 3 14 94 15 4 16 5 17 95 18 6 19 10 20 11 21 12 22 13 23
REMARK SMILES IDX 22 24 23 25 24 26 25 27 26 28 27 29 28 30 29 31 93 32 30 33
REMARK SMILES IDX 92 34 31 35 32 36 33 37 86 38 34 39 91 40 85 41 87 42 35 43
REMARK SMILES IDX 90 44 84 45 83 46 36 48 70 49 49 50 69 51 50 52 53 53 68 54
REMARK SMILES IDX 88 55 51 56 52 57 67 59 89 60 54 61 37 62 38 63 47 64 39 65
REMARK SMILES IDX 40 66 46 67 48 68 41 69 42 70 43 71 44 72 45 73 71 74 72 75
REMARK SMILES IDX 81 76 73 77 74 78 80 79 82 80 75 81 76 82 77 83 78 84 79 85
REMARK SMILES IDX 55 86 56 87 65 88 57 89 58 90 64 91 66 92 59 93 60 94 61 95
REMARK SMILES IDX 62 96 63 97
REMARK H PARENT 87 47 53 58
REMARK Flexibility Score: inf
ROOT
ATOM      1  C   UNL A   1      37.974  22.436  25.485  1.00  0.00     0.188 C 
ENDROOT
BRANCH   1   2
ATOM      2  C   UNL A   1      37.217  21.358  24.665  1.00  0.00     0.188 C 
BRANCH   2   3
ATOM      3  O   UNL A   1      36.046  20.762  25.230  1.00  0.00    -0.376 OA
BRANCH   3   4
ATOM      4  C   UNL A   1      35.336  21.488  26.214  1.00  0.00     0.202 C 
BRANCH   4   5
ATOM      5  C   UNL A   1      34.589  22.735  25.733  1.00  0.00     0.261 C 
BRANCH   5   6
ATOM      6  O   UNL A   1      33.193  22.823  26.079  1.00  0.00    -0.463 OA
BRANCH   6   7
ATOM      7  C   UNL A   1      32.234  23.009  25.127  1.00  0.00     0.310 C 
ATOM      8  O   UNL A   1      31.272  22.263  24.949  1.00  0.00    -0.252 OA
BRANCH   7   9
ATOM      9  C   UNL A   1      32.110  24.428  24.688  1.00  0.00     0.119 C 
BRANCH   9  10
ATOM     10  C   UNL A   1      30.920  25.140  25.369  1.00  0.00     0.144 C 
BRANCH  10  11
ATOM     11  N   UNL A   1      30.823  26.644  25.161  1.00  0.00    -0.274 N 
ATOM     12  C   UNL A   1      30.209  29.559  22.972  1.00  0.00     0.051 C 
ATOM     13  C   UNL A   1      30.598  28.695  24.115  1.00  0.00     0.023 C 
ATOM     14  C   UNL A   1      31.266  28.917  25.245  1.00  0.00     0.023 C 
ATOM     15  C   UNL A   1      30.174  27.300  24.161  1.00  0.00     0.256 C 
ATOM     16  C   UNL A   1      31.748  30.234  25.717  1.00  0.00     0.051 C 
ATOM     17  C   UNL A   1      31.481  27.593  25.892  1.00  0.00     0.256 C 
ATOM     18  O   UNL A   1      29.363  26.899  23.368  1.00  0.00    -0.269 OA
ATOM     19  O   UNL A   1      32.194  27.421  26.866  1.00  0.00    -0.269 OA
ENDBRANCH  10  11
ENDBRANCH   9  10
BRANCH   9  20
ATOM     20  C   UNL A   1      32.418  24.257  23.153  1.00  0.00     0.020 C 
BRANCH  20  21
ATOM     21  C   UNL A   1      33.283  25.237  22.336  1.00  0.00    -0.017 C 
ATOM     22  C   UNL A   1      32.417  25.793  21.203  1.00  0.00     0.007 C 
ATOM     23  C   UNL A   1      33.731  26.444  23.202  1.00  0.00     0.007 C 
ENDBRANCH  20  21
ENDBRANCH   9  20
ENDBRANCH   7   9
ENDBRANCH   6   7
ENDBRANCH   5   6
ENDBRANCH   4   5
ENDBRANCH   3   4
ENDBRANCH   2   3
ENDBRANCH   1   2
BRANCH   1  24
ATOM     24  O   UNL A   1      38.971  21.997  26.398  1.00  0.00    -0.376 OA
BRANCH  24  25
ATOM     25  C   UNL A   1      39.854  21.008  25.913  1.00  0.00     0.202 C 
BRANCH  25  26
ATOM     26  C   UNL A   1      41.318  21.203  26.315  1.00  0.00     0.261 C 
BRANCH  26  27
ATOM     27  O   UNL A   1      41.569  22.420  27.051  1.00  0.00    -0.460 OA
BRANCH  27  28
ATOM     28  C   UNL A   1      42.027  23.474  26.323  1.00  0.00     0.338 C 
ATOM     29  O   UNL A   1      42.613  23.423  25.255  1.00  0.00    -0.246 OA
BRANCH  28  30
ATOM     30  C   UNL A   1      41.616  24.752  26.949  1.00  0.00     0.060 A 
ATOM     31  C   UNL A   1      42.367  25.913  26.713  1.00  0.00     0.016 A 
ATOM     32  C   UNL A   1      40.575  24.768  27.877  1.00  0.00     0.016 A 
ATOM     33  C   UNL A   1      42.136  27.068  27.469  1.00  0.00     0.010 A 
ATOM     34  C   UNL A   1      40.346  25.922  28.633  1.00  0.00     0.010 A 
ATOM     35  C   UNL A   1      41.164  27.057  28.476  1.00  0.00    -0.014 A 
BRANCH  35  36
ATOM     36  C   UNL A   1      41.127  28.117  29.519  1.00  0.00     0.031 A 
ATOM     37  C   UNL A   1      42.094  28.015  30.672  1.00  0.00     0.074 A 
ATOM     38  C   UNL A   1      40.232  29.119  29.480  1.00  0.00     0.049 A 
ATOM     39  N   UNL A   1      42.158  28.719  31.774  1.00  0.00    -0.248 NA
ATOM     40  C   UNL A   1      43.113  26.958  30.574  1.00  0.00     0.031 C 
ATOM     41  C   UNL A   1      39.266  29.348  28.410  1.00  0.00     0.029 A 
ATOM     42  N   UNL A   1      39.972  30.114  30.392  1.00  0.00    -0.354 N 
ATOM     43  C   UNL A   1      43.200  28.168  32.513  1.00  0.00     0.074 A 
ATOM     44  C   UNL A   1      43.722  27.058  31.744  1.00  0.00     0.031 C 
ATOM     45  C   UNL A   1      38.491  30.395  28.743  1.00  0.00     0.029 A 
ATOM     46  C   UNL A   1      38.883  30.886  30.066  1.00  0.00     0.049 A 
ATOM     47  H   UNL A   1      40.515  30.261  31.201  1.00  0.00     0.167 HD
ATOM     48  C   UNL A   1      43.679  28.552  33.721  1.00  0.00     0.037 A 
ATOM     49  C   UNL A   1      38.250  31.847  30.768  1.00  0.00     0.037 A 
ATOM     50  C   UNL A   1      43.157  29.663  34.474  1.00  0.00     0.049 A 
ATOM     51  C   UNL A   1      38.769  32.241  32.127  1.00  0.00     0.074 A 
ATOM     52  C   UNL A   1      43.603  30.168  35.683  1.00  0.00     0.029 A 
ATOM     53  N   UNL A   1      42.060  30.429  34.102  1.00  0.00    -0.354 N 
ATOM     54  N   UNL A   1      39.780  31.743  32.800  1.00  0.00    -0.248 NA
ATOM     55  C   UNL A   1      38.067  33.331  32.820  1.00  0.00     0.031 C 
ATOM     56  C   UNL A   1      42.734  31.193  36.074  1.00  0.00     0.029 A 
ATOM     57  C   UNL A   1      41.791  31.377  35.077  1.00  0.00     0.049 A 
ATOM     58  H   UNL A   1      41.549  30.315  33.269  1.00  0.00     0.167 HD
ATOM     59  C   UNL A   1      39.851  32.473  33.984  1.00  0.00     0.074 A 
ATOM     60  C   UNL A   1      38.785  33.454  33.929  1.00  0.00     0.031 C 
ATOM     61  C   UNL A   1      40.722  32.348  35.016  1.00  0.00     0.037 A 
BRANCH  48  62
ATOM     62  C   UNL A   1      44.790  27.730  34.323  1.00  0.00     0.058 A 
ATOM     63  C   UNL A   1      46.147  28.036  34.118  1.00  0.00     0.135 A 
ATOM     64  C   UNL A   1      44.489  26.614  35.120  1.00  0.00     0.135 A 
ATOM     65  F   UNL A   1      46.497  29.084  33.356  1.00  0.00    -0.206 F 
ATOM     66  C   UNL A   1      47.160  27.236  34.638  1.00  0.00     0.059 A 
ATOM     67  C   UNL A   1      45.487  25.821  35.681  1.00  0.00     0.059 A 
ATOM     68  F   UNL A   1      43.212  26.274  35.355  1.00  0.00    -0.206 F 
ATOM     69  C   UNL A   1      46.820  26.127  35.414  1.00  0.00     0.060 A 
BRANCH  69  70
ATOM     70  S   UNL A   1      48.144  25.083  36.060  1.00  0.00     0.124 S 
ATOM     71  O   UNL A   1      47.669  24.813  37.414  1.00  0.00    -0.237 OA
ATOM     72  O   UNL A   1      48.121  23.949  35.142  1.00  0.00    -0.237 OA
ATOM     73  O   UNL A   1      49.326  25.935  35.970  1.00  0.00    -0.744 OA
ENDBRANCH  69  70
ENDBRANCH  48  62
BRANCH  49  74
ATOM     74  C   UNL A   1      37.036  32.488  30.192  1.00  0.00     0.058 A 
ATOM     75  C   UNL A   1      35.749  32.029  30.506  1.00  0.00     0.135 A 
ATOM     76  C   UNL A   1      37.142  33.612  29.355  1.00  0.00     0.135 A 
ATOM     77  F   UNL A   1      35.595  30.948  31.286  1.00  0.00    -0.206 F 
ATOM     78  C   UNL A   1      34.610  32.668  30.026  1.00  0.00     0.059 A 
ATOM     79  C   UNL A   1      36.017  34.283  28.884  1.00  0.00     0.059 A 
ATOM     80  F   UNL A   1      38.350  34.094  29.026  1.00  0.00    -0.206 F 
ATOM     81  C   UNL A   1      34.755  33.805  29.228  1.00  0.00     0.060 A 
BRANCH  81  82
ATOM     82  S   UNL A   1      33.269  34.689  28.703  1.00  0.00     0.124 S 
ATOM     83  O   UNL A   1      33.837  35.868  28.060  1.00  0.00    -0.237 OA
ATOM     84  O   UNL A   1      32.637  33.718  27.815  1.00  0.00    -0.237 OA
ATOM     85  O   UNL A   1      32.562  34.932  29.956  1.00  0.00    -0.744 OA
ENDBRANCH  81  82
ENDBRANCH  49  74
BRANCH  61  86
ATOM     86  C   UNL A   1      40.591  33.311  36.168  1.00  0.00     0.058 A 
ATOM     87  C   UNL A   1      41.315  34.513  36.219  1.00  0.00     0.135 A 
ATOM     88  C   UNL A   1      39.678  33.056  37.205  1.00  0.00     0.135 A 
ATOM     89  F   UNL A   1      42.204  34.808  35.258  1.00  0.00    -0.206 F 
ATOM     90  C   UNL A   1      41.157  35.414  37.269  1.00  0.00     0.059 A 
ATOM     91  C   UNL A   1      39.480  33.958  38.247  1.00  0.00     0.059 A 
ATOM     92  F   UNL A   1      38.949  31.929  37.203  1.00  0.00    -0.206 F 
ATOM     93  C   UNL A   1      40.234  35.130  38.277  1.00  0.00     0.060 A 
BRANCH  93  94
ATOM     94  S   UNL A   1      40.016  36.322  39.614  1.00  0.00     0.124 S 
ATOM     95  O   UNL A   1      39.427  37.454  38.907  1.00  0.00    -0.237 OA
ATOM     96  O   UNL A   1      39.125  35.610  40.526  1.00  0.00    -0.237 OA
ATOM     97  O   UNL A   1      41.374  36.531  40.110  1.00  0.00    -0.744 OA
ENDBRANCH  93  94
ENDBRANCH  61  86
ENDBRANCH  35  36
ENDBRANCH  28  30
ENDBRANCH  27  28
ENDBRANCH  26  27
ENDBRANCH  25  26
ENDBRANCH  24  25
ENDBRANCH   1  24
TORSDOF 24
ENDMDL
MODEL 2
REMARK VINA RESULT:      -9.0      3.887      7.629
REMARK SMILES CC1=C(C)C(=O)N(C[C@H](CC(C)C)C(=O)OCCOCCOCCOC(=O)c2ccc(-c3c4nc(c(-c5c(F)cc(S(=O)(=O)[O-])cc5F)c5ccc([nH]5)c(-c5c(F)cc(S(=O)(=O)[O-])cc5F)c5nc(c(-c6c(F)cc(S(=O)(=O)[O-])cc6F)c6ccc3[nH]6)C=C5)C=C4)cc2)C1=O
REMARK SMILES IDX 21 1 20 2 19 3 18 4 17 5 16 6 14 7 15 8 9 9 8 10 7 11 1 12
REMARK SMILES IDX 2 13 3 14 94 15 4 16 5 17 95 18 6 19 10 20 11 21 12 22 13 23
REMARK SMILES IDX 22 24 23 25 24 26 25 27 26 28 27 29 28 30 29 31 93 32 30 33
REMARK SMILES IDX 92 34 31 35 32 36 33 37 86 38 34 39 91 40 85 41 87 42 35 43
REMARK SMILES IDX 90 44 84 45 83 46 36 48 70 49 49 50 69 51 50 52 53 53 68 54
REMARK SMILES IDX 88 55 51 56 52 57 67 59 89 60 54 61 37 62 38 63 47 64 39 65
REMARK SMILES IDX 40 66 46 67 48 68 41 69 42 70 43 71 44 72 45 73 71 74 72 75
REMARK SMILES IDX 81 76 73 77 74 78 80 79 82 80 75 81 76 82 77 83 78 84 79 85
REMARK SMILES IDX 55 86 56 87 65 88 57 89 58 90 64 91 66 92 59 93 60 94 61 95
REMARK SMILES IDX 62 96 63 97
REMARK H PARENT 87 47 53 58
REMARK Flexibility Score: inf
ROOT
ATOM      1  C   UNL A   1      44.629  22.193  24.406  1.00  0.00     0.188 C 
ENDROOT
BRANCH   1   2
ATOM      2  C   UNL A   1      45.729  21.715  25.389  1.00  0.00     0.188 C 
BRANCH   2   3
ATOM      3  O   UNL A   1      46.558  22.693  26.022  1.00  0.00    -0.376 OA
BRANCH   3   4
ATOM      4  C   UNL A   1      45.931  23.806  26.630  1.00  0.00     0.202 C 
BRANCH   4   5
ATOM      5  C   UNL A   1      46.616  25.162  26.436  1.00  0.00     0.261 C 
BRANCH   5   6
ATOM      6  O   UNL A   1      47.536  25.572  27.467  1.00  0.00    -0.463 OA
BRANCH   6   7
ATOM      7  C   UNL A   1      48.531  26.470  27.218  1.00  0.00     0.310 C 
ATOM      8  O   UNL A   1      49.392  26.337  26.349  1.00  0.00    -0.252 OA
BRANCH   7   9
ATOM      9  C   UNL A   1      48.201  27.852  27.671  1.00  0.00     0.119 C 
BRANCH   9  10
ATOM     10  C   UNL A   1      47.335  28.605  26.637  1.00  0.00     0.144 C 
BRANCH  10  11
ATOM     11  N   UNL A   1      45.931  28.987  27.083  1.00  0.00    -0.274 N 
ATOM     12  C   UNL A   1      42.341  29.479  26.348  1.00  0.00     0.051 C 
ATOM     13  C   UNL A   1      43.674  29.487  27.004  1.00  0.00     0.023 C 
ATOM     14  C   UNL A   1      44.158  30.091  28.086  1.00  0.00     0.023 C 
ATOM     15  C   UNL A   1      44.755  28.657  26.483  1.00  0.00     0.256 C 
ATOM     16  C   UNL A   1      43.375  30.908  29.040  1.00  0.00     0.051 C 
ATOM     17  C   UNL A   1      45.625  29.837  28.108  1.00  0.00     0.256 C 
ATOM     18  O   UNL A   1      44.518  27.834  25.639  1.00  0.00    -0.269 OA
ATOM     19  O   UNL A   1      46.397  30.377  28.883  1.00  0.00    -0.269 OA
ENDBRANCH  10  11
ENDBRANCH   9  10
BRANCH   9  20
ATOM     20  C   UNL A   1      49.588  28.263  28.293  1.00  0.00     0.020 C 
BRANCH  20  21
ATOM     21  C   UNL A   1      49.990  27.985  29.755  1.00  0.00    -0.017 C 
ATOM     22  C   UNL A   1      51.432  27.473  29.754  1.00  0.00     0.007 C 
ATOM     23  C   UNL A   1      49.969  29.287  30.599  1.00  0.00     0.007 C 
ENDBRANCH  20  21
ENDBRANCH   9  20
ENDBRANCH   7   9
ENDBRANCH   6   7
ENDBRANCH   5   6
ENDBRANCH   4   5
ENDBRANCH   3   4
ENDBRANCH   2   3
ENDBRANCH   1   2
BRANCH   1  24
ATOM     24  O   UNL A   1      43.272  22.049  24.807  1.00  0.00    -0.376 OA
BRANCH  24  25
ATOM     25  C   UNL A   1      43.068  21.624  26.138  1.00  0.00     0.202 C 
BRANCH  25  26
ATOM     26  C   UNL A   1      41.701  20.986  26.403  1.00  0.00     0.261 C 
BRANCH  26  27
ATOM     27  O   UNL A   1      40.835  21.780  27.242  1.00  0.00    -0.460 OA
BRANCH  27  28
ATOM     28  C   UNL A   1      39.874  22.497  26.599  1.00  0.00     0.338 C 
ATOM     29  O   UNL A   1      39.006  22.058  25.865  1.00  0.00    -0.246 OA
BRANCH  28  30
ATOM     30  C   UNL A   1      39.938  23.922  27.001  1.00  0.00     0.060 A 
ATOM     31  C   UNL A   1      41.026  24.709  26.596  1.00  0.00     0.016 A 
ATOM     32  C   UNL A   1      38.994  24.435  27.891  1.00  0.00     0.016 A 
ATOM     33  C   UNL A   1      41.221  25.980  27.149  1.00  0.00     0.010 A 
ATOM     34  C   UNL A   1      39.192  25.704  28.445  1.00  0.00     0.010 A 
ATOM     35  C   UNL A   1      40.337  26.457  28.124  1.00  0.00    -0.014 A 
BRANCH  35  36
ATOM     36  C   UNL A   1      40.694  27.620  28.980  1.00  0.00     0.031 A 
ATOM     37  C   UNL A   1      41.929  27.518  29.841  1.00  0.00     0.074 A 
ATOM     38  C   UNL A   1      39.925  28.721  29.038  1.00  0.00     0.049 A 
ATOM     39  N   UNL A   1      42.364  28.323  30.777  1.00  0.00    -0.248 NA
ATOM     40  C   UNL A   1      42.773  26.332  29.627  1.00  0.00     0.031 C 
ATOM     41  C   UNL A   1      38.727  28.957  28.239  1.00  0.00     0.029 A 
ATOM     42  N   UNL A   1      40.026  29.835  29.837  1.00  0.00    -0.354 N 
ATOM     43  C   UNL A   1      43.512  27.724  31.285  1.00  0.00     0.074 A 
ATOM     44  C   UNL A   1      43.690  26.478  30.570  1.00  0.00     0.031 C 
ATOM     45  C   UNL A   1      38.180  30.127  28.613  1.00  0.00     0.029 A 
ATOM     46  C   UNL A   1      38.969  30.702  29.704  1.00  0.00     0.049 A 
ATOM     47  H   UNL A   1      40.783  29.996  30.446  1.00  0.00     0.167 HD
ATOM     48  C   UNL A   1      44.343  28.170  32.259  1.00  0.00     0.037 A 
ATOM     49  C   UNL A   1      38.652  31.809  30.406  1.00  0.00     0.037 A 
ATOM     50  C   UNL A   1      44.160  29.416  32.959  1.00  0.00     0.049 A 
ATOM     51  C   UNL A   1      39.563  32.277  31.511  1.00  0.00     0.074 A 
ATOM     52  C   UNL A   1      44.970  29.987  33.925  1.00  0.00     0.029 A 
ATOM     53  N   UNL A   1      43.082  30.274  32.785  1.00  0.00    -0.354 N 
ATOM     54  N   UNL A   1      40.668  31.727  31.957  1.00  0.00    -0.248 NA
ATOM     55  C   UNL A   1      39.190  33.518  32.204  1.00  0.00     0.031 C 
ATOM     56  C   UNL A   1      44.348  31.153  34.383  1.00  0.00     0.029 A 
ATOM     57  C   UNL A   1      43.187  31.350  33.653  1.00  0.00     0.049 A 
ATOM     58  H   UNL A   1      42.351  30.138  32.140  1.00  0.00     0.167 HD
ATOM     59  C   UNL A   1      41.135  32.566  32.966  1.00  0.00     0.074 A 
ATOM     60  C   UNL A   1      40.196  33.666  33.057  1.00  0.00     0.031 C 
ATOM     61  C   UNL A   1      42.242  32.440  33.740  1.00  0.00     0.037 A 
BRANCH  48  62
ATOM     62  C   UNL A   1      45.492  27.281  32.656  1.00  0.00     0.058 A 
ATOM     63  C   UNL A   1      46.722  27.294  31.977  1.00  0.00     0.135 A 
ATOM     64  C   UNL A   1      45.357  26.396  33.739  1.00  0.00     0.135 A 
ATOM     65  F   UNL A   1      46.908  28.109  30.927  1.00  0.00    -0.206 F 
ATOM     66  C   UNL A   1      47.756  26.428  32.325  1.00  0.00     0.059 A 
ATOM     67  C   UNL A   1      46.390  25.547  34.128  1.00  0.00     0.059 A 
ATOM     68  F   UNL A   1      44.207  26.341  34.429  1.00  0.00    -0.206 F 
ATOM     69  C   UNL A   1      47.578  25.554  33.399  1.00  0.00     0.060 A 
BRANCH  69  70
ATOM     70  S   UNL A   1      48.916  24.418  33.821  1.00  0.00     0.124 S 
ATOM     71  O   UNL A   1      48.177  23.197  34.126  1.00  0.00    -0.237 OA
ATOM     72  O   UNL A   1      49.702  24.393  32.592  1.00  0.00    -0.237 OA
ATOM     73  O   UNL A   1      49.562  25.060  34.962  1.00  0.00    -0.744 OA
ENDBRANCH  69  70
ENDBRANCH  48  62
BRANCH  49  74
ATOM     74  C   UNL A   1      37.393  32.538  30.085  1.00  0.00     0.058 A 
ATOM     75  C   UNL A   1      37.393  33.652  29.234  1.00  0.00     0.135 A 
ATOM     76  C   UNL A   1      36.157  32.096  30.583  1.00  0.00     0.135 A 
ATOM     77  F   UNL A   1      38.550  34.125  28.746  1.00  0.00    -0.206 F 
ATOM     78  C   UNL A   1      36.211  34.294  28.875  1.00  0.00     0.059 A 
ATOM     79  C   UNL A   1      34.960  32.705  30.218  1.00  0.00     0.059 A 
ATOM     80  F   UNL A   1      36.102  31.032  31.399  1.00  0.00    -0.206 F 
ATOM     81  C   UNL A   1      34.998  33.802  29.360  1.00  0.00     0.060 A 
BRANCH  81  82
ATOM     82  S   UNL A   1      33.464  34.575  28.799  1.00  0.00     0.124 S 
ATOM     83  O   UNL A   1      32.750  34.766  30.055  1.00  0.00    -0.237 OA
ATOM     84  O   UNL A   1      33.955  35.788  28.151  1.00  0.00    -0.237 OA
ATOM     85  O   UNL A   1      32.897  33.579  27.894  1.00  0.00    -0.744 OA
ENDBRANCH  81  82
ENDBRANCH  49  74
BRANCH  61  86
ATOM     86  C   UNL A   1      42.530  33.531  34.738  1.00  0.00     0.058 A 
ATOM     87  C   UNL A   1      43.355  34.625  34.430  1.00  0.00     0.135 A 
ATOM     88  C   UNL A   1      41.918  33.515  36.003  1.00  0.00     0.135 A 
ATOM     89  F   UNL A   1      43.970  34.692  33.238  1.00  0.00    -0.206 F 
ATOM     90  C   UNL A   1      43.583  35.648  35.346  1.00  0.00     0.059 A 
ATOM     91  C   UNL A   1      42.105  34.543  36.923  1.00  0.00     0.059 A 
ATOM     92  F   UNL A   1      41.109  32.501  36.350  1.00  0.00    -0.206 F 
ATOM     93  C   UNL A   1      42.950  35.600  36.590  1.00  0.00     0.060 A 
BRANCH  93  94
ATOM     94  S   UNL A   1      43.228  36.949  37.756  1.00  0.00     0.124 S 
ATOM     95  O   UNL A   1      41.883  37.173  38.274  1.00  0.00    -0.237 OA
ATOM     96  O   UNL A   1      44.179  36.361  38.694  1.00  0.00    -0.237 OA
ATOM     97  O   UNL A   1      43.763  38.020  36.919  1.00  0.00    -0.744 OA
ENDBRANCH  93  94
ENDBRANCH  61  86
ENDBRANCH  35  36
ENDBRANCH  28  30
ENDBRANCH  27  28
ENDBRANCH  26  27
ENDBRANCH  25  26
ENDBRANCH  24  25
ENDBRANCH   1  24
TORSDOF 24
ENDMDL
MODEL 3
REMARK VINA RESULT:      -9.0      6.451     12.015
REMARK SMILES CC1=C(C)C(=O)N(C[C@H](CC(C)C)C(=O)OCCOCCOCCOC(=O)c2ccc(-c3c4nc(c(-c5c(F)cc(S(=O)(=O)[O-])cc5F)c5ccc([nH]5)c(-c5c(F)cc(S(=O)(=O)[O-])cc5F)c5nc(c(-c6c(F)cc(S(=O)(=O)[O-])cc6F)c6ccc3[nH]6)C=C5)C=C4)cc2)C1=O
REMARK SMILES IDX 21 1 20 2 19 3 18 4 17 5 16 6 14 7 15 8 9 9 8 10 7 11 1 12
REMARK SMILES IDX 2 13 3 14 94 15 4 16 5 17 95 18 6 19 10 20 11 21 12 22 13 23
REMARK SMILES IDX 22 24 23 25 24 26 25 27 26 28 27 29 28 30 29 31 93 32 30 33
REMARK SMILES IDX 92 34 31 35 32 36 33 37 86 38 34 39 91 40 85 41 87 42 35 43
REMARK SMILES IDX 90 44 84 45 83 46 36 48 70 49 49 50 69 51 50 52 53 53 68 54
REMARK SMILES IDX 88 55 51 56 52 57 67 59 89 60 54 61 37 62 38 63 47 64 39 65
REMARK SMILES IDX 40 66 46 67 48 68 41 69 42 70 43 71 44 72 45 73 71 74 72 75
REMARK SMILES IDX 81 76 73 77 74 78 80 79 82 80 75 81 76 82 77 83 78 84 79 85
REMARK SMILES IDX 55 86 56 87 65 88 57 89 58 90 64 91 66 92 59 93 60 94 61 95
REMARK SMILES IDX 62 96 63 97
REMARK H PARENT 87 47 53 58
REMARK Flexibility Score: inf
ROOT
ATOM      1  C   UNL A   1      34.306  35.646  32.261  1.00  0.00     0.188 C 
ENDROOT
BRANCH   1   2
ATOM      2  C   UNL A   1      33.372  36.575  31.443  1.00  0.00     0.188 C 
BRANCH   2   3
ATOM      3  O   UNL A   1      33.095  36.244  30.080  1.00  0.00    -0.376 OA
BRANCH   3   4
ATOM      4  C   UNL A   1      33.246  34.897  29.676  1.00  0.00     0.202 C 
BRANCH   4   5
ATOM      5  C   UNL A   1      34.425  34.592  28.747  1.00  0.00     0.261 C 
BRANCH   5   6
ATOM      6  O   UNL A   1      34.898  33.231  28.732  1.00  0.00    -0.463 OA
BRANCH   6   7
ATOM      7  C   UNL A   1      34.110  32.208  28.293  1.00  0.00     0.310 C 
ATOM      8  O   UNL A   1      33.138  32.344  27.550  1.00  0.00    -0.252 OA
BRANCH   7   9
ATOM      9  C   UNL A   1      34.800  30.887  28.307  1.00  0.00     0.119 C 
BRANCH   9  10
ATOM     10  C   UNL A   1      36.336  31.040  28.376  1.00  0.00     0.144 C 
BRANCH  10  11
ATOM     11  N   UNL A   1      37.108  29.858  28.944  1.00  0.00    -0.274 N 
ATOM     12  C   UNL A   1      38.382  27.931  31.830  1.00  0.00     0.051 C 
ATOM     13  C   UNL A   1      38.139  28.447  30.458  1.00  0.00     0.023 C 
ATOM     14  C   UNL A   1      38.733  28.242  29.285  1.00  0.00     0.023 C 
ATOM     15  C   UNL A   1      37.009  29.330  30.194  1.00  0.00     0.256 C 
ATOM     16  C   UNL A   1      39.830  27.283  29.030  1.00  0.00     0.051 C 
ATOM     17  C   UNL A   1      38.127  29.197  28.317  1.00  0.00     0.256 C 
ATOM     18  O   UNL A   1      36.173  29.495  31.043  1.00  0.00    -0.269 OA
ATOM     19  O   UNL A   1      38.549  29.381  27.188  1.00  0.00    -0.269 OA
ENDBRANCH  10  11
ENDBRANCH   9  10
BRANCH   9  20
ATOM     20  C   UNL A   1      33.925  30.120  27.246  1.00  0.00     0.020 C 
BRANCH  20  21
ATOM     21  C   UNL A   1      33.719  28.593  27.244  1.00  0.00    -0.017 C 
ATOM     22  C   UNL A   1      32.250  28.318  27.573  1.00  0.00     0.007 C 
ATOM     23  C   UNL A   1      33.992  27.994  25.839  1.00  0.00     0.007 C 
ENDBRANCH  20  21
ENDBRANCH   9  20
ENDBRANCH   7   9
ENDBRANCH   6   7
ENDBRANCH   5   6
ENDBRANCH   4   5
ENDBRANCH   3   4
ENDBRANCH   2   3
ENDBRANCH   1   2
BRANCH   1  24
ATOM     24  O   UNL A   1      33.742  34.932  33.354  1.00  0.00    -0.376 OA
BRANCH  24  25
ATOM     25  C   UNL A   1      33.718  33.527  33.220  1.00  0.00     0.202 C 
BRANCH  25  26
ATOM     26  C   UNL A   1      34.791  32.953  32.291  1.00  0.00     0.261 C 
BRANCH  26  27
ATOM     27  O   UNL A   1      35.576  31.894  32.882  1.00  0.00    -0.460 OA
BRANCH  27  28
ATOM     28  C   UNL A   1      36.664  32.286  33.598  1.00  0.00     0.338 C 
ATOM     29  O   UNL A   1      36.666  32.752  34.725  1.00  0.00    -0.246 OA
BRANCH  28  30
ATOM     30  C   UNL A   1      37.909  31.961  32.864  1.00  0.00     0.060 A 
ATOM     31  C   UNL A   1      39.013  31.451  33.563  1.00  0.00     0.016 A 
ATOM     32  C   UNL A   1      38.027  32.294  31.515  1.00  0.00     0.016 A 
ATOM     33  C   UNL A   1      40.261  31.356  32.937  1.00  0.00     0.010 A 
ATOM     34  C   UNL A   1      39.275  32.201  30.891  1.00  0.00     0.010 A 
ATOM     35  C   UNL A   1      40.410  31.790  31.615  1.00  0.00    -0.014 A 
BRANCH  35  36
ATOM     36  C   UNL A   1      41.758  32.037  31.035  1.00  0.00     0.031 A 
ATOM     37  C   UNL A   1      42.299  33.445  31.066  1.00  0.00     0.074 A 
ATOM     38  C   UNL A   1      42.470  31.058  30.452  1.00  0.00     0.049 A 
ATOM     39  N   UNL A   1      43.367  33.943  30.497  1.00  0.00    -0.248 NA
ATOM     40  C   UNL A   1      41.510  34.427  31.827  1.00  0.00     0.031 C 
ATOM     41  C   UNL A   1      42.076  29.654  30.382  1.00  0.00     0.029 A 
ATOM     42  N   UNL A   1      43.665  31.111  29.774  1.00  0.00    -0.354 N 
ATOM     43  C   UNL A   1      43.360  35.300  30.803  1.00  0.00     0.074 A 
ATOM     44  C   UNL A   1      42.168  35.550  31.586  1.00  0.00     0.031 C 
ATOM     45  C   UNL A   1      42.994  28.982  29.666  1.00  0.00     0.029 A 
ATOM     46  C   UNL A   1      44.020  29.916  29.196  1.00  0.00     0.049 A 
ATOM     47  H   UNL A   1      44.214  31.926  29.710  1.00  0.00     0.167 HD
ATOM     48  C   UNL A   1      44.262  36.252  30.462  1.00  0.00     0.037 A 
ATOM     49  C   UNL A   1      45.030  29.617  28.354  1.00  0.00     0.037 A 
ATOM     50  C   UNL A   1      45.449  35.991  29.689  1.00  0.00     0.049 A 
ATOM     51  C   UNL A   1      46.008  30.691  27.952  1.00  0.00     0.074 A 
ATOM     52  C   UNL A   1      46.455  36.872  29.333  1.00  0.00     0.029 A 
ATOM     53  N   UNL A   1      45.780  34.762  29.133  1.00  0.00    -0.354 N 
ATOM     54  N   UNL A   1      46.016  31.963  28.279  1.00  0.00    -0.248 NA
ATOM     55  C   UNL A   1      47.116  30.292  27.074  1.00  0.00     0.031 C 
ATOM     56  C   UNL A   1      47.357  36.194  28.506  1.00  0.00     0.029 A 
ATOM     57  C   UNL A   1      46.955  34.872  28.405  1.00  0.00     0.049 A 
ATOM     58  H   UNL A   1      45.258  33.935  29.240  1.00  0.00     0.167 HD
ATOM     59  C   UNL A   1      47.141  32.509  27.667  1.00  0.00     0.074 A 
ATOM     60  C   UNL A   1      47.793  31.427  26.958  1.00  0.00     0.031 C 
ATOM     61  C   UNL A   1      47.595  33.788  27.696  1.00  0.00     0.037 A 
BRANCH  48  62
ATOM     62  C   UNL A   1      43.971  37.670  30.882  1.00  0.00     0.058 A 
ATOM     63  C   UNL A   1      43.401  38.611  30.008  1.00  0.00     0.135 A 
ATOM     64  C   UNL A   1      44.272  38.094  32.188  1.00  0.00     0.135 A 
ATOM     65  F   UNL A   1      43.103  38.268  28.745  1.00  0.00    -0.206 F 
ATOM     66  C   UNL A   1      43.187  39.930  30.397  1.00  0.00     0.059 A 
ATOM     67  C   UNL A   1      44.032  39.399  32.609  1.00  0.00     0.059 A 
ATOM     68  F   UNL A   1      44.814  37.240  33.069  1.00  0.00    -0.206 F 
ATOM     69  C   UNL A   1      43.511  40.316  31.698  1.00  0.00     0.060 A 
BRANCH  69  70
ATOM     70  S   UNL A   1      43.254  42.038  32.180  1.00  0.00     0.124 S 
ATOM     71  O   UNL A   1      44.626  42.491  32.384  1.00  0.00    -0.237 OA
ATOM     72  O   UNL A   1      42.571  42.588  31.014  1.00  0.00    -0.237 OA
ATOM     73  O   UNL A   1      42.441  41.936  33.388  1.00  0.00    -0.744 OA
ENDBRANCH  69  70
ENDBRANCH  48  62
BRANCH  49  74
ATOM     74  C   UNL A   1      45.147  28.231  27.822  1.00  0.00     0.058 A 
ATOM     75  C   UNL A   1      44.525  27.855  26.624  1.00  0.00     0.135 A 
ATOM     76  C   UNL A   1      45.933  27.270  28.479  1.00  0.00     0.135 A 
ATOM     77  F   UNL A   1      43.748  28.730  25.967  1.00  0.00    -0.206 F 
ATOM     78  C   UNL A   1      44.689  26.581  26.086  1.00  0.00     0.059 A 
ATOM     79  C   UNL A   1      46.133  25.999  27.949  1.00  0.00     0.059 A 
ATOM     80  F   UNL A   1      46.553  27.580  29.628  1.00  0.00    -0.206 F 
ATOM     81  C   UNL A   1      45.508  25.666  26.749  1.00  0.00     0.060 A 
BRANCH  81  82
ATOM     82  S   UNL A   1      45.802  24.055  25.985  1.00  0.00     0.124 S 
ATOM     83  O   UNL A   1      44.732  23.251  26.565  1.00  0.00    -0.237 OA
ATOM     84  O   UNL A   1      45.670  24.365  24.564  1.00  0.00    -0.237 OA
ATOM     85  O   UNL A   1      47.153  23.718  26.420  1.00  0.00    -0.744 OA
ENDBRANCH  81  82
ENDBRANCH  49  74
BRANCH  61  86
ATOM     86  C   UNL A   1      48.878  34.095  26.968  1.00  0.00     0.058 A 
ATOM     87  C   UNL A   1      48.888  34.623  25.667  1.00  0.00     0.135 A 
ATOM     88  C   UNL A   1      50.117  33.916  27.608  1.00  0.00     0.135 A 
ATOM     89  F   UNL A   1      47.736  34.810  25.005  1.00  0.00    -0.206 F 
ATOM     90  C   UNL A   1      50.079  34.939  25.018  1.00  0.00     0.059 A 
ATOM     91  C   UNL A   1      51.318  34.256  26.991  1.00  0.00     0.059 A 
ATOM     92  F   UNL A   1      50.169  33.427  28.856  1.00  0.00    -0.206 F 
ATOM     93  C   UNL A   1      51.289  34.756  25.690  1.00  0.00     0.060 A 
BRANCH  93  94
ATOM     94  S   UNL A   1      52.823  35.200  24.849  1.00  0.00     0.124 S 
ATOM     95  O   UNL A   1      53.824  34.594  25.720  1.00  0.00    -0.237 OA
ATOM     96  O   UNL A   1      52.656  34.573  23.542  1.00  0.00    -0.237 OA
ATOM     97  O   UNL A   1      52.799  36.661  24.844  1.00  0.00    -0.744 OA
ENDBRANCH  93  94
ENDBRANCH  61  86
ENDBRANCH  35  36
ENDBRANCH  28  30
ENDBRANCH  27  28
ENDBRANCH  26  27
ENDBRANCH  25  26
ENDBRANCH  24  25
ENDBRANCH   1  24
TORSDOF 24
ENDMDL
