MODEL 1
REMARK VINA RESULT:     -10.3      0.000      0.000
REMARK SMILES CC(C)[C@H](C)CNC(=O)N1CC(n2cc(C(=O)OCCOCCOCCOC(=O)c3ccc(-c4c5nc(c(-c6c(F)cc(S(=O)(=O)[O-])cc6F)c6ccc([nH]6)c(-c6c(F)cc(S(=O)(=O)[O-])cc6F)c6nc(c(-c7c(F)cc(S(=O)(=O)[O-])cc7F)c7ccc4[nH]7)C=C6)C=C5)cc3)nn2)C1
REMARK SMILES IDX 22 1 21 2 20 3 19 4 18 5 16 6 17 7 15 8 13 9 14 10 97 11
REMARK SMILES IDX 96 12 12 13 7 14 8 15 9 17 10 18 11 19 98 20 6 21 4 22 5 23
REMARK SMILES IDX 2 24 1 25 3 26 23 27 24 28 25 29 26 30 27 31 28 32 29 33
REMARK SMILES IDX 30 34 31 35 95 36 32 37 94 38 33 39 34 40 35 41 88 42 36 43
REMARK SMILES IDX 93 44 87 45 89 46 37 47 92 48 86 49 85 50 38 52 72 53 51 54
REMARK SMILES IDX 71 55 52 56 55 57 70 58 90 59 53 60 54 61 69 63 91 64 56 65
REMARK SMILES IDX 39 66 40 67 49 68 41 69 42 70 48 71 50 72 43 73 44 74 45 75
REMARK SMILES IDX 46 76 47 77 73 78 74 79 83 80 75 81 76 82 82 83 84 84 77 85
REMARK SMILES IDX 78 86 79 87 80 88 81 89 57 90 58 91 67 92 59 93 60 94 66 95
REMARK SMILES IDX 68 96 61 97 62 98 63 99 64 100 65 101
REMARK H PARENT 7 16 89 51 55 62
REMARK Flexibility Score: inf
ROOT
ATOM      1  C   UNL A   1      35.032  33.241  28.374  1.00  0.00     0.188 C 
ENDROOT
BRANCH   1   2
ATOM      2  O   UNL A   1      35.394  32.151  27.546  1.00  0.00    -0.376 OA
BRANCH   2   3
ATOM      3  C   UNL A   1      34.938  30.839  27.826  1.00  0.00     0.202 C 
BRANCH   3   4
ATOM      4  C   UNL A   1      33.504  30.372  27.498  1.00  0.00     0.261 C 
BRANCH   4   5
ATOM      5  O   UNL A   1      33.179  30.243  26.106  1.00  0.00    -0.458 OA
BRANCH   5   6
ATOM      6  C   UNL A   1      31.866  30.386  25.780  1.00  0.00     0.360 C 
ATOM      7  O   UNL A   1      31.224  31.426  25.954  1.00  0.00    -0.244 OA
BRANCH   6   8
ATOM      8  C   UNL A   1      31.307  29.226  25.103  1.00  0.00     0.190 A 
ATOM      9  N   UNL A   1      30.636  27.265  24.455  1.00  0.00    -0.245 N 
ATOM     10  C   UNL A   1      31.332  27.887  25.459  1.00  0.00     0.147 A 
ATOM     11  N   UNL A   1      30.264  28.141  23.511  1.00  0.00    -0.066 NA
ATOM     12  N   UNL A   1      30.665  29.342  23.894  1.00  0.00    -0.123 NA
BRANCH   9  13
ATOM     13  C   UNL A   1      30.154  25.918  24.528  1.00  0.00     0.148 C 
ATOM     14  N   UNL A   1      31.894  22.066  24.856  1.00  0.00    -0.338 N 
ATOM     15  C   UNL A   1      30.996  22.854  25.499  1.00  0.00     0.317 C 
ATOM     16  H   UNL A   1      31.651  21.114  24.802  1.00  0.00     0.165 HD
ATOM     17  O   UNL A   1      30.201  22.322  26.272  1.00  0.00    -0.249 OA
ATOM     18  N   UNL A   1      31.002  24.188  25.265  1.00  0.00    -0.320 N 
ATOM     19  C   UNL A   1      30.219  25.238  25.906  1.00  0.00     0.150 C 
ATOM     20  C   UNL A   1      31.274  24.965  24.074  1.00  0.00     0.150 C 
BRANCH  14  21
ATOM     21  C   UNL A   1      33.160  22.414  24.234  1.00  0.00     0.121 C 
BRANCH  21  22
ATOM     22  C   UNL A   1      34.375  22.030  25.115  1.00  0.00     0.008 C 
ATOM     23  C   UNL A   1      34.708  20.547  24.878  1.00  0.00     0.010 C 
BRANCH  22  24
ATOM     24  C   UNL A   1      35.561  23.014  24.860  1.00  0.00    -0.013 C 
ATOM     25  C   UNL A   1      36.000  22.963  23.385  1.00  0.00     0.008 C 
ATOM     26  C   UNL A   1      35.253  24.476  25.201  1.00  0.00     0.008 C 
ENDBRANCH  22  24
ENDBRANCH  21  22
ENDBRANCH  14  21
ENDBRANCH   9  13
ENDBRANCH   6   8
ENDBRANCH   5   6
ENDBRANCH   4   5
ENDBRANCH   3   4
ENDBRANCH   2   3
ENDBRANCH   1   2
BRANCH   1  27
ATOM     27  C   UNL A   1      34.206  34.431  27.828  1.00  0.00     0.188 C 
BRANCH  27  28
ATOM     28  O   UNL A   1      34.087  35.572  28.649  1.00  0.00    -0.376 OA
BRANCH  28  29
ATOM     29  C   UNL A   1      32.966  35.831  29.486  1.00  0.00     0.202 C 
BRANCH  29  30
ATOM     30  C   UNL A   1      32.944  35.748  31.013  1.00  0.00     0.261 C 
BRANCH  30  31
ATOM     31  O   UNL A   1      33.810  34.792  31.570  1.00  0.00    -0.460 OA
BRANCH  31  32
ATOM     32  C   UNL A   1      34.441  35.232  32.676  1.00  0.00     0.338 C 
ATOM     33  O   UNL A   1      34.485  36.385  33.086  1.00  0.00    -0.246 OA
BRANCH  32  34
ATOM     34  C   UNL A   1      35.086  34.097  33.332  1.00  0.00     0.060 A 
ATOM     35  C   UNL A   1      36.149  34.428  34.171  1.00  0.00     0.016 A 
ATOM     36  C   UNL A   1      34.943  32.837  32.735  1.00  0.00     0.016 A 
ATOM     37  C   UNL A   1      37.272  33.654  34.074  1.00  0.00     0.010 A 
ATOM     38  C   UNL A   1      36.066  32.068  32.636  1.00  0.00     0.010 A 
ATOM     39  C   UNL A   1      37.239  32.580  33.182  1.00  0.00    -0.014 A 
BRANCH  39  40
ATOM     40  C   UNL A   1      38.497  32.019  32.765  1.00  0.00     0.031 A 
ATOM     41  C   UNL A   1      39.404  31.792  33.899  1.00  0.00     0.074 A 
ATOM     42  C   UNL A   1      38.710  31.673  31.482  1.00  0.00     0.049 A 
ATOM     43  N   UNL A   1      40.465  32.458  34.206  1.00  0.00    -0.248 NA
ATOM     44  C   UNL A   1      38.937  30.869  34.947  1.00  0.00     0.031 C 
ATOM     45  C   UNL A   1      37.762  31.639  30.363  1.00  0.00     0.029 A 
ATOM     46  N   UNL A   1      39.840  31.158  30.936  1.00  0.00    -0.354 N 
ATOM     47  C   UNL A   1      40.937  31.851  35.361  1.00  0.00     0.074 A 
ATOM     48  C   UNL A   1      39.845  31.082  35.898  1.00  0.00     0.031 C 
ATOM     49  C   UNL A   1      38.290  30.909  29.353  1.00  0.00     0.029 A 
ATOM     50  C   UNL A   1      39.649  30.541  29.704  1.00  0.00     0.049 A 
ATOM     51  H   UNL A   1      40.720  31.217  31.374  1.00  0.00     0.167 HD
ATOM     52  C   UNL A   1      42.268  31.765  35.616  1.00  0.00     0.037 A 
ATOM     53  C   UNL A   1      40.535  29.685  29.131  1.00  0.00     0.037 A 
ATOM     54  C   UNL A   1      43.025  32.700  34.823  1.00  0.00     0.049 A 
ATOM     55  C   UNL A   1      41.861  29.969  29.763  1.00  0.00     0.074 A 
ATOM     56  C   UNL A   1      43.020  34.076  34.693  1.00  0.00     0.029 A 
ATOM     57  N   UNL A   1      43.666  32.223  33.703  1.00  0.00    -0.354 N 
ATOM     58  N   UNL A   1      42.494  31.106  29.624  1.00  0.00    -0.248 NA
ATOM     59  C   UNL A   1      42.216  29.205  30.954  1.00  0.00     0.031 C 
ATOM     60  C   UNL A   1      43.211  34.319  33.300  1.00  0.00     0.029 A 
ATOM     61  C   UNL A   1      43.386  33.086  32.670  1.00  0.00     0.049 A 
ATOM     62  H   UNL A   1      44.222  31.412  33.651  1.00  0.00     0.167 HD
ATOM     63  C   UNL A   1      43.012  31.392  30.883  1.00  0.00     0.074 A 
ATOM     64  C   UNL A   1      42.847  30.156  31.648  1.00  0.00     0.031 C 
ATOM     65  C   UNL A   1      43.252  32.676  31.287  1.00  0.00     0.037 A 
BRANCH  52  66
ATOM     66  C   UNL A   1      42.882  30.571  36.291  1.00  0.00     0.058 A 
ATOM     67  C   UNL A   1      43.779  30.764  37.355  1.00  0.00     0.135 A 
ATOM     68  C   UNL A   1      42.820  29.257  35.768  1.00  0.00     0.135 A 
ATOM     69  F   UNL A   1      43.930  31.978  37.906  1.00  0.00    -0.206 F 
ATOM     70  C   UNL A   1      44.592  29.736  37.831  1.00  0.00     0.059 A 
ATOM     71  C   UNL A   1      43.571  28.206  36.269  1.00  0.00     0.059 A 
ATOM     72  F   UNL A   1      42.109  28.949  34.677  1.00  0.00    -0.206 F 
ATOM     73  C   UNL A   1      44.487  28.464  37.272  1.00  0.00     0.060 A 
BRANCH  73  74
ATOM     74  S   UNL A   1      45.613  27.165  37.801  1.00  0.00     0.124 S 
ATOM     75  O   UNL A   1      45.733  26.374  36.581  1.00  0.00    -0.237 OA
ATOM     76  O   UNL A   1      46.793  27.929  38.190  1.00  0.00    -0.237 OA
ATOM     77  O   UNL A   1      44.895  26.525  38.900  1.00  0.00    -0.744 OA
ENDBRANCH  73  74
ENDBRANCH  52  66
BRANCH  53  78
ATOM     78  C   UNL A   1      40.201  28.388  28.477  1.00  0.00     0.058 A 
ATOM     79  C   UNL A   1      40.643  28.079  27.178  1.00  0.00     0.135 A 
ATOM     80  C   UNL A   1      39.657  27.313  29.213  1.00  0.00     0.135 A 
ATOM     81  F   UNL A   1      41.203  29.030  26.415  1.00  0.00    -0.206 F 
ATOM     82  C   UNL A   1      40.578  26.780  26.653  1.00  0.00     0.059 A 
ATOM     83  C   UNL A   1      39.572  26.016  28.709  1.00  0.00     0.059 A 
ATOM     84  F   UNL A   1      39.268  27.469  30.486  1.00  0.00    -0.206 F 
ATOM     85  C   UNL A   1      40.053  25.750  27.435  1.00  0.00     0.060 A 
BRANCH  85  86
ATOM     86  S   UNL A   1      40.099  24.045  26.830  1.00  0.00     0.124 S 
ATOM     87  O   UNL A   1      38.830  23.943  26.118  1.00  0.00    -0.237 OA
ATOM     88  O   UNL A   1      41.299  24.044  26.001  1.00  0.00    -0.237 OA
ATOM     89  O   UNL A   1      40.191  23.254  28.055  1.00  0.00    -0.744 OA
ENDBRANCH  85  86
ENDBRANCH  53  78
BRANCH  65  90
ATOM     90  C   UNL A   1      43.144  33.781  30.262  1.00  0.00     0.058 A 
ATOM     91  C   UNL A   1      41.945  34.446  29.943  1.00  0.00     0.135 A 
ATOM     92  C   UNL A   1      44.323  34.302  29.710  1.00  0.00     0.135 A 
ATOM     93  F   UNL A   1      40.788  34.085  30.515  1.00  0.00    -0.206 F 
ATOM     94  C   UNL A   1      41.914  35.548  29.084  1.00  0.00     0.059 A 
ATOM     95  C   UNL A   1      44.321  35.416  28.874  1.00  0.00     0.059 A 
ATOM     96  F   UNL A   1      45.509  33.758  30.028  1.00  0.00    -0.206 F 
ATOM     97  C   UNL A   1      43.110  36.027  28.553  1.00  0.00     0.060 A 
BRANCH  97  98
ATOM     98  S   UNL A   1      43.081  37.493  27.496  1.00  0.00     0.124 S 
ATOM     99  O   UNL A   1      44.429  37.494  26.937  1.00  0.00    -0.237 OA
ATOM    100  O   UNL A   1      42.006  37.186  26.556  1.00  0.00    -0.237 OA
ATOM    101  O   UNL A   1      42.790  38.580  28.427  1.00  0.00    -0.744 OA
ENDBRANCH  97  98
ENDBRANCH  65  90
ENDBRANCH  39  40
ENDBRANCH  32  34
ENDBRANCH  31  32
ENDBRANCH  30  31
ENDBRANCH  29  30
ENDBRANCH  28  29
ENDBRANCH  27  28
ENDBRANCH   1  27
TORSDOF 24
ENDMDL
MODEL 2
REMARK VINA RESULT:     -10.1      3.061      9.922
REMARK SMILES CC(C)[C@H](C)CNC(=O)N1CC(n2cc(C(=O)OCCOCCOCCOC(=O)c3ccc(-c4c5nc(c(-c6c(F)cc(S(=O)(=O)[O-])cc6F)c6ccc([nH]6)c(-c6c(F)cc(S(=O)(=O)[O-])cc6F)c6nc(c(-c7c(F)cc(S(=O)(=O)[O-])cc7F)c7ccc4[nH]7)C=C6)C=C5)cc3)nn2)C1
REMARK SMILES IDX 22 1 21 2 20 3 19 4 18 5 16 6 17 7 15 8 13 9 14 10 97 11
REMARK SMILES IDX 96 12 12 13 7 14 8 15 9 17 10 18 11 19 98 20 6 21 4 22 5 23
REMARK SMILES IDX 2 24 1 25 3 26 23 27 24 28 25 29 26 30 27 31 28 32 29 33
REMARK SMILES IDX 30 34 31 35 95 36 32 37 94 38 33 39 34 40 35 41 88 42 36 43
REMARK SMILES IDX 93 44 87 45 89 46 37 47 92 48 86 49 85 50 38 52 72 53 51 54
REMARK SMILES IDX 71 55 52 56 55 57 70 58 90 59 53 60 54 61 69 63 91 64 56 65
REMARK SMILES IDX 39 66 40 67 49 68 41 69 42 70 48 71 50 72 43 73 44 74 45 75
REMARK SMILES IDX 46 76 47 77 73 78 74 79 83 80 75 81 76 82 82 83 84 84 77 85
REMARK SMILES IDX 78 86 79 87 80 88 81 89 57 90 58 91 67 92 59 93 60 94 66 95
REMARK SMILES IDX 68 96 61 97 62 98 63 99 64 100 65 101
REMARK H PARENT 7 16 89 51 55 62
REMARK Flexibility Score: inf
ROOT
ATOM      1  C   UNL A   1      39.573  19.383  25.769  1.00  0.00     0.188 C 
ENDROOT
BRANCH   1   2
ATOM      2  O   UNL A   1      38.593  20.324  25.372  1.00  0.00    -0.376 OA
BRANCH   2   3
ATOM      3  C   UNL A   1      37.332  19.901  24.885  1.00  0.00     0.202 C 
BRANCH   3   4
ATOM      4  C   UNL A   1      36.029  20.678  25.171  1.00  0.00     0.261 C 
BRANCH   4   5
ATOM      5  O   UNL A   1      35.737  21.776  24.295  1.00  0.00    -0.458 OA
BRANCH   5   6
ATOM      6  C   UNL A   1      34.422  22.002  24.032  1.00  0.00     0.360 C 
ATOM      7  O   UNL A   1      33.528  21.174  24.235  1.00  0.00    -0.244 OA
BRANCH   6   8
ATOM      8  C   UNL A   1      34.144  23.357  23.582  1.00  0.00     0.190 A 
ATOM      9  N   UNL A   1      33.680  25.466  23.357  1.00  0.00    -0.245 N 
ATOM     10  C   UNL A   1      33.799  24.486  24.308  1.00  0.00     0.147 A 
ATOM     11  N   UNL A   1      33.869  24.971  22.126  1.00  0.00    -0.066 NA
ATOM     12  N   UNL A   1      34.156  23.686  22.248  1.00  0.00    -0.123 NA
BRANCH   9  13
ATOM     13  C   UNL A   1      33.614  26.866  23.652  1.00  0.00     0.148 C 
ATOM     14  N   UNL A   1      30.645  29.889  23.476  1.00  0.00    -0.338 N 
ATOM     15  C   UNL A   1      31.496  29.324  24.370  1.00  0.00     0.317 C 
ATOM     16  H   UNL A   1      30.547  30.865  23.551  1.00  0.00     0.165 HD
ATOM     17  O   UNL A   1      31.757  29.945  25.399  1.00  0.00    -0.249 OA
ATOM     18  N   UNL A   1      32.028  28.109  24.097  1.00  0.00    -0.320 N 
ATOM     19  C   UNL A   1      32.869  27.264  24.937  1.00  0.00     0.150 C 
ATOM     20  C   UNL A   1      32.448  27.487  22.860  1.00  0.00     0.150 C 
BRANCH  14  21
ATOM     21  C   UNL A   1      29.857  29.270  22.424  1.00  0.00     0.121 C 
BRANCH  21  22
ATOM     22  C   UNL A   1      28.455  29.916  22.280  1.00  0.00     0.008 C 
ATOM     23  C   UNL A   1      27.403  28.942  22.838  1.00  0.00     0.010 C 
BRANCH  22  24
ATOM     24  C   UNL A   1      28.444  31.334  22.933  1.00  0.00    -0.013 C 
ATOM     25  C   UNL A   1      28.333  32.427  21.855  1.00  0.00     0.008 C 
ATOM     26  C   UNL A   1      27.307  31.558  23.937  1.00  0.00     0.008 C 
ENDBRANCH  22  24
ENDBRANCH  21  22
ENDBRANCH  14  21
ENDBRANCH   9  13
ENDBRANCH   6   8
ENDBRANCH   5   6
ENDBRANCH   4   5
ENDBRANCH   3   4
ENDBRANCH   2   3
ENDBRANCH   1   2
BRANCH   1  27
ATOM     27  C   UNL A   1      41.005  19.822  26.158  1.00  0.00     0.188 C 
BRANCH  27  28
ATOM     28  O   UNL A   1      41.169  20.503  27.382  1.00  0.00    -0.376 OA
BRANCH  28  29
ATOM     29  C   UNL A   1      40.674  21.814  27.630  1.00  0.00     0.202 C 
BRANCH  29  30
ATOM     30  C   UNL A   1      41.458  23.118  27.472  1.00  0.00     0.261 C 
BRANCH  30  31
ATOM     31  O   UNL A   1      42.813  22.961  27.135  1.00  0.00    -0.460 OA
BRANCH  31  32
ATOM     32  C   UNL A   1      43.083  23.304  25.860  1.00  0.00     0.338 C 
ATOM     33  O   UNL A   1      42.918  22.612  24.863  1.00  0.00    -0.246 OA
BRANCH  32  34
ATOM     34  C   UNL A   1      43.621  24.662  25.842  1.00  0.00     0.060 A 
ATOM     35  C   UNL A   1      44.594  24.923  26.805  1.00  0.00     0.016 A 
ATOM     36  C   UNL A   1      42.833  25.663  25.257  1.00  0.00     0.016 A 
ATOM     37  C   UNL A   1      44.488  26.107  27.481  1.00  0.00     0.010 A 
ATOM     38  C   UNL A   1      42.726  26.842  25.935  1.00  0.00     0.010 A 
ATOM     39  C   UNL A   1      43.448  26.965  27.119  1.00  0.00    -0.014 A 
BRANCH  39  40
ATOM     40  C   UNL A   1      43.071  27.991  28.054  1.00  0.00     0.031 A 
ATOM     41  C   UNL A   1      44.055  29.082  28.104  1.00  0.00     0.074 A 
ATOM     42  C   UNL A   1      41.891  27.942  28.699  1.00  0.00     0.049 A 
ATOM     43  N   UNL A   1      44.897  29.343  29.046  1.00  0.00    -0.248 NA
ATOM     44  C   UNL A   1      44.293  29.818  26.851  1.00  0.00     0.031 C 
ATOM     45  C   UNL A   1      40.767  27.020  28.501  1.00  0.00     0.029 A 
ATOM     46  N   UNL A   1      41.408  28.815  29.619  1.00  0.00    -0.354 N 
ATOM     47  C   UNL A   1      45.594  30.453  28.593  1.00  0.00     0.074 A 
ATOM     48  C   UNL A   1      45.371  30.530  27.174  1.00  0.00     0.031 C 
ATOM     49  C   UNL A   1      39.663  27.529  29.095  1.00  0.00     0.029 A 
ATOM     50  C   UNL A   1      40.033  28.734  29.815  1.00  0.00     0.049 A 
ATOM     51  H   UNL A   1      41.982  29.449  30.105  1.00  0.00     0.167 HD
ATOM     52  C   UNL A   1      46.037  31.404  29.456  1.00  0.00     0.037 A 
ATOM     53  C   UNL A   1      39.289  29.697  30.419  1.00  0.00     0.037 A 
ATOM     54  C   UNL A   1      46.074  30.920  30.812  1.00  0.00     0.049 A 
ATOM     55  C   UNL A   1      40.238  30.503  31.247  1.00  0.00     0.074 A 
ATOM     56  C   UNL A   1      46.726  29.877  31.444  1.00  0.00     0.029 A 
ATOM     57  N   UNL A   1      45.044  31.278  31.652  1.00  0.00    -0.354 N 
ATOM     58  N   UNL A   1      40.888  30.016  32.273  1.00  0.00    -0.248 NA
ATOM     59  C   UNL A   1      40.854  31.668  30.622  1.00  0.00     0.031 C 
ATOM     60  C   UNL A   1      45.776  29.352  32.370  1.00  0.00     0.029 A 
ATOM     61  C   UNL A   1      44.626  30.140  32.299  1.00  0.00     0.049 A 
ATOM     62  H   UNL A   1      44.674  32.184  31.766  1.00  0.00     0.167 HD
ATOM     63  C   UNL A   1      42.172  30.543  32.177  1.00  0.00     0.074 A 
ATOM     64  C   UNL A   1      42.074  31.593  31.164  1.00  0.00     0.031 C 
ATOM     65  C   UNL A   1      43.256  29.893  32.699  1.00  0.00     0.037 A 
BRANCH  52  66
ATOM     66  C   UNL A   1      46.056  32.865  29.101  1.00  0.00     0.058 A 
ATOM     67  C   UNL A   1      44.850  33.519  28.800  1.00  0.00     0.135 A 
ATOM     68  C   UNL A   1      47.238  33.583  28.797  1.00  0.00     0.135 A 
ATOM     69  F   UNL A   1      43.673  32.914  29.028  1.00  0.00    -0.206 F 
ATOM     70  C   UNL A   1      44.821  34.774  28.195  1.00  0.00     0.059 A 
ATOM     71  C   UNL A   1      47.232  34.858  28.257  1.00  0.00     0.059 A 
ATOM     72  F   UNL A   1      48.458  33.043  28.911  1.00  0.00    -0.206 F 
ATOM     73  C   UNL A   1      46.019  35.429  27.917  1.00  0.00     0.060 A 
BRANCH  73  74
ATOM     74  S   UNL A   1      45.992  36.994  27.033  1.00  0.00     0.124 S 
ATOM     75  O   UNL A   1      46.635  37.881  27.997  1.00  0.00    -0.237 OA
ATOM     76  O   UNL A   1      46.764  36.679  25.836  1.00  0.00    -0.237 OA
ATOM     77  O   UNL A   1      44.568  37.230  26.810  1.00  0.00    -0.744 OA
ENDBRANCH  73  74
ENDBRANCH  52  66
BRANCH  53  78
ATOM     78  C   UNL A   1      37.976  30.216  29.940  1.00  0.00     0.058 A 
ATOM     79  C   UNL A   1      37.019  30.738  30.830  1.00  0.00     0.135 A 
ATOM     80  C   UNL A   1      37.733  30.451  28.570  1.00  0.00     0.135 A 
ATOM     81  F   UNL A   1      37.182  30.591  32.154  1.00  0.00    -0.206 F 
ATOM     82  C   UNL A   1      35.908  31.472  30.389  1.00  0.00     0.059 A 
ATOM     83  C   UNL A   1      36.632  31.169  28.107  1.00  0.00     0.059 A 
ATOM     84  F   UNL A   1      38.611  30.064  27.633  1.00  0.00    -0.206 F 
ATOM     85  C   UNL A   1      35.732  31.695  29.023  1.00  0.00     0.060 A 
BRANCH  85  86
ATOM     86  S   UNL A   1      34.389  32.765  28.450  1.00  0.00     0.124 S 
ATOM     87  O   UNL A   1      33.856  33.280  29.706  1.00  0.00    -0.237 OA
ATOM     88  O   UNL A   1      35.097  33.729  27.614  1.00  0.00    -0.237 OA
ATOM     89  O   UNL A   1      33.510  31.848  27.729  1.00  0.00    -0.744 OA
ENDBRANCH  85  86
ENDBRANCH  53  78
BRANCH  65  90
ATOM     90  C   UNL A   1      43.014  28.686  33.574  1.00  0.00     0.058 A 
ATOM     91  C   UNL A   1      43.011  27.359  33.105  1.00  0.00     0.135 A 
ATOM     92  C   UNL A   1      42.956  28.866  34.963  1.00  0.00     0.135 A 
ATOM     93  F   UNL A   1      43.177  27.093  31.802  1.00  0.00    -0.206 F 
ATOM     94  C   UNL A   1      42.912  26.267  33.970  1.00  0.00     0.059 A 
ATOM     95  C   UNL A   1      42.885  27.792  35.848  1.00  0.00     0.059 A 
ATOM     96  F   UNL A   1      43.025  30.103  35.483  1.00  0.00    -0.206 F 
ATOM     97  C   UNL A   1      42.849  26.493  35.343  1.00  0.00     0.060 A 
BRANCH  97  98
ATOM     98  S   UNL A   1      42.788  25.080  36.469  1.00  0.00     0.124 S 
ATOM     99  O   UNL A   1      44.076  25.174  37.149  1.00  0.00    -0.237 OA
ATOM    100  O   UNL A   1      41.617  25.376  37.289  1.00  0.00    -0.237 OA
ATOM    101  O   UNL A   1      42.637  23.936  35.573  1.00  0.00    -0.744 OA
ENDBRANCH  97  98
ENDBRANCH  65  90
ENDBRANCH  39  40
ENDBRANCH  32  34
ENDBRANCH  31  32
ENDBRANCH  30  31
ENDBRANCH  29  30
ENDBRANCH  28  29
ENDBRANCH  27  28
ENDBRANCH   1  27
TORSDOF 24
ENDMDL
MODEL 3
REMARK VINA RESULT:      -9.6      2.918      9.646
REMARK SMILES CC(C)[C@H](C)CNC(=O)N1CC(n2cc(C(=O)OCCOCCOCCOC(=O)c3ccc(-c4c5nc(c(-c6c(F)cc(S(=O)(=O)[O-])cc6F)c6ccc([nH]6)c(-c6c(F)cc(S(=O)(=O)[O-])cc6F)c6nc(c(-c7c(F)cc(S(=O)(=O)[O-])cc7F)c7ccc4[nH]7)C=C6)C=C5)cc3)nn2)C1
REMARK SMILES IDX 22 1 21 2 20 3 19 4 18 5 16 6 17 7 15 8 13 9 14 10 97 11
REMARK SMILES IDX 96 12 12 13 7 14 8 15 9 17 10 18 11 19 98 20 6 21 4 22 5 23
REMARK SMILES IDX 2 24 1 25 3 26 23 27 24 28 25 29 26 30 27 31 28 32 29 33
REMARK SMILES IDX 30 34 31 35 95 36 32 37 94 38 33 39 34 40 35 41 88 42 36 43
REMARK SMILES IDX 93 44 87 45 89 46 37 47 92 48 86 49 85 50 38 52 72 53 51 54
REMARK SMILES IDX 71 55 52 56 55 57 70 58 90 59 53 60 54 61 69 63 91 64 56 65
REMARK SMILES IDX 39 66 40 67 49 68 41 69 42 70 48 71 50 72 43 73 44 74 45 75
REMARK SMILES IDX 46 76 47 77 73 78 74 79 83 80 75 81 76 82 82 83 84 84 77 85
REMARK SMILES IDX 78 86 79 87 80 88 81 89 57 90 58 91 67 92 59 93 60 94 66 95
REMARK SMILES IDX 68 96 61 97 62 98 63 99 64 100 65 101
REMARK H PARENT 7 16 89 51 55 62
REMARK Flexibility Score: inf
ROOT
ATOM      1  C   UNL A   1      39.925  19.618  25.831  1.00  0.00     0.188 C 
ENDROOT
BRANCH   1   2
ATOM      2  O   UNL A   1      38.971  20.650  25.664  1.00  0.00    -0.376 OA
BRANCH   2   3
ATOM      3  C   UNL A   1      37.744  20.408  24.999  1.00  0.00     0.202 C 
BRANCH   3   4
ATOM      4  C   UNL A   1      36.412  21.035  25.461  1.00  0.00     0.261 C 
BRANCH   4   5
ATOM      5  O   UNL A   1      35.725  21.852  24.502  1.00  0.00    -0.458 OA
BRANCH   5   6
ATOM      6  C   UNL A   1      34.426  21.530  24.260  1.00  0.00     0.360 C 
ATOM      7  O   UNL A   1      33.891  20.487  24.649  1.00  0.00    -0.244 OA
BRANCH   6   8
ATOM      8  C   UNL A   1      33.685  22.583  23.584  1.00  0.00     0.190 A 
ATOM      9  N   UNL A   1      32.308  24.135  22.942  1.00  0.00    -0.245 N 
ATOM     10  C   UNL A   1      32.522  23.239  23.957  1.00  0.00     0.147 A 
ATOM     11  N   UNL A   1      33.227  24.002  21.977  1.00  0.00    -0.066 NA
ATOM     12  N   UNL A   1      34.076  23.060  22.355  1.00  0.00    -0.123 NA
BRANCH   9  13
ATOM     13  C   UNL A   1      31.385  25.228  23.020  1.00  0.00     0.148 C 
ATOM     14  N   UNL A   1      31.661  29.426  23.549  1.00  0.00    -0.338 N 
ATOM     15  C   UNL A   1      31.150  28.524  22.673  1.00  0.00     0.317 C 
ATOM     16  H   UNL A   1      31.093  30.211  23.720  1.00  0.00     0.165 HD
ATOM     17  O   UNL A   1      30.276  28.900  21.893  1.00  0.00    -0.249 OA
ATOM     18  N   UNL A   1      31.614  27.252  22.690  1.00  0.00    -0.320 N 
ATOM     19  C   UNL A   1      31.303  26.148  21.790  1.00  0.00     0.150 C 
ATOM     20  C   UNL A   1      32.057  26.394  23.768  1.00  0.00     0.150 C 
BRANCH  14  21
ATOM     21  C   UNL A   1      32.920  29.408  24.274  1.00  0.00     0.121 C 
BRANCH  21  22
ATOM     22  C   UNL A   1      32.761  29.866  25.746  1.00  0.00     0.008 C 
ATOM     23  C   UNL A   1      31.400  30.567  25.900  1.00  0.00     0.010 C 
BRANCH  22  24
ATOM     24  C   UNL A   1      32.989  28.663  26.714  1.00  0.00    -0.013 C 
ATOM     25  C   UNL A   1      34.199  28.924  27.628  1.00  0.00     0.008 C 
ATOM     26  C   UNL A   1      31.790  28.340  27.614  1.00  0.00     0.008 C 
ENDBRANCH  22  24
ENDBRANCH  21  22
ENDBRANCH  14  21
ENDBRANCH   9  13
ENDBRANCH   6   8
ENDBRANCH   5   6
ENDBRANCH   4   5
ENDBRANCH   3   4
ENDBRANCH   2   3
ENDBRANCH   1   2
BRANCH   1  27
ATOM     27  C   UNL A   1      41.348  19.910  26.364  1.00  0.00     0.188 C 
BRANCH  27  28
ATOM     28  O   UNL A   1      41.460  20.489  27.645  1.00  0.00    -0.376 OA
BRANCH  28  29
ATOM     29  C   UNL A   1      40.927  21.764  27.985  1.00  0.00     0.202 C 
BRANCH  29  30
ATOM     30  C   UNL A   1      41.641  23.108  27.835  1.00  0.00     0.261 C 
BRANCH  30  31
ATOM     31  O   UNL A   1      42.924  23.040  27.266  1.00  0.00    -0.460 OA
BRANCH  31  32
ATOM     32  C   UNL A   1      42.943  23.380  25.962  1.00  0.00     0.338 C 
ATOM     33  O   UNL A   1      42.660  22.660  25.012  1.00  0.00    -0.246 OA
BRANCH  32  34
ATOM     34  C   UNL A   1      43.364  24.774  25.845  1.00  0.00     0.060 A 
ATOM     35  C   UNL A   1      44.449  25.130  26.646  1.00  0.00     0.016 A 
ATOM     36  C   UNL A   1      42.422  25.698  25.374  1.00  0.00     0.016 A 
ATOM     37  C   UNL A   1      44.354  26.319  27.315  1.00  0.00     0.010 A 
ATOM     38  C   UNL A   1      42.327  26.882  26.045  1.00  0.00     0.010 A 
ATOM     39  C   UNL A   1      43.208  27.087  27.104  1.00  0.00    -0.014 A 
BRANCH  39  40
ATOM     40  C   UNL A   1      42.897  28.105  28.072  1.00  0.00     0.031 A 
ATOM     41  C   UNL A   1      43.922  29.158  28.115  1.00  0.00     0.074 A 
ATOM     42  C   UNL A   1      41.736  28.085  28.751  1.00  0.00     0.049 A 
ATOM     43  N   UNL A   1      44.801  29.366  29.037  1.00  0.00    -0.248 NA
ATOM     44  C   UNL A   1      44.151  29.913  26.872  1.00  0.00     0.031 C 
ATOM     45  C   UNL A   1      40.572  27.210  28.567  1.00  0.00     0.029 A 
ATOM     46  N   UNL A   1      41.313  28.953  29.704  1.00  0.00    -0.354 N 
ATOM     47  C   UNL A   1      45.526  30.459  28.588  1.00  0.00     0.074 A 
ATOM     48  C   UNL A   1      45.264  30.577  27.178  1.00  0.00     0.031 C 
ATOM     49  C   UNL A   1      39.506  27.746  29.206  1.00  0.00     0.029 A 
ATOM     50  C   UNL A   1      39.943  28.919  29.940  1.00  0.00     0.049 A 
ATOM     51  H   UNL A   1      41.925  29.555  30.187  1.00  0.00     0.167 HD
ATOM     52  C   UNL A   1      46.030  31.374  29.457  1.00  0.00     0.037 A 
ATOM     53  C   UNL A   1      39.253  29.895  30.587  1.00  0.00     0.037 A 
ATOM     54  C   UNL A   1      46.088  30.858  30.801  1.00  0.00     0.049 A 
ATOM     55  C   UNL A   1      40.256  30.647  31.403  1.00  0.00     0.074 A 
ATOM     56  C   UNL A   1      46.719  29.777  31.390  1.00  0.00     0.029 A 
ATOM     57  N   UNL A   1      45.098  31.234  31.679  1.00  0.00    -0.354 N 
ATOM     58  N   UNL A   1      40.917  30.113  32.399  1.00  0.00    -0.248 NA
ATOM     59  C   UNL A   1      40.897  31.802  30.786  1.00  0.00     0.031 C 
ATOM     60  C   UNL A   1      45.778  29.266  32.333  1.00  0.00     0.029 A 
ATOM     61  C   UNL A   1      44.657  30.097  32.313  1.00  0.00     0.049 A 
ATOM     62  H   UNL A   1      44.766  32.149  31.825  1.00  0.00     0.167 HD
ATOM     63  C   UNL A   1      42.216  30.593  32.275  1.00  0.00     0.074 A 
ATOM     64  C   UNL A   1      42.128  31.670  31.289  1.00  0.00     0.031 C 
ATOM     65  C   UNL A   1      43.290  29.892  32.749  1.00  0.00     0.037 A 
BRANCH  52  66
ATOM     66  C   UNL A   1      46.093  32.840  29.134  1.00  0.00     0.058 A 
ATOM     67  C   UNL A   1      47.298  33.537  29.319  1.00  0.00     0.135 A 
ATOM     68  C   UNL A   1      44.949  33.640  28.895  1.00  0.00     0.135 A 
ATOM     69  F   UNL A   1      48.436  32.873  29.576  1.00  0.00    -0.206 F 
ATOM     70  C   UNL A   1      47.354  34.930  29.315  1.00  0.00     0.059 A 
ATOM     71  C   UNL A   1      44.994  35.022  28.821  1.00  0.00     0.059 A 
ATOM     72  F   UNL A   1      43.714  33.128  28.825  1.00  0.00    -0.206 F 
ATOM     73  C   UNL A   1      46.192  35.662  29.077  1.00  0.00     0.060 A 
BRANCH  73  74
ATOM     74  S   UNL A   1      46.235  37.457  29.186  1.00  0.00     0.124 S 
ATOM     75  O   UNL A   1      47.057  37.654  30.375  1.00  0.00    -0.237 OA
ATOM     76  O   UNL A   1      46.848  37.822  27.913  1.00  0.00    -0.237 OA
ATOM     77  O   UNL A   1      44.827  37.819  29.325  1.00  0.00    -0.744 OA
ENDBRANCH  73  74
ENDBRANCH  52  66
BRANCH  53  78
ATOM     78  C   UNL A   1      37.947  30.473  30.160  1.00  0.00     0.058 A 
ATOM     79  C   UNL A   1      37.009  30.949  31.094  1.00  0.00     0.135 A 
ATOM     80  C   UNL A   1      37.697  30.810  28.812  1.00  0.00     0.135 A 
ATOM     81  F   UNL A   1      37.180  30.705  32.403  1.00  0.00    -0.206 F 
ATOM     82  C   UNL A   1      35.910  31.735  30.718  1.00  0.00     0.059 A 
ATOM     83  C   UNL A   1      36.607  31.580  28.413  1.00  0.00     0.059 A 
ATOM     84  F   UNL A   1      38.558  30.473  27.842  1.00  0.00    -0.206 F 
ATOM     85  C   UNL A   1      35.726  32.058  29.373  1.00  0.00     0.060 A 
BRANCH  85  86
ATOM     86  S   UNL A   1      34.401  33.193  28.891  1.00  0.00     0.124 S 
ATOM     87  O   UNL A   1      35.146  34.273  28.252  1.00  0.00    -0.237 OA
ATOM     88  O   UNL A   1      33.592  32.364  28.005  1.00  0.00    -0.237 OA
ATOM     89  O   UNL A   1      33.772  33.539  30.163  1.00  0.00    -0.744 OA
ENDBRANCH  85  86
ENDBRANCH  53  78
BRANCH  65  90
ATOM     90  C   UNL A   1      43.030  28.675  33.605  1.00  0.00     0.058 A 
ATOM     91  C   UNL A   1      42.951  27.361  33.105  1.00  0.00     0.135 A 
ATOM     92  C   UNL A   1      43.032  28.823  35.000  1.00  0.00     0.135 A 
ATOM     93  F   UNL A   1      43.055  27.121  31.792  1.00  0.00    -0.206 F 
ATOM     94  C   UNL A   1      42.836  26.253  33.949  1.00  0.00     0.059 A 
ATOM     95  C   UNL A   1      42.948  27.731  35.861  1.00  0.00     0.059 A 
ATOM     96  F   UNL A   1      43.174  30.042  35.545  1.00  0.00    -0.206 F 
ATOM     97  C   UNL A   1      42.836  26.447  35.328  1.00  0.00     0.060 A 
BRANCH  97  98
ATOM     98  S   UNL A   1      42.756  25.011  36.422  1.00  0.00     0.124 S 
ATOM     99  O   UNL A   1      41.323  24.900  36.678  1.00  0.00    -0.237 OA
ATOM    100  O   UNL A   1      43.335  23.952  35.600  1.00  0.00    -0.237 OA
ATOM    101  O   UNL A   1      43.566  25.410  37.570  1.00  0.00    -0.744 OA
ENDBRANCH  97  98
ENDBRANCH  65  90
ENDBRANCH  39  40
ENDBRANCH  32  34
ENDBRANCH  31  32
ENDBRANCH  30  31
ENDBRANCH  29  30
ENDBRANCH  28  29
ENDBRANCH  27  28
ENDBRANCH   1  27
TORSDOF 24
ENDMDL
