MODEL 1
REMARK VINA RESULT:     -12.4      0.000      0.000
REMARK SMILES O=C(OCCOCCOCCOC(=O)c1ccc(-c2c3nc(c(-c4c(F)cc(S(=O)(=O)[O-])cc4F)c4ccc([nH]4)c(-c4c(F)cc(S(=O)(=O)[O-])cc4F)c4nc(c(-c5c(F)cc(S(=O)(=O)[O-])cc5F)c5ccc2[nH]5)C=C4)C=C3)cc1)C1=Cc2cc(Cl)cc(-c3ccccc3)c2O[C@@H]1C(F)(F)F
REMARK SMILES IDX 8 1 7 2 6 3 5 4 4 5 3 6 2 7 1 8 81 9 82 10 97 11 83 12 96 13
REMARK SMILES IDX 84 14 95 15 85 16 88 17 86 18 87 19 98 20 99 21 100 22
REMARK SMILES IDX 101 23 89 24 90 25 94 26 91 27 93 28 92 29 9 30 10 31 11 32
REMARK SMILES IDX 12 33 13 34 14 35 15 36 16 37 80 38 17 39 79 40 18 41 19 42
REMARK SMILES IDX 20 43 73 44 21 45 78 46 72 47 74 48 22 49 77 50 71 51 70 52
REMARK SMILES IDX 23 54 57 55 36 56 56 57 37 58 40 59 55 60 75 61 38 62 39 63
REMARK SMILES IDX 54 65 76 66 41 67 24 68 25 69 34 70 26 71 27 72 33 73 35 74
REMARK SMILES IDX 28 75 29 76 30 77 31 78 32 79 58 80 59 81 68 82 60 83 61 84
REMARK SMILES IDX 67 85 69 86 62 87 63 88 64 89 65 90 66 91 42 92 43 93 52 94
REMARK SMILES IDX 44 95 45 96 51 97 53 98 46 99 47 100 48 101 49 102 50 103
REMARK H PARENT 74 53 40 64
REMARK Flexibility Score: inf
ROOT
ATOM      1  C   UNL A   1      32.484  31.814  27.160  1.00  0.00     0.188 C 
ENDROOT
BRANCH   1   2
ATOM      2  C   UNL A   1      31.801  30.461  26.890  1.00  0.00     0.188 C 
BRANCH   2   3
ATOM      3  O   UNL A   1      31.610  29.883  25.504  1.00  0.00    -0.376 OA
BRANCH   3   4
ATOM      4  C   UNL A   1      30.451  30.432  24.279  1.00  0.00     0.202 C 
BRANCH   4   5
ATOM      5  C   UNL A   1      30.234  29.424  22.360  1.00  0.00     0.261 C 
BRANCH   5   6
ATOM      6  O   UNL A   1      29.976  27.921  22.155  1.00  0.00    -0.460 OA
BRANCH   6   7
ATOM      7  C   UNL A   1      31.110  27.224  21.967  1.00  0.00     0.338 C 
ATOM      8  O   UNL A   1      31.362  26.426  21.100  1.00  0.00    -0.246 OA
BRANCH   7   9
ATOM      9  C   UNL A   1      31.583  27.351  23.331  1.00  0.00     0.087 C 
ATOM     10  C   UNL A   1      30.756  26.728  24.343  1.00  0.00     0.027 C 
ATOM     11  C   UNL A   1      33.381  26.853  22.902  1.00  0.00     0.316 C 
ATOM     12  C   UNL A   1      31.183  25.205  25.168  1.00  0.00     0.019 A 
ATOM     13  O   UNL A   1      33.803  25.087  23.662  1.00  0.00    -0.475 OA
ATOM     14  C   UNL A   1      30.221  24.659  25.979  1.00  0.00     0.032 A 
ATOM     15  C   UNL A   1      32.633  24.314  24.839  1.00  0.00     0.135 A 
ATOM     16  C   UNL A   1      30.541  23.420  26.531  1.00  0.00     0.042 A 
ATOM     17  C   UNL A   1      32.882  23.110  25.477  1.00  0.00     0.026 A 
ATOM     18  Cl  UNL A   1      29.359  22.671  27.553  1.00  0.00    -0.084 Cl
ATOM     19  C   UNL A   1      31.780  22.716  26.310  1.00  0.00     0.033 A 
BRANCH  11  20
ATOM     20  C   UNL A   1      33.959  28.425  23.262  1.00  0.00     0.430 C 
ATOM     21  F   UNL A   1      33.257  29.506  22.875  1.00  0.00    -0.167 F 
ATOM     22  F   UNL A   1      34.191  28.539  24.591  1.00  0.00    -0.167 F 
ATOM     23  F   UNL A   1      35.173  28.636  22.668  1.00  0.00    -0.167 F 
ENDBRANCH  11  20
BRANCH  17  24
ATOM     24  C   UNL A   1      34.043  22.227  25.524  1.00  0.00    -0.015 A 
ATOM     25  C   UNL A   1      35.307  22.695  25.896  1.00  0.00     0.009 A 
ATOM     26  C   UNL A   1      33.970  20.956  24.918  1.00  0.00     0.009 A 
ATOM     27  C   UNL A   1      36.442  21.885  25.754  1.00  0.00     0.001 A 
ATOM     28  C   UNL A   1      35.097  20.134  24.802  1.00  0.00     0.001 A 
ATOM     29  C   UNL A   1      36.332  20.595  25.237  1.00  0.00     0.000 A 
ENDBRANCH  17  24
ENDBRANCH   7   9
ENDBRANCH   6   7
ENDBRANCH   5   6
ENDBRANCH   4   5
ENDBRANCH   3   4
ENDBRANCH   2   3
ENDBRANCH   1   2
BRANCH   1  30
ATOM     30  O   UNL A   1      33.858  31.835  27.433  1.00  0.00    -0.376 OA
BRANCH  30  31
ATOM     31  C   UNL A   1      34.274  32.950  28.194  1.00  0.00     0.202 C 
BRANCH  31  32
ATOM     32  C   UNL A   1      34.830  32.733  29.607  1.00  0.00     0.261 C 
BRANCH  32  33
ATOM     33  O   UNL A   1      35.450  31.453  29.823  1.00  0.00    -0.460 OA
BRANCH  33  34
ATOM     34  C   UNL A   1      36.264  31.351  30.903  1.00  0.00     0.338 C 
ATOM     35  O   UNL A   1      35.990  31.600  32.063  1.00  0.00    -0.246 OA
BRANCH  34  36
ATOM     36  C   UNL A   1      37.519  30.702  30.482  1.00  0.00     0.060 A 
ATOM     37  C   UNL A   1      38.376  30.138  31.439  1.00  0.00     0.016 A 
ATOM     38  C   UNL A   1      37.862  30.694  29.131  1.00  0.00     0.016 A 
ATOM     39  C   UNL A   1      39.564  29.526  31.041  1.00  0.00     0.010 A 
ATOM     40  C   UNL A   1      39.075  30.126  28.740  1.00  0.00     0.010 A 
ATOM     41  C   UNL A   1      39.933  29.547  29.691  1.00  0.00    -0.014 A 
BRANCH  41  42
ATOM     42  C   UNL A   1      41.294  29.130  29.288  1.00  0.00     0.031 A 
ATOM     43  C   UNL A   1      42.362  30.183  29.226  1.00  0.00     0.074 A 
ATOM     44  C   UNL A   1      41.559  27.855  28.952  1.00  0.00     0.049 A 
ATOM     45  N   UNL A   1      43.589  30.089  28.788  1.00  0.00    -0.248 NA
ATOM     46  C   UNL A   1      41.995  31.524  29.712  1.00  0.00     0.031 C 
ATOM     47  C   UNL A   1      40.602  26.752  29.013  1.00  0.00     0.029 A 
ATOM     48  N   UNL A   1      42.708  27.277  28.473  1.00  0.00    -0.354 N 
ATOM     49  C   UNL A   1      44.132  31.360  28.925  1.00  0.00     0.074 A 
ATOM     50  C   UNL A   1      43.105  32.210  29.483  1.00  0.00     0.031 C 
ATOM     51  C   UNL A   1      41.196  25.633  28.563  1.00  0.00     0.029 A 
ATOM     52  C   UNL A   1      42.560  25.949  28.141  1.00  0.00     0.049 A 
ATOM     53  H   UNL A   1      43.557  27.765  28.375  1.00  0.00     0.167 HD
ATOM     54  C   UNL A   1      45.377  31.776  28.601  1.00  0.00     0.037 A 
ATOM     55  C   UNL A   1      43.414  25.105  27.527  1.00  0.00     0.037 A 
ATOM     56  C   UNL A   1      46.387  30.920  28.037  1.00  0.00     0.049 A 
ATOM     57  C   UNL A   1      44.777  25.618  27.118  1.00  0.00     0.074 A 
ATOM     58  C   UNL A   1      47.690  31.238  27.703  1.00  0.00     0.029 A 
ATOM     59  N   UNL A   1      46.199  29.587  27.703  1.00  0.00    -0.354 N 
ATOM     60  N   UNL A   1      45.301  26.809  27.300  1.00  0.00    -0.248 NA
ATOM     61  C   UNL A   1      45.661  24.680  26.411  1.00  0.00     0.031 C 
ATOM     62  C   UNL A   1      48.269  30.118  27.100  1.00  0.00     0.029 A 
ATOM     63  C   UNL A   1      47.352  29.081  27.126  1.00  0.00     0.049 A 
ATOM     64  H   UNL A   1      45.371  29.077  27.855  1.00  0.00     0.167 HD
ATOM     65  C   UNL A   1      46.577  26.754  26.747  1.00  0.00     0.074 A 
ATOM     66  C   UNL A   1      46.758  25.406  26.252  1.00  0.00     0.031 C 
ATOM     67  C   UNL A   1      47.513  27.730  26.646  1.00  0.00     0.037 A 
BRANCH  54  68
ATOM     68  C   UNL A   1      45.715  33.225  28.807  1.00  0.00     0.058 A 
ATOM     69  C   UNL A   1      46.274  33.696  30.005  1.00  0.00     0.135 A 
ATOM     70  C   UNL A   1      45.554  34.141  27.755  1.00  0.00     0.135 A 
ATOM     71  F   UNL A   1      46.425  32.868  31.052  1.00  0.00    -0.206 F 
ATOM     72  C   UNL A   1      46.666  35.022  30.150  1.00  0.00     0.059 A 
ATOM     73  C   UNL A   1      45.965  35.465  27.868  1.00  0.00     0.059 A 
ATOM     74  F   UNL A   1      45.010  33.746  26.593  1.00  0.00    -0.206 F 
ATOM     75  C   UNL A   1      46.521  35.895  29.070  1.00  0.00     0.060 A 
BRANCH  75  76
ATOM     76  S   UNL A   1      47.101  37.594  29.256  1.00  0.00     0.124 S 
ATOM     77  O   UNL A   1      45.868  38.349  29.059  1.00  0.00    -0.237 OA
ATOM     78  O   UNL A   1      47.633  37.591  30.615  1.00  0.00    -0.237 OA
ATOM     79  O   UNL A   1      48.097  37.733  28.197  1.00  0.00    -0.744 OA
ENDBRANCH  75  76
ENDBRANCH  54  68
BRANCH  55  80
ATOM     80  C   UNL A   1      43.005  23.708  27.198  1.00  0.00     0.058 A 
ATOM     81  C   UNL A   1      43.002  22.698  28.173  1.00  0.00     0.135 A 
ATOM     82  C   UNL A   1      42.662  23.341  25.886  1.00  0.00     0.135 A 
ATOM     83  F   UNL A   1      43.339  22.987  29.439  1.00  0.00    -0.206 F 
ATOM     84  C   UNL A   1      42.709  21.373  27.856  1.00  0.00     0.059 A 
ATOM     85  C   UNL A   1      42.328  22.031  25.552  1.00  0.00     0.059 A 
ATOM     86  F   UNL A   1      42.643  24.262  24.911  1.00  0.00    -0.206 F 
ATOM     87  C   UNL A   1      42.374  21.050  26.541  1.00  0.00     0.060 A 
BRANCH  87  88
ATOM     88  S   UNL A   1      41.987  19.333  26.137  1.00  0.00     0.124 S 
ATOM     89  O   UNL A   1      42.821  19.111  24.962  1.00  0.00    -0.237 OA
ATOM     90  O   UNL A   1      42.395  18.632  27.351  1.00  0.00    -0.237 OA
ATOM     91  O   UNL A   1      40.547  19.361  25.892  1.00  0.00    -0.744 OA
ENDBRANCH  87  88
ENDBRANCH  55  80
BRANCH  67  92
ATOM     92  C   UNL A   1      48.825  27.377  25.997  1.00  0.00     0.058 A 
ATOM     93  C   UNL A   1      49.011  27.474  24.609  1.00  0.00     0.135 A 
ATOM     94  C   UNL A   1      49.931  27.006  26.780  1.00  0.00     0.135 A 
ATOM     95  F   UNL A   1      47.987  27.819  23.812  1.00  0.00    -0.206 F 
ATOM     96  C   UNL A   1      50.239  27.194  24.019  1.00  0.00     0.059 A 
ATOM     97  C   UNL A   1      51.178  26.757  26.215  1.00  0.00     0.059 A 
ATOM     98  F   UNL A   1      49.814  26.911  28.114  1.00  0.00    -0.206 F 
ATOM     99  C   UNL A   1      51.319  26.844  24.831  1.00  0.00     0.060 A 
BRANCH  99 100
ATOM    100  S   UNL A   1      52.916  26.529  24.053  1.00  0.00     0.124 S 
ATOM    101  O   UNL A   1      52.542  26.406  22.648  1.00  0.00    -0.237 OA
ATOM    102  O   UNL A   1      53.673  27.726  24.406  1.00  0.00    -0.237 OA
ATOM    103  O   UNL A   1      53.371  25.297  24.691  1.00  0.00    -0.744 OA
ENDBRANCH  99 100
ENDBRANCH  67  92
ENDBRANCH  41  42
ENDBRANCH  34  36
ENDBRANCH  33  34
ENDBRANCH  32  33
ENDBRANCH  31  32
ENDBRANCH  30  31
ENDBRANCH   1  30
TORSDOF 22
ENDMDL
MODEL 2
REMARK VINA RESULT:     -11.8      2.759      9.774
REMARK SMILES O=C(OCCOCCOCCOC(=O)c1ccc(-c2c3nc(c(-c4c(F)cc(S(=O)(=O)[O-])cc4F)c4ccc([nH]4)c(-c4c(F)cc(S(=O)(=O)[O-])cc4F)c4nc(c(-c5c(F)cc(S(=O)(=O)[O-])cc5F)c5ccc2[nH]5)C=C4)C=C3)cc1)C1=Cc2cc(Cl)cc(-c3ccccc3)c2O[C@@H]1C(F)(F)F
REMARK SMILES IDX 8 1 7 2 6 3 5 4 4 5 3 6 2 7 1 8 81 9 82 10 97 11 83 12 96 13
REMARK SMILES IDX 84 14 95 15 85 16 88 17 86 18 87 19 98 20 99 21 100 22
REMARK SMILES IDX 101 23 89 24 90 25 94 26 91 27 93 28 92 29 9 30 10 31 11 32
REMARK SMILES IDX 12 33 13 34 14 35 15 36 16 37 80 38 17 39 79 40 18 41 19 42
REMARK SMILES IDX 20 43 73 44 21 45 78 46 72 47 74 48 22 49 77 50 71 51 70 52
REMARK SMILES IDX 23 54 57 55 36 56 56 57 37 58 40 59 55 60 75 61 38 62 39 63
REMARK SMILES IDX 54 65 76 66 41 67 24 68 25 69 34 70 26 71 27 72 33 73 35 74
REMARK SMILES IDX 28 75 29 76 30 77 31 78 32 79 58 80 59 81 68 82 60 83 61 84
REMARK SMILES IDX 67 85 69 86 62 87 63 88 64 89 65 90 66 91 42 92 43 93 52 94
REMARK SMILES IDX 44 95 45 96 51 97 53 98 46 99 47 100 48 101 49 102 50 103
REMARK H PARENT 74 53 40 64
REMARK Flexibility Score: inf
ROOT
ATOM      1  C   UNL A   1      40.251  19.844  26.184  1.00  0.00     0.188 C 
ENDROOT
BRANCH   1   2
ATOM      2  C   UNL A   1      39.209  20.885  25.739  1.00  0.00     0.188 C 
BRANCH   2   3
ATOM      3  O   UNL A   1      37.967  20.537  24.946  1.00  0.00    -0.376 OA
BRANCH   3   4
ATOM      4  C   UNL A   1      36.839  21.679  24.191  1.00  0.00     0.202 C 
BRANCH   4   5
ATOM      5  C   UNL A   1      35.700  23.122  25.359  1.00  0.00     0.261 C 
BRANCH   5   6
ATOM      6  O   UNL A   1      35.410  24.578  24.958  1.00  0.00    -0.460 OA
BRANCH   6   7
ATOM      7  C   UNL A   1      34.437  24.675  24.035  1.00  0.00     0.338 C 
ATOM      8  O   UNL A   1      34.543  24.925  22.862  1.00  0.00    -0.246 OA
BRANCH   7   9
ATOM      9  C   UNL A   1      33.366  24.915  24.982  1.00  0.00     0.087 C 
ATOM     10  C   UNL A   1      33.588  25.993  25.922  1.00  0.00     0.027 C 
ATOM     11  C   UNL A   1      31.991  24.866  23.651  1.00  0.00     0.316 C 
ATOM     12  C   UNL A   1      32.786  27.582  25.811  1.00  0.00     0.019 A 
ATOM     13  O   UNL A   1      31.220  26.658  23.394  1.00  0.00    -0.475 OA
ATOM     14  C   UNL A   1      33.226  28.550  26.678  1.00  0.00     0.032 A 
ATOM     15  C   UNL A   1      31.660  27.999  24.561  1.00  0.00     0.135 A 
ATOM     16  C   UNL A   1      32.655  29.809  26.503  1.00  0.00     0.042 A 
ATOM     17  C   UNL A   1      31.110  29.269  24.500  1.00  0.00     0.026 A 
ATOM     18  Cl  UNL A   1      33.180  31.079  27.559  1.00  0.00    -0.084 Cl
ATOM     19  C   UNL A   1      31.664  30.133  25.506  1.00  0.00     0.033 A 
BRANCH  11  20
ATOM     20  C   UNL A   1      31.341  23.419  24.300  1.00  0.00     0.430 C 
ATOM     21  F   UNL A   1      30.456  23.473  25.313  1.00  0.00    -0.167 F 
ATOM     22  F   UNL A   1      30.791  22.675  23.311  1.00  0.00    -0.167 F 
ATOM     23  F   UNL A   1      32.337  22.639  24.822  1.00  0.00    -0.167 F 
ENDBRANCH  11  20
BRANCH  17  24
ATOM     24  C   UNL A   1      30.055  29.861  23.685  1.00  0.00    -0.015 A 
ATOM     25  C   UNL A   1      29.798  29.422  22.383  1.00  0.00     0.009 A 
ATOM     26  C   UNL A   1      29.468  31.078  24.091  1.00  0.00     0.009 A 
ATOM     27  C   UNL A   1      28.915  30.123  21.550  1.00  0.00     0.001 A 
ATOM     28  C   UNL A   1      28.563  31.764  23.272  1.00  0.00     0.001 A 
ATOM     29  C   UNL A   1      28.275  31.274  22.006  1.00  0.00     0.000 A 
ENDBRANCH  17  24
ENDBRANCH   7   9
ENDBRANCH   6   7
ENDBRANCH   5   6
ENDBRANCH   4   5
ENDBRANCH   3   4
ENDBRANCH   2   3
ENDBRANCH   1   2
BRANCH   1  30
ATOM     30  O   UNL A   1      41.608  20.097  25.937  1.00  0.00    -0.376 OA
BRANCH  30  31
ATOM     31  C   UNL A   1      42.477  19.110  26.450  1.00  0.00     0.202 C 
BRANCH  31  32
ATOM     32  C   UNL A   1      43.466  18.413  25.507  1.00  0.00     0.261 C 
BRANCH  32  33
ATOM     33  O   UNL A   1      44.709  19.110  25.311  1.00  0.00    -0.460 OA
BRANCH  33  34
ATOM     34  C   UNL A   1      44.749  19.996  24.285  1.00  0.00     0.338 C 
ATOM     35  O   UNL A   1      44.567  19.768  23.102  1.00  0.00    -0.246 OA
BRANCH  34  36
ATOM     36  C   UNL A   1      44.875  21.354  24.845  1.00  0.00     0.060 A 
ATOM     37  C   UNL A   1      44.641  22.475  24.034  1.00  0.00     0.016 A 
ATOM     38  C   UNL A   1      45.267  21.509  26.173  1.00  0.00     0.016 A 
ATOM     39  C   UNL A   1      44.761  23.759  24.564  1.00  0.00     0.010 A 
ATOM     40  C   UNL A   1      45.436  22.795  26.687  1.00  0.00     0.010 A 
ATOM     41  C   UNL A   1      45.191  23.923  25.885  1.00  0.00    -0.014 A 
BRANCH  41  42
ATOM     42  C   UNL A   1      45.564  25.266  26.382  1.00  0.00     0.031 A 
ATOM     43  C   UNL A   1      44.473  26.140  26.932  1.00  0.00     0.074 A 
ATOM     44  C   UNL A   1      46.833  25.706  26.312  1.00  0.00     0.049 A 
ATOM     45  N   UNL A   1      44.529  27.388  27.310  1.00  0.00    -0.248 NA
ATOM     46  C   UNL A   1      43.140  25.527  27.060  1.00  0.00     0.031 C 
ATOM     47  C   UNL A   1      47.969  24.923  25.830  1.00  0.00     0.029 A 
ATOM     48  N   UNL A   1      47.375  26.927  26.628  1.00  0.00    -0.354 N 
ATOM     49  C   UNL A   1      43.237  27.717  27.702  1.00  0.00     0.074 A 
ATOM     50  C   UNL A   1      42.417  26.541  27.512  1.00  0.00     0.031 C 
ATOM     51  C   UNL A   1      49.072  25.692  25.858  1.00  0.00     0.029 A 
ATOM     52  C   UNL A   1      48.712  27.032  26.318  1.00  0.00     0.049 A 
ATOM     53  H   UNL A   1      46.858  27.657  27.038  1.00  0.00     0.167 HD
ATOM     54  C   UNL A   1      42.780  28.902  28.166  1.00  0.00     0.037 A 
ATOM     55  C   UNL A   1      49.533  28.102  26.359  1.00  0.00     0.037 A 
ATOM     56  C   UNL A   1      43.606  30.067  28.340  1.00  0.00     0.049 A 
ATOM     57  C   UNL A   1      48.977  29.430  26.822  1.00  0.00     0.074 A 
ATOM     58  C   UNL A   1      43.246  31.307  28.834  1.00  0.00     0.029 A 
ATOM     59  N   UNL A   1      44.950  30.142  28.005  1.00  0.00    -0.354 N 
ATOM     60  N   UNL A   1      47.765  29.718  27.239  1.00  0.00    -0.248 NA
ATOM     61  C   UNL A   1      49.892  30.580  26.809  1.00  0.00     0.031 C 
ATOM     62  C   UNL A   1      44.352  32.154  28.731  1.00  0.00     0.029 A 
ATOM     63  C   UNL A   1      45.422  31.422  28.242  1.00  0.00     0.049 A 
ATOM     64  H   UNL A   1      45.488  29.397  27.652  1.00  0.00     0.167 HD
ATOM     65  C   UNL A   1      47.781  31.074  27.554  1.00  0.00     0.074 A 
ATOM     66  C   UNL A   1      49.128  31.542  27.309  1.00  0.00     0.031 C 
ATOM     67  C   UNL A   1      46.772  31.866  27.996  1.00  0.00     0.037 A 
BRANCH  54  68
ATOM     68  C   UNL A   1      41.317  29.021  28.484  1.00  0.00     0.058 A 
ATOM     69  C   UNL A   1      40.839  29.015  29.804  1.00  0.00     0.135 A 
ATOM     70  C   UNL A   1      40.387  29.227  27.452  1.00  0.00     0.135 A 
ATOM     71  F   UNL A   1      41.681  28.794  30.827  1.00  0.00    -0.206 F 
ATOM     72  C   UNL A   1      39.493  29.217  30.088  1.00  0.00     0.059 A 
ATOM     73  C   UNL A   1      39.042  29.460  27.715  1.00  0.00     0.059 A 
ATOM     74  F   UNL A   1      40.789  29.226  26.171  1.00  0.00    -0.206 F 
ATOM     75  C   UNL A   1      38.605  29.453  29.037  1.00  0.00     0.060 A 
BRANCH  75  76
ATOM     76  S   UNL A   1      36.875  29.783  29.433  1.00  0.00     0.124 S 
ATOM     77  O   UNL A   1      36.881  31.233  29.595  1.00  0.00    -0.237 OA
ATOM     78  O   UNL A   1      36.187  29.281  28.247  1.00  0.00    -0.237 OA
ATOM     79  O   UNL A   1      36.652  29.017  30.655  1.00  0.00    -0.744 OA
ENDBRANCH  75  76
ENDBRANCH  54  68
BRANCH  55  80
ATOM     80  C   UNL A   1      50.949  27.998  25.898  1.00  0.00     0.058 A 
ATOM     81  C   UNL A   1      51.276  27.992  24.533  1.00  0.00     0.135 A 
ATOM     82  C   UNL A   1      52.002  27.845  26.815  1.00  0.00     0.135 A 
ATOM     83  F   UNL A   1      50.308  28.118  23.612  1.00  0.00    -0.206 F 
ATOM     84  C   UNL A   1      52.584  27.804  24.092  1.00  0.00     0.059 A 
ATOM     85  C   UNL A   1      53.322  27.694  26.401  1.00  0.00     0.059 A 
ATOM     86  F   UNL A   1      51.754  27.846  28.134  1.00  0.00    -0.206 F 
ATOM     87  C   UNL A   1      53.601  27.655  25.036  1.00  0.00     0.060 A 
BRANCH  87  88
ATOM     88  S   UNL A   1      55.296  27.420  24.459  1.00  0.00     0.124 S 
ATOM     89  O   UNL A   1      55.802  26.447  25.420  1.00  0.00    -0.237 OA
ATOM     90  O   UNL A   1      55.094  26.929  23.100  1.00  0.00    -0.237 OA
ATOM     91  O   UNL A   1      55.873  28.759  24.555  1.00  0.00    -0.744 OA
ENDBRANCH  87  88
ENDBRANCH  55  80
BRANCH  67  92
ATOM     92  C   UNL A   1      47.086  33.314  28.265  1.00  0.00     0.058 A 
ATOM     93  C   UNL A   1      46.924  34.299  27.278  1.00  0.00     0.135 A 
ATOM     94  C   UNL A   1      47.485  33.731  29.546  1.00  0.00     0.135 A 
ATOM     95  F   UNL A   1      46.551  33.956  26.035  1.00  0.00    -0.206 F 
ATOM     96  C   UNL A   1      47.169  35.642  27.544  1.00  0.00     0.059 A 
ATOM     97  C   UNL A   1      47.700  35.073  29.844  1.00  0.00     0.059 A 
ATOM     98  F   UNL A   1      47.643  32.833  30.531  1.00  0.00    -0.206 F 
ATOM     99  C   UNL A   1      47.549  36.020  28.834  1.00  0.00     0.060 A 
BRANCH  99 100
ATOM    100  S   UNL A   1      47.817  37.772  29.174  1.00  0.00     0.124 S 
ATOM    101  O   UNL A   1      48.847  38.109  28.197  1.00  0.00    -0.237 OA
ATOM    102  O   UNL A   1      46.496  38.341  28.924  1.00  0.00    -0.237 OA
ATOM    103  O   UNL A   1      48.246  37.788  30.569  1.00  0.00    -0.744 OA
ENDBRANCH  99 100
ENDBRANCH  67  92
ENDBRANCH  41  42
ENDBRANCH  34  36
ENDBRANCH  33  34
ENDBRANCH  32  33
ENDBRANCH  31  32
ENDBRANCH  30  31
ENDBRANCH   1  30
TORSDOF 22
ENDMDL
MODEL 3
REMARK VINA RESULT:     -11.4      6.106     11.585
REMARK SMILES O=C(OCCOCCOCCOC(=O)c1ccc(-c2c3nc(c(-c4c(F)cc(S(=O)(=O)[O-])cc4F)c4ccc([nH]4)c(-c4c(F)cc(S(=O)(=O)[O-])cc4F)c4nc(c(-c5c(F)cc(S(=O)(=O)[O-])cc5F)c5ccc2[nH]5)C=C4)C=C3)cc1)C1=Cc2cc(Cl)cc(-c3ccccc3)c2O[C@@H]1C(F)(F)F
REMARK SMILES IDX 8 1 7 2 6 3 5 4 4 5 3 6 2 7 1 8 81 9 82 10 97 11 83 12 96 13
REMARK SMILES IDX 84 14 95 15 85 16 88 17 86 18 87 19 98 20 99 21 100 22
REMARK SMILES IDX 101 23 89 24 90 25 94 26 91 27 93 28 92 29 9 30 10 31 11 32
REMARK SMILES IDX 12 33 13 34 14 35 15 36 16 37 80 38 17 39 79 40 18 41 19 42
REMARK SMILES IDX 20 43 73 44 21 45 78 46 72 47 74 48 22 49 77 50 71 51 70 52
REMARK SMILES IDX 23 54 57 55 36 56 56 57 37 58 40 59 55 60 75 61 38 62 39 63
REMARK SMILES IDX 54 65 76 66 41 67 24 68 25 69 34 70 26 71 27 72 33 73 35 74
REMARK SMILES IDX 28 75 29 76 30 77 31 78 32 79 58 80 59 81 68 82 60 83 61 84
REMARK SMILES IDX 67 85 69 86 62 87 63 88 64 89 65 90 66 91 42 92 43 93 52 94
REMARK SMILES IDX 44 95 45 96 51 97 53 98 46 99 47 100 48 101 49 102 50 103
REMARK H PARENT 74 53 40 64
REMARK Flexibility Score: inf
ROOT
ATOM      1  C   UNL A   1      39.346  21.748  26.185  1.00  0.00     0.188 C 
ENDROOT
BRANCH   1   2
ATOM      2  C   UNL A   1      37.917  22.038  25.693  1.00  0.00     0.188 C 
BRANCH   2   3
ATOM      3  O   UNL A   1      37.460  21.804  24.269  1.00  0.00    -0.376 OA
BRANCH   3   4
ATOM      4  C   UNL A   1      36.682  22.986  23.199  1.00  0.00     0.202 C 
BRANCH   4   5
ATOM      5  C   UNL A   1      35.296  24.488  23.952  1.00  0.00     0.261 C 
BRANCH   5   6
ATOM      6  O   UNL A   1      33.815  24.256  24.296  1.00  0.00    -0.460 OA
BRANCH   6   7
ATOM      7  C   UNL A   1      33.630  23.189  25.092  1.00  0.00     0.338 C 
ATOM      8  O   UNL A   1      33.735  22.022  24.814  1.00  0.00    -0.246 OA
BRANCH   7   9
ATOM      9  C   UNL A   1      32.810  23.880  26.068  1.00  0.00     0.087 C 
ATOM     10  C   UNL A   1      33.349  25.126  26.571  1.00  0.00     0.027 C 
ATOM     11  C   UNL A   1      31.198  23.695  25.052  1.00  0.00     0.316 C 
ATOM     12  C   UNL A   1      32.742  26.732  26.087  1.00  0.00     0.019 A 
ATOM     13  O   UNL A   1      30.617  25.444  24.363  1.00  0.00    -0.475 OA
ATOM     14  C   UNL A   1      33.464  27.814  26.523  1.00  0.00     0.032 A 
ATOM     15  C   UNL A   1      31.446  26.964  24.960  1.00  0.00     0.135 A 
ATOM     16  C   UNL A   1      33.028  29.050  26.048  1.00  0.00     0.042 A 
ATOM     17  C   UNL A   1      31.054  28.239  24.586  1.00  0.00     0.026 A 
ATOM     18  Cl  UNL A   1      33.908  30.455  26.551  1.00  0.00    -0.084 Cl
ATOM     19  C   UNL A   1      31.902  29.243  25.167  1.00  0.00     0.033 A 
BRANCH  11  20
ATOM     20  C   UNL A   1      30.521  22.639  26.220  1.00  0.00     0.430 C 
ATOM     21  F   UNL A   1      29.315  22.908  26.752  1.00  0.00    -0.167 F 
ATOM     22  F   UNL A   1      30.486  21.375  25.735  1.00  0.00    -0.167 F 
ATOM     23  F   UNL A   1      31.323  22.574  27.327  1.00  0.00    -0.167 F 
ENDBRANCH  11  20
BRANCH  17  24
ATOM     24  C   UNL A   1      29.936  28.749  23.800  1.00  0.00    -0.015 A 
ATOM     25  C   UNL A   1      29.829  30.103  23.467  1.00  0.00     0.009 A 
ATOM     26  C   UNL A   1      28.799  27.938  23.607  1.00  0.00     0.009 A 
ATOM     27  C   UNL A   1      28.661  30.607  22.878  1.00  0.00     0.001 A 
ATOM     28  C   UNL A   1      27.642  28.431  22.993  1.00  0.00     0.001 A 
ATOM     29  C   UNL A   1      27.581  29.766  22.613  1.00  0.00     0.000 A 
ENDBRANCH  17  24
ENDBRANCH   7   9
ENDBRANCH   6   7
ENDBRANCH   5   6
ENDBRANCH   4   5
ENDBRANCH   3   4
ENDBRANCH   2   3
ENDBRANCH   1   2
BRANCH   1  30
ATOM     30  O   UNL A   1      40.207  22.825  26.435  1.00  0.00    -0.376 OA
BRANCH  30  31
ATOM     31  C   UNL A   1      41.576  22.475  26.440  1.00  0.00     0.202 C 
BRANCH  31  32
ATOM     32  C   UNL A   1      42.590  23.392  25.744  1.00  0.00     0.261 C 
BRANCH  32  33
ATOM     33  O   UNL A   1      42.341  24.800  25.903  1.00  0.00    -0.460 OA
BRANCH  33  34
ATOM     34  C   UNL A   1      43.352  25.537  26.427  1.00  0.00     0.338 C 
ATOM     35  O   UNL A   1      44.493  25.629  26.012  1.00  0.00    -0.246 OA
BRANCH  34  36
ATOM     36  C   UNL A   1      42.804  26.379  27.507  1.00  0.00     0.060 A 
ATOM     37  C   UNL A   1      43.311  27.670  27.718  1.00  0.00     0.016 A 
ATOM     38  C   UNL A   1      41.811  25.863  28.336  1.00  0.00     0.016 A 
ATOM     39  C   UNL A   1      42.795  28.467  28.740  1.00  0.00     0.010 A 
ATOM     40  C   UNL A   1      41.331  26.642  29.389  1.00  0.00     0.010 A 
ATOM     41  C   UNL A   1      41.825  27.942  29.600  1.00  0.00    -0.014 A 
BRANCH  41  42
ATOM     42  C   UNL A   1      41.451  28.673  30.831  1.00  0.00     0.031 A 
ATOM     43  C   UNL A   1      40.281  29.612  30.763  1.00  0.00     0.074 A 
ATOM     44  C   UNL A   1      42.158  28.530  31.966  1.00  0.00     0.049 A 
ATOM     45  N   UNL A   1      39.840  30.447  31.665  1.00  0.00    -0.248 NA
ATOM     46  C   UNL A   1      39.513  29.617  29.506  1.00  0.00     0.031 C 
ATOM     47  C   UNL A   1      43.287  27.619  32.145  1.00  0.00     0.029 A 
ATOM     48  N   UNL A   1      42.043  29.166  33.177  1.00  0.00    -0.354 N 
ATOM     49  C   UNL A   1      38.758  31.092  31.079  1.00  0.00     0.074 A 
ATOM     50  C   UNL A   1      38.609  30.556  29.744  1.00  0.00     0.031 C 
ATOM     51  C   UNL A   1      43.778  27.772  33.387  1.00  0.00     0.029 A 
ATOM     52  C   UNL A   1      43.028  28.822  34.075  1.00  0.00     0.049 A 
ATOM     53  H   UNL A   1      41.325  29.806  33.384  1.00  0.00     0.167 HD
ATOM     54  C   UNL A   1      37.970  32.054  31.610  1.00  0.00     0.037 A 
ATOM     55  C   UNL A   1      43.314  29.332  35.292  1.00  0.00     0.037 A 
ATOM     56  C   UNL A   1      38.138  32.584  32.937  1.00  0.00     0.049 A 
ATOM     57  C   UNL A   1      42.453  30.452  35.832  1.00  0.00     0.074 A 
ATOM     58  C   UNL A   1      37.371  33.538  33.581  1.00  0.00     0.029 A 
ATOM     59  N   UNL A   1      39.151  32.223  33.813  1.00  0.00    -0.354 N 
ATOM     60  N   UNL A   1      41.399  31.019  35.290  1.00  0.00    -0.248 NA
ATOM     61  C   UNL A   1      42.825  31.010  37.140  1.00  0.00     0.031 C 
ATOM     62  C   UNL A   1      37.963  33.807  34.817  1.00  0.00     0.029 A 
ATOM     63  C   UNL A   1      39.054  32.968  34.976  1.00  0.00     0.049 A 
ATOM     64  H   UNL A   1      39.835  31.538  33.635  1.00  0.00     0.167 HD
ATOM     65  C   UNL A   1      40.975  31.984  36.200  1.00  0.00     0.074 A 
ATOM     66  C   UNL A   1      41.866  31.903  37.337  1.00  0.00     0.031 C 
ATOM     67  C   UNL A   1      39.950  32.866  36.101  1.00  0.00     0.037 A 
BRANCH  54  68
ATOM     68  C   UNL A   1      36.880  32.629  30.752  1.00  0.00     0.058 A 
ATOM     69  C   UNL A   1      35.558  32.162  30.816  1.00  0.00     0.135 A 
ATOM     70  C   UNL A   1      37.149  33.723  29.913  1.00  0.00     0.135 A 
ATOM     71  F   UNL A   1      35.251  31.102  31.581  1.00  0.00    -0.206 F 
ATOM     72  C   UNL A   1      34.541  32.764  30.084  1.00  0.00     0.059 A 
ATOM     73  C   UNL A   1      36.142  34.358  29.194  1.00  0.00     0.059 A 
ATOM     74  F   UNL A   1      38.400  34.199  29.803  1.00  0.00    -0.206 F 
ATOM     75  C   UNL A   1      34.841  33.871  29.287  1.00  0.00     0.060 A 
BRANCH  75  76
ATOM     76  S   UNL A   1      33.493  34.681  28.399  1.00  0.00     0.124 S 
ATOM     77  O   UNL A   1      34.224  35.578  27.510  1.00  0.00    -0.237 OA
ATOM     78  O   UNL A   1      32.828  33.553  27.756  1.00  0.00    -0.237 OA
ATOM     79  O   UNL A   1      32.731  35.334  29.459  1.00  0.00    -0.744 OA
ENDBRANCH  75  76
ENDBRANCH  54  68
BRANCH  55  80
ATOM     80  C   UNL A   1      44.493  28.846  36.067  1.00  0.00     0.058 A 
ATOM     81  C   UNL A   1      45.784  29.340  35.821  1.00  0.00     0.135 A 
ATOM     82  C   UNL A   1      44.361  27.835  37.033  1.00  0.00     0.135 A 
ATOM     83  F   UNL A   1      45.972  30.294  34.897  1.00  0.00    -0.206 F 
ATOM     84  C   UNL A   1      46.902  28.828  36.476  1.00  0.00     0.059 A 
ATOM     85  C   UNL A   1      45.458  27.334  37.728  1.00  0.00     0.059 A 
ATOM     86  F   UNL A   1      43.152  27.325  37.315  1.00  0.00    -0.206 F 
ATOM     87  C   UNL A   1      46.727  27.823  37.428  1.00  0.00     0.060 A 
BRANCH  87  88
ATOM     88  S   UNL A   1      48.179  27.169  38.280  1.00  0.00     0.124 S 
ATOM     89  O   UNL A   1      49.178  27.189  37.217  1.00  0.00    -0.237 OA
ATOM     90  O   UNL A   1      48.370  28.140  39.352  1.00  0.00    -0.237 OA
ATOM     91  O   UNL A   1      47.747  25.843  38.714  1.00  0.00    -0.744 OA
ENDBRANCH  87  88
ENDBRANCH  55  80
BRANCH  67  92
ATOM     92  C   UNL A   1      39.717  33.801  37.259  1.00  0.00     0.058 A 
ATOM     93  C   UNL A   1      38.922  33.434  38.355  1.00  0.00     0.135 A 
ATOM     94  C   UNL A   1      40.357  35.052  37.305  1.00  0.00     0.135 A 
ATOM     95  F   UNL A   1      38.282  32.253  38.362  1.00  0.00    -0.206 F 
ATOM     96  C   UNL A   1      38.749  34.281  39.445  1.00  0.00     0.059 A 
ATOM     97  C   UNL A   1      40.228  35.899  38.401  1.00  0.00     0.059 A 
ATOM     98  F   UNL A   1      41.141  35.448  36.290  1.00  0.00    -0.206 F 
ATOM     99  C   UNL A   1      39.414  35.509  39.462  1.00  0.00     0.060 A 
BRANCH  99 100
ATOM    100  S   UNL A   1      39.216  36.576  40.904  1.00  0.00     0.124 S 
ATOM    101  O   UNL A   1      38.587  37.754  40.316  1.00  0.00    -0.237 OA
ATOM    102  O   UNL A   1      38.364  35.769  41.771  1.00  0.00    -0.237 OA
ATOM    103  O   UNL A   1      40.583  36.766  41.379  1.00  0.00    -0.744 OA
ENDBRANCH  99 100
ENDBRANCH  67  92
ENDBRANCH  41  42
ENDBRANCH  34  36
ENDBRANCH  33  34
ENDBRANCH  32  33
ENDBRANCH  31  32
ENDBRANCH  30  31
ENDBRANCH   1  30
TORSDOF 22
ENDMDL
