MODEL 1
REMARK VINA RESULT:     -10.8      0.000      0.000
REMARK SMILES Cc1ccc(-c2nc(NC(=O)[C@H]3[C@@H](C(=O)OCCOCCOCCOC(=O)c4ccc(-c5c6nc(c(-c7c(F)cc(S(=O)(=O)[O-])cc7F)c7ccc([nH]7)c(-c7c(F)cc(S(=O)(=O)[O-])cc7F)c7nc(c(-c8c(F)cc(S(=O)(=O)[O-])cc8F)c8ccc5[nH]8)C=C7)C=C6)cc4)[C@@H]4CC[C@H]3O4)sc2C)cc1
REMARK SMILES IDX 20 1 19 2 18 3 17 4 16 5 14 6 15 7 13 8 12 9 97 10 94 11
REMARK SMILES IDX 96 12 98 13 95 14 10 15 9 16 11 18 8 19 6 20 7 21 100 22
REMARK SMILES IDX 99 23 101 24 5 25 1 26 2 27 3 28 103 29 4 30 102 31 21 32
REMARK SMILES IDX 22 33 23 34 24 35 25 36 26 37 27 38 28 39 29 40 93 41 30 42
REMARK SMILES IDX 92 43 31 44 32 45 33 46 86 47 34 48 91 49 85 50 87 51 35 52
REMARK SMILES IDX 90 53 84 54 83 55 36 57 70 58 49 59 69 60 50 61 53 62 68 63
REMARK SMILES IDX 88 64 51 65 52 66 67 68 89 69 54 70 37 71 38 72 47 73 39 74
REMARK SMILES IDX 40 75 46 76 48 77 41 78 42 79 43 80 44 81 45 82 71 83 72 84
REMARK SMILES IDX 81 85 73 86 74 87 80 88 82 89 75 90 76 91 77 92 78 93 79 94
REMARK SMILES IDX 55 95 56 96 65 97 57 98 58 99 64 100 66 101 59 102 60 103
REMARK SMILES IDX 61 104 62 105 63 106
REMARK H PARENT 9 17 87 56 53 67
REMARK Flexibility Score: inf
ROOT
ATOM      1  C   UNL A   1      33.461  29.821  25.949  1.00  0.00     0.188 C 
ENDROOT
BRANCH   1   2
ATOM      2  O   UNL A   1      33.104  28.482  26.173  1.00  0.00    -0.376 OA
BRANCH   2   3
ATOM      3  C   UNL A   1      34.056  27.457  26.116  1.00  0.00     0.202 C 
BRANCH   3   4
ATOM      4  C   UNL A   1      33.819  25.958  25.913  1.00  0.00     0.261 C 
BRANCH   4   5
ATOM      5  O   UNL A   1      32.578  25.231  26.022  1.00  0.00    -0.463 OA
BRANCH   5   6
ATOM      6  C   UNL A   1      32.743  23.908  25.884  1.00  0.00     0.312 C 
ATOM      7  O   UNL A   1      31.909  23.109  26.254  1.00  0.00    -0.252 OA
BRANCH   6   8
ATOM      8  C   UNL A   1      33.953  23.302  25.301  1.00  0.00     0.143 C 
ATOM      9  C   UNL A   1      33.841  22.554  24.007  1.00  0.00     0.124 C 
ATOM     10  C   UNL A   1      34.412  21.170  24.534  1.00  0.00     0.132 C 
ATOM     11  C   UNL A   1      34.596  22.362  26.314  1.00  0.00     0.133 C 
ATOM     12  C   UNL A   1      35.944  21.178  24.815  1.00  0.00     0.035 C 
ATOM     13  O   UNL A   1      33.983  21.132  25.924  1.00  0.00    -0.373 OA
ATOM     14  C   UNL A   1      36.071  22.131  25.995  1.00  0.00     0.036 C 
BRANCH   9  15
ATOM     15  C   UNL A   1      32.442  22.538  23.285  1.00  0.00     0.232 C 
ATOM     16  N   UNL A   1      31.702  23.568  22.698  1.00  0.00    -0.302 N 
ATOM     17  H   UNL A   1      30.854  23.227  22.331  1.00  0.00     0.172 HD
ATOM     18  O   UNL A   1      31.892  21.424  23.220  1.00  0.00    -0.274 OA
BRANCH  16  19
ATOM     19  C   UNL A   1      31.822  24.946  22.481  1.00  0.00     0.190 A 
ATOM     20  C   UNL A   1      31.471  27.223  22.488  1.00  0.00     0.086 A 
ATOM     21  N   UNL A   1      30.876  25.908  22.551  1.00  0.00    -0.220 NA
ATOM     22  C   UNL A   1      32.837  27.118  22.401  1.00  0.00     0.031 A 
ATOM     23  S   UNL A   1      33.353  25.524  22.236  1.00  0.00    -0.101 S 
ATOM     24  C   UNL A   1      33.798  28.214  22.490  1.00  0.00     0.059 C 
BRANCH  20  25
ATOM     25  C   UNL A   1      30.926  28.645  22.624  1.00  0.00     0.001 A 
ATOM     26  C   UNL A   1      28.127  31.988  23.468  1.00  0.00     0.044 C 
ATOM     27  C   UNL A   1      29.115  30.888  23.167  1.00  0.00    -0.051 A 
ATOM     28  C   UNL A   1      29.451  30.483  21.862  1.00  0.00     0.004 A 
ATOM     29  C   UNL A   1      29.689  30.171  24.202  1.00  0.00     0.004 A 
ATOM     30  C   UNL A   1      30.321  29.369  21.594  1.00  0.00     0.010 A 
ATOM     31  C   UNL A   1      30.605  29.130  23.920  1.00  0.00     0.010 A 
ENDBRANCH  20  25
ENDBRANCH  16  19
ENDBRANCH   9  15
ENDBRANCH   6   8
ENDBRANCH   5   6
ENDBRANCH   4   5
ENDBRANCH   3   4
ENDBRANCH   2   3
ENDBRANCH   1   2
BRANCH   1  32
ATOM     32  C   UNL A   1      34.156  30.475  27.160  1.00  0.00     0.188 C 
BRANCH  32  33
ATOM     33  O   UNL A   1      33.340  31.313  27.972  1.00  0.00    -0.376 OA
BRANCH  33  34
ATOM     34  C   UNL A   1      33.760  32.674  27.974  1.00  0.00     0.202 C 
BRANCH  34  35
ATOM     35  C   UNL A   1      35.304  32.936  27.918  1.00  0.00     0.261 C 
BRANCH  35  36
ATOM     36  O   UNL A   1      35.959  33.017  29.229  1.00  0.00    -0.460 OA
BRANCH  36  37
ATOM     37  C   UNL A   1      35.889  32.044  30.186  1.00  0.00     0.338 C 
ATOM     38  O   UNL A   1      35.102  32.000  31.125  1.00  0.00    -0.246 OA
BRANCH  37  39
ATOM     39  C   UNL A   1      36.830  30.912  29.787  1.00  0.00     0.060 A 
ATOM     40  C   UNL A   1      36.775  29.567  30.166  1.00  0.00     0.016 A 
ATOM     41  C   UNL A   1      37.904  31.245  28.983  1.00  0.00     0.016 A 
ATOM     42  C   UNL A   1      37.900  28.676  29.930  1.00  0.00     0.010 A 
ATOM     43  C   UNL A   1      39.014  30.389  28.823  1.00  0.00     0.010 A 
ATOM     44  C   UNL A   1      39.126  29.124  29.364  1.00  0.00    -0.014 A 
BRANCH  44  45
ATOM     45  C   UNL A   1      40.574  28.734  29.815  1.00  0.00     0.031 A 
ATOM     46  C   UNL A   1      41.733  27.935  29.031  1.00  0.00     0.074 A 
ATOM     47  C   UNL A   1      40.903  29.729  30.682  1.00  0.00     0.049 A 
ATOM     48  N   UNL A   1      42.959  27.643  29.440  1.00  0.00    -0.248 NA
ATOM     49  C   UNL A   1      41.533  27.256  27.744  1.00  0.00     0.031 C 
ATOM     50  C   UNL A   1      41.724  30.943  30.608  1.00  0.00     0.029 A 
ATOM     51  N   UNL A   1      40.330  29.857  31.923  1.00  0.00    -0.354 N 
ATOM     52  C   UNL A   1      43.766  27.149  28.365  1.00  0.00     0.074 A 
ATOM     53  C   UNL A   1      42.769  26.865  27.359  1.00  0.00     0.031 C 
ATOM     54  C   UNL A   1      41.807  31.569  31.788  1.00  0.00     0.029 A 
ATOM     55  C   UNL A   1      41.050  30.764  32.669  1.00  0.00     0.049 A 
ATOM     56  H   UNL A   1      39.529  29.375  32.232  1.00  0.00     0.167 HD
ATOM     57  C   UNL A   1      45.176  27.151  28.365  1.00  0.00     0.037 A 
ATOM     58  C   UNL A   1      41.291  30.676  33.975  1.00  0.00     0.037 A 
ATOM     59  C   UNL A   1      45.764  27.406  29.708  1.00  0.00     0.049 A 
ATOM     60  C   UNL A   1      42.179  29.373  34.106  1.00  0.00     0.074 A 
ATOM     61  C   UNL A   1      46.891  28.042  30.223  1.00  0.00     0.029 A 
ATOM     62  N   UNL A   1      45.062  26.988  30.831  1.00  0.00    -0.354 N 
ATOM     63  N   UNL A   1      43.337  29.117  33.470  1.00  0.00    -0.248 NA
ATOM     64  C   UNL A   1      41.803  28.229  34.931  1.00  0.00     0.031 C 
ATOM     65  C   UNL A   1      46.838  27.987  31.662  1.00  0.00     0.029 A 
ATOM     66  C   UNL A   1      45.590  27.486  32.023  1.00  0.00     0.049 A 
ATOM     67  H   UNL A   1      44.273  26.402  30.791  1.00  0.00     0.167 HD
ATOM     68  C   UNL A   1      43.808  27.803  33.755  1.00  0.00     0.074 A 
ATOM     69  C   UNL A   1      42.783  27.335  34.687  1.00  0.00     0.031 C 
ATOM     70  C   UNL A   1      44.901  27.071  33.238  1.00  0.00     0.037 A 
BRANCH  57  71
ATOM     71  C   UNL A   1      46.187  27.180  27.099  1.00  0.00     0.058 A 
ATOM     72  C   UNL A   1      46.421  28.365  26.330  1.00  0.00     0.135 A 
ATOM     73  C   UNL A   1      46.770  26.046  26.486  1.00  0.00     0.135 A 
ATOM     74  F   UNL A   1      46.080  29.573  26.801  1.00  0.00    -0.206 F 
ATOM     75  C   UNL A   1      47.040  28.401  25.054  1.00  0.00     0.059 A 
ATOM     76  C   UNL A   1      47.438  26.062  25.225  1.00  0.00     0.059 A 
ATOM     77  F   UNL A   1      46.724  24.854  27.087  1.00  0.00    -0.206 F 
ATOM     78  C   UNL A   1      47.542  27.240  24.494  1.00  0.00     0.060 A 
BRANCH  78  79
ATOM     79  S   UNL A   1      48.416  27.313  22.895  1.00  0.00     0.124 S 
ATOM     80  O   UNL A   1      48.431  25.914  22.480  1.00  0.00    -0.237 OA
ATOM     81  O   UNL A   1      47.562  28.193  22.102  1.00  0.00    -0.237 OA
ATOM     82  O   UNL A   1      49.716  27.875  23.248  1.00  0.00    -0.744 OA
ENDBRANCH  78  79
ENDBRANCH  57  71
BRANCH  58  83
ATOM     83  C   UNL A   1      40.024  31.456  34.447  1.00  0.00     0.058 A 
ATOM     84  C   UNL A   1      38.985  30.589  34.913  1.00  0.00     0.135 A 
ATOM     85  C   UNL A   1      40.075  32.690  35.176  1.00  0.00     0.135 A 
ATOM     86  F   UNL A   1      38.845  29.382  34.342  1.00  0.00    -0.206 F 
ATOM     87  C   UNL A   1      38.210  30.825  36.076  1.00  0.00     0.059 A 
ATOM     88  C   UNL A   1      39.322  32.932  36.359  1.00  0.00     0.059 A 
ATOM     89  F   UNL A   1      41.049  33.578  34.914  1.00  0.00    -0.206 F 
ATOM     90  C   UNL A   1      38.408  31.983  36.818  1.00  0.00     0.060 A 
BRANCH  90  91
ATOM     91  S   UNL A   1      37.606  32.189  38.448  1.00  0.00     0.124 S 
ATOM     92  O   UNL A   1      36.771  30.997  38.528  1.00  0.00    -0.237 OA
ATOM     93  O   UNL A   1      38.724  32.239  39.385  1.00  0.00    -0.237 OA
ATOM     94  O   UNL A   1      36.888  33.449  38.283  1.00  0.00    -0.744 OA
ENDBRANCH  90  91
ENDBRANCH  58  83
BRANCH  70  95
ATOM     95  C   UNL A   1      45.394  25.643  33.622  1.00  0.00     0.058 A 
ATOM     96  C   UNL A   1      46.525  25.355  34.381  1.00  0.00     0.135 A 
ATOM     97  C   UNL A   1      44.703  24.464  33.161  1.00  0.00     0.135 A 
ATOM     98  F   UNL A   1      47.432  26.304  34.652  1.00  0.00    -0.206 F 
ATOM     99  C   UNL A   1      46.803  24.056  34.836  1.00  0.00     0.059 A 
ATOM    100  C   UNL A   1      44.944  23.181  33.606  1.00  0.00     0.059 A 
ATOM    101  F   UNL A   1      43.767  24.467  32.203  1.00  0.00    -0.206 F 
ATOM    102  C   UNL A   1      45.976  22.988  34.485  1.00  0.00     0.060 A 
BRANCH 102 103
ATOM    103  S   UNL A   1      46.285  21.331  35.101  1.00  0.00     0.124 S 
ATOM    104  O   UNL A   1      46.485  21.576  36.525  1.00  0.00    -0.237 OA
ATOM    105  O   UNL A   1      45.049  20.650  34.733  1.00  0.00    -0.237 OA
ATOM    106  O   UNL A   1      47.474  20.902  34.369  1.00  0.00    -0.744 OA
ENDBRANCH 102 103
ENDBRANCH  70  95
ENDBRANCH  44  45
ENDBRANCH  37  39
ENDBRANCH  36  37
ENDBRANCH  35  36
ENDBRANCH  34  35
ENDBRANCH  33  34
ENDBRANCH  32  33
ENDBRANCH   1  32
TORSDOF 23
ENDMDL
MODEL 2
REMARK VINA RESULT:     -10.7      4.230      9.822
REMARK SMILES Cc1ccc(-c2nc(NC(=O)[C@H]3[C@@H](C(=O)OCCOCCOCCOC(=O)c4ccc(-c5c6nc(c(-c7c(F)cc(S(=O)(=O)[O-])cc7F)c7ccc([nH]7)c(-c7c(F)cc(S(=O)(=O)[O-])cc7F)c7nc(c(-c8c(F)cc(S(=O)(=O)[O-])cc8F)c8ccc5[nH]8)C=C7)C=C6)cc4)[C@@H]4CC[C@H]3O4)sc2C)cc1
REMARK SMILES IDX 20 1 19 2 18 3 17 4 16 5 14 6 15 7 13 8 12 9 97 10 94 11
REMARK SMILES IDX 96 12 98 13 95 14 10 15 9 16 11 18 8 19 6 20 7 21 100 22
REMARK SMILES IDX 99 23 101 24 5 25 1 26 2 27 3 28 103 29 4 30 102 31 21 32
REMARK SMILES IDX 22 33 23 34 24 35 25 36 26 37 27 38 28 39 29 40 93 41 30 42
REMARK SMILES IDX 92 43 31 44 32 45 33 46 86 47 34 48 91 49 85 50 87 51 35 52
REMARK SMILES IDX 90 53 84 54 83 55 36 57 70 58 49 59 69 60 50 61 53 62 68 63
REMARK SMILES IDX 88 64 51 65 52 66 67 68 89 69 54 70 37 71 38 72 47 73 39 74
REMARK SMILES IDX 40 75 46 76 48 77 41 78 42 79 43 80 44 81 45 82 71 83 72 84
REMARK SMILES IDX 81 85 73 86 74 87 80 88 82 89 75 90 76 91 77 92 78 93 79 94
REMARK SMILES IDX 55 95 56 96 65 97 57 98 58 99 64 100 66 101 59 102 60 103
REMARK SMILES IDX 61 104 62 105 63 106
REMARK H PARENT 9 17 87 56 53 67
REMARK Flexibility Score: inf
ROOT
ATOM      1  C   UNL A   1      38.962  27.788  30.976  1.00  0.00     0.188 C 
ENDROOT
BRANCH   1   2
ATOM      2  O   UNL A   1      38.407  29.052  31.232  1.00  0.00    -0.376 OA
BRANCH   2   3
ATOM      3  C   UNL A   1      39.144  30.225  31.028  1.00  0.00     0.202 C 
BRANCH   3   4
ATOM      4  C   UNL A   1      38.995  31.250  29.902  1.00  0.00     0.261 C 
BRANCH   4   5
ATOM      5  O   UNL A   1      37.781  31.834  29.385  1.00  0.00    -0.463 OA
BRANCH   5   6
ATOM      6  C   UNL A   1      37.318  32.826  30.159  1.00  0.00     0.312 C 
ATOM      7  O   UNL A   1      37.798  33.940  30.138  1.00  0.00    -0.252 OA
BRANCH   6   8
ATOM      8  C   UNL A   1      36.213  32.654  31.118  1.00  0.00     0.143 C 
ATOM      9  C   UNL A   1      34.830  33.066  30.715  1.00  0.00     0.124 C 
ATOM     10  C   UNL A   1      34.585  34.101  31.892  1.00  0.00     0.132 C 
ATOM     11  C   UNL A   1      36.543  33.381  32.416  1.00  0.00     0.133 C 
ATOM     12  C   UNL A   1      34.373  33.441  33.288  1.00  0.00     0.035 C 
ATOM     13  O   UNL A   1      35.913  34.636  32.157  1.00  0.00    -0.373 OA
ATOM     14  C   UNL A   1      35.732  32.821  33.583  1.00  0.00     0.036 C 
BRANCH   9  15
ATOM     15  C   UNL A   1      34.613  33.575  29.240  1.00  0.00     0.232 C 
ATOM     16  N   UNL A   1      34.166  32.908  28.096  1.00  0.00    -0.302 N 
ATOM     17  H   UNL A   1      34.147  33.514  27.320  1.00  0.00     0.172 HD
ATOM     18  O   UNL A   1      34.884  34.775  29.049  1.00  0.00    -0.274 OA
BRANCH  16  19
ATOM     19  C   UNL A   1      33.738  31.625  27.739  1.00  0.00     0.190 A 
ATOM     20  C   UNL A   1      32.602  29.858  26.791  1.00  0.00     0.086 A 
ATOM     21  N   UNL A   1      32.545  31.229  27.241  1.00  0.00    -0.220 NA
ATOM     22  C   UNL A   1      33.866  29.354  26.974  1.00  0.00     0.031 A 
ATOM     23  S   UNL A   1      34.874  30.423  27.796  1.00  0.00    -0.101 S 
ATOM     24  C   UNL A   1      34.367  28.071  26.490  1.00  0.00     0.059 C 
BRANCH  20  25
ATOM     25  C   UNL A   1      31.624  28.936  26.064  1.00  0.00     0.001 A 
ATOM     26  C   UNL A   1      30.060  25.453  23.795  1.00  0.00     0.044 C 
ATOM     27  C   UNL A   1      30.542  26.657  24.565  1.00  0.00    -0.051 A 
ATOM     28  C   UNL A   1      30.738  27.922  23.984  1.00  0.00     0.004 A 
ATOM     29  C   UNL A   1      30.885  26.532  25.900  1.00  0.00     0.004 A 
ATOM     30  C   UNL A   1      31.291  29.035  24.711  1.00  0.00     0.010 A 
ATOM     31  C   UNL A   1      31.350  27.658  26.621  1.00  0.00     0.010 A 
ENDBRANCH  20  25
ENDBRANCH  16  19
ENDBRANCH   9  15
ENDBRANCH   6   8
ENDBRANCH   5   6
ENDBRANCH   4   5
ENDBRANCH   3   4
ENDBRANCH   2   3
ENDBRANCH   1   2
BRANCH   1  32
ATOM     32  C   UNL A   1      38.989  27.429  29.477  1.00  0.00     0.188 C 
BRANCH  32  33
ATOM     33  O   UNL A   1      40.023  26.542  29.064  1.00  0.00    -0.376 OA
BRANCH  33  34
ATOM     34  C   UNL A   1      39.535  25.386  28.390  1.00  0.00     0.202 C 
BRANCH  34  35
ATOM     35  C   UNL A   1      40.043  25.156  26.925  1.00  0.00     0.261 C 
BRANCH  35  36
ATOM     36  O   UNL A   1      40.491  26.370  26.235  1.00  0.00    -0.460 OA
BRANCH  36  37
ATOM     37  C   UNL A   1      41.778  26.599  25.836  1.00  0.00     0.338 C 
ATOM     38  O   UNL A   1      42.345  26.092  24.874  1.00  0.00    -0.246 OA
BRANCH  37  39
ATOM     39  C   UNL A   1      42.342  27.742  26.673  1.00  0.00     0.060 A 
ATOM     40  C   UNL A   1      43.653  27.916  27.128  1.00  0.00     0.016 A 
ATOM     41  C   UNL A   1      41.452  28.718  27.081  1.00  0.00     0.016 A 
ATOM     42  C   UNL A   1      43.968  28.906  28.146  1.00  0.00     0.010 A 
ATOM     43  C   UNL A   1      41.757  29.626  28.117  1.00  0.00     0.010 A 
ATOM     44  C   UNL A   1      42.969  29.702  28.774  1.00  0.00    -0.014 A 
BRANCH  44  45
ATOM     45  C   UNL A   1      42.864  30.061  30.294  1.00  0.00     0.031 A 
ATOM     46  C   UNL A   1      42.825  29.106  31.592  1.00  0.00     0.074 A 
ATOM     47  C   UNL A   1      43.469  31.277  30.365  1.00  0.00     0.049 A 
ATOM     48  N   UNL A   1      42.758  29.449  32.870  1.00  0.00    -0.248 NA
ATOM     49  C   UNL A   1      42.704  27.644  31.530  1.00  0.00     0.031 C 
ATOM     50  C   UNL A   1      44.787  31.760  30.791  1.00  0.00     0.029 A 
ATOM     51  N   UNL A   1      42.909  32.419  29.847  1.00  0.00    -0.354 N 
ATOM     52  C   UNL A   1      43.000  28.328  33.728  1.00  0.00     0.074 A 
ATOM     53  C   UNL A   1      42.877  27.224  32.804  1.00  0.00     0.031 C 
ATOM     54  C   UNL A   1      44.873  33.095  30.751  1.00  0.00     0.029 A 
ATOM     55  C   UNL A   1      43.598  33.518  30.310  1.00  0.00     0.049 A 
ATOM     56  H   UNL A   1      42.134  32.448  29.240  1.00  0.00     0.167 HD
ATOM     57  C   UNL A   1      43.408  28.430  35.073  1.00  0.00     0.037 A 
ATOM     58  C   UNL A   1      43.059  34.691  30.636  1.00  0.00     0.037 A 
ATOM     59  C   UNL A   1      43.250  29.801  35.632  1.00  0.00     0.049 A 
ATOM     60  C   UNL A   1      42.132  34.347  31.871  1.00  0.00     0.074 A 
ATOM     61  C   UNL A   1      43.916  30.609  36.551  1.00  0.00     0.029 A 
ATOM     62  N   UNL A   1      42.229  30.605  35.145  1.00  0.00    -0.354 N 
ATOM     63  N   UNL A   1      42.503  33.747  33.018  1.00  0.00    -0.248 NA
ATOM     64  C   UNL A   1      40.696  34.609  31.891  1.00  0.00     0.031 C 
ATOM     65  C   UNL A   1      43.267  31.895  36.593  1.00  0.00     0.029 A 
ATOM     66  C   UNL A   1      42.327  31.931  35.568  1.00  0.00     0.049 A 
ATOM     67  H   UNL A   1      41.510  30.274  34.560  1.00  0.00     0.167 HD
ATOM     68  C   UNL A   1      41.383  33.510  33.867  1.00  0.00     0.074 A 
ATOM     69  C   UNL A   1      40.303  34.096  33.074  1.00  0.00     0.031 C 
ATOM     70  C   UNL A   1      41.274  32.821  35.096  1.00  0.00     0.037 A 
BRANCH  57  71
ATOM     71  C   UNL A   1      44.239  27.361  35.963  1.00  0.00     0.058 A 
ATOM     72  C   UNL A   1      43.597  26.419  36.829  1.00  0.00     0.135 A 
ATOM     73  C   UNL A   1      45.640  27.365  36.156  1.00  0.00     0.135 A 
ATOM     74  F   UNL A   1      42.289  26.151  36.710  1.00  0.00    -0.206 F 
ATOM     75  C   UNL A   1      44.244  25.673  37.847  1.00  0.00     0.059 A 
ATOM     76  C   UNL A   1      46.322  26.590  37.141  1.00  0.00     0.059 A 
ATOM     77  F   UNL A   1      46.427  28.126  35.390  1.00  0.00    -0.206 F 
ATOM     78  C   UNL A   1      45.615  25.768  38.010  1.00  0.00     0.060 A 
BRANCH  78  79
ATOM     79  S   UNL A   1      46.449  24.735  39.260  1.00  0.00     0.124 S 
ATOM     80  O   UNL A   1      47.207  25.719  40.026  1.00  0.00    -0.237 OA
ATOM     81  O   UNL A   1      45.330  24.117  39.965  1.00  0.00    -0.237 OA
ATOM     82  O   UNL A   1      47.250  23.815  38.458  1.00  0.00    -0.744 OA
ENDBRANCH  78  79
ENDBRANCH  57  71
BRANCH  58  83
ATOM     83  C   UNL A   1      43.178  35.344  29.224  1.00  0.00     0.058 A 
ATOM     84  C   UNL A   1      41.906  35.684  28.664  1.00  0.00     0.135 A 
ATOM     85  C   UNL A   1      44.201  36.284  28.867  1.00  0.00     0.135 A 
ATOM     86  F   UNL A   1      40.847  34.907  28.947  1.00  0.00    -0.206 F 
ATOM     87  C   UNL A   1      41.628  36.898  27.989  1.00  0.00     0.059 A 
ATOM     88  C   UNL A   1      43.935  37.519  28.211  1.00  0.00     0.059 A 
ATOM     89  F   UNL A   1      45.436  36.152  29.381  1.00  0.00    -0.206 F 
ATOM     90  C   UNL A   1      42.639  37.832  27.797  1.00  0.00     0.060 A 
BRANCH  90  91
ATOM     91  S   UNL A   1      42.254  39.501  27.160  1.00  0.00     0.124 S 
ATOM     92  O   UNL A   1      41.824  40.195  28.368  1.00  0.00    -0.237 OA
ATOM     93  O   UNL A   1      43.516  39.958  26.587  1.00  0.00    -0.237 OA
ATOM     94  O   UNL A   1      41.202  39.226  26.187  1.00  0.00    -0.744 OA
ENDBRANCH  90  91
ENDBRANCH  58  83
BRANCH  70  95
ATOM     95  C   UNL A   1      40.021  32.629  36.005  1.00  0.00     0.058 A 
ATOM     96  C   UNL A   1      38.922  31.828  35.708  1.00  0.00     0.135 A 
ATOM     97  C   UNL A   1      39.892  33.333  37.257  1.00  0.00     0.135 A 
ATOM     98  F   UNL A   1      38.747  31.328  34.477  1.00  0.00    -0.206 F 
ATOM     99  C   UNL A   1      37.918  31.564  36.654  1.00  0.00     0.059 A 
ATOM    100  C   UNL A   1      38.927  33.080  38.209  1.00  0.00     0.059 A 
ATOM    101  F   UNL A   1      40.669  34.358  37.628  1.00  0.00    -0.206 F 
ATOM    102  C   UNL A   1      37.961  32.154  37.918  1.00  0.00     0.060 A 
BRANCH 102 103
ATOM    103  S   UNL A   1      36.717  31.787  39.158  1.00  0.00     0.124 S 
ATOM    104  O   UNL A   1      36.435  30.382  38.888  1.00  0.00    -0.237 OA
ATOM    105  O   UNL A   1      37.442  32.073  40.390  1.00  0.00    -0.237 OA
ATOM    106  O   UNL A   1      35.629  32.711  38.847  1.00  0.00    -0.744 OA
ENDBRANCH 102 103
ENDBRANCH  70  95
ENDBRANCH  44  45
ENDBRANCH  37  39
ENDBRANCH  36  37
ENDBRANCH  35  36
ENDBRANCH  34  35
ENDBRANCH  33  34
ENDBRANCH  32  33
ENDBRANCH   1  32
TORSDOF 23
ENDMDL
MODEL 3
REMARK VINA RESULT:     -10.5      1.900      2.575
REMARK SMILES Cc1ccc(-c2nc(NC(=O)[C@H]3[C@@H](C(=O)OCCOCCOCCOC(=O)c4ccc(-c5c6nc(c(-c7c(F)cc(S(=O)(=O)[O-])cc7F)c7ccc([nH]7)c(-c7c(F)cc(S(=O)(=O)[O-])cc7F)c7nc(c(-c8c(F)cc(S(=O)(=O)[O-])cc8F)c8ccc5[nH]8)C=C7)C=C6)cc4)[C@@H]4CC[C@H]3O4)sc2C)cc1
REMARK SMILES IDX 20 1 19 2 18 3 17 4 16 5 14 6 15 7 13 8 12 9 97 10 94 11
REMARK SMILES IDX 96 12 98 13 95 14 10 15 9 16 11 18 8 19 6 20 7 21 100 22
REMARK SMILES IDX 99 23 101 24 5 25 1 26 2 27 3 28 103 29 4 30 102 31 21 32
REMARK SMILES IDX 22 33 23 34 24 35 25 36 26 37 27 38 28 39 29 40 93 41 30 42
REMARK SMILES IDX 92 43 31 44 32 45 33 46 86 47 34 48 91 49 85 50 87 51 35 52
REMARK SMILES IDX 90 53 84 54 83 55 36 57 70 58 49 59 69 60 50 61 53 62 68 63
REMARK SMILES IDX 88 64 51 65 52 66 67 68 89 69 54 70 37 71 38 72 47 73 39 74
REMARK SMILES IDX 40 75 46 76 48 77 41 78 42 79 43 80 44 81 45 82 71 83 72 84
REMARK SMILES IDX 81 85 73 86 74 87 80 88 82 89 75 90 76 91 77 92 78 93 79 94
REMARK SMILES IDX 55 95 56 96 65 97 57 98 58 99 64 100 66 101 59 102 60 103
REMARK SMILES IDX 61 104 62 105 63 106
REMARK H PARENT 9 17 87 56 53 67
REMARK Flexibility Score: inf
ROOT
ATOM      1  C   UNL A   1      32.396  29.486  25.630  1.00  0.00     0.188 C 
ENDROOT
BRANCH   1   2
ATOM      2  O   UNL A   1      31.537  28.418  25.934  1.00  0.00    -0.376 OA
BRANCH   2   3
ATOM      3  C   UNL A   1      32.009  27.265  26.572  1.00  0.00     0.202 C 
BRANCH   3   4
ATOM      4  C   UNL A   1      31.956  25.820  26.071  1.00  0.00     0.261 C 
BRANCH   4   5
ATOM      5  O   UNL A   1      31.206  24.715  26.617  1.00  0.00    -0.463 OA
BRANCH   5   6
ATOM      6  C   UNL A   1      31.625  23.529  26.153  1.00  0.00     0.312 C 
ATOM      7  O   UNL A   1      30.854  22.644  25.848  1.00  0.00    -0.252 OA
BRANCH   6   8
ATOM      8  C   UNL A   1      33.049  23.181  25.997  1.00  0.00     0.143 C 
ATOM      9  C   UNL A   1      33.494  22.484  24.747  1.00  0.00     0.124 C 
ATOM     10  C   UNL A   1      34.117  21.205  25.450  1.00  0.00     0.132 C 
ATOM     11  C   UNL A   1      33.501  22.330  27.177  1.00  0.00     0.133 C 
ATOM     12  C   UNL A   1      35.452  21.480  26.206  1.00  0.00     0.035 C 
ATOM     13  O   UNL A   1      33.285  21.027  26.632  1.00  0.00    -0.373 OA
ATOM     14  C   UNL A   1      35.017  22.386  27.350  1.00  0.00     0.036 C 
BRANCH   9  15
ATOM     15  C   UNL A   1      32.425  22.245  23.616  1.00  0.00     0.232 C 
ATOM     16  N   UNL A   1      31.751  23.146  22.787  1.00  0.00    -0.302 N 
ATOM     17  H   UNL A   1      31.135  22.674  22.181  1.00  0.00     0.172 HD
ATOM     18  O   UNL A   1      32.119  21.055  23.419  1.00  0.00    -0.274 OA
BRANCH  16  19
ATOM     19  C   UNL A   1      31.703  24.529  22.571  1.00  0.00     0.190 A 
ATOM     20  C   UNL A   1      31.087  26.749  22.595  1.00  0.00     0.086 A 
ATOM     21  N   UNL A   1      30.652  25.373  22.671  1.00  0.00    -0.220 NA
ATOM     22  C   UNL A   1      32.453  26.805  22.469  1.00  0.00     0.031 A 
ATOM     23  S   UNL A   1      33.148  25.283  22.285  1.00  0.00    -0.101 S 
ATOM     24  C   UNL A   1      33.281  28.006  22.534  1.00  0.00     0.059 C 
BRANCH  20  25
ATOM     25  C   UNL A   1      30.383  28.096  22.750  1.00  0.00     0.001 A 
ATOM     26  C   UNL A   1      27.423  31.359  22.186  1.00  0.00     0.044 C 
ATOM     27  C   UNL A   1      28.455  30.282  22.412  1.00  0.00    -0.051 A 
ATOM     28  C   UNL A   1      29.754  30.328  21.876  1.00  0.00     0.004 A 
ATOM     29  C   UNL A   1      28.121  29.142  23.122  1.00  0.00     0.004 A 
ATOM     30  C   UNL A   1      30.693  29.247  22.021  1.00  0.00     0.010 A 
ATOM     31  C   UNL A   1      29.083  28.125  23.323  1.00  0.00     0.010 A 
ENDBRANCH  20  25
ENDBRANCH  16  19
ENDBRANCH   9  15
ENDBRANCH   6   8
ENDBRANCH   5   6
ENDBRANCH   4   5
ENDBRANCH   3   4
ENDBRANCH   2   3
ENDBRANCH   1   2
BRANCH   1  32
ATOM     32  C   UNL A   1      33.500  29.697  26.685  1.00  0.00     0.188 C 
BRANCH  32  33
ATOM     33  O   UNL A   1      33.201  30.619  27.729  1.00  0.00    -0.376 OA
BRANCH  33  34
ATOM     34  C   UNL A   1      34.076  31.742  27.752  1.00  0.00     0.202 C 
BRANCH  34  35
ATOM     35  C   UNL A   1      35.612  31.443  27.674  1.00  0.00     0.261 C 
BRANCH  35  36
ATOM     36  O   UNL A   1      36.404  32.014  28.769  1.00  0.00    -0.460 OA
BRANCH  36  37
ATOM     37  C   UNL A   1      36.671  31.368  29.944  1.00  0.00     0.338 C 
ATOM     38  O   UNL A   1      36.126  31.565  31.025  1.00  0.00    -0.246 OA
BRANCH  37  39
ATOM     39  C   UNL A   1      37.631  30.220  29.651  1.00  0.00     0.060 A 
ATOM     40  C   UNL A   1      37.460  28.858  29.921  1.00  0.00     0.016 A 
ATOM     41  C   UNL A   1      38.849  30.551  29.086  1.00  0.00     0.016 A 
ATOM     42  C   UNL A   1      38.578  27.932  29.839  1.00  0.00     0.010 A 
ATOM     43  C   UNL A   1      39.940  29.656  29.077  1.00  0.00     0.010 A 
ATOM     44  C   UNL A   1      39.904  28.356  29.543  1.00  0.00    -0.014 A 
BRANCH  44  45
ATOM     45  C   UNL A   1      41.226  27.873  30.228  1.00  0.00     0.031 A 
ATOM     46  C   UNL A   1      42.497  27.096  29.615  1.00  0.00     0.074 A 
ATOM     47  C   UNL A   1      41.403  28.781  31.226  1.00  0.00     0.049 A 
ATOM     48  N   UNL A   1      43.613  26.722  30.224  1.00  0.00    -0.248 NA
ATOM     49  C   UNL A   1      42.538  26.534  28.258  1.00  0.00     0.031 C 
ATOM     50  C   UNL A   1      42.250  29.963  31.419  1.00  0.00     0.029 A 
ATOM     51  N   UNL A   1      40.602  28.829  32.340  1.00  0.00    -0.354 N 
ATOM     52  C   UNL A   1      44.603  26.287  29.287  1.00  0.00     0.074 A 
ATOM     53  C   UNL A   1      43.815  26.126  28.086  1.00  0.00     0.031 C 
ATOM     54  C   UNL A   1      42.116  30.486  32.644  1.00  0.00     0.029 A 
ATOM     55  C   UNL A   1      41.182  29.642  33.288  1.00  0.00     0.049 A 
ATOM     56  H   UNL A   1      39.745  28.355  32.446  1.00  0.00     0.167 HD
ATOM     57  C   UNL A   1      45.985  26.233  29.558  1.00  0.00     0.037 A 
ATOM     58  C   UNL A   1      41.162  29.438  34.603  1.00  0.00     0.037 A 
ATOM     59  C   UNL A   1      46.305  26.353  31.006  1.00  0.00     0.049 A 
ATOM     60  C   UNL A   1      41.976  28.094  34.787  1.00  0.00     0.074 A 
ATOM     61  C   UNL A   1      47.324  26.899  31.783  1.00  0.00     0.029 A 
ATOM     62  N   UNL A   1      45.388  25.873  31.932  1.00  0.00    -0.354 N 
ATOM     63  N   UNL A   1      43.231  27.845  34.366  1.00  0.00    -0.248 NA
ATOM     64  C   UNL A   1      41.420  26.902  35.420  1.00  0.00     0.031 C 
ATOM     65  C   UNL A   1      46.990  26.729  33.174  1.00  0.00     0.029 A 
ATOM     66  C   UNL A   1      45.685  26.249  33.242  1.00  0.00     0.049 A 
ATOM     67  H   UNL A   1      44.609  25.323  31.689  1.00  0.00     0.167 HD
ATOM     68  C   UNL A   1      43.606  26.494  34.620  1.00  0.00     0.074 A 
ATOM     69  C   UNL A   1      42.408  25.993  35.292  1.00  0.00     0.031 C 
ATOM     70  C   UNL A   1      44.761  25.764  34.260  1.00  0.00     0.037 A 
BRANCH  57  71
ATOM     71  C   UNL A   1      47.225  26.325  28.518  1.00  0.00     0.058 A 
ATOM     72  C   UNL A   1      47.608  25.227  27.681  1.00  0.00     0.135 A 
ATOM     73  C   UNL A   1      48.176  27.370  28.463  1.00  0.00     0.135 A 
ATOM     74  F   UNL A   1      46.780  24.194  27.474  1.00  0.00    -0.206 F 
ATOM     75  C   UNL A   1      48.839  25.124  26.983  1.00  0.00     0.059 A 
ATOM     76  C   UNL A   1      49.400  27.311  27.731  1.00  0.00     0.059 A 
ATOM     77  F   UNL A   1      47.963  28.514  29.118  1.00  0.00    -0.206 F 
ATOM     78  C   UNL A   1      49.744  26.170  27.017  1.00  0.00     0.060 A 
BRANCH  78  79
ATOM     79  S   UNL A   1      51.281  26.065  26.042  1.00  0.00     0.124 S 
ATOM     80  O   UNL A   1      51.940  27.329  26.354  1.00  0.00    -0.237 OA
ATOM     81  O   UNL A   1      51.925  24.871  26.584  1.00  0.00    -0.237 OA
ATOM     82  O   UNL A   1      50.801  25.932  24.670  1.00  0.00    -0.744 OA
ENDBRANCH  78  79
ENDBRANCH  57  71
BRANCH  58  83
ATOM     83  C   UNL A   1      39.845  30.226  34.888  1.00  0.00     0.058 A 
ATOM     84  C   UNL A   1      40.088  31.526  35.435  1.00  0.00     0.135 A 
ATOM     85  C   UNL A   1      38.701  30.201  34.024  1.00  0.00     0.135 A 
ATOM     86  F   UNL A   1      41.151  31.703  36.235  1.00  0.00    -0.206 F 
ATOM     87  C   UNL A   1      39.403  32.700  35.036  1.00  0.00     0.059 A 
ATOM     88  C   UNL A   1      38.017  31.374  33.595  1.00  0.00     0.059 A 
ATOM     89  F   UNL A   1      38.388  29.071  33.366  1.00  0.00    -0.206 F 
ATOM     90  C   UNL A   1      38.391  32.625  34.087  1.00  0.00     0.060 A 
BRANCH  90  91
ATOM     91  S   UNL A   1      37.670  34.146  33.375  1.00  0.00     0.124 S 
ATOM     92  O   UNL A   1      37.884  35.113  34.446  1.00  0.00    -0.237 OA
ATOM     93  O   UNL A   1      38.449  34.370  32.161  1.00  0.00    -0.237 OA
ATOM     94  O   UNL A   1      36.282  33.756  33.150  1.00  0.00    -0.744 OA
ENDBRANCH  90  91
ENDBRANCH  58  83
BRANCH  70  95
ATOM     95  C   UNL A   1      45.138  24.291  34.605  1.00  0.00     0.058 A 
ATOM     96  C   UNL A   1      44.459  23.159  34.163  1.00  0.00     0.135 A 
ATOM     97  C   UNL A   1      46.244  23.987  35.479  1.00  0.00     0.135 A 
ATOM     98  F   UNL A   1      43.256  23.261  33.581  1.00  0.00    -0.206 F 
ATOM     99  C   UNL A   1      44.963  21.864  34.366  1.00  0.00     0.059 A 
ATOM    100  C   UNL A   1      46.769  22.727  35.680  1.00  0.00     0.059 A 
ATOM    101  F   UNL A   1      46.870  24.891  36.243  1.00  0.00    -0.206 F 
ATOM    102  C   UNL A   1      46.146  21.666  35.080  1.00  0.00     0.060 A 
BRANCH 102 103
ATOM    103  S   UNL A   1      46.833  20.024  35.303  1.00  0.00     0.124 S 
ATOM    104  O   UNL A   1      45.628  19.203  35.364  1.00  0.00    -0.237 OA
ATOM    105  O   UNL A   1      47.646  19.883  34.101  1.00  0.00    -0.237 OA
ATOM    106  O   UNL A   1      47.582  20.124  36.553  1.00  0.00    -0.744 OA
ENDBRANCH 102 103
ENDBRANCH  70  95
ENDBRANCH  44  45
ENDBRANCH  37  39
ENDBRANCH  36  37
ENDBRANCH  35  36
ENDBRANCH  34  35
ENDBRANCH  33  34
ENDBRANCH  32  33
ENDBRANCH   1  32
TORSDOF 23
ENDMDL
