MODEL 1
REMARK VINA RESULT:     -10.7      0.000      0.000
REMARK SMILES CC(C)Cc1cc2c(cc1Cl)C=C(C(=O)OCCOCCOCCOC(=O)c1ccc(-c3c4nc(c(-c5c(F)cc(S(=O)(=O)[O-])cc5F)c5ccc([nH]5)c(-c5c(F)cc(S(=O)(=O)[O-])cc5F)c5nc(c(-c6c(F)cc(S(=O)(=O)[O-])cc6F)c6ccc3[nH]6)C=C5)C=C4)cc1)[C@@H](C(F)(F)F)O2
REMARK SMILES IDX 21 1 20 2 19 3 18 4 17 5 16 6 14 7 15 8 13 9 5 10 6 11 10 12
REMARK SMILES IDX 7 13 9 14 11 15 8 16 99 17 12 18 94 19 4 20 2 21 1 22 3 23
REMARK SMILES IDX 95 24 96 25 97 26 98 27 22 28 23 29 24 30 25 31 26 32 27 33
REMARK SMILES IDX 28 34 29 35 93 36 30 37 92 38 31 39 32 40 33 41 86 42 34 43
REMARK SMILES IDX 91 44 85 45 87 46 35 47 90 48 84 49 83 50 36 52 70 53 49 54
REMARK SMILES IDX 69 55 50 56 53 57 68 58 88 59 51 60 52 61 67 63 89 64 54 65
REMARK SMILES IDX 37 66 38 67 47 68 39 69 40 70 46 71 48 72 41 73 42 74 43 75
REMARK SMILES IDX 44 76 45 77 71 78 72 79 81 80 73 81 74 82 80 83 82 84 75 85
REMARK SMILES IDX 76 86 77 87 78 88 79 89 55 90 56 91 65 92 57 93 58 94 64 95
REMARK SMILES IDX 66 96 59 97 60 98 61 99 62 100 63 101
REMARK H PARENT 87 51 53 62
REMARK Flexibility Score: inf
ROOT
ATOM      1  C   UNL A   1      41.352  20.807  26.552  1.00  0.00     0.188 C 
ENDROOT
BRANCH   1   2
ATOM      2  C   UNL A   1      40.371  21.841  27.145  1.00  0.00     0.188 C 
BRANCH   2   3
ATOM      3  O   UNL A   1      39.257  22.095  26.308  1.00  0.00    -0.376 OA
BRANCH   3   4
ATOM      4  C   UNL A   1      38.698  23.397  26.354  1.00  0.00     0.202 C 
BRANCH   4   5
ATOM      5  C   UNL A   1      37.192  23.520  26.079  1.00  0.00     0.261 C 
BRANCH   5   6
ATOM      6  O   UNL A   1      36.738  22.900  24.866  1.00  0.00    -0.460 OA
BRANCH   6   7
ATOM      7  C   UNL A   1      35.545  22.270  24.908  1.00  0.00     0.338 C 
ATOM      8  O   UNL A   1      35.359  21.068  24.983  1.00  0.00    -0.246 OA
BRANCH   7   9
ATOM      9  C   UNL A   1      34.481  23.293  24.972  1.00  0.00     0.087 C 
ATOM     10  C   UNL A   1      31.879  27.581  24.695  1.00  0.00    -0.025 A 
ATOM     11  C   UNL A   1      31.753  26.397  25.444  1.00  0.00     0.052 A 
ATOM     12  C   UNL A   1      32.801  27.602  23.636  1.00  0.00     0.045 A 
ATOM     13  C   UNL A   1      32.601  25.311  25.217  1.00  0.00     0.128 A 
ATOM     14  C   UNL A   1      33.676  26.529  23.437  1.00  0.00     0.032 A 
ATOM     15  Cl  UNL A   1      32.944  28.950  22.565  1.00  0.00    -0.084 Cl
ATOM     16  C   UNL A   1      33.612  25.404  24.263  1.00  0.00     0.019 A 
ATOM     17  O   UNL A   1      32.417  24.223  26.021  1.00  0.00    -0.475 OA
ATOM     18  C   UNL A   1      34.642  24.380  24.206  1.00  0.00     0.027 C 
ATOM     19  C   UNL A   1      33.258  23.051  25.821  1.00  0.00     0.316 C 
BRANCH  10  20
ATOM     20  C   UNL A   1      31.110  28.807  25.145  1.00  0.00     0.040 C 
BRANCH  20  21
ATOM     21  C   UNL A   1      32.013  29.840  25.865  1.00  0.00    -0.013 C 
ATOM     22  C   UNL A   1      31.339  31.202  26.059  1.00  0.00     0.008 C 
ATOM     23  C   UNL A   1      32.450  29.301  27.230  1.00  0.00     0.008 C 
ENDBRANCH  20  21
ENDBRANCH  10  20
BRANCH  19  24
ATOM     24  C   UNL A   1      33.577  22.491  27.216  1.00  0.00     0.430 C 
ATOM     25  F   UNL A   1      33.731  21.143  27.174  1.00  0.00    -0.167 F 
ATOM     26  F   UNL A   1      34.730  22.987  27.722  1.00  0.00    -0.167 F 
ATOM     27  F   UNL A   1      32.596  22.756  28.107  1.00  0.00    -0.167 F 
ENDBRANCH  19  24
ENDBRANCH   7   9
ENDBRANCH   6   7
ENDBRANCH   5   6
ENDBRANCH   4   5
ENDBRANCH   3   4
ENDBRANCH   2   3
ENDBRANCH   1   2
BRANCH   1  28
ATOM     28  O   UNL A   1      42.350  21.216  25.622  1.00  0.00    -0.376 OA
BRANCH  28  29
ATOM     29  C   UNL A   1      43.208  22.300  25.951  1.00  0.00     0.202 C 
BRANCH  29  30
ATOM     30  C   UNL A   1      42.996  23.653  25.260  1.00  0.00     0.261 C 
BRANCH  30  31
ATOM     31  O   UNL A   1      43.220  24.799  26.095  1.00  0.00    -0.460 OA
BRANCH  31  32
ATOM     32  C   UNL A   1      42.301  25.790  25.981  1.00  0.00     0.338 C 
ATOM     33  O   UNL A   1      41.596  26.031  25.016  1.00  0.00    -0.246 OA
BRANCH  32  34
ATOM     34  C   UNL A   1      42.123  26.450  27.292  1.00  0.00     0.060 A 
ATOM     35  C   UNL A   1      42.931  27.520  27.681  1.00  0.00     0.016 A 
ATOM     36  C   UNL A   1      41.104  25.989  28.138  1.00  0.00     0.016 A 
ATOM     37  C   UNL A   1      42.693  28.148  28.906  1.00  0.00     0.010 A 
ATOM     38  C   UNL A   1      40.873  26.612  29.365  1.00  0.00     0.010 A 
ATOM     39  C   UNL A   1      41.653  27.711  29.749  1.00  0.00    -0.014 A 
BRANCH  39  40
ATOM     40  C   UNL A   1      41.296  28.515  30.944  1.00  0.00     0.031 A 
ATOM     41  C   UNL A   1      42.075  28.424  32.220  1.00  0.00     0.074 A 
ATOM     42  C   UNL A   1      40.251  29.359  30.846  1.00  0.00     0.049 A 
ATOM     43  N   UNL A   1      41.995  29.184  33.281  1.00  0.00    -0.248 NA
ATOM     44  C   UNL A   1      43.062  27.341  32.325  1.00  0.00     0.031 C 
ATOM     45  C   UNL A   1      39.386  29.489  29.671  1.00  0.00     0.029 A 
ATOM     46  N   UNL A   1      39.752  30.278  31.733  1.00  0.00    -0.354 N 
ATOM     47  C   UNL A   1      42.943  28.699  34.170  1.00  0.00     0.074 A 
ATOM     48  C   UNL A   1      43.547  27.539  33.546  1.00  0.00     0.031 C 
ATOM     49  C   UNL A   1      38.489  30.462  29.894  1.00  0.00     0.029 A 
ATOM     50  C   UNL A   1      38.708  31.016  31.227  1.00  0.00     0.049 A 
ATOM     51  H   UNL A   1      40.107  30.398  32.644  1.00  0.00     0.167 HD
ATOM     52  C   UNL A   1      43.291  29.196  35.383  1.00  0.00     0.037 A 
ATOM     53  C   UNL A   1      38.020  32.040  31.766  1.00  0.00     0.037 A 
ATOM     54  C   UNL A   1      42.670  30.341  35.999  1.00  0.00     0.049 A 
ATOM     55  C   UNL A   1      38.401  32.549  33.126  1.00  0.00     0.074 A 
ATOM     56  C   UNL A   1      42.999  30.961  37.192  1.00  0.00     0.029 A 
ATOM     57  N   UNL A   1      41.578  31.027  35.484  1.00  0.00    -0.354 N 
ATOM     58  N   UNL A   1      39.380  32.156  33.905  1.00  0.00    -0.248 NA
ATOM     59  C   UNL A   1      37.590  33.641  33.680  1.00  0.00     0.031 C 
ATOM     60  C   UNL A   1      42.077  31.988  37.424  1.00  0.00     0.029 A 
ATOM     61  C   UNL A   1      41.197  32.036  36.355  1.00  0.00     0.049 A 
ATOM     62  H   UNL A   1      41.138  30.826  34.627  1.00  0.00     0.167 HD
ATOM     63  C   UNL A   1      39.306  32.955  35.040  1.00  0.00     0.074 A 
ATOM     64  C   UNL A   1      38.200  33.870  34.836  1.00  0.00     0.031 C 
ATOM     65  C   UNL A   1      40.082  32.928  36.151  1.00  0.00     0.037 A 
BRANCH  52  66
ATOM     66  C   UNL A   1      44.417  28.524  36.119  1.00  0.00     0.058 A 
ATOM     67  C   UNL A   1      45.744  28.959  35.970  1.00  0.00     0.135 A 
ATOM     68  C   UNL A   1      44.165  27.494  37.039  1.00  0.00     0.135 A 
ATOM     69  F   UNL A   1      46.040  29.935  35.098  1.00  0.00    -0.206 F 
ATOM     70  C   UNL A   1      46.783  28.383  36.691  1.00  0.00     0.059 A 
ATOM     71  C   UNL A   1      45.188  26.917  37.788  1.00  0.00     0.059 A 
ATOM     72  F   UNL A   1      42.914  27.043  37.224  1.00  0.00    -0.206 F 
ATOM     73  C   UNL A   1      46.496  27.363  37.600  1.00  0.00     0.060 A 
BRANCH  73  74
ATOM     74  S   UNL A   1      47.860  26.638  38.535  1.00  0.00     0.124 S 
ATOM     75  O   UNL A   1      48.020  25.352  37.865  1.00  0.00    -0.237 OA
ATOM     76  O   UNL A   1      48.933  27.603  38.318  1.00  0.00    -0.237 OA
ATOM     77  O   UNL A   1      47.344  26.575  39.899  1.00  0.00    -0.744 OA
ENDBRANCH  73  74
ENDBRANCH  52  66
BRANCH  53  78
ATOM     78  C   UNL A   1      36.929  32.677  30.984  1.00  0.00     0.058 A 
ATOM     79  C   UNL A   1      35.585  32.404  31.272  1.00  0.00     0.135 A 
ATOM     80  C   UNL A   1      37.209  33.604  29.968  1.00  0.00     0.135 A 
ATOM     81  F   UNL A   1      35.270  31.522  32.233  1.00  0.00    -0.206 F 
ATOM     82  C   UNL A   1      34.552  33.024  30.578  1.00  0.00     0.059 A 
ATOM     83  C   UNL A   1      36.193  34.253  29.273  1.00  0.00     0.059 A 
ATOM     84  F   UNL A   1      38.480  33.911  29.668  1.00  0.00    -0.206 F 
ATOM     85  C   UNL A   1      34.868  33.952  29.583  1.00  0.00     0.060 A 
BRANCH  85  86
ATOM     86  S   UNL A   1      33.516  34.796  28.732  1.00  0.00     0.124 S 
ATOM     87  O   UNL A   1      32.573  35.015  29.822  1.00  0.00    -0.237 OA
ATOM     88  O   UNL A   1      34.181  35.988  28.212  1.00  0.00    -0.237 OA
ATOM     89  O   UNL A   1      33.101  33.828  27.720  1.00  0.00    -0.744 OA
ENDBRANCH  85  86
ENDBRANCH  53  78
BRANCH  65  90
ATOM     90  C   UNL A   1      39.750  33.895  37.254  1.00  0.00     0.058 A 
ATOM     91  C   UNL A   1      38.995  33.493  38.366  1.00  0.00     0.135 A 
ATOM     92  C   UNL A   1      40.257  35.204  37.243  1.00  0.00     0.135 A 
ATOM     93  F   UNL A   1      38.476  32.255  38.420  1.00  0.00    -0.206 F 
ATOM     94  C   UNL A   1      38.753  34.355  39.430  1.00  0.00     0.059 A 
ATOM     95  C   UNL A   1      40.046  36.076  38.306  1.00  0.00     0.059 A 
ATOM     96  F   UNL A   1      40.989  35.636  36.204  1.00  0.00    -0.206 F 
ATOM     97  C   UNL A   1      39.291  35.643  39.396  1.00  0.00     0.060 A 
BRANCH  97  98
ATOM     98  S   UNL A   1      39.025  36.725  40.817  1.00  0.00     0.124 S 
ATOM     99  O   UNL A   1      40.363  36.784  41.398  1.00  0.00    -0.237 OA
ATOM    100  O   UNL A   1      38.553  37.954  40.187  1.00  0.00    -0.237 OA
ATOM    101  O   UNL A   1      38.028  36.010  41.608  1.00  0.00    -0.744 OA
ENDBRANCH  97  98
ENDBRANCH  65  90
ENDBRANCH  39  40
ENDBRANCH  32  34
ENDBRANCH  31  32
ENDBRANCH  30  31
ENDBRANCH  29  30
ENDBRANCH  28  29
ENDBRANCH   1  28
TORSDOF 23
ENDMDL
MODEL 2
REMARK VINA RESULT:     -10.6      1.235      2.076
REMARK SMILES CC(C)Cc1cc2c(cc1Cl)C=C(C(=O)OCCOCCOCCOC(=O)c1ccc(-c3c4nc(c(-c5c(F)cc(S(=O)(=O)[O-])cc5F)c5ccc([nH]5)c(-c5c(F)cc(S(=O)(=O)[O-])cc5F)c5nc(c(-c6c(F)cc(S(=O)(=O)[O-])cc6F)c6ccc3[nH]6)C=C5)C=C4)cc1)[C@@H](C(F)(F)F)O2
REMARK SMILES IDX 21 1 20 2 19 3 18 4 17 5 16 6 14 7 15 8 13 9 5 10 6 11 10 12
REMARK SMILES IDX 7 13 9 14 11 15 8 16 99 17 12 18 94 19 4 20 2 21 1 22 3 23
REMARK SMILES IDX 95 24 96 25 97 26 98 27 22 28 23 29 24 30 25 31 26 32 27 33
REMARK SMILES IDX 28 34 29 35 93 36 30 37 92 38 31 39 32 40 33 41 86 42 34 43
REMARK SMILES IDX 91 44 85 45 87 46 35 47 90 48 84 49 83 50 36 52 70 53 49 54
REMARK SMILES IDX 69 55 50 56 53 57 68 58 88 59 51 60 52 61 67 63 89 64 54 65
REMARK SMILES IDX 37 66 38 67 47 68 39 69 40 70 46 71 48 72 41 73 42 74 43 75
REMARK SMILES IDX 44 76 45 77 71 78 72 79 81 80 73 81 74 82 80 83 82 84 75 85
REMARK SMILES IDX 76 86 77 87 78 88 79 89 55 90 56 91 65 92 57 93 58 94 64 95
REMARK SMILES IDX 66 96 59 97 60 98 61 99 62 100 63 101
REMARK H PARENT 87 51 53 62
REMARK Flexibility Score: inf
ROOT
ATOM      1  C   UNL A   1      40.872  21.035  26.497  1.00  0.00     0.188 C 
ENDROOT
BRANCH   1   2
ATOM      2  C   UNL A   1      39.939  22.189  26.922  1.00  0.00     0.188 C 
BRANCH   2   3
ATOM      3  O   UNL A   1      38.771  22.281  26.127  1.00  0.00    -0.376 OA
BRANCH   3   4
ATOM      4  C   UNL A   1      38.138  23.547  26.054  1.00  0.00     0.202 C 
BRANCH   4   5
ATOM      5  C   UNL A   1      36.602  23.559  26.016  1.00  0.00     0.261 C 
BRANCH   5   6
ATOM      6  O   UNL A   1      35.981  22.267  25.926  1.00  0.00    -0.460 OA
BRANCH   6   7
ATOM      7  C   UNL A   1      34.708  22.167  26.364  1.00  0.00     0.338 C 
ATOM      8  O   UNL A   1      34.305  21.465  27.275  1.00  0.00    -0.246 OA
BRANCH   7   9
ATOM      9  C   UNL A   1      33.886  23.151  25.630  1.00  0.00     0.087 C 
ATOM     10  C   UNL A   1      30.884  26.992  24.417  1.00  0.00    -0.025 A 
ATOM     11  C   UNL A   1      31.216  25.768  23.807  1.00  0.00     0.052 A 
ATOM     12  C   UNL A   1      31.635  27.405  25.529  1.00  0.00     0.045 A 
ATOM     13  C   UNL A   1      32.189  24.932  24.360  1.00  0.00     0.128 A 
ATOM     14  C   UNL A   1      32.580  26.549  26.104  1.00  0.00     0.032 A 
ATOM     15  Cl  UNL A   1      31.407  28.947  26.273  1.00  0.00    -0.084 Cl
ATOM     16  C   UNL A   1      32.819  25.289  25.550  1.00  0.00     0.019 A 
ATOM     17  O   UNL A   1      32.412  23.754  23.709  1.00  0.00    -0.475 OA
ATOM     18  C   UNL A   1      33.636  24.312  26.250  1.00  0.00     0.027 C 
ATOM     19  C   UNL A   1      33.428  22.847  24.226  1.00  0.00     0.316 C 
BRANCH  10  20
ATOM     20  C   UNL A   1      29.659  27.736  23.924  1.00  0.00     0.040 C 
BRANCH  20  21
ATOM     21  C   UNL A   1      30.024  29.035  23.162  1.00  0.00    -0.013 C 
ATOM     22  C   UNL A   1      31.365  28.948  22.426  1.00  0.00     0.008 C 
ATOM     23  C   UNL A   1      28.925  29.385  22.156  1.00  0.00     0.008 C 
ENDBRANCH  20  21
ENDBRANCH  10  20
BRANCH  19  24
ATOM     24  C   UNL A   1      32.881  21.421  24.050  1.00  0.00     0.430 C 
ATOM     25  F   UNL A   1      31.924  21.152  24.974  1.00  0.00    -0.167 F 
ATOM     26  F   UNL A   1      32.303  21.234  22.841  1.00  0.00    -0.167 F 
ATOM     27  F   UNL A   1      33.847  20.486  24.187  1.00  0.00    -0.167 F 
ENDBRANCH  19  24
ENDBRANCH   7   9
ENDBRANCH   6   7
ENDBRANCH   5   6
ENDBRANCH   4   5
ENDBRANCH   3   4
ENDBRANCH   2   3
ENDBRANCH   1   2
BRANCH   1  28
ATOM     28  O   UNL A   1      42.041  21.304  25.727  1.00  0.00    -0.376 OA
BRANCH  28  29
ATOM     29  C   UNL A   1      43.053  22.145  26.265  1.00  0.00     0.202 C 
BRANCH  29  30
ATOM     30  C   UNL A   1      43.267  23.535  25.652  1.00  0.00     0.261 C 
BRANCH  30  31
ATOM     31  O   UNL A   1      42.984  24.633  26.533  1.00  0.00    -0.460 OA
BRANCH  31  32
ATOM     32  C   UNL A   1      42.042  25.504  26.091  1.00  0.00     0.338 C 
ATOM     33  O   UNL A   1      41.494  25.504  25.002  1.00  0.00    -0.246 OA
BRANCH  32  34
ATOM     34  C   UNL A   1      41.613  26.373  27.208  1.00  0.00     0.060 A 
ATOM     35  C   UNL A   1      40.571  25.999  28.059  1.00  0.00     0.016 A 
ATOM     36  C   UNL A   1      42.295  27.581  27.411  1.00  0.00     0.016 A 
ATOM     37  C   UNL A   1      40.235  26.827  29.134  1.00  0.00     0.010 A 
ATOM     38  C   UNL A   1      41.953  28.410  28.481  1.00  0.00     0.010 A 
ATOM     39  C   UNL A   1      40.934  28.028  29.364  1.00  0.00    -0.014 A 
BRANCH  39  40
ATOM     40  C   UNL A   1      40.692  28.783  30.617  1.00  0.00     0.031 A 
ATOM     41  C   UNL A   1      41.525  28.569  31.843  1.00  0.00     0.074 A 
ATOM     42  C   UNL A   1      39.703  29.697  30.622  1.00  0.00     0.049 A 
ATOM     43  N   UNL A   1      41.550  29.270  32.947  1.00  0.00    -0.248 NA
ATOM     44  C   UNL A   1      42.442  27.421  31.837  1.00  0.00     0.031 C 
ATOM     45  C   UNL A   1      38.791  29.949  29.504  1.00  0.00     0.029 A 
ATOM     46  N   UNL A   1      39.311  30.593  31.583  1.00  0.00    -0.354 N 
ATOM     47  C   UNL A   1      42.506  28.675  33.757  1.00  0.00     0.074 A 
ATOM     48  C   UNL A   1      42.999  27.516  33.039  1.00  0.00     0.031 C 
ATOM     49  C   UNL A   1      37.973  30.963  29.827  1.00  0.00     0.029 A 
ATOM     50  C   UNL A   1      38.295  31.425  31.174  1.00  0.00     0.049 A 
ATOM     51  H   UNL A   1      39.718  30.637  32.478  1.00  0.00     0.167 HD
ATOM     52  C   UNL A   1      42.947  29.079  34.973  1.00  0.00     0.037 A 
ATOM     53  C   UNL A   1      37.705  32.458  31.803  1.00  0.00     0.037 A 
ATOM     54  C   UNL A   1      42.436  30.224  35.683  1.00  0.00     0.049 A 
ATOM     55  C   UNL A   1      38.187  32.862  33.167  1.00  0.00     0.074 A 
ATOM     56  C   UNL A   1      42.865  30.752  36.889  1.00  0.00     0.029 A 
ATOM     57  N   UNL A   1      41.368  31.006  35.265  1.00  0.00    -0.354 N 
ATOM     58  N   UNL A   1      39.175  32.363  33.869  1.00  0.00    -0.248 NA
ATOM     59  C   UNL A   1      37.479  33.971  33.822  1.00  0.00     0.031 C 
ATOM     60  C   UNL A   1      42.027  31.821  37.224  1.00  0.00     0.029 A 
ATOM     61  C   UNL A   1      41.099  31.986  36.208  1.00  0.00     0.049 A 
ATOM     62  H   UNL A   1      40.874  30.884  34.424  1.00  0.00     0.167 HD
ATOM     63  C   UNL A   1      39.211  33.099  35.049  1.00  0.00     0.074 A 
ATOM     64  C   UNL A   1      38.160  34.093  34.954  1.00  0.00     0.031 C 
ATOM     65  C   UNL A   1      40.038  32.958  36.114  1.00  0.00     0.037 A 
BRANCH  52  66
ATOM     66  C   UNL A   1      44.060  28.294  35.611  1.00  0.00     0.058 A 
ATOM     67  C   UNL A   1      45.406  28.614  35.368  1.00  0.00     0.135 A 
ATOM     68  C   UNL A   1      43.788  27.270  36.532  1.00  0.00     0.135 A 
ATOM     69  F   UNL A   1      45.722  29.580  34.491  1.00  0.00    -0.206 F 
ATOM     70  C   UNL A   1      46.441  27.934  35.998  1.00  0.00     0.059 A 
ATOM     71  C   UNL A   1      44.809  26.589  37.191  1.00  0.00     0.059 A 
ATOM     72  F   UNL A   1      42.519  26.926  36.805  1.00  0.00    -0.206 F 
ATOM     73  C   UNL A   1      46.133  26.924  36.910  1.00  0.00     0.060 A 
BRANCH  73  74
ATOM     74  S   UNL A   1      47.494  26.062  37.727  1.00  0.00     0.124 S 
ATOM     75  O   UNL A   1      46.785  24.985  38.412  1.00  0.00    -0.237 OA
ATOM     76  O   UNL A   1      48.326  25.656  36.600  1.00  0.00    -0.237 OA
ATOM     77  O   UNL A   1      48.073  27.082  38.595  1.00  0.00    -0.744 OA
ENDBRANCH  73  74
ENDBRANCH  52  66
BRANCH  53  78
ATOM     78  C   UNL A   1      36.621  33.208  31.117  1.00  0.00     0.058 A 
ATOM     79  C   UNL A   1      36.911  34.083  30.061  1.00  0.00     0.135 A 
ATOM     80  C   UNL A   1      35.276  33.030  31.474  1.00  0.00     0.135 A 
ATOM     81  F   UNL A   1      38.184  34.287  29.688  1.00  0.00    -0.206 F 
ATOM     82  C   UNL A   1      35.905  34.760  29.382  1.00  0.00     0.059 A 
ATOM     83  C   UNL A   1      34.250  33.681  30.796  1.00  0.00     0.059 A 
ATOM     84  F   UNL A   1      34.948  32.190  32.467  1.00  0.00    -0.206 F 
ATOM     85  C   UNL A   1      34.576  34.548  29.754  1.00  0.00     0.060 A 
BRANCH  85  86
ATOM     86  S   UNL A   1      33.275  35.386  28.822  1.00  0.00     0.124 S 
ATOM     87  O   UNL A   1      32.467  35.956  29.894  1.00  0.00    -0.237 OA
ATOM     88  O   UNL A   1      34.039  36.339  28.022  1.00  0.00    -0.237 OA
ATOM     89  O   UNL A   1      32.651  34.303  28.068  1.00  0.00    -0.744 OA
ENDBRANCH  85  86
ENDBRANCH  53  78
BRANCH  65  90
ATOM     90  C   UNL A   1      39.827  33.880  37.283  1.00  0.00     0.058 A 
ATOM     91  C   UNL A   1      40.387  35.166  37.301  1.00  0.00     0.135 A 
ATOM     92  C   UNL A   1      38.995  33.511  38.352  1.00  0.00     0.135 A 
ATOM     93  F   UNL A   1      41.201  35.563  36.309  1.00  0.00    -0.206 F 
ATOM     94  C   UNL A   1      40.130  36.056  38.338  1.00  0.00     0.059 A 
ATOM     95  C   UNL A   1      38.706  34.393  39.389  1.00  0.00     0.059 A 
ATOM     96  F   UNL A   1      38.431  32.293  38.380  1.00  0.00    -0.206 F 
ATOM     97  C   UNL A   1      39.280  35.664  39.374  1.00  0.00     0.060 A 
BRANCH  97  98
ATOM     98  S   UNL A   1      38.903  36.856  40.676  1.00  0.00     0.124 S 
ATOM     99  O   UNL A   1      38.261  37.926  39.920  1.00  0.00    -0.237 OA
ATOM    100  O   UNL A   1      38.027  36.088  41.556  1.00  0.00    -0.237 OA
ATOM    101  O   UNL A   1      40.213  37.179  41.233  1.00  0.00    -0.744 OA
ENDBRANCH  97  98
ENDBRANCH  65  90
ENDBRANCH  39  40
ENDBRANCH  32  34
ENDBRANCH  31  32
ENDBRANCH  30  31
ENDBRANCH  29  30
ENDBRANCH  28  29
ENDBRANCH   1  28
TORSDOF 23
ENDMDL
MODEL 3
REMARK VINA RESULT:      -9.6      4.624     11.774
REMARK SMILES CC(C)Cc1cc2c(cc1Cl)C=C(C(=O)OCCOCCOCCOC(=O)c1ccc(-c3c4nc(c(-c5c(F)cc(S(=O)(=O)[O-])cc5F)c5ccc([nH]5)c(-c5c(F)cc(S(=O)(=O)[O-])cc5F)c5nc(c(-c6c(F)cc(S(=O)(=O)[O-])cc6F)c6ccc3[nH]6)C=C5)C=C4)cc1)[C@@H](C(F)(F)F)O2
REMARK SMILES IDX 21 1 20 2 19 3 18 4 17 5 16 6 14 7 15 8 13 9 5 10 6 11 10 12
REMARK SMILES IDX 7 13 9 14 11 15 8 16 99 17 12 18 94 19 4 20 2 21 1 22 3 23
REMARK SMILES IDX 95 24 96 25 97 26 98 27 22 28 23 29 24 30 25 31 26 32 27 33
REMARK SMILES IDX 28 34 29 35 93 36 30 37 92 38 31 39 32 40 33 41 86 42 34 43
REMARK SMILES IDX 91 44 85 45 87 46 35 47 90 48 84 49 83 50 36 52 70 53 49 54
REMARK SMILES IDX 69 55 50 56 53 57 68 58 88 59 51 60 52 61 67 63 89 64 54 65
REMARK SMILES IDX 37 66 38 67 47 68 39 69 40 70 46 71 48 72 41 73 42 74 43 75
REMARK SMILES IDX 44 76 45 77 71 78 72 79 81 80 73 81 74 82 80 83 82 84 75 85
REMARK SMILES IDX 76 86 77 87 78 88 79 89 55 90 56 91 65 92 57 93 58 94 64 95
REMARK SMILES IDX 66 96 59 97 60 98 61 99 62 100 63 101
REMARK H PARENT 87 51 53 62
REMARK Flexibility Score: inf
ROOT
ATOM      1  C   UNL A   1      33.054  35.551  30.060  1.00  0.00     0.188 C 
ENDROOT
BRANCH   1   2
ATOM      2  C   UNL A   1      33.901  35.072  31.259  1.00  0.00     0.188 C 
BRANCH   2   3
ATOM      3  O   UNL A   1      33.598  33.747  31.658  1.00  0.00    -0.376 OA
BRANCH   3   4
ATOM      4  C   UNL A   1      34.501  33.122  32.555  1.00  0.00     0.202 C 
BRANCH   4   5
ATOM      5  C   UNL A   1      35.887  32.751  32.005  1.00  0.00     0.261 C 
BRANCH   5   6
ATOM      6  O   UNL A   1      36.993  33.077  32.861  1.00  0.00    -0.460 OA
BRANCH   6   7
ATOM      7  C   UNL A   1      37.372  34.372  32.907  1.00  0.00     0.338 C 
ATOM      8  O   UNL A   1      36.662  35.328  33.163  1.00  0.00    -0.246 OA
BRANCH   7   9
ATOM      9  C   UNL A   1      38.835  34.435  32.714  1.00  0.00     0.087 C 
ATOM     10  C   UNL A   1      43.515  33.789  31.005  1.00  0.00    -0.025 A 
ATOM     11  C   UNL A   1      42.959  34.164  32.242  1.00  0.00     0.052 A 
ATOM     12  C   UNL A   1      42.667  33.729  29.887  1.00  0.00     0.045 A 
ATOM     13  C   UNL A   1      41.583  34.358  32.380  1.00  0.00     0.128 A 
ATOM     14  C   UNL A   1      41.285  33.885  30.036  1.00  0.00     0.032 A 
ATOM     15  Cl  UNL A   1      43.262  33.414  28.296  1.00  0.00    -0.084 Cl
ATOM     16  C   UNL A   1      40.737  34.146  31.294  1.00  0.00     0.019 A 
ATOM     17  O   UNL A   1      41.142  34.687  33.630  1.00  0.00    -0.475 OA
ATOM     18  C   UNL A   1      39.299  34.102  31.502  1.00  0.00     0.027 C 
ATOM     19  C   UNL A   1      39.719  34.922  33.834  1.00  0.00     0.316 C 
BRANCH  10  20
ATOM     20  C   UNL A   1      44.965  33.349  30.967  1.00  0.00     0.040 C 
BRANCH  20  21
ATOM     21  C   UNL A   1      45.165  31.924  31.540  1.00  0.00    -0.013 C 
ATOM     22  C   UNL A   1      45.027  30.823  30.483  1.00  0.00     0.008 C 
ATOM     23  C   UNL A   1      46.540  31.807  32.203  1.00  0.00     0.008 C 
ENDBRANCH  20  21
ENDBRANCH  10  20
BRANCH  19  24
ATOM     24  C   UNL A   1      39.363  34.324  35.204  1.00  0.00     0.430 C 
ATOM     25  F   UNL A   1      39.461  32.971  35.184  1.00  0.00    -0.167 F 
ATOM     26  F   UNL A   1      40.194  34.748  36.185  1.00  0.00    -0.167 F 
ATOM     27  F   UNL A   1      38.102  34.631  35.580  1.00  0.00    -0.167 F 
ENDBRANCH  19  24
ENDBRANCH   7   9
ENDBRANCH   6   7
ENDBRANCH   5   6
ENDBRANCH   4   5
ENDBRANCH   3   4
ENDBRANCH   2   3
ENDBRANCH   1   2
BRANCH   1  28
ATOM     28  O   UNL A   1      33.610  35.566  28.749  1.00  0.00    -0.376 OA
BRANCH  28  29
ATOM     29  C   UNL A   1      34.754  34.770  28.467  1.00  0.00     0.202 C 
BRANCH  29  30
ATOM     30  C   UNL A   1      34.562  33.287  28.125  1.00  0.00     0.261 C 
BRANCH  30  31
ATOM     31  O   UNL A   1      35.762  32.501  28.154  1.00  0.00    -0.460 OA
BRANCH  31  32
ATOM     32  C   UNL A   1      35.593  31.192  28.471  1.00  0.00     0.338 C 
ATOM     33  O   UNL A   1      34.591  30.518  28.300  1.00  0.00    -0.246 OA
BRANCH  32  34
ATOM     34  C   UNL A   1      36.888  30.617  28.894  1.00  0.00     0.060 A 
ATOM     35  C   UNL A   1      38.080  31.328  28.746  1.00  0.00     0.016 A 
ATOM     36  C   UNL A   1      36.892  29.339  29.472  1.00  0.00     0.016 A 
ATOM     37  C   UNL A   1      39.273  30.767  29.209  1.00  0.00     0.010 A 
ATOM     38  C   UNL A   1      38.086  28.777  29.926  1.00  0.00     0.010 A 
ATOM     39  C   UNL A   1      39.283  29.497  29.818  1.00  0.00    -0.014 A 
BRANCH  39  40
ATOM     40  C   UNL A   1      40.522  29.014  30.475  1.00  0.00     0.031 A 
ATOM     41  C   UNL A   1      41.363  27.928  29.879  1.00  0.00     0.074 A 
ATOM     42  C   UNL A   1      40.892  29.600  31.630  1.00  0.00     0.049 A 
ATOM     43  N   UNL A   1      42.553  27.524  30.240  1.00  0.00    -0.248 NA
ATOM     44  C   UNL A   1      40.797  27.194  28.738  1.00  0.00     0.031 C 
ATOM     45  C   UNL A   1      40.121  30.629  32.332  1.00  0.00     0.029 A 
ATOM     46  N   UNL A   1      42.012  29.434  32.404  1.00  0.00    -0.354 N 
ATOM     47  C   UNL A   1      42.900  26.514  29.354  1.00  0.00     0.074 A 
ATOM     48  C   UNL A   1      41.766  26.325  28.471  1.00  0.00     0.031 C 
ATOM     49  C   UNL A   1      40.810  31.031  33.411  1.00  0.00     0.029 A 
ATOM     50  C   UNL A   1      42.063  30.285  33.482  1.00  0.00     0.049 A 
ATOM     51  H   UNL A   1      42.711  28.769  32.207  1.00  0.00     0.167 HD
ATOM     52  C   UNL A   1      44.068  25.831  29.273  1.00  0.00     0.037 A 
ATOM     53  C   UNL A   1      43.021  30.463  34.411  1.00  0.00     0.037 A 
ATOM     54  C   UNL A   1      45.181  26.018  30.169  1.00  0.00     0.049 A 
ATOM     55  C   UNL A   1      44.291  29.667  34.320  1.00  0.00     0.074 A 
ATOM     56  C   UNL A   1      46.430  25.422  30.125  1.00  0.00     0.029 A 
ATOM     57  N   UNL A   1      45.175  26.845  31.283  1.00  0.00    -0.354 N 
ATOM     58  N   UNL A   1      44.653  28.801  33.405  1.00  0.00    -0.248 NA
ATOM     59  C   UNL A   1      45.285  29.874  35.383  1.00  0.00     0.031 C 
ATOM     60  C   UNL A   1      47.161  25.850  31.238  1.00  0.00     0.029 A 
ATOM     61  C   UNL A   1      46.383  26.745  31.956  1.00  0.00     0.049 A 
ATOM     62  H   UNL A   1      44.424  27.420  31.555  1.00  0.00     0.167 HD
ATOM     63  C   UNL A   1      45.918  28.360  33.779  1.00  0.00     0.074 A 
ATOM     64  C   UNL A   1      46.269  29.075  34.991  1.00  0.00     0.031 C 
ATOM     65  C   UNL A   1      46.713  27.445  33.173  1.00  0.00     0.037 A 
BRANCH  52  66
ATOM     66  C   UNL A   1      44.219  24.832  28.159  1.00  0.00     0.058 A 
ATOM     67  C   UNL A   1      43.842  23.490  28.332  1.00  0.00     0.135 A 
ATOM     68  C   UNL A   1      44.667  25.227  26.888  1.00  0.00     0.135 A 
ATOM     69  F   UNL A   1      43.414  23.058  29.528  1.00  0.00    -0.206 F 
ATOM     70  C   UNL A   1      43.921  22.572  27.291  1.00  0.00     0.059 A 
ATOM     71  C   UNL A   1      44.735  24.330  25.826  1.00  0.00     0.059 A 
ATOM     72  F   UNL A   1      45.036  26.499  26.668  1.00  0.00    -0.206 F 
ATOM     73  C   UNL A   1      44.368  23.001  26.040  1.00  0.00     0.060 A 
BRANCH  73  74
ATOM     74  S   UNL A   1      44.452  21.795  24.699  1.00  0.00     0.124 S 
ATOM     75  O   UNL A   1      43.398  20.861  25.082  1.00  0.00    -0.237 OA
ATOM     76  O   UNL A   1      44.175  22.616  23.525  1.00  0.00    -0.237 OA
ATOM     77  O   UNL A   1      45.813  21.276  24.791  1.00  0.00    -0.744 OA
ENDBRANCH  73  74
ENDBRANCH  52  66
BRANCH  53  78
ATOM     78  C   UNL A   1      42.824  31.477  35.478  1.00  0.00     0.058 A 
ATOM     79  C   UNL A   1      41.971  31.224  36.562  1.00  0.00     0.135 A 
ATOM     80  C   UNL A   1      43.518  32.697  35.459  1.00  0.00     0.135 A 
ATOM     81  F   UNL A   1      41.285  30.072  36.620  1.00  0.00    -0.206 F 
ATOM     82  C   UNL A   1      41.809  32.145  37.589  1.00  0.00     0.059 A 
ATOM     83  C   UNL A   1      43.388  33.627  36.486  1.00  0.00     0.059 A 
ATOM     84  F   UNL A   1      44.359  32.977  34.451  1.00  0.00    -0.206 F 
ATOM     85  C   UNL A   1      42.526  33.343  37.545  1.00  0.00     0.060 A 
BRANCH  85  86
ATOM     86  S   UNL A   1      42.353  34.504  38.917  1.00  0.00     0.124 S 
ATOM     87  O   UNL A   1      42.590  35.780  38.254  1.00  0.00    -0.237 OA
ATOM     88  O   UNL A   1      40.982  34.256  39.355  1.00  0.00    -0.237 OA
ATOM     89  O   UNL A   1      43.389  34.075  39.853  1.00  0.00    -0.744 OA
ENDBRANCH  85  86
ENDBRANCH  53  78
BRANCH  65  90
ATOM     90  C   UNL A   1      48.033  27.133  33.823  1.00  0.00     0.058 A 
ATOM     91  C   UNL A   1      49.173  27.905  33.554  1.00  0.00     0.135 A 
ATOM     92  C   UNL A   1      48.143  26.112  34.781  1.00  0.00     0.135 A 
ATOM     93  F   UNL A   1      49.125  28.885  32.637  1.00  0.00    -0.206 F 
ATOM     94  C   UNL A   1      50.377  27.677  34.212  1.00  0.00     0.059 A 
ATOM     95  C   UNL A   1      49.330  25.881  35.467  1.00  0.00     0.059 A 
ATOM     96  F   UNL A   1      47.079  25.347  35.077  1.00  0.00    -0.206 F 
ATOM     97  C   UNL A   1      50.444  26.668  35.175  1.00  0.00     0.060 A 
BRANCH  97  98
ATOM     98  S   UNL A   1      51.995  26.433  36.068  1.00  0.00     0.124 S 
ATOM     99  O   UNL A   1      51.553  26.524  37.456  1.00  0.00    -0.237 OA
ATOM    100  O   UNL A   1      52.412  25.107  35.621  1.00  0.00    -0.237 OA
ATOM    101  O   UNL A   1      52.828  27.536  35.601  1.00  0.00    -0.744 OA
ENDBRANCH  97  98
ENDBRANCH  65  90
ENDBRANCH  39  40
ENDBRANCH  32  34
ENDBRANCH  31  32
ENDBRANCH  30  31
ENDBRANCH  29  30
ENDBRANCH  28  29
ENDBRANCH   1  28
TORSDOF 23
ENDMDL
