MODEL 1
REMARK VINA RESULT:      -9.2      0.000      0.000
REMARK SMILES Cc1c(C(=O)OCCOCCOCCOC(=O)c2ccc(-c3c4nc(c(-c5c(F)cc(S(=O)(=O)[O-])cc5F)c5ccc([nH]5)c(-c5c(F)cc(S(=O)(=O)[O-])cc5F)c5nc(c(-c6c(F)cc(S(=O)(=O)[O-])cc6F)c6ccc3[nH]6)C=C5)C=C4)cc2)sc2c1=C(CSc1nncn1-c1ccccc1)CC(=O)N=2
REMARK SMILES IDX 10 1 9 2 8 3 7 4 6 5 4 6 5 7 3 8 1 9 2 10 86 11 84 12 85 13
REMARK SMILES IDX 87 14 104 15 101 16 102 17 103 18 88 19 89 20 90 21 91 22
REMARK SMILES IDX 94 23 92 24 93 25 95 26 96 27 100 28 97 29 99 30 98 31 11 32
REMARK SMILES IDX 12 33 13 34 14 35 15 36 16 37 17 38 18 39 19 40 83 41 20 42
REMARK SMILES IDX 82 43 21 44 22 45 23 46 76 47 24 48 81 49 75 50 77 51 25 52
REMARK SMILES IDX 80 53 74 54 73 55 26 57 60 58 39 59 59 60 40 61 43 62 58 63
REMARK SMILES IDX 78 64 41 65 42 66 57 68 79 69 44 70 27 71 28 72 37 73 29 74
REMARK SMILES IDX 30 75 36 76 38 77 31 78 32 79 33 80 34 81 35 82 61 83 62 84
REMARK SMILES IDX 71 85 63 86 64 87 70 88 72 89 65 90 66 91 67 92 68 93 69 94
REMARK SMILES IDX 45 95 46 96 55 97 47 98 48 99 54 100 56 101 49 102 50 103
REMARK SMILES IDX 51 104 52 105 53 106
REMARK H PARENT 77 56 43 67
REMARK Flexibility Score: inf
ROOT
ATOM      1  C   UNL A   1      42.975  40.629  28.913  1.00  0.00     0.188 C 
ENDROOT
BRANCH   1   2
ATOM      2  O   UNL A   1      42.605  40.550  27.552  1.00  0.00    -0.376 OA
BRANCH   2   3
ATOM      3  C   UNL A   1      41.722  39.535  27.110  1.00  0.00     0.202 C 
BRANCH   3   4
ATOM      4  C   UNL A   1      42.163  38.096  26.764  1.00  0.00     0.261 C 
BRANCH   4   5
ATOM      5  O   UNL A   1      42.588  37.257  27.848  1.00  0.00    -0.459 OA
BRANCH   5   6
ATOM      6  C   UNL A   1      42.174  35.968  27.836  1.00  0.00     0.348 C 
ATOM      7  O   UNL A   1      41.006  35.607  27.813  1.00  0.00    -0.245 OA
BRANCH   6   8
ATOM      8  C   UNL A   1      43.323  35.021  27.743  1.00  0.00     0.118 A 
ATOM      9  C   UNL A   1      43.310  33.737  29.971  1.00  0.00     0.047 C 
ATOM     10  C   UNL A   1      43.745  34.046  28.573  1.00  0.00    -0.016 A 
ATOM     11  C   UNL A   1      44.935  33.357  28.098  1.00  0.00     0.016 A 
ATOM     12  S   UNL A   1      44.407  35.279  26.380  1.00  0.00    -0.108 S 
ATOM     13  C   UNL A   1      45.524  34.033  26.902  1.00  0.00     0.128 A 
ATOM     14  C   UNL A   1      45.259  32.053  27.976  1.00  0.00    -0.040 C 
ATOM     15  N   UNL A   1      46.591  33.740  26.247  1.00  0.00    -0.202 NA
ATOM     16  C   UNL A   1      46.756  31.827  27.845  1.00  0.00     0.135 C 
ATOM     17  C   UNL A   1      47.312  32.648  26.683  1.00  0.00     0.251 C 
ATOM     18  O   UNL A   1      48.382  32.319  26.170  1.00  0.00    -0.272 OA
BRANCH  14  19
ATOM     19  C   UNL A   1      44.477  30.974  27.237  1.00  0.00     0.110 C 
BRANCH  19  20
ATOM     20  S   UNL A   1      43.104  30.201  28.101  1.00  0.00    -0.081 SA
BRANCH  20  21
ATOM     21  C   UNL A   1      42.400  29.283  26.812  1.00  0.00     0.195 A 
ATOM     22  N   UNL A   1      43.007  29.041  25.671  1.00  0.00    -0.123 NA
ATOM     23  N   UNL A   1      41.249  28.523  26.914  1.00  0.00    -0.277 N 
ATOM     24  N   UNL A   1      42.308  28.060  25.023  1.00  0.00    -0.138 NA
ATOM     25  C   UNL A   1      41.288  27.737  25.785  1.00  0.00     0.231 A 
BRANCH  23  26
ATOM     26  C   UNL A   1      40.279  28.453  27.950  1.00  0.00     0.049 A 
ATOM     27  C   UNL A   1      40.492  27.665  29.088  1.00  0.00     0.027 A 
ATOM     28  C   UNL A   1      39.062  29.133  27.801  1.00  0.00     0.027 A 
ATOM     29  C   UNL A   1      39.481  27.513  30.036  1.00  0.00     0.002 A 
ATOM     30  C   UNL A   1      38.047  28.962  28.744  1.00  0.00     0.002 A 
ATOM     31  C   UNL A   1      38.258  28.153  29.859  1.00  0.00     0.000 A 
ENDBRANCH  23  26
ENDBRANCH  20  21
ENDBRANCH  19  20
ENDBRANCH  14  19
ENDBRANCH   6   8
ENDBRANCH   5   6
ENDBRANCH   4   5
ENDBRANCH   3   4
ENDBRANCH   2   3
ENDBRANCH   1   2
BRANCH   1  32
ATOM     32  C   UNL A   1      41.995  41.244  29.936  1.00  0.00     0.188 C 
BRANCH  32  33
ATOM     33  O   UNL A   1      42.106  40.821  31.281  1.00  0.00    -0.376 OA
BRANCH  33  34
ATOM     34  C   UNL A   1      42.549  41.647  32.347  1.00  0.00     0.202 C 
BRANCH  34  35
ATOM     35  C   UNL A   1      43.142  41.177  33.675  1.00  0.00     0.261 C 
BRANCH  35  36
ATOM     36  O   UNL A   1      42.996  39.808  33.950  1.00  0.00    -0.460 OA
BRANCH  36  37
ATOM     37  C   UNL A   1      43.964  39.321  34.750  1.00  0.00     0.338 C 
ATOM     38  O   UNL A   1      44.670  39.952  35.519  1.00  0.00    -0.246 OA
BRANCH  37  39
ATOM     39  C   UNL A   1      44.053  37.879  34.527  1.00  0.00     0.060 A 
ATOM     40  C   UNL A   1      43.534  37.423  33.315  1.00  0.00     0.016 A 
ATOM     41  C   UNL A   1      44.249  37.048  35.639  1.00  0.00     0.016 A 
ATOM     42  C   UNL A   1      42.900  36.210  33.323  1.00  0.00     0.010 A 
ATOM     43  C   UNL A   1      43.587  35.853  35.655  1.00  0.00     0.010 A 
ATOM     44  C   UNL A   1      42.829  35.520  34.534  1.00  0.00    -0.014 A 
BRANCH  44  45
ATOM     45  C   UNL A   1      41.856  34.460  34.631  1.00  0.00     0.031 A 
ATOM     46  C   UNL A   1      42.251  33.233  33.924  1.00  0.00     0.074 A 
ATOM     47  C   UNL A   1      40.765  34.609  35.402  1.00  0.00     0.049 A 
ATOM     48  N   UNL A   1      41.669  32.663  32.924  1.00  0.00    -0.248 NA
ATOM     49  C   UNL A   1      43.560  32.660  34.275  1.00  0.00     0.031 C 
ATOM     50  C   UNL A   1      40.489  35.684  36.366  1.00  0.00     0.029 A 
ATOM     51  N   UNL A   1      39.729  33.752  35.592  1.00  0.00    -0.354 N 
ATOM     52  C   UNL A   1      42.422  31.522  32.676  1.00  0.00     0.074 A 
ATOM     53  C   UNL A   1      43.669  31.690  33.371  1.00  0.00     0.031 C 
ATOM     54  C   UNL A   1      39.499  35.285  37.194  1.00  0.00     0.029 A 
ATOM     55  C   UNL A   1      39.011  33.987  36.755  1.00  0.00     0.049 A 
ATOM     56  H   UNL A   1      39.509  33.029  34.961  1.00  0.00     0.167 HD
ATOM     57  C   UNL A   1      41.852  30.399  32.168  1.00  0.00     0.037 A 
ATOM     58  C   UNL A   1      38.178  33.109  37.366  1.00  0.00     0.037 A 
ATOM     59  C   UNL A   1      40.606  30.693  31.507  1.00  0.00     0.049 A 
ATOM     60  C   UNL A   1      37.822  32.064  36.366  1.00  0.00     0.074 A 
ATOM     61  C   UNL A   1      40.242  31.519  30.461  1.00  0.00     0.029 A 
ATOM     62  N   UNL A   1      39.438  30.360  32.151  1.00  0.00    -0.354 N 
ATOM     63  N   UNL A   1      37.101  32.277  35.299  1.00  0.00    -0.248 NA
ATOM     64  C   UNL A   1      38.631  30.852  36.329  1.00  0.00     0.031 C 
ATOM     65  C   UNL A   1      38.938  31.990  30.787  1.00  0.00     0.029 A 
ATOM     66  C   UNL A   1      38.564  31.406  31.998  1.00  0.00     0.049 A 
ATOM     67  H   UNL A   1      39.261  29.521  32.635  1.00  0.00     0.167 HD
ATOM     68  C   UNL A   1      37.660  31.470  34.316  1.00  0.00     0.074 A 
ATOM     69  C   UNL A   1      38.521  30.539  35.036  1.00  0.00     0.031 C 
ATOM     70  C   UNL A   1      37.594  31.810  32.995  1.00  0.00     0.037 A 
BRANCH  57  71
ATOM     71  C   UNL A   1      42.239  29.012  32.621  1.00  0.00     0.058 A 
ATOM     72  C   UNL A   1      42.029  28.652  33.965  1.00  0.00     0.135 A 
ATOM     73  C   UNL A   1      43.060  28.135  31.874  1.00  0.00     0.135 A 
ATOM     74  F   UNL A   1      41.269  29.414  34.766  1.00  0.00    -0.206 F 
ATOM     75  C   UNL A   1      42.663  27.554  34.547  1.00  0.00     0.059 A 
ATOM     76  C   UNL A   1      43.648  27.001  32.416  1.00  0.00     0.059 A 
ATOM     77  F   UNL A   1      43.427  28.380  30.611  1.00  0.00    -0.206 F 
ATOM     78  C   UNL A   1      43.490  26.751  33.767  1.00  0.00     0.060 A 
BRANCH  78  79
ATOM     79  S   UNL A   1      44.441  25.435  34.539  1.00  0.00     0.124 S 
ATOM     80  O   UNL A   1      45.804  25.849  34.227  1.00  0.00    -0.237 OA
ATOM     81  O   UNL A   1      44.039  25.547  35.937  1.00  0.00    -0.237 OA
ATOM     82  O   UNL A   1      43.972  24.235  33.852  1.00  0.00    -0.744 OA
ENDBRANCH  78  79
ENDBRANCH  57  71
BRANCH  58  83
ATOM     83  C   UNL A   1      37.977  32.935  38.830  1.00  0.00     0.058 A 
ATOM     84  C   UNL A   1      39.063  32.966  39.721  1.00  0.00     0.135 A 
ATOM     85  C   UNL A   1      36.694  32.979  39.417  1.00  0.00     0.135 A 
ATOM     86  F   UNL A   1      40.320  32.962  39.251  1.00  0.00    -0.206 F 
ATOM     87  C   UNL A   1      38.889  33.066  41.106  1.00  0.00     0.059 A 
ATOM     88  C   UNL A   1      36.496  33.055  40.794  1.00  0.00     0.059 A 
ATOM     89  F   UNL A   1      35.584  33.042  38.668  1.00  0.00    -0.206 F 
ATOM     90  C   UNL A   1      37.599  33.122  41.632  1.00  0.00     0.060 A 
BRANCH  90  91
ATOM     91  S   UNL A   1      37.366  33.401  43.402  1.00  0.00     0.124 S 
ATOM     92  O   UNL A   1      38.735  33.328  43.902  1.00  0.00    -0.237 OA
ATOM     93  O   UNL A   1      36.746  34.720  43.428  1.00  0.00    -0.237 OA
ATOM     94  O   UNL A   1      36.496  32.299  43.808  1.00  0.00    -0.744 OA
ENDBRANCH  90  91
ENDBRANCH  58  83
BRANCH  70  95
ATOM     95  C   UNL A   1      36.617  32.883  32.585  1.00  0.00     0.058 A 
ATOM     96  C   UNL A   1      35.344  32.624  32.052  1.00  0.00     0.135 A 
ATOM     97  C   UNL A   1      36.922  34.216  32.899  1.00  0.00     0.135 A 
ATOM     98  F   UNL A   1      34.935  31.367  31.825  1.00  0.00    -0.206 F 
ATOM     99  C   UNL A   1      34.428  33.647  31.806  1.00  0.00     0.059 A 
ATOM    100  C   UNL A   1      36.013  35.250  32.691  1.00  0.00     0.059 A 
ATOM    101  F   UNL A   1      38.099  34.520  33.472  1.00  0.00    -0.206 F 
ATOM    102  C   UNL A   1      34.769  34.959  32.134  1.00  0.00     0.060 A 
BRANCH 102 103
ATOM    103  S   UNL A   1      33.544  36.268  31.912  1.00  0.00     0.124 S 
ATOM    104  O   UNL A   1      32.382  35.720  32.602  1.00  0.00    -0.237 OA
ATOM    105  O   UNL A   1      34.182  37.414  32.556  1.00  0.00    -0.237 OA
ATOM    106  O   UNL A   1      33.417  36.374  30.460  1.00  0.00    -0.744 OA
ENDBRANCH 102 103
ENDBRANCH  70  95
ENDBRANCH  44  45
ENDBRANCH  37  39
ENDBRANCH  36  37
ENDBRANCH  35  36
ENDBRANCH  34  35
ENDBRANCH  33  34
ENDBRANCH  32  33
ENDBRANCH   1  32
TORSDOF 24
ENDMDL
MODEL 2
REMARK VINA RESULT:      -9.1      6.009     12.483
REMARK SMILES Cc1c(C(=O)OCCOCCOCCOC(=O)c2ccc(-c3c4nc(c(-c5c(F)cc(S(=O)(=O)[O-])cc5F)c5ccc([nH]5)c(-c5c(F)cc(S(=O)(=O)[O-])cc5F)c5nc(c(-c6c(F)cc(S(=O)(=O)[O-])cc6F)c6ccc3[nH]6)C=C5)C=C4)cc2)sc2c1=C(CSc1nncn1-c1ccccc1)CC(=O)N=2
REMARK SMILES IDX 10 1 9 2 8 3 7 4 6 5 4 6 5 7 3 8 1 9 2 10 86 11 84 12 85 13
REMARK SMILES IDX 87 14 104 15 101 16 102 17 103 18 88 19 89 20 90 21 91 22
REMARK SMILES IDX 94 23 92 24 93 25 95 26 96 27 100 28 97 29 99 30 98 31 11 32
REMARK SMILES IDX 12 33 13 34 14 35 15 36 16 37 17 38 18 39 19 40 83 41 20 42
REMARK SMILES IDX 82 43 21 44 22 45 23 46 76 47 24 48 81 49 75 50 77 51 25 52
REMARK SMILES IDX 80 53 74 54 73 55 26 57 60 58 39 59 59 60 40 61 43 62 58 63
REMARK SMILES IDX 78 64 41 65 42 66 57 68 79 69 44 70 27 71 28 72 37 73 29 74
REMARK SMILES IDX 30 75 36 76 38 77 31 78 32 79 33 80 34 81 35 82 61 83 62 84
REMARK SMILES IDX 71 85 63 86 64 87 70 88 72 89 65 90 66 91 67 92 68 93 69 94
REMARK SMILES IDX 45 95 46 96 55 97 47 98 48 99 54 100 56 101 49 102 50 103
REMARK SMILES IDX 51 104 52 105 53 106
REMARK H PARENT 77 56 43 67
REMARK Flexibility Score: inf
ROOT
ATOM      1  C   UNL A   1      39.644  24.365  27.385  1.00  0.00     0.188 C 
ENDROOT
BRANCH   1   2
ATOM      2  O   UNL A   1      38.878  23.588  26.487  1.00  0.00    -0.376 OA
BRANCH   2   3
ATOM      3  C   UNL A   1      39.253  22.254  26.197  1.00  0.00     0.202 C 
BRANCH   3   4
ATOM      4  C   UNL A   1      38.334  21.231  25.492  1.00  0.00     0.261 C 
BRANCH   4   5
ATOM      5  O   UNL A   1      36.917  21.423  25.613  1.00  0.00    -0.459 OA
BRANCH   5   6
ATOM      6  C   UNL A   1      36.304  22.152  24.651  1.00  0.00     0.348 C 
ATOM      7  O   UNL A   1      36.714  22.290  23.507  1.00  0.00    -0.245 OA
BRANCH   6   8
ATOM      8  C   UNL A   1      34.993  22.690  25.118  1.00  0.00     0.118 A 
ATOM      9  C   UNL A   1      35.379  25.213  25.427  1.00  0.00     0.047 C 
ATOM     10  C   UNL A   1      34.580  23.951  25.356  1.00  0.00    -0.016 A 
ATOM     11  C   UNL A   1      33.202  24.030  25.818  1.00  0.00     0.016 A 
ATOM     12  S   UNL A   1      33.794  21.479  25.560  1.00  0.00    -0.108 S 
ATOM     13  C   UNL A   1      32.640  22.677  26.114  1.00  0.00     0.128 A 
ATOM     14  C   UNL A   1      32.149  24.791  25.453  1.00  0.00    -0.040 C 
ATOM     15  N   UNL A   1      31.484  22.362  26.581  1.00  0.00    -0.202 NA
ATOM     16  C   UNL A   1      31.052  24.821  26.504  1.00  0.00     0.135 C 
ATOM     17  C   UNL A   1      30.616  23.399  26.851  1.00  0.00     0.251 C 
ATOM     18  O   UNL A   1      29.509  23.215  27.360  1.00  0.00    -0.272 OA
BRANCH  14  19
ATOM     19  C   UNL A   1      31.570  24.951  24.053  1.00  0.00     0.110 C 
BRANCH  19  20
ATOM     20  S   UNL A   1      32.528  25.891  22.858  1.00  0.00    -0.081 SA
BRANCH  20  21
ATOM     21  C   UNL A   1      31.570  27.330  22.751  1.00  0.00     0.195 A 
ATOM     22  N   UNL A   1      30.707  27.562  21.786  1.00  0.00    -0.123 NA
ATOM     23  N   UNL A   1      31.430  28.269  23.755  1.00  0.00    -0.277 N 
ATOM     24  N   UNL A   1      29.927  28.619  22.165  1.00  0.00    -0.138 NA
ATOM     25  C   UNL A   1      30.343  29.009  23.348  1.00  0.00     0.231 A 
BRANCH  23  26
ATOM     26  C   UNL A   1      32.139  28.424  24.977  1.00  0.00     0.049 A 
ATOM     27  C   UNL A   1      33.537  28.499  24.997  1.00  0.00     0.027 A 
ATOM     28  C   UNL A   1      31.430  28.438  26.187  1.00  0.00     0.027 A 
ATOM     29  C   UNL A   1      34.221  28.529  26.212  1.00  0.00     0.002 A 
ATOM     30  C   UNL A   1      32.122  28.449  27.400  1.00  0.00     0.002 A 
ATOM     31  C   UNL A   1      33.515  28.495  27.410  1.00  0.00     0.000 A 
ENDBRANCH  23  26
ENDBRANCH  20  21
ENDBRANCH  19  20
ENDBRANCH  14  19
ENDBRANCH   6   8
ENDBRANCH   5   6
ENDBRANCH   4   5
ENDBRANCH   3   4
ENDBRANCH   2   3
ENDBRANCH   1   2
BRANCH   1  32
ATOM     32  C   UNL A   1      40.273  25.690  26.901  1.00  0.00     0.188 C 
BRANCH  32  33
ATOM     33  O   UNL A   1      40.914  25.686  25.641  1.00  0.00    -0.376 OA
BRANCH  33  34
ATOM     34  C   UNL A   1      42.309  25.503  25.452  1.00  0.00     0.202 C 
BRANCH  34  35
ATOM     35  C   UNL A   1      43.006  24.217  25.010  1.00  0.00     0.261 C 
BRANCH  35  36
ATOM     36  O   UNL A   1      42.647  23.061  25.722  1.00  0.00    -0.460 OA
BRANCH  36  37
ATOM     37  C   UNL A   1      43.708  22.344  26.139  1.00  0.00     0.338 C 
ATOM     38  O   UNL A   1      44.262  21.437  25.543  1.00  0.00    -0.246 OA
BRANCH  37  39
ATOM     39  C   UNL A   1      44.085  22.823  27.467  1.00  0.00     0.060 A 
ATOM     40  C   UNL A   1      43.028  23.054  28.348  1.00  0.00     0.016 A 
ATOM     41  C   UNL A   1      45.356  23.391  27.630  1.00  0.00     0.016 A 
ATOM     42  C   UNL A   1      43.147  24.117  29.204  1.00  0.00     0.010 A 
ATOM     43  C   UNL A   1      45.462  24.471  28.460  1.00  0.00     0.010 A 
ATOM     44  C   UNL A   1      44.315  24.879  29.138  1.00  0.00    -0.014 A 
BRANCH  44  45
ATOM     45  C   UNL A   1      44.282  26.186  29.744  1.00  0.00     0.031 A 
ATOM     46  C   UNL A   1      44.525  26.168  31.194  1.00  0.00     0.074 A 
ATOM     47  C   UNL A   1      44.146  27.285  28.980  1.00  0.00     0.049 A 
ATOM     48  N   UNL A   1      43.731  26.530  32.143  1.00  0.00    -0.248 NA
ATOM     49  C   UNL A   1      45.758  25.506  31.649  1.00  0.00     0.031 C 
ATOM     50  C   UNL A   1      44.215  27.371  27.515  1.00  0.00     0.029 A 
ATOM     51  N   UNL A   1      44.057  28.585  29.361  1.00  0.00    -0.354 N 
ATOM     52  C   UNL A   1      44.466  26.354  33.309  1.00  0.00     0.074 A 
ATOM     53  C   UNL A   1      45.592  25.528  32.968  1.00  0.00     0.031 C 
ATOM     54  C   UNL A   1      44.408  28.661  27.161  1.00  0.00     0.029 A 
ATOM     55  C   UNL A   1      44.372  29.487  28.358  1.00  0.00     0.049 A 
ATOM     56  H   UNL A   1      43.792  28.860  30.269  1.00  0.00     0.167 HD
ATOM     57  C   UNL A   1      44.259  27.142  34.396  1.00  0.00     0.037 A 
ATOM     58  C   UNL A   1      44.705  30.790  28.536  1.00  0.00     0.037 A 
ATOM     59  C   UNL A   1      42.962  27.767  34.356  1.00  0.00     0.049 A 
ATOM     60  C   UNL A   1      44.239  31.186  29.894  1.00  0.00     0.074 A 
ATOM     61  C   UNL A   1      41.666  27.293  34.281  1.00  0.00     0.029 A 
ATOM     62  N   UNL A   1      42.897  29.101  34.033  1.00  0.00    -0.354 N 
ATOM     63  N   UNL A   1      42.986  31.274  30.250  1.00  0.00    -0.248 NA
ATOM     64  C   UNL A   1      45.185  31.076  30.997  1.00  0.00     0.031 C 
ATOM     65  C   UNL A   1      40.959  28.249  33.498  1.00  0.00     0.029 A 
ATOM     66  C   UNL A   1      41.850  29.269  33.162  1.00  0.00     0.049 A 
ATOM     67  H   UNL A   1      43.494  29.809  34.366  1.00  0.00     0.167 HD
ATOM     68  C   UNL A   1      42.950  30.829  31.565  1.00  0.00     0.074 A 
ATOM     69  C   UNL A   1      44.341  30.829  32.002  1.00  0.00     0.031 C 
ATOM     70  C   UNL A   1      41.834  30.236  32.084  1.00  0.00     0.037 A 
BRANCH  57  71
ATOM     71  C   UNL A   1      45.387  27.634  35.271  1.00  0.00     0.058 A 
ATOM     72  C   UNL A   1      45.369  27.322  36.643  1.00  0.00     0.135 A 
ATOM     73  C   UNL A   1      46.318  28.625  34.881  1.00  0.00     0.135 A 
ATOM     74  F   UNL A   1      44.523  26.398  37.123  1.00  0.00    -0.206 F 
ATOM     75  C   UNL A   1      46.151  28.011  37.570  1.00  0.00     0.059 A 
ATOM     76  C   UNL A   1      47.151  29.277  35.778  1.00  0.00     0.059 A 
ATOM     77  F   UNL A   1      46.399  29.096  33.631  1.00  0.00    -0.206 F 
ATOM     78  C   UNL A   1      47.021  29.004  37.127  1.00  0.00     0.060 A 
BRANCH  78  79
ATOM     79  S   UNL A   1      47.909  30.010  38.323  1.00  0.00     0.124 S 
ATOM     80  O   UNL A   1      47.809  29.182  39.520  1.00  0.00    -0.237 OA
ATOM     81  O   UNL A   1      49.232  30.108  37.717  1.00  0.00    -0.237 OA
ATOM     82  O   UNL A   1      47.144  31.253  38.349  1.00  0.00    -0.744 OA
ENDBRANCH  78  79
ENDBRANCH  57  71
BRANCH  58  83
ATOM     83  C   UNL A   1      45.699  31.575  27.756  1.00  0.00     0.058 A 
ATOM     84  C   UNL A   1      45.318  32.724  27.043  1.00  0.00     0.135 A 
ATOM     85  C   UNL A   1      47.088  31.363  27.891  1.00  0.00     0.135 A 
ATOM     86  F   UNL A   1      44.019  33.025  26.894  1.00  0.00    -0.206 F 
ATOM     87  C   UNL A   1      46.256  33.623  26.520  1.00  0.00     0.059 A 
ATOM     88  C   UNL A   1      48.040  32.231  27.359  1.00  0.00     0.059 A 
ATOM     89  F   UNL A   1      47.574  30.350  28.622  1.00  0.00    -0.206 F 
ATOM     90  C   UNL A   1      47.616  33.372  26.695  1.00  0.00     0.060 A 
BRANCH  90  91
ATOM     91  S   UNL A   1      48.828  34.601  26.156  1.00  0.00     0.124 S 
ATOM     92  O   UNL A   1      49.574  34.848  27.385  1.00  0.00    -0.237 OA
ATOM     93  O   UNL A   1      49.544  33.887  25.105  1.00  0.00    -0.237 OA
ATOM     94  O   UNL A   1      48.000  35.714  25.695  1.00  0.00    -0.744 OA
ENDBRANCH  90  91
ENDBRANCH  58  83
BRANCH  70  95
ATOM     95  C   UNL A   1      40.537  30.380  31.330  1.00  0.00     0.058 A 
ATOM     96  C   UNL A   1      39.675  31.483  31.451  1.00  0.00     0.135 A 
ATOM     97  C   UNL A   1      40.242  29.443  30.328  1.00  0.00     0.135 A 
ATOM     98  F   UNL A   1      39.946  32.476  32.310  1.00  0.00    -0.206 F 
ATOM     99  C   UNL A   1      38.550  31.628  30.639  1.00  0.00     0.059 A 
ATOM    100  C   UNL A   1      39.142  29.584  29.485  1.00  0.00     0.059 A 
ATOM    101  F   UNL A   1      41.064  28.400  30.119  1.00  0.00    -0.206 F 
ATOM    102  C   UNL A   1      38.294  30.676  29.654  1.00  0.00     0.060 A 
BRANCH 102 103
ATOM    103  S   UNL A   1      36.896  30.921  28.536  1.00  0.00     0.124 S 
ATOM    104  O   UNL A   1      35.789  30.357  29.300  1.00  0.00    -0.237 OA
ATOM    105  O   UNL A   1      36.875  32.372  28.367  1.00  0.00    -0.237 OA
ATOM    106  O   UNL A   1      37.278  30.171  27.342  1.00  0.00    -0.744 OA
ENDBRANCH 102 103
ENDBRANCH  70  95
ENDBRANCH  44  45
ENDBRANCH  37  39
ENDBRANCH  36  37
ENDBRANCH  35  36
ENDBRANCH  34  35
ENDBRANCH  33  34
ENDBRANCH  32  33
ENDBRANCH   1  32
TORSDOF 24
ENDMDL
MODEL 3
REMARK VINA RESULT:      -9.1      5.989     12.031
REMARK SMILES Cc1c(C(=O)OCCOCCOCCOC(=O)c2ccc(-c3c4nc(c(-c5c(F)cc(S(=O)(=O)[O-])cc5F)c5ccc([nH]5)c(-c5c(F)cc(S(=O)(=O)[O-])cc5F)c5nc(c(-c6c(F)cc(S(=O)(=O)[O-])cc6F)c6ccc3[nH]6)C=C5)C=C4)cc2)sc2c1=C(CSc1nncn1-c1ccccc1)CC(=O)N=2
REMARK SMILES IDX 10 1 9 2 8 3 7 4 6 5 4 6 5 7 3 8 1 9 2 10 86 11 84 12 85 13
REMARK SMILES IDX 87 14 104 15 101 16 102 17 103 18 88 19 89 20 90 21 91 22
REMARK SMILES IDX 94 23 92 24 93 25 95 26 96 27 100 28 97 29 99 30 98 31 11 32
REMARK SMILES IDX 12 33 13 34 14 35 15 36 16 37 17 38 18 39 19 40 83 41 20 42
REMARK SMILES IDX 82 43 21 44 22 45 23 46 76 47 24 48 81 49 75 50 77 51 25 52
REMARK SMILES IDX 80 53 74 54 73 55 26 57 60 58 39 59 59 60 40 61 43 62 58 63
REMARK SMILES IDX 78 64 41 65 42 66 57 68 79 69 44 70 27 71 28 72 37 73 29 74
REMARK SMILES IDX 30 75 36 76 38 77 31 78 32 79 33 80 34 81 35 82 61 83 62 84
REMARK SMILES IDX 71 85 63 86 64 87 70 88 72 89 65 90 66 91 67 92 68 93 69 94
REMARK SMILES IDX 45 95 46 96 55 97 47 98 48 99 54 100 56 101 49 102 50 103
REMARK SMILES IDX 51 104 52 105 53 106
REMARK H PARENT 77 56 43 67
REMARK Flexibility Score: inf
ROOT
ATOM      1  C   UNL A   1      34.745  33.175  28.294  1.00  0.00     0.188 C 
ENDROOT
BRANCH   1   2
ATOM      2  O   UNL A   1      34.080  31.944  28.492  1.00  0.00    -0.376 OA
BRANCH   2   3
ATOM      3  C   UNL A   1      33.733  31.133  27.385  1.00  0.00     0.202 C 
BRANCH   3   4
ATOM      4  C   UNL A   1      34.484  29.843  26.990  1.00  0.00     0.261 C 
BRANCH   4   5
ATOM      5  O   UNL A   1      33.738  28.617  26.992  1.00  0.00    -0.459 OA
BRANCH   5   6
ATOM      6  C   UNL A   1      33.400  28.093  25.791  1.00  0.00     0.348 C 
ATOM      7  O   UNL A   1      33.649  28.603  24.708  1.00  0.00    -0.245 OA
BRANCH   6   8
ATOM      8  C   UNL A   1      32.773  26.746  25.934  1.00  0.00     0.118 A 
ATOM      9  C   UNL A   1      34.194  25.189  24.462  1.00  0.00     0.047 C 
ATOM     10  C   UNL A   1      33.139  25.537  25.464  1.00  0.00    -0.016 A 
ATOM     11  C   UNL A   1      32.221  24.471  25.835  1.00  0.00     0.016 A 
ATOM     12  S   UNL A   1      31.214  26.722  26.753  1.00  0.00    -0.108 S 
ATOM     13  C   UNL A   1      30.981  25.007  26.477  1.00  0.00     0.128 A 
ATOM     14  C   UNL A   1      32.400  23.240  26.359  1.00  0.00    -0.040 C 
ATOM     15  N   UNL A   1      29.940  24.374  26.886  1.00  0.00    -0.202 NA
ATOM     16  C   UNL A   1      31.193  22.336  26.166  1.00  0.00     0.135 C 
ATOM     17  C   UNL A   1      29.940  23.003  26.730  1.00  0.00     0.251 C 
ATOM     18  O   UNL A   1      28.969  22.307  27.028  1.00  0.00    -0.272 OA
BRANCH  14  19
ATOM     19  C   UNL A   1      33.152  22.883  27.634  1.00  0.00     0.110 C 
BRANCH  19  20
ATOM     20  S   UNL A   1      34.396  21.590  27.533  1.00  0.00    -0.081 SA
BRANCH  20  21
ATOM     21  C   UNL A   1      35.268  22.103  26.128  1.00  0.00     0.195 A 
ATOM     22  N   UNL A   1      36.343  22.860  26.172  1.00  0.00    -0.123 NA
ATOM     23  N   UNL A   1      35.084  21.605  24.851  1.00  0.00    -0.277 N 
ATOM     24  N   UNL A   1      36.935  22.821  24.940  1.00  0.00    -0.138 NA
ATOM     25  C   UNL A   1      36.199  22.048  24.176  1.00  0.00     0.231 A 
BRANCH  23  26
ATOM     26  C   UNL A   1      34.069  20.759  24.330  1.00  0.00     0.049 A 
ATOM     27  C   UNL A   1      34.025  19.397  24.655  1.00  0.00     0.027 A 
ATOM     28  C   UNL A   1      33.134  21.282  23.424  1.00  0.00     0.027 A 
ATOM     29  C   UNL A   1      33.096  18.559  24.040  1.00  0.00     0.002 A 
ATOM     30  C   UNL A   1      32.219  20.433  22.798  1.00  0.00     0.002 A 
ATOM     31  C   UNL A   1      32.201  19.075  23.107  1.00  0.00     0.000 A 
ENDBRANCH  23  26
ENDBRANCH  20  21
ENDBRANCH  19  20
ENDBRANCH  14  19
ENDBRANCH   6   8
ENDBRANCH   5   6
ENDBRANCH   4   5
ENDBRANCH   3   4
ENDBRANCH   2   3
ENDBRANCH   1   2
BRANCH   1  32
ATOM     32  C   UNL A   1      36.273  33.189  28.069  1.00  0.00     0.188 C 
BRANCH  32  33
ATOM     33  O   UNL A   1      37.101  33.084  29.210  1.00  0.00    -0.376 OA
BRANCH  33  34
ATOM     34  C   UNL A   1      36.850  33.738  30.445  1.00  0.00     0.202 C 
BRANCH  34  35
ATOM     35  C   UNL A   1      35.789  33.356  31.477  1.00  0.00     0.261 C 
BRANCH  35  36
ATOM     36  O   UNL A   1      35.561  31.978  31.625  1.00  0.00    -0.460 OA
BRANCH  36  37
ATOM     37  C   UNL A   1      36.227  31.438  32.663  1.00  0.00     0.338 C 
ATOM     38  O   UNL A   1      36.367  31.916  33.776  1.00  0.00    -0.246 OA
BRANCH  37  39
ATOM     39  C   UNL A   1      36.791  30.163  32.225  1.00  0.00     0.060 A 
ATOM     40  C   UNL A   1      37.501  29.452  33.194  1.00  0.00     0.016 A 
ATOM     41  C   UNL A   1      36.943  29.944  30.849  1.00  0.00     0.016 A 
ATOM     42  C   UNL A   1      38.605  28.758  32.777  1.00  0.00     0.010 A 
ATOM     43  C   UNL A   1      38.064  29.279  30.437  1.00  0.00     0.010 A 
ATOM     44  C   UNL A   1      38.930  28.805  31.420  1.00  0.00    -0.014 A 
BRANCH  44  45
ATOM     45  C   UNL A   1      40.266  28.410  31.050  1.00  0.00     0.031 A 
ATOM     46  C   UNL A   1      41.225  28.464  32.164  1.00  0.00     0.074 A 
ATOM     47  C   UNL A   1      40.518  27.943  29.814  1.00  0.00     0.049 A 
ATOM     48  N   UNL A   1      42.278  29.200  32.278  1.00  0.00    -0.248 NA
ATOM     49  C   UNL A   1      40.868  27.716  33.380  1.00  0.00     0.031 C 
ATOM     50  C   UNL A   1      39.542  27.578  28.779  1.00  0.00     0.029 A 
ATOM     51  N   UNL A   1      41.701  27.560  29.271  1.00  0.00    -0.354 N 
ATOM     52  C   UNL A   1      42.842  28.828  33.492  1.00  0.00     0.074 A 
ATOM     53  C   UNL A   1      41.834  28.096  34.211  1.00  0.00     0.031 C 
ATOM     54  C   UNL A   1      40.155  26.813  27.849  1.00  0.00     0.029 A 
ATOM     55  C   UNL A   1      41.571  26.725  28.171  1.00  0.00     0.049 A 
ATOM     56  H   UNL A   1      42.573  27.849  29.626  1.00  0.00     0.167 HD
ATOM     57  C   UNL A   1      44.184  28.888  33.691  1.00  0.00     0.037 A 
ATOM     58  C   UNL A   1      42.540  25.927  27.659  1.00  0.00     0.037 A 
ATOM     59  C   UNL A   1      44.817  29.785  32.758  1.00  0.00     0.049 A 
ATOM     60  C   UNL A   1      43.846  26.429  28.172  1.00  0.00     0.074 A 
ATOM     61  C   UNL A   1      44.662  31.123  32.452  1.00  0.00     0.029 A 
ATOM     62  N   UNL A   1      45.527  29.238  31.717  1.00  0.00    -0.354 N 
ATOM     63  N   UNL A   1      44.375  27.579  27.849  1.00  0.00    -0.248 NA
ATOM     64  C   UNL A   1      44.376  25.830  29.390  1.00  0.00     0.031 C 
ATOM     65  C   UNL A   1      44.902  31.222  31.052  1.00  0.00     0.029 A 
ATOM     66  C   UNL A   1      45.218  29.946  30.583  1.00  0.00     0.049 A 
ATOM     67  H   UNL A   1      46.147  28.475  31.774  1.00  0.00     0.167 HD
ATOM     68  C   UNL A   1      44.992  28.033  29.007  1.00  0.00     0.074 A 
ATOM     69  C   UNL A   1      45.054  26.869  29.883  1.00  0.00     0.031 C 
ATOM     70  C   UNL A   1      45.138  29.367  29.257  1.00  0.00     0.037 A 
BRANCH  57  71
ATOM     71  C   UNL A   1      44.940  27.838  34.470  1.00  0.00     0.058 A 
ATOM     72  C   UNL A   1      44.890  26.501  34.034  1.00  0.00     0.135 A 
ATOM     73  C   UNL A   1      45.466  28.039  35.768  1.00  0.00     0.135 A 
ATOM     74  F   UNL A   1      44.407  26.195  32.819  1.00  0.00    -0.206 F 
ATOM     75  C   UNL A   1      45.248  25.437  34.862  1.00  0.00     0.059 A 
ATOM     76  C   UNL A   1      45.889  26.999  36.583  1.00  0.00     0.059 A 
ATOM     77  F   UNL A   1      45.500  29.237  36.361  1.00  0.00    -0.206 F 
ATOM     78  C   UNL A   1      45.723  25.699  36.144  1.00  0.00     0.060 A 
BRANCH  78  79
ATOM     79  S   UNL A   1      46.029  24.337  37.276  1.00  0.00     0.124 S 
ATOM     80  O   UNL A   1      44.670  23.890  37.558  1.00  0.00    -0.237 OA
ATOM     81  O   UNL A   1      46.846  23.442  36.464  1.00  0.00    -0.237 OA
ATOM     82  O   UNL A   1      46.728  24.976  38.388  1.00  0.00    -0.744 OA
ENDBRANCH  78  79
ENDBRANCH  57  71
BRANCH  58  83
ATOM     83  C   UNL A   1      42.367  24.575  27.065  1.00  0.00     0.058 A 
ATOM     84  C   UNL A   1      43.199  24.127  26.025  1.00  0.00     0.135 A 
ATOM     85  C   UNL A   1      41.545  23.596  27.664  1.00  0.00     0.135 A 
ATOM     86  F   UNL A   1      44.040  24.979  25.420  1.00  0.00    -0.206 F 
ATOM     87  C   UNL A   1      43.236  22.786  25.624  1.00  0.00     0.059 A 
ATOM     88  C   UNL A   1      41.547  22.261  27.267  1.00  0.00     0.059 A 
ATOM     89  F   UNL A   1      40.772  23.884  28.721  1.00  0.00    -0.206 F 
ATOM     90  C   UNL A   1      42.413  21.858  26.261  1.00  0.00     0.060 A 
BRANCH  90  91
ATOM     91  S   UNL A   1      42.562  20.103  25.854  1.00  0.00     0.124 S 
ATOM     92  O   UNL A   1      43.633  20.113  24.863  1.00  0.00    -0.237 OA
ATOM     93  O   UNL A   1      42.892  19.513  27.145  1.00  0.00    -0.237 OA
ATOM     94  O   UNL A   1      41.238  19.762  25.336  1.00  0.00    -0.744 OA
ENDBRANCH  90  91
ENDBRANCH  58  83
BRANCH  70  95
ATOM     95  C   UNL A   1      44.938  30.331  28.116  1.00  0.00     0.058 A 
ATOM     96  C   UNL A   1      43.681  30.776  27.674  1.00  0.00     0.135 A 
ATOM     97  C   UNL A   1      46.068  30.949  27.560  1.00  0.00     0.135 A 
ATOM     98  F   UNL A   1      42.552  30.314  28.232  1.00  0.00    -0.206 F 
ATOM     99  C   UNL A   1      43.553  31.764  26.698  1.00  0.00     0.059 A 
ATOM    100  C   UNL A   1      45.964  31.959  26.607  1.00  0.00     0.059 A 
ATOM    101  F   UNL A   1      47.298  30.613  27.987  1.00  0.00    -0.206 F 
ATOM    102  C   UNL A   1      44.701  32.355  26.172  1.00  0.00     0.060 A 
BRANCH 102 103
ATOM    103  S   UNL A   1      44.531  33.706  24.985  1.00  0.00     0.124 S 
ATOM    104  O   UNL A   1      44.152  32.998  23.767  1.00  0.00    -0.237 OA
ATOM    105  O   UNL A   1      43.487  34.531  25.589  1.00  0.00    -0.237 OA
ATOM    106  O   UNL A   1      45.859  34.315  24.968  1.00  0.00    -0.744 OA
ENDBRANCH 102 103
ENDBRANCH  70  95
ENDBRANCH  44  45
ENDBRANCH  37  39
ENDBRANCH  36  37
ENDBRANCH  35  36
ENDBRANCH  34  35
ENDBRANCH  33  34
ENDBRANCH  32  33
ENDBRANCH   1  32
TORSDOF 24
ENDMDL
