MODEL 1
REMARK VINA RESULT:      -9.6      0.000      0.000
REMARK SMILES CCOc1cccc(OCC)c1-c1ccc([C@@H](C)C(=O)OCCOCCOCCOC(=O)c2ccc(-c3c4nc(c(-c5c(F)cc(S(=O)(=O)[O-])cc5F)c5ccc([nH]5)c(-c5c(F)cc(S(=O)(=O)[O-])cc5F)c5nc(c(-c6c(F)cc(S(=O)(=O)[O-])cc6F)c6ccc3[nH]6)C=C5)C=C4)cc2)cc1F
REMARK SMILES IDX 25 1 24 2 23 3 22 4 21 5 19 6 20 7 17 8 18 9 16 10 13 11
REMARK SMILES IDX 14 12 100 13 15 14 99 15 101 16 12 17 4 18 5 19 6 20 8 21
REMARK SMILES IDX 7 22 3 23 2 24 1 25 9 26 10 27 11 28 26 29 27 30 28 31 29 32
REMARK SMILES IDX 30 33 31 34 32 35 33 36 34 37 98 38 35 39 97 40 36 41 37 42
REMARK SMILES IDX 38 43 91 44 39 45 96 46 90 47 92 48 40 49 95 50 89 51 88 52
REMARK SMILES IDX 41 54 75 55 54 56 74 57 55 58 58 59 73 60 93 61 56 62 57 63
REMARK SMILES IDX 72 65 94 66 59 67 42 68 43 69 52 70 44 71 45 72 51 73 53 74
REMARK SMILES IDX 46 75 47 76 48 77 49 78 50 79 76 80 77 81 86 82 78 83 79 84
REMARK SMILES IDX 85 85 87 86 80 87 81 88 82 89 83 90 84 91 60 92 61 93 70 94
REMARK SMILES IDX 62 95 63 96 69 97 71 98 64 99 65 100 66 101 67 102 68 103
REMARK H PARENT 92 53 58 64
REMARK Flexibility Score: inf
ROOT
ATOM      1  C   UNL A   1      41.647  21.815  26.583  1.00  0.00     0.188 C 
ENDROOT
BRANCH   1   2
ATOM      2  O   UNL A   1      41.013  23.088  26.598  1.00  0.00    -0.376 OA
BRANCH   2   3
ATOM      3  C   UNL A   1      39.849  23.270  27.391  1.00  0.00     0.202 C 
BRANCH   3   4
ATOM      4  C   UNL A   1      38.687  24.051  26.769  1.00  0.00     0.261 C 
BRANCH   4   5
ATOM      5  O   UNL A   1      38.181  23.482  25.539  1.00  0.00    -0.463 OA
BRANCH   5   6
ATOM      6  C   UNL A   1      37.496  22.319  25.661  1.00  0.00     0.313 C 
ATOM      7  O   UNL A   1      38.028  21.214  25.551  1.00  0.00    -0.252 OA
BRANCH   6   8
ATOM      8  C   UNL A   1      35.990  22.425  25.887  1.00  0.00     0.126 C 
ATOM      9  C   UNL A   1      35.350  21.154  25.319  1.00  0.00     0.025 C 
BRANCH   8  10
ATOM     10  C   UNL A   1      35.145  23.633  25.475  1.00  0.00    -0.031 A 
ATOM     11  C   UNL A   1      33.262  25.672  24.715  1.00  0.00     0.025 A 
ATOM     12  C   UNL A   1      34.405  25.384  23.945  1.00  0.00     0.012 A 
ATOM     13  C   UNL A   1      33.139  24.986  25.924  1.00  0.00     0.131 A 
ATOM     14  C   UNL A   1      35.287  24.338  24.278  1.00  0.00     0.005 A 
ATOM     15  C   UNL A   1      34.065  24.004  26.306  1.00  0.00     0.044 A 
ATOM     16  F   UNL A   1      32.097  25.222  26.736  1.00  0.00    -0.206 F 
BRANCH  11  17
ATOM     17  C   UNL A   1      32.246  26.636  24.226  1.00  0.00     0.069 A 
ATOM     18  C   UNL A   1      32.328  27.997  24.628  1.00  0.00     0.130 A 
ATOM     19  C   UNL A   1      31.483  28.997  24.127  1.00  0.00     0.047 A 
ATOM     20  C   UNL A   1      30.513  28.670  23.201  1.00  0.00     0.008 A 
ATOM     21  C   UNL A   1      31.191  26.314  23.340  1.00  0.00     0.130 A 
ATOM     22  C   UNL A   1      30.357  27.338  22.837  1.00  0.00     0.047 A 
BRANCH  18  23
ATOM     23  O   UNL A   1      33.173  28.353  25.649  1.00  0.00    -0.493 OA
BRANCH  23  24
ATOM     24  C   UNL A   1      33.174  29.756  25.908  1.00  0.00     0.226 C 
ATOM     25  C   UNL A   1      33.672  29.915  27.319  1.00  0.00     0.049 C 
ENDBRANCH  23  24
ENDBRANCH  18  23
BRANCH  21  26
ATOM     26  O   UNL A   1      30.733  25.106  22.884  1.00  0.00    -0.493 OA
BRANCH  26  27
ATOM     27  C   UNL A   1      30.503  23.977  23.708  1.00  0.00     0.226 C 
ATOM     28  C   UNL A   1      31.471  22.867  23.338  1.00  0.00     0.049 C 
ENDBRANCH  26  27
ENDBRANCH  21  26
ENDBRANCH  11  17
ENDBRANCH   8  10
ENDBRANCH   6   8
ENDBRANCH   5   6
ENDBRANCH   4   5
ENDBRANCH   3   4
ENDBRANCH   2   3
ENDBRANCH   1   2
BRANCH   1  29
ATOM     29  C   UNL A   1      43.036  21.684  25.935  1.00  0.00     0.188 C 
BRANCH  29  30
ATOM     30  O   UNL A   1      44.037  22.551  26.445  1.00  0.00    -0.376 OA
BRANCH  30  31
ATOM     31  C   UNL A   1      44.645  23.406  25.486  1.00  0.00     0.202 C 
BRANCH  31  32
ATOM     32  C   UNL A   1      43.733  24.534  25.004  1.00  0.00     0.261 C 
BRANCH  32  33
ATOM     33  O   UNL A   1      43.735  25.643  25.923  1.00  0.00    -0.460 OA
BRANCH  33  34
ATOM     34  C   UNL A   1      42.646  26.430  25.965  1.00  0.00     0.338 C 
ATOM     35  O   UNL A   1      41.891  26.698  25.040  1.00  0.00    -0.246 OA
BRANCH  34  36
ATOM     36  C   UNL A   1      42.479  26.919  27.348  1.00  0.00     0.060 A 
ATOM     37  C   UNL A   1      41.708  26.206  28.277  1.00  0.00     0.016 A 
ATOM     38  C   UNL A   1      43.044  28.139  27.702  1.00  0.00     0.016 A 
ATOM     39  C   UNL A   1      41.464  26.723  29.548  1.00  0.00     0.010 A 
ATOM     40  C   UNL A   1      42.815  28.652  28.980  1.00  0.00     0.010 A 
ATOM     41  C   UNL A   1      41.999  27.964  29.897  1.00  0.00    -0.014 A 
BRANCH  41  42
ATOM     42  C   UNL A   1      41.589  28.642  31.147  1.00  0.00     0.031 A 
ATOM     43  C   UNL A   1      40.405  29.564  31.096  1.00  0.00     0.074 A 
ATOM     44  C   UNL A   1      42.285  28.481  32.287  1.00  0.00     0.049 A 
ATOM     45  N   UNL A   1      40.012  30.458  31.961  1.00  0.00    -0.248 NA
ATOM     46  C   UNL A   1      39.556  29.470  29.895  1.00  0.00     0.031 C 
ATOM     47  C   UNL A   1      43.403  27.558  32.479  1.00  0.00     0.029 A 
ATOM     48  N   UNL A   1      42.169  29.126  33.493  1.00  0.00    -0.354 N 
ATOM     49  C   UNL A   1      38.901  31.069  31.392  1.00  0.00     0.074 A 
ATOM     50  C   UNL A   1      38.675  30.436  30.111  1.00  0.00     0.031 C 
ATOM     51  C   UNL A   1      43.896  27.723  33.719  1.00  0.00     0.029 A 
ATOM     52  C   UNL A   1      43.164  28.800  34.384  1.00  0.00     0.049 A 
ATOM     53  H   UNL A   1      41.445  29.759  33.700  1.00  0.00     0.167 HD
ATOM     54  C   UNL A   1      38.150  32.075  31.894  1.00  0.00     0.037 A 
ATOM     55  C   UNL A   1      43.479  29.350  35.573  1.00  0.00     0.037 A 
ATOM     56  C   UNL A   1      38.371  32.675  33.182  1.00  0.00     0.049 A 
ATOM     57  C   UNL A   1      42.659  30.508  36.086  1.00  0.00     0.074 A 
ATOM     58  C   UNL A   1      37.657  33.690  33.793  1.00  0.00     0.029 A 
ATOM     59  N   UNL A   1      39.381  32.309  34.059  1.00  0.00    -0.354 N 
ATOM     60  N   UNL A   1      41.626  31.098  35.533  1.00  0.00    -0.248 NA
ATOM     61  C   UNL A   1      43.056  31.081  37.380  1.00  0.00     0.031 C 
ATOM     62  C   UNL A   1      38.258  33.963  35.026  1.00  0.00     0.029 A 
ATOM     63  C   UNL A   1      39.317  33.087  35.202  1.00  0.00     0.049 A 
ATOM     64  H   UNL A   1      40.043  31.600  33.895  1.00  0.00     0.167 HD
ATOM     65  C   UNL A   1      41.228  32.087  36.428  1.00  0.00     0.074 A 
ATOM     66  C   UNL A   1      42.130  32.013  37.559  1.00  0.00     0.031 C 
ATOM     67  C   UNL A   1      40.209  32.975  36.328  1.00  0.00     0.037 A 
BRANCH  54  68
ATOM     68  C   UNL A   1      37.042  32.616  31.038  1.00  0.00     0.058 A 
ATOM     69  C   UNL A   1      35.696  32.305  31.281  1.00  0.00     0.135 A 
ATOM     70  C   UNL A   1      37.333  33.506  29.991  1.00  0.00     0.135 A 
ATOM     71  F   UNL A   1      35.367  31.440  32.253  1.00  0.00    -0.206 F 
ATOM     72  C   UNL A   1      34.676  32.854  30.511  1.00  0.00     0.059 A 
ATOM     73  C   UNL A   1      36.327  34.084  29.223  1.00  0.00     0.059 A 
ATOM     74  F   UNL A   1      38.606  33.827  29.712  1.00  0.00    -0.206 F 
ATOM     75  C   UNL A   1      35.001  33.746  29.487  1.00  0.00     0.060 A 
BRANCH  75  76
ATOM     76  S   UNL A   1      33.664  34.480  28.522  1.00  0.00     0.124 S 
ATOM     77  O   UNL A   1      33.352  33.402  27.588  1.00  0.00    -0.237 OA
ATOM     78  O   UNL A   1      32.652  34.747  29.540  1.00  0.00    -0.237 OA
ATOM     79  O   UNL A   1      34.280  35.663  27.930  1.00  0.00    -0.744 OA
ENDBRANCH  75  76
ENDBRANCH  54  68
BRANCH  55  80
ATOM     80  C   UNL A   1      44.647  28.854  36.349  1.00  0.00     0.058 A 
ATOM     81  C   UNL A   1      45.912  29.440  36.201  1.00  0.00     0.135 A 
ATOM     82  C   UNL A   1      44.532  27.760  37.222  1.00  0.00     0.135 A 
ATOM     83  F   UNL A   1      46.076  30.481  35.370  1.00  0.00    -0.206 F 
ATOM     84  C   UNL A   1      47.030  28.942  36.865  1.00  0.00     0.059 A 
ATOM     85  C   UNL A   1      45.629  27.260  37.917  1.00  0.00     0.059 A 
ATOM     86  F   UNL A   1      43.341  27.170  37.407  1.00  0.00    -0.206 F 
ATOM     87  C   UNL A   1      46.878  27.848  37.717  1.00  0.00     0.060 A 
BRANCH  87  88
ATOM     88  S   UNL A   1      48.330  27.212  38.583  1.00  0.00     0.124 S 
ATOM     89  O   UNL A   1      48.313  28.005  39.806  1.00  0.00    -0.237 OA
ATOM     90  O   UNL A   1      48.005  25.797  38.733  1.00  0.00    -0.237 OA
ATOM     91  O   UNL A   1      49.422  27.500  37.657  1.00  0.00    -0.744 OA
ENDBRANCH  87  88
ENDBRANCH  55  80
BRANCH  67  92
ATOM     92  C   UNL A   1      39.970  33.893  37.492  1.00  0.00     0.058 A 
ATOM     93  C   UNL A   1      40.459  35.207  37.513  1.00  0.00     0.135 A 
ATOM     94  C   UNL A   1      39.191  33.462  38.579  1.00  0.00     0.135 A 
ATOM     95  F   UNL A   1      41.213  35.663  36.502  1.00  0.00    -0.206 F 
ATOM     96  C   UNL A   1      40.201  36.059  38.582  1.00  0.00     0.059 A 
ATOM     97  C   UNL A   1      38.899  34.305  39.646  1.00  0.00     0.059 A 
ATOM     98  F   UNL A   1      38.689  32.218  38.601  1.00  0.00    -0.206 F 
ATOM     99  C   UNL A   1      39.419  35.599  39.645  1.00  0.00     0.060 A 
BRANCH  99 100
ATOM    100  S   UNL A   1      39.060  36.723  41.011  1.00  0.00     0.124 S 
ATOM    101  O   UNL A   1      37.971  36.025  41.685  1.00  0.00    -0.237 OA
ATOM    102  O   UNL A   1      40.329  36.761  41.731  1.00  0.00    -0.237 OA
ATOM    103  O   UNL A   1      38.690  37.965  40.340  1.00  0.00    -0.744 OA
ENDBRANCH  99 100
ENDBRANCH  67  92
ENDBRANCH  41  42
ENDBRANCH  34  36
ENDBRANCH  33  34
ENDBRANCH  32  33
ENDBRANCH  31  32
ENDBRANCH  30  31
ENDBRANCH  29  30
ENDBRANCH   1  29
TORSDOF 26
ENDMDL
MODEL 2
REMARK VINA RESULT:      -8.6      3.872      8.875
REMARK SMILES CCOc1cccc(OCC)c1-c1ccc([C@@H](C)C(=O)OCCOCCOCCOC(=O)c2ccc(-c3c4nc(c(-c5c(F)cc(S(=O)(=O)[O-])cc5F)c5ccc([nH]5)c(-c5c(F)cc(S(=O)(=O)[O-])cc5F)c5nc(c(-c6c(F)cc(S(=O)(=O)[O-])cc6F)c6ccc3[nH]6)C=C5)C=C4)cc2)cc1F
REMARK SMILES IDX 25 1 24 2 23 3 22 4 21 5 19 6 20 7 17 8 18 9 16 10 13 11
REMARK SMILES IDX 14 12 100 13 15 14 99 15 101 16 12 17 4 18 5 19 6 20 8 21
REMARK SMILES IDX 7 22 3 23 2 24 1 25 9 26 10 27 11 28 26 29 27 30 28 31 29 32
REMARK SMILES IDX 30 33 31 34 32 35 33 36 34 37 98 38 35 39 97 40 36 41 37 42
REMARK SMILES IDX 38 43 91 44 39 45 96 46 90 47 92 48 40 49 95 50 89 51 88 52
REMARK SMILES IDX 41 54 75 55 54 56 74 57 55 58 58 59 73 60 93 61 56 62 57 63
REMARK SMILES IDX 72 65 94 66 59 67 42 68 43 69 52 70 44 71 45 72 51 73 53 74
REMARK SMILES IDX 46 75 47 76 48 77 49 78 50 79 76 80 77 81 86 82 78 83 79 84
REMARK SMILES IDX 85 85 87 86 80 87 81 88 82 89 83 90 84 91 60 92 61 93 70 94
REMARK SMILES IDX 62 95 63 96 69 97 71 98 64 99 65 100 66 101 67 102 68 103
REMARK H PARENT 92 53 58 64
REMARK Flexibility Score: inf
ROOT
ATOM      1  C   UNL A   1      39.173  22.688  26.112  1.00  0.00     0.188 C 
ENDROOT
BRANCH   1   2
ATOM      2  O   UNL A   1      37.800  22.972  25.877  1.00  0.00    -0.376 OA
BRANCH   2   3
ATOM      3  C   UNL A   1      37.164  22.407  24.740  1.00  0.00     0.202 C 
BRANCH   3   4
ATOM      4  C   UNL A   1      35.952  21.503  24.987  1.00  0.00     0.261 C 
BRANCH   4   5
ATOM      5  O   UNL A   1      34.766  21.887  24.254  1.00  0.00    -0.463 OA
BRANCH   5   6
ATOM      6  C   UNL A   1      33.671  22.169  25.002  1.00  0.00     0.313 C 
ATOM      7  O   UNL A   1      32.578  21.634  24.816  1.00  0.00    -0.252 OA
BRANCH   6   8
ATOM      8  C   UNL A   1      33.826  23.243  26.076  1.00  0.00     0.126 C 
ATOM      9  C   UNL A   1      33.345  22.640  27.400  1.00  0.00     0.025 C 
BRANCH   8  10
ATOM     10  C   UNL A   1      33.277  24.665  25.950  1.00  0.00    -0.031 A 
ATOM     11  C   UNL A   1      32.569  27.454  25.861  1.00  0.00     0.025 A 
ATOM     12  C   UNL A   1      31.754  26.494  26.490  1.00  0.00     0.012 A 
ATOM     13  C   UNL A   1      33.694  26.969  25.191  1.00  0.00     0.131 A 
ATOM     14  C   UNL A   1      32.134  25.143  26.597  1.00  0.00     0.005 A 
ATOM     15  C   UNL A   1      34.032  25.608  25.217  1.00  0.00     0.044 A 
ATOM     16  F   UNL A   1      34.510  27.809  24.537  1.00  0.00    -0.206 F 
BRANCH  11  17
ATOM     17  C   UNL A   1      32.241  28.898  25.948  1.00  0.00     0.069 A 
ATOM     18  C   UNL A   1      31.241  29.436  25.092  1.00  0.00     0.130 A 
ATOM     19  C   UNL A   1      30.786  30.759  25.183  1.00  0.00     0.047 A 
ATOM     20  C   UNL A   1      31.322  31.601  26.136  1.00  0.00     0.008 A 
ATOM     21  C   UNL A   1      32.831  29.804  26.860  1.00  0.00     0.130 A 
ATOM     22  C   UNL A   1      32.350  31.131  26.943  1.00  0.00     0.047 A 
BRANCH  18  23
ATOM     23  O   UNL A   1      30.779  28.692  24.036  1.00  0.00    -0.493 OA
BRANCH  23  24
ATOM     24  C   UNL A   1      30.145  29.484  23.032  1.00  0.00     0.226 C 
ATOM     25  C   UNL A   1      28.815  28.829  22.770  1.00  0.00     0.049 C 
ENDBRANCH  23  24
ENDBRANCH  18  23
BRANCH  21  26
ATOM     26  O   UNL A   1      33.904  29.668  27.700  1.00  0.00    -0.493 OA
BRANCH  26  27
ATOM     27  C   UNL A   1      35.137  30.345  27.536  1.00  0.00     0.226 C 
ATOM     28  C   UNL A   1      36.278  29.445  27.979  1.00  0.00     0.049 C 
ENDBRANCH  26  27
ENDBRANCH  21  26
ENDBRANCH  11  17
ENDBRANCH   8  10
ENDBRANCH   6   8
ENDBRANCH   5   6
ENDBRANCH   4   5
ENDBRANCH   3   4
ENDBRANCH   2   3
ENDBRANCH   1   2
BRANCH   1  29
ATOM     29  C   UNL A   1      39.617  21.222  26.249  1.00  0.00     0.188 C 
BRANCH  29  30
ATOM     30  O   UNL A   1      40.324  20.902  27.438  1.00  0.00    -0.376 OA
BRANCH  30  31
ATOM     31  C   UNL A   1      41.469  20.079  27.260  1.00  0.00     0.202 C 
BRANCH  31  32
ATOM     32  C   UNL A   1      42.520  20.684  26.330  1.00  0.00     0.261 C 
BRANCH  32  33
ATOM     33  O   UNL A   1      42.869  22.023  26.730  1.00  0.00    -0.460 OA
BRANCH  33  34
ATOM     34  C   UNL A   1      42.871  22.982  25.787  1.00  0.00     0.338 C 
ATOM     35  O   UNL A   1      42.911  22.827  24.574  1.00  0.00    -0.246 OA
BRANCH  34  36
ATOM     36  C   UNL A   1      42.792  24.294  26.459  1.00  0.00     0.060 A 
ATOM     37  C   UNL A   1      42.833  25.486  25.722  1.00  0.00     0.016 A 
ATOM     38  C   UNL A   1      42.744  24.336  27.849  1.00  0.00     0.016 A 
ATOM     39  C   UNL A   1      42.866  26.722  26.366  1.00  0.00     0.010 A 
ATOM     40  C   UNL A   1      42.762  25.573  28.496  1.00  0.00     0.010 A 
ATOM     41  C   UNL A   1      42.855  26.769  27.760  1.00  0.00    -0.014 A 
BRANCH  41  42
ATOM     42  C   UNL A   1      43.105  28.038  28.479  1.00  0.00     0.031 A 
ATOM     43  C   UNL A   1      44.505  28.324  28.941  1.00  0.00     0.074 A 
ATOM     44  C   UNL A   1      42.103  28.891  28.756  1.00  0.00     0.049 A 
ATOM     45  N   UNL A   1      44.929  29.212  29.798  1.00  0.00    -0.248 NA
ATOM     46  C   UNL A   1      45.568  27.481  28.366  1.00  0.00     0.031 C 
ATOM     47  C   UNL A   1      40.721  28.759  28.295  1.00  0.00     0.029 A 
ATOM     48  N   UNL A   1      42.093  30.023  29.531  1.00  0.00    -0.354 N 
ATOM     49  C   UNL A   1      46.300  29.006  29.904  1.00  0.00     0.074 A 
ATOM     50  C   UNL A   1      46.638  27.916  29.017  1.00  0.00     0.031 C 
ATOM     51  C   UNL A   1      39.987  29.752  28.828  1.00  0.00     0.029 A 
ATOM     52  C   UNL A   1      40.837  30.553  29.709  1.00  0.00     0.049 A 
ATOM     53  H   UNL A   1      42.906  30.419  29.921  1.00  0.00     0.167 HD
ATOM     54  C   UNL A   1      47.187  29.664  30.684  1.00  0.00     0.037 A 
ATOM     55  C   UNL A   1      40.416  31.533  30.532  1.00  0.00     0.037 A 
ATOM     56  C   UNL A   1      46.839  30.766  31.541  1.00  0.00     0.049 A 
ATOM     57  C   UNL A   1      41.417  32.214  31.433  1.00  0.00     0.074 A 
ATOM     58  C   UNL A   1      47.665  31.513  32.361  1.00  0.00     0.029 A 
ATOM     59  N   UNL A   1      45.559  31.280  31.684  1.00  0.00    -0.354 N 
ATOM     60  N   UNL A   1      42.706  31.999  31.548  1.00  0.00    -0.248 NA
ATOM     61  C   UNL A   1      40.902  33.264  32.323  1.00  0.00     0.031 C 
ATOM     62  C   UNL A   1      46.878  32.457  33.028  1.00  0.00     0.029 A 
ATOM     63  C   UNL A   1      45.571  32.327  32.588  1.00  0.00     0.049 A 
ATOM     64  H   UNL A   1      44.761  30.950  31.211  1.00  0.00     0.167 HD
ATOM     65  C   UNL A   1      43.161  32.911  32.496  1.00  0.00     0.074 A 
ATOM     66  C   UNL A   1      42.010  33.681  32.920  1.00  0.00     0.031 C 
ATOM     67  C   UNL A   1      44.416  33.098  32.973  1.00  0.00     0.037 A 
BRANCH  54  68
ATOM     68  C   UNL A   1      48.612  29.191  30.676  1.00  0.00     0.058 A 
ATOM     69  C   UNL A   1      49.570  29.736  29.809  1.00  0.00     0.135 A 
ATOM     70  C   UNL A   1      49.034  28.215  31.593  1.00  0.00     0.135 A 
ATOM     71  F   UNL A   1      49.213  30.654  28.896  1.00  0.00    -0.206 F 
ATOM     72  C   UNL A   1      50.898  29.325  29.847  1.00  0.00     0.059 A 
ATOM     73  C   UNL A   1      50.362  27.805  31.664  1.00  0.00     0.059 A 
ATOM     74  F   UNL A   1      48.153  27.655  32.437  1.00  0.00    -0.206 F 
ATOM     75  C   UNL A   1      51.285  28.361  30.781  1.00  0.00     0.060 A 
BRANCH  75  76
ATOM     76  S   UNL A   1      53.020  27.865  30.845  1.00  0.00     0.124 S 
ATOM     77  O   UNL A   1      53.273  27.876  32.283  1.00  0.00    -0.237 OA
ATOM     78  O   UNL A   1      52.992  26.547  30.218  1.00  0.00    -0.237 OA
ATOM     79  O   UNL A   1      53.701  28.905  30.081  1.00  0.00    -0.744 OA
ENDBRANCH  75  76
ENDBRANCH  54  68
BRANCH  55  80
ATOM     80  C   UNL A   1      38.977  31.907  30.588  1.00  0.00     0.058 A 
ATOM     81  C   UNL A   1      38.498  33.032  29.902  1.00  0.00     0.135 A 
ATOM     82  C   UNL A   1      38.063  31.175  31.361  1.00  0.00     0.135 A 
ATOM     83  F   UNL A   1      39.335  33.771  29.159  1.00  0.00    -0.206 F 
ATOM     84  C   UNL A   1      37.170  33.437  30.003  1.00  0.00     0.059 A 
ATOM     85  C   UNL A   1      36.724  31.543  31.457  1.00  0.00     0.059 A 
ATOM     86  F   UNL A   1      38.469  30.084  32.030  1.00  0.00    -0.206 F 
ATOM     87  C   UNL A   1      36.292  32.688  30.787  1.00  0.00     0.060 A 
BRANCH  87  88
ATOM     88  S   UNL A   1      34.568  33.214  30.906  1.00  0.00     0.124 S 
ATOM     89  O   UNL A   1      34.132  32.517  32.110  1.00  0.00    -0.237 OA
ATOM     90  O   UNL A   1      34.695  34.664  31.017  1.00  0.00    -0.237 OA
ATOM     91  O   UNL A   1      33.987  32.738  29.654  1.00  0.00    -0.744 OA
ENDBRANCH  87  88
ENDBRANCH  55  80
BRANCH  67  92
ATOM     92  C   UNL A   1      44.627  34.215  33.954  1.00  0.00     0.058 A 
ATOM     93  C   UNL A   1      44.557  34.009  35.340  1.00  0.00     0.135 A 
ATOM     94  C   UNL A   1      44.959  35.501  33.496  1.00  0.00     0.135 A 
ATOM     95  F   UNL A   1      44.237  32.800  35.827  1.00  0.00    -0.206 F 
ATOM     96  C   UNL A   1      44.788  35.044  36.239  1.00  0.00     0.059 A 
ATOM     97  C   UNL A   1      45.221  36.544  34.378  1.00  0.00     0.059 A 
ATOM     98  F   UNL A   1      45.052  35.748  32.180  1.00  0.00    -0.206 F 
ATOM     99  C   UNL A   1      45.121  36.309  35.748  1.00  0.00     0.060 A 
BRANCH  99 100
ATOM    100  S   UNL A   1      45.455  37.638  36.924  1.00  0.00     0.124 S 
ATOM    101  O   UNL A   1      45.012  37.038  38.177  1.00  0.00    -0.237 OA
ATOM    102  O   UNL A   1      46.896  37.825  36.786  1.00  0.00    -0.237 OA
ATOM    103  O   UNL A   1      44.636  38.741  36.431  1.00  0.00    -0.744 OA
ENDBRANCH  99 100
ENDBRANCH  67  92
ENDBRANCH  41  42
ENDBRANCH  34  36
ENDBRANCH  33  34
ENDBRANCH  32  33
ENDBRANCH  31  32
ENDBRANCH  30  31
ENDBRANCH  29  30
ENDBRANCH   1  29
TORSDOF 26
ENDMDL
MODEL 3
REMARK VINA RESULT:      -8.5      3.330      9.027
REMARK SMILES CCOc1cccc(OCC)c1-c1ccc([C@@H](C)C(=O)OCCOCCOCCOC(=O)c2ccc(-c3c4nc(c(-c5c(F)cc(S(=O)(=O)[O-])cc5F)c5ccc([nH]5)c(-c5c(F)cc(S(=O)(=O)[O-])cc5F)c5nc(c(-c6c(F)cc(S(=O)(=O)[O-])cc6F)c6ccc3[nH]6)C=C5)C=C4)cc2)cc1F
REMARK SMILES IDX 25 1 24 2 23 3 22 4 21 5 19 6 20 7 17 8 18 9 16 10 13 11
REMARK SMILES IDX 14 12 100 13 15 14 99 15 101 16 12 17 4 18 5 19 6 20 8 21
REMARK SMILES IDX 7 22 3 23 2 24 1 25 9 26 10 27 11 28 26 29 27 30 28 31 29 32
REMARK SMILES IDX 30 33 31 34 32 35 33 36 34 37 98 38 35 39 97 40 36 41 37 42
REMARK SMILES IDX 38 43 91 44 39 45 96 46 90 47 92 48 40 49 95 50 89 51 88 52
REMARK SMILES IDX 41 54 75 55 54 56 74 57 55 58 58 59 73 60 93 61 56 62 57 63
REMARK SMILES IDX 72 65 94 66 59 67 42 68 43 69 52 70 44 71 45 72 51 73 53 74
REMARK SMILES IDX 46 75 47 76 48 77 49 78 50 79 76 80 77 81 86 82 78 83 79 84
REMARK SMILES IDX 85 85 87 86 80 87 81 88 82 89 83 90 84 91 60 92 61 93 70 94
REMARK SMILES IDX 62 95 63 96 69 97 71 98 64 99 65 100 66 101 67 102 68 103
REMARK H PARENT 92 53 58 64
REMARK Flexibility Score: inf
ROOT
ATOM      1  C   UNL A   1      38.858  23.213  26.621  1.00  0.00     0.188 C 
ENDROOT
BRANCH   1   2
ATOM      2  O   UNL A   1      37.565  22.977  26.076  1.00  0.00    -0.376 OA
BRANCH   2   3
ATOM      3  C   UNL A   1      37.347  21.807  25.300  1.00  0.00     0.202 C 
BRANCH   3   4
ATOM      4  C   UNL A   1      35.896  21.376  25.068  1.00  0.00     0.261 C 
BRANCH   4   5
ATOM      5  O   UNL A   1      35.254  22.028  23.948  1.00  0.00    -0.463 OA
BRANCH   5   6
ATOM      6  C   UNL A   1      33.922  22.246  24.072  1.00  0.00     0.313 C 
ATOM      7  O   UNL A   1      33.117  21.993  23.175  1.00  0.00    -0.252 OA
BRANCH   6   8
ATOM      8  C   UNL A   1      33.445  22.888  25.372  1.00  0.00     0.126 C 
ATOM      9  C   UNL A   1      32.271  22.051  25.892  1.00  0.00     0.025 C 
BRANCH   8  10
ATOM     10  C   UNL A   1      33.101  24.371  25.519  1.00  0.00    -0.031 A 
ATOM     11  C   UNL A   1      32.821  27.217  25.849  1.00  0.00     0.025 A 
ATOM     12  C   UNL A   1      32.081  26.298  26.617  1.00  0.00     0.012 A 
ATOM     13  C   UNL A   1      33.627  26.679  24.844  1.00  0.00     0.131 A 
ATOM     14  C   UNL A   1      32.270  24.907  26.506  1.00  0.00     0.005 A 
ATOM     15  C   UNL A   1      33.752  25.293  24.669  1.00  0.00     0.044 A 
ATOM     16  F   UNL A   1      34.343  27.484  24.044  1.00  0.00    -0.206 F 
BRANCH  11  17
ATOM     17  C   UNL A   1      32.749  28.670  26.136  1.00  0.00     0.069 A 
ATOM     18  C   UNL A   1      31.646  29.422  25.646  1.00  0.00     0.130 A 
ATOM     19  C   UNL A   1      31.436  30.771  25.963  1.00  0.00     0.047 A 
ATOM     20  C   UNL A   1      32.333  31.426  26.784  1.00  0.00     0.008 A 
ATOM     21  C   UNL A   1      33.695  29.387  26.907  1.00  0.00     0.130 A 
ATOM     22  C   UNL A   1      33.459  30.743  27.225  1.00  0.00     0.047 A 
BRANCH  18  23
ATOM     23  O   UNL A   1      30.807  28.867  24.713  1.00  0.00    -0.493 OA
BRANCH  23  24
ATOM     24  C   UNL A   1      31.209  29.138  23.372  1.00  0.00     0.226 C 
ATOM     25  C   UNL A   1      30.893  27.893  22.587  1.00  0.00     0.049 C 
ENDBRANCH  23  24
ENDBRANCH  18  23
BRANCH  21  26
ATOM     26  O   UNL A   1      34.923  29.024  27.392  1.00  0.00    -0.493 OA
BRANCH  26  27
ATOM     27  C   UNL A   1      35.998  29.924  27.597  1.00  0.00     0.226 C 
ATOM     28  C   UNL A   1      37.131  29.213  28.314  1.00  0.00     0.049 C 
ENDBRANCH  26  27
ENDBRANCH  21  26
ENDBRANCH  11  17
ENDBRANCH   8  10
ENDBRANCH   6   8
ENDBRANCH   5   6
ENDBRANCH   4   5
ENDBRANCH   3   4
ENDBRANCH   2   3
ENDBRANCH   1   2
BRANCH   1  29
ATOM     29  C   UNL A   1      39.962  22.166  26.398  1.00  0.00     0.188 C 
BRANCH  29  30
ATOM     30  O   UNL A   1      40.130  21.219  27.440  1.00  0.00    -0.376 OA
BRANCH  30  31
ATOM     31  C   UNL A   1      41.061  20.179  27.171  1.00  0.00     0.202 C 
BRANCH  31  32
ATOM     32  C   UNL A   1      41.934  20.439  25.944  1.00  0.00     0.261 C 
BRANCH  32  33
ATOM     33  O   UNL A   1      43.134  21.155  26.295  1.00  0.00    -0.460 OA
BRANCH  33  34
ATOM     34  C   UNL A   1      43.456  22.241  25.569  1.00  0.00     0.338 C 
ATOM     35  O   UNL A   1      43.717  22.281  24.375  1.00  0.00    -0.246 OA
BRANCH  34  36
ATOM     36  C   UNL A   1      43.423  23.419  26.458  1.00  0.00     0.060 A 
ATOM     37  C   UNL A   1      43.752  24.694  25.977  1.00  0.00     0.016 A 
ATOM     38  C   UNL A   1      43.126  23.238  27.804  1.00  0.00     0.016 A 
ATOM     39  C   UNL A   1      43.825  25.785  26.842  1.00  0.00     0.010 A 
ATOM     40  C   UNL A   1      43.182  24.332  28.670  1.00  0.00     0.010 A 
ATOM     41  C   UNL A   1      43.563  25.602  28.200  1.00  0.00    -0.014 A 
BRANCH  41  42
ATOM     42  C   UNL A   1      43.837  26.679  29.177  1.00  0.00     0.031 A 
ATOM     43  C   UNL A   1      45.114  26.611  29.964  1.00  0.00     0.074 A 
ATOM     44  C   UNL A   1      42.948  27.665  29.396  1.00  0.00     0.049 A 
ATOM     45  N   UNL A   1      45.461  27.264  31.039  1.00  0.00    -0.248 NA
ATOM     46  C   UNL A   1      46.133  25.665  29.474  1.00  0.00     0.031 C 
ATOM     47  C   UNL A   1      41.713  27.879  28.643  1.00  0.00     0.029 A 
ATOM     48  N   UNL A   1      42.938  28.653  30.348  1.00  0.00    -0.354 N 
ATOM     49  C   UNL A   1      46.716  26.776  31.386  1.00  0.00     0.074 A 
ATOM     50  C   UNL A   1      47.074  25.780  30.400  1.00  0.00     0.031 C 
ATOM     51  C   UNL A   1      41.044  28.911  29.188  1.00  0.00     0.029 A 
ATOM     52  C   UNL A   1      41.778  29.390  30.358  1.00  0.00     0.049 A 
ATOM     53  H   UNL A   1      43.688  28.818  30.964  1.00  0.00     0.167 HD
ATOM     54  C   UNL A   1      47.488  27.124  32.440  1.00  0.00     0.037 A 
ATOM     55  C   UNL A   1      41.338  30.305  31.244  1.00  0.00     0.037 A 
ATOM     56  C   UNL A   1      47.129  28.137  33.396  1.00  0.00     0.049 A 
ATOM     57  C   UNL A   1      42.193  30.636  32.442  1.00  0.00     0.074 A 
ATOM     58  C   UNL A   1      47.847  28.578  34.493  1.00  0.00     0.029 A 
ATOM     59  N   UNL A   1      45.952  28.870  33.365  1.00  0.00    -0.354 N 
ATOM     60  N   UNL A   1      43.366  30.154  32.779  1.00  0.00    -0.248 NA
ATOM     61  C   UNL A   1      41.659  31.628  33.386  1.00  0.00     0.031 C 
ATOM     62  C   UNL A   1      47.086  29.554  35.146  1.00  0.00     0.029 A 
ATOM     63  C   UNL A   1      45.917  29.752  34.430  1.00  0.00     0.049 A 
ATOM     64  H   UNL A   1      45.246  28.777  32.684  1.00  0.00     0.167 HD
ATOM     65  C   UNL A   1      43.724  30.811  33.953  1.00  0.00     0.074 A 
ATOM     66  C   UNL A   1      42.645  31.724  34.266  1.00  0.00     0.031 C 
ATOM     67  C   UNL A   1      44.845  30.673  34.705  1.00  0.00     0.037 A 
BRANCH  54  68
ATOM     68  C   UNL A   1      48.778  26.384  32.639  1.00  0.00     0.058 A 
ATOM     69  C   UNL A   1      49.995  26.864  32.134  1.00  0.00     0.135 A 
ATOM     70  C   UNL A   1      48.801  25.201  33.397  1.00  0.00     0.135 A 
ATOM     71  F   UNL A   1      50.024  27.976  31.382  1.00  0.00    -0.206 F 
ATOM     72  C   UNL A   1      51.191  26.194  32.368  1.00  0.00     0.059 A 
ATOM     73  C   UNL A   1      49.989  24.527  33.662  1.00  0.00     0.059 A 
ATOM     74  F   UNL A   1      47.661  24.695  33.893  1.00  0.00    -0.206 F 
ATOM     75  C   UNL A   1      51.178  25.028  33.137  1.00  0.00     0.060 A 
BRANCH  75  76
ATOM     76  S   UNL A   1      52.743  24.191  33.466  1.00  0.00     0.124 S 
ATOM     77  O   UNL A   1      52.368  22.791  33.289  1.00  0.00    -0.237 OA
ATOM     78  O   UNL A   1      53.618  24.746  32.438  1.00  0.00    -0.237 OA
ATOM     79  O   UNL A   1      53.061  24.586  34.835  1.00  0.00    -0.744 OA
ENDBRANCH  75  76
ENDBRANCH  54  68
BRANCH  55  80
ATOM     80  C   UNL A   1      40.007  30.946  31.071  1.00  0.00     0.058 A 
ATOM     81  C   UNL A   1      39.878  32.168  30.396  1.00  0.00     0.135 A 
ATOM     82  C   UNL A   1      38.845  30.373  31.612  1.00  0.00     0.135 A 
ATOM     83  F   UNL A   1      40.961  32.762  29.871  1.00  0.00    -0.206 F 
ATOM     84  C   UNL A   1      38.651  32.816  30.288  1.00  0.00     0.059 A 
ATOM     85  C   UNL A   1      37.602  30.987  31.494  1.00  0.00     0.059 A 
ATOM     86  F   UNL A   1      38.913  29.198  32.259  1.00  0.00    -0.206 F 
ATOM     87  C   UNL A   1      37.519  32.219  30.845  1.00  0.00     0.060 A 
BRANCH  87  88
ATOM     88  S   UNL A   1      35.929  33.061  30.694  1.00  0.00     0.124 S 
ATOM     89  O   UNL A   1      35.030  31.944  30.431  1.00  0.00    -0.237 OA
ATOM     90  O   UNL A   1      35.791  33.698  32.001  1.00  0.00    -0.237 OA
ATOM     91  O   UNL A   1      36.141  33.978  29.579  1.00  0.00    -0.744 OA
ENDBRANCH  87  88
ENDBRANCH  55  80
BRANCH  67  92
ATOM     92  C   UNL A   1      44.994  31.572  35.898  1.00  0.00     0.058 A 
ATOM     93  C   UNL A   1      45.468  32.887  35.782  1.00  0.00     0.135 A 
ATOM     94  C   UNL A   1      44.601  31.124  37.171  1.00  0.00     0.135 A 
ATOM     95  F   UNL A   1      45.861  33.360  34.589  1.00  0.00    -0.206 F 
ATOM     96  C   UNL A   1      45.569  33.722  36.890  1.00  0.00     0.059 A 
ATOM     97  C   UNL A   1      44.668  31.950  38.287  1.00  0.00     0.059 A 
ATOM     98  F   UNL A   1      44.128  29.878  37.333  1.00  0.00    -0.206 F 
ATOM     99  C   UNL A   1      45.166  33.244  38.139  1.00  0.00     0.060 A 
BRANCH  99 100
ATOM    100  S   UNL A   1      45.265  34.347  39.566  1.00  0.00     0.124 S 
ATOM    101  O   UNL A   1      44.657  33.529  40.610  1.00  0.00    -0.237 OA
ATOM    102  O   UNL A   1      46.702  34.569  39.692  1.00  0.00    -0.237 OA
ATOM    103  O   UNL A   1      44.491  35.511  39.149  1.00  0.00    -0.744 OA
ENDBRANCH  99 100
ENDBRANCH  67  92
ENDBRANCH  41  42
ENDBRANCH  34  36
ENDBRANCH  33  34
ENDBRANCH  32  33
ENDBRANCH  31  32
ENDBRANCH  30  31
ENDBRANCH  29  30
ENDBRANCH   1  29
TORSDOF 26
ENDMDL
