MODEL 1
REMARK VINA RESULT:     -11.7      0.000      0.000
REMARK SMILES Cc1cc([N+](=O)[O-])ccc1-c1ccc(/C=C/C(=O)Nc2ccc(O)c(C(=O)OCCOCCOCCOC(=O)c3ccc(-c4c5nc(c(-c6c(F)cc(S(=O)(=O)[O-])cc6F)c6ccc([nH]6)c(-c6c(F)cc(S(=O)(=O)[O-])cc6F)c6nc(c(-c7c(F)cc(S(=O)(=O)[O-])cc7F)c7ccc4[nH]7)C=C6)C=C5)cc3)c2)o1
REMARK SMILES IDX 32 1 31 2 30 3 29 4 28 5 26 6 27 7 25 8 20 9 21 10 106 11
REMARK SMILES IDX 22 12 23 13 19 14 17 15 18 16 16 18 15 19 14 20 11 21 12 22
REMARK SMILES IDX 107 23 13 24 10 25 1 26 2 27 3 28 4 29 9 30 8 31 5 32 6 33
REMARK SMILES IDX 7 34 24 35 33 37 34 38 35 39 36 40 37 41 38 42 39 43 40 44
REMARK SMILES IDX 41 45 105 46 42 47 104 48 43 49 44 50 45 51 98 52 46 53
REMARK SMILES IDX 103 54 97 55 99 56 47 57 102 58 96 59 95 60 48 62 82 63
REMARK SMILES IDX 61 64 81 65 62 66 65 67 80 68 100 69 63 70 64 71 79 73
REMARK SMILES IDX 101 74 66 75 49 76 50 77 59 78 51 79 52 80 58 81 60 82 53 83
REMARK SMILES IDX 54 84 55 85 56 86 57 87 83 88 84 89 93 90 85 91 86 92 92 93
REMARK SMILES IDX 94 94 87 95 88 96 89 97 90 98 91 99 67 100 68 101 77 102
REMARK SMILES IDX 69 103 70 104 76 105 78 106 71 107 72 108 73 109 74 110
REMARK SMILES IDX 75 111
REMARK H PARENT 19 17 24 36 99 61 65 72
REMARK Flexibility Score: inf
ROOT
ATOM      1  C   UNL A   1      36.691  31.658  29.704  1.00  0.00     0.188 C 
ENDROOT
BRANCH   1   2
ATOM      2  O   UNL A   1      35.504  31.173  29.087  1.00  0.00    -0.376 OA
BRANCH   2   3
ATOM      3  C   UNL A   1      35.462  30.877  27.687  1.00  0.00     0.202 C 
BRANCH   3   4
ATOM      4  C   UNL A   1      34.284  30.013  27.100  1.00  0.00     0.261 C 
BRANCH   4   5
ATOM      5  O   UNL A   1      32.806  30.066  27.432  1.00  0.00    -0.460 OA
BRANCH   5   6
ATOM      6  C   UNL A   1      31.934  30.070  26.386  1.00  0.00     0.342 C 
ATOM      7  O   UNL A   1      31.457  31.184  26.132  1.00  0.00    -0.246 OA
BRANCH   6   8
ATOM      8  C   UNL A   1      31.503  28.695  25.569  1.00  0.00     0.103 A 
ATOM      9  C   UNL A   1      30.901  26.147  25.732  1.00  0.00     0.042 A 
ATOM     10  C   UNL A   1      30.413  26.167  24.462  1.00  0.00     0.030 A 
ATOM     11  C   UNL A   1      31.426  27.383  26.177  1.00  0.00     0.045 A 
ATOM     12  C   UNL A   1      30.449  27.408  23.765  1.00  0.00     0.049 A 
ATOM     13  C   UNL A   1      30.976  28.641  24.301  1.00  0.00     0.130 A 
BRANCH   9  14
ATOM     14  N   UNL A   1      30.830  25.049  26.657  1.00  0.00    -0.322 N 
ATOM     15  C   UNL A   1      31.621  23.935  26.860  1.00  0.00     0.248 C 
ATOM     16  O   UNL A   1      31.261  22.964  27.520  1.00  0.00    -0.270 OA
ATOM     17  H   UNL A   1      30.061  25.101  27.270  1.00  0.00     0.170 HD
BRANCH  15  18
ATOM     18  C   UNL A   1      33.016  24.051  26.422  1.00  0.00     0.075 C 
ATOM     19  C   UNL A   1      33.144  23.998  25.092  1.00  0.00     0.053 C 
BRANCH  19  20
ATOM     20  C   UNL A   1      34.328  23.480  24.545  1.00  0.00     0.127 A 
ATOM     21  C   UNL A   1      36.263  22.482  24.372  1.00  0.00     0.135 A 
ATOM     22  C   UNL A   1      36.007  22.989  23.123  1.00  0.00     0.051 A 
ATOM     23  O   UNL A   1      35.234  22.721  25.221  1.00  0.00    -0.457 OA
ATOM     24  C   UNL A   1      34.769  23.643  23.238  1.00  0.00     0.051 A 
BRANCH  21  25
ATOM     25  C   UNL A   1      37.407  21.848  24.972  1.00  0.00     0.021 A 
ATOM     26  C   UNL A   1      38.040  24.019  26.176  1.00  0.00     0.045 C 
ATOM     27  C   UNL A   1      38.272  22.573  25.815  1.00  0.00    -0.033 A 
ATOM     28  C   UNL A   1      39.400  21.925  26.338  1.00  0.00     0.089 A 
ATOM     29  C   UNL A   1      39.629  20.572  26.049  1.00  0.00     0.269 A 
ATOM     30  C   UNL A   1      37.631  20.489  24.710  1.00  0.00     0.019 A 
ATOM     31  C   UNL A   1      38.741  19.845  25.246  1.00  0.00     0.086 A 
BRANCH  29  32
ATOM     32  N   UNL A   1      40.819  19.906  26.588  1.00  0.00     0.062 N 
ATOM     33  O   UNL A   1      41.323  20.362  27.623  1.00  0.00    -0.258 OA
ATOM     34  O   UNL A   1      41.263  18.927  25.968  1.00  0.00    -0.258 OA
ENDBRANCH  29  32
ENDBRANCH  21  25
ENDBRANCH  19  20
ENDBRANCH  15  18
ENDBRANCH   9  14
BRANCH  13  35
ATOM     35  O   UNL A   1      30.888  29.740  23.503  1.00  0.00    -0.507 OA
ATOM     36  H   UNL A   1      30.931  30.597  23.881  1.00  0.00     0.293 HD
ENDBRANCH  13  35
ENDBRANCH   6   8
ENDBRANCH   5   6
ENDBRANCH   4   5
ENDBRANCH   3   4
ENDBRANCH   2   3
ENDBRANCH   1   2
BRANCH   1  37
ATOM     37  C   UNL A   1      38.022  30.963  29.667  1.00  0.00     0.188 C 
BRANCH  37  38
ATOM     38  O   UNL A   1      38.430  30.275  28.478  1.00  0.00    -0.376 OA
BRANCH  38  39
ATOM     39  C   UNL A   1      39.561  29.375  28.193  1.00  0.00     0.202 C 
BRANCH  39  40
ATOM     40  C   UNL A   1      40.524  27.992  29.003  1.00  0.00     0.261 C 
BRANCH  40  41
ATOM     41  O   UNL A   1      41.255  26.400  28.623  1.00  0.00    -0.460 OA
BRANCH  41  42
ATOM     42  C   UNL A   1      42.209  25.253  28.171  1.00  0.00     0.338 C 
ATOM     43  O   UNL A   1      42.643  24.576  29.118  1.00  0.00    -0.246 OA
BRANCH  42  44
ATOM     44  C   UNL A   1      43.097  24.925  26.605  1.00  0.00     0.060 A 
ATOM     45  C   UNL A   1      44.242  24.089  26.500  1.00  0.00     0.016 A 
ATOM     46  C   UNL A   1      43.244  25.786  25.554  1.00  0.00     0.016 A 
ATOM     47  C   UNL A   1      45.621  24.597  26.000  1.00  0.00     0.010 A 
ATOM     48  C   UNL A   1      44.555  26.365  25.239  1.00  0.00     0.010 A 
ATOM     49  C   UNL A   1      45.861  25.923  25.572  1.00  0.00    -0.014 A 
BRANCH  49  50
ATOM     50  C   UNL A   1      47.344  26.840  25.375  1.00  0.00     0.031 A 
ATOM     51  C   UNL A   1      48.515  26.833  24.224  1.00  0.00     0.074 A 
ATOM     52  C   UNL A   1      47.532  28.032  26.035  1.00  0.00     0.049 A 
ATOM     53  N   UNL A   1      49.014  27.948  23.747  1.00  0.00    -0.248 NA
ATOM     54  C   UNL A   1      49.137  25.742  23.432  1.00  0.00     0.031 C 
ATOM     55  C   UNL A   1      48.657  29.006  26.152  1.00  0.00     0.029 A 
ATOM     56  N   UNL A   1      46.790  28.548  27.048  1.00  0.00    -0.354 N 
ATOM     57  C   UNL A   1      49.864  27.781  22.668  1.00  0.00     0.074 A 
ATOM     58  C   UNL A   1      49.783  26.361  22.419  1.00  0.00     0.031 C 
ATOM     59  C   UNL A   1      48.748  29.434  27.435  1.00  0.00     0.029 A 
ATOM     60  C   UNL A   1      47.649  28.819  28.131  1.00  0.00     0.049 A 
ATOM     61  H   UNL A   1      45.818  28.704  27.030  1.00  0.00     0.167 HD
ATOM     62  C   UNL A   1      51.025  28.511  22.562  1.00  0.00     0.037 A 
ATOM     63  C   UNL A   1      47.556  27.852  29.078  1.00  0.00     0.037 A 
ATOM     64  C   UNL A   1      51.566  28.748  23.893  1.00  0.00     0.049 A 
ATOM     65  C   UNL A   1      48.833  26.904  28.753  1.00  0.00     0.074 A 
ATOM     66  C   UNL A   1      51.808  29.791  24.764  1.00  0.00     0.029 A 
ATOM     67  N   UNL A   1      51.761  27.603  24.640  1.00  0.00    -0.354 N 
ATOM     68  N   UNL A   1      49.642  27.120  27.725  1.00  0.00    -0.248 NA
ATOM     69  C   UNL A   1      49.433  25.830  29.559  1.00  0.00     0.031 C 
ATOM     70  C   UNL A   1      51.956  29.211  26.083  1.00  0.00     0.029 A 
ATOM     71  C   UNL A   1      51.823  27.829  25.991  1.00  0.00     0.049 A 
ATOM     72  H   UNL A   1      51.849  26.708  24.240  1.00  0.00     0.167 HD
ATOM     73  C   UNL A   1      50.811  26.422  27.756  1.00  0.00     0.074 A 
ATOM     74  C   UNL A   1      50.586  25.543  28.894  1.00  0.00     0.031 C 
ATOM     75  C   UNL A   1      51.868  26.662  26.893  1.00  0.00     0.037 A 
BRANCH  62  76
ATOM     76  C   UNL A   1      51.680  28.921  21.239  1.00  0.00     0.058 A 
ATOM     77  C   UNL A   1      52.883  28.328  20.789  1.00  0.00     0.135 A 
ATOM     78  C   UNL A   1      51.218  29.983  20.422  1.00  0.00     0.135 A 
ATOM     79  F   UNL A   1      53.455  27.331  21.479  1.00  0.00    -0.206 F 
ATOM     80  C   UNL A   1      53.570  28.744  19.634  1.00  0.00     0.059 A 
ATOM     81  C   UNL A   1      51.888  30.414  19.256  1.00  0.00     0.059 A 
ATOM     82  F   UNL A   1      50.100  30.653  20.747  1.00  0.00    -0.206 F 
ATOM     83  C   UNL A   1      53.072  29.794  18.871  1.00  0.00     0.060 A 
BRANCH  83  84
ATOM     84  S   UNL A   1      54.003  30.335  17.407  1.00  0.00     0.124 S 
ATOM     85  O   UNL A   1      55.023  31.202  17.993  1.00  0.00    -0.237 OA
ATOM     86  O   UNL A   1      54.490  29.072  16.860  1.00  0.00    -0.237 OA
ATOM     87  O   UNL A   1      53.001  31.018  16.594  1.00  0.00    -0.744 OA
ENDBRANCH  83  84
ENDBRANCH  62  76
BRANCH  63  88
ATOM     88  C   UNL A   1      45.945  27.731  29.171  1.00  0.00     0.058 A 
ATOM     89  C   UNL A   1      45.337  26.547  29.713  1.00  0.00     0.135 A 
ATOM     90  C   UNL A   1      45.122  28.723  29.551  1.00  0.00     0.135 A 
ATOM     91  F   UNL A   1      45.708  25.360  29.201  1.00  0.00    -0.206 F 
ATOM     92  C   UNL A   1      44.480  26.479  30.987  1.00  0.00     0.059 A 
ATOM     93  C   UNL A   1      44.131  28.535  30.650  1.00  0.00     0.059 A 
ATOM     94  F   UNL A   1      45.098  29.867  28.844  1.00  0.00    -0.206 F 
ATOM     95  C   UNL A   1      43.983  27.580  31.703  1.00  0.00     0.060 A 
BRANCH  95  96
ATOM     96  S   UNL A   1      42.741  27.758  33.616  1.00  0.00     0.124 S 
ATOM     97  O   UNL A   1      42.253  26.456  34.072  1.00  0.00    -0.237 OA
ATOM     98  O   UNL A   1      43.498  28.272  34.737  1.00  0.00    -0.237 OA
ATOM     99  O   UNL A   1      41.614  28.632  33.291  1.00  0.00    -0.744 OA
ENDBRANCH  95  96
ENDBRANCH  63  88
BRANCH  75 100
ATOM    100  C   UNL A   1      53.130  25.816  26.813  1.00  0.00     0.058 A 
ATOM    101  C   UNL A   1      54.177  25.945  27.729  1.00  0.00     0.135 A 
ATOM    102  C   UNL A   1      53.374  24.923  25.730  1.00  0.00     0.135 A 
ATOM    103  F   UNL A   1      54.104  26.836  28.727  1.00  0.00    -0.206 F 
ATOM    104  C   UNL A   1      55.338  25.172  27.639  1.00  0.00     0.059 A 
ATOM    105  C   UNL A   1      54.558  24.214  25.570  1.00  0.00     0.059 A 
ATOM    106  F   UNL A   1      52.443  24.654  24.803  1.00  0.00    -0.206 F 
ATOM    107  C   UNL A   1      55.515  24.302  26.562  1.00  0.00     0.060 A 
BRANCH 107 108
ATOM    108  S   UNL A   1      56.977  23.254  26.485  1.00  0.00     0.124 S 
ATOM    109  O   UNL A   1      57.280  23.243  25.057  1.00  0.00    -0.237 OA
ATOM    110  O   UNL A   1      57.905  24.004  27.324  1.00  0.00    -0.237 OA
ATOM    111  O   UNL A   1      56.516  21.984  27.034  1.00  0.00    -0.744 OA
ENDBRANCH 107 108
ENDBRANCH  75 100
ENDBRANCH  49  50
ENDBRANCH  42  44
ENDBRANCH  41  42
ENDBRANCH  40  41
ENDBRANCH  39  40
ENDBRANCH  38  39
ENDBRANCH  37  38
ENDBRANCH   1  37
TORSDOF 26
ENDMDL
MODEL 2
REMARK VINA RESULT:     -11.1      5.222      8.791
REMARK SMILES Cc1cc([N+](=O)[O-])ccc1-c1ccc(/C=C/C(=O)Nc2ccc(O)c(C(=O)OCCOCCOCCOC(=O)c3ccc(-c4c5nc(c(-c6c(F)cc(S(=O)(=O)[O-])cc6F)c6ccc([nH]6)c(-c6c(F)cc(S(=O)(=O)[O-])cc6F)c6nc(c(-c7c(F)cc(S(=O)(=O)[O-])cc7F)c7ccc4[nH]7)C=C6)C=C5)cc3)c2)o1
REMARK SMILES IDX 32 1 31 2 30 3 29 4 28 5 26 6 27 7 25 8 20 9 21 10 106 11
REMARK SMILES IDX 22 12 23 13 19 14 17 15 18 16 16 18 15 19 14 20 11 21 12 22
REMARK SMILES IDX 107 23 13 24 10 25 1 26 2 27 3 28 4 29 9 30 8 31 5 32 6 33
REMARK SMILES IDX 7 34 24 35 33 37 34 38 35 39 36 40 37 41 38 42 39 43 40 44
REMARK SMILES IDX 41 45 105 46 42 47 104 48 43 49 44 50 45 51 98 52 46 53
REMARK SMILES IDX 103 54 97 55 99 56 47 57 102 58 96 59 95 60 48 62 82 63
REMARK SMILES IDX 61 64 81 65 62 66 65 67 80 68 100 69 63 70 64 71 79 73
REMARK SMILES IDX 101 74 66 75 49 76 50 77 59 78 51 79 52 80 58 81 60 82 53 83
REMARK SMILES IDX 54 84 55 85 56 86 57 87 83 88 84 89 93 90 85 91 86 92 92 93
REMARK SMILES IDX 94 94 87 95 88 96 89 97 90 98 91 99 67 100 68 101 77 102
REMARK SMILES IDX 69 103 70 104 76 105 78 106 71 107 72 108 73 109 74 110
REMARK SMILES IDX 75 111
REMARK H PARENT 19 17 24 36 99 61 65 72
REMARK Flexibility Score: inf
ROOT
ATOM      1  C   UNL A   1      32.825  35.645  31.772  1.00  0.00     0.188 C 
ENDROOT
BRANCH   1   2
ATOM      2  O   UNL A   1      33.001  34.733  30.693  1.00  0.00    -0.376 OA
BRANCH   2   3
ATOM      3  C   UNL A   1      33.765  35.091  29.536  1.00  0.00     0.202 C 
BRANCH   3   4
ATOM      4  C   UNL A   1      35.120  34.350  29.227  1.00  0.00     0.261 C 
BRANCH   4   5
ATOM      5  O   UNL A   1      36.007  33.556  30.165  1.00  0.00    -0.460 OA
BRANCH   5   6
ATOM      6  C   UNL A   1      35.651  32.266  30.412  1.00  0.00     0.342 C 
ATOM      7  O   UNL A   1      35.453  32.018  31.610  1.00  0.00    -0.246 OA
BRANCH   6   8
ATOM      8  C   UNL A   1      35.555  31.116  29.225  1.00  0.00     0.103 A 
ATOM      9  C   UNL A   1      34.070  29.995  27.375  1.00  0.00     0.042 A 
ATOM     10  C   UNL A   1      35.168  29.397  26.837  1.00  0.00     0.030 A 
ATOM     11  C   UNL A   1      34.334  30.775  28.525  1.00  0.00     0.045 A 
ATOM     12  C   UNL A   1      36.424  29.656  27.454  1.00  0.00     0.049 A 
ATOM     13  C   UNL A   1      36.617  30.493  28.614  1.00  0.00     0.130 A 
BRANCH   9  14
ATOM     14  N   UNL A   1      32.740  29.989  26.830  1.00  0.00    -0.322 N 
ATOM     15  C   UNL A   1      32.211  29.525  25.641  1.00  0.00     0.248 C 
ATOM     16  O   UNL A   1      31.099  29.842  25.228  1.00  0.00    -0.270 OA
ATOM     17  H   UNL A   1      32.070  30.398  27.423  1.00  0.00     0.170 HD
BRANCH  15  18
ATOM     18  C   UNL A   1      32.963  28.453  24.980  1.00  0.00     0.075 C 
ATOM     19  C   UNL A   1      32.383  27.256  25.118  1.00  0.00     0.053 C 
BRANCH  19  20
ATOM     20  C   UNL A   1      33.190  26.108  25.128  1.00  0.00     0.127 A 
ATOM     21  C   UNL A   1      33.833  24.029  24.937  1.00  0.00     0.135 A 
ATOM     22  C   UNL A   1      34.925  24.700  25.426  1.00  0.00     0.051 A 
ATOM     23  O   UNL A   1      32.801  24.876  24.699  1.00  0.00    -0.457 OA
ATOM     24  C   UNL A   1      34.508  26.034  25.563  1.00  0.00     0.051 A 
BRANCH  21  25
ATOM     25  C   UNL A   1      33.537  22.638  24.718  1.00  0.00     0.021 A 
ATOM     26  C   UNL A   1      33.046  23.082  22.243  1.00  0.00     0.045 C 
ATOM     27  C   UNL A   1      33.142  22.178  23.447  1.00  0.00    -0.033 A 
ATOM     28  C   UNL A   1      32.818  20.822  23.295  1.00  0.00     0.089 A 
ATOM     29  C   UNL A   1      32.926  19.947  24.385  1.00  0.00     0.269 A 
ATOM     30  C   UNL A   1      33.667  21.750  25.796  1.00  0.00     0.019 A 
ATOM     31  C   UNL A   1      33.363  20.403  25.635  1.00  0.00     0.086 A 
BRANCH  29  32
ATOM     32  N   UNL A   1      32.572  18.534  24.220  1.00  0.00     0.062 N 
ATOM     33  O   UNL A   1      33.017  17.934  23.232  1.00  0.00    -0.258 OA
ATOM     34  O   UNL A   1      31.832  18.022  25.075  1.00  0.00    -0.258 OA
ENDBRANCH  29  32
ENDBRANCH  21  25
ENDBRANCH  19  20
ENDBRANCH  15  18
ENDBRANCH   9  14
BRANCH  13  35
ATOM     35  O   UNL A   1      37.899  30.659  29.042  1.00  0.00    -0.507 OA
ATOM     36  H   UNL A   1      38.224  31.519  29.223  1.00  0.00     0.293 HD
ENDBRANCH  13  35
ENDBRANCH   6   8
ENDBRANCH   5   6
ENDBRANCH   4   5
ENDBRANCH   3   4
ENDBRANCH   2   3
ENDBRANCH   1   2
BRANCH   1  37
ATOM     37  C   UNL A   1      33.619  35.628  33.047  1.00  0.00     0.188 C 
BRANCH  37  38
ATOM     38  O   UNL A   1      34.459  34.506  33.344  1.00  0.00    -0.376 OA
BRANCH  38  39
ATOM     39  C   UNL A   1      35.707  34.380  34.117  1.00  0.00     0.202 C 
BRANCH  39  40
ATOM     40  C   UNL A   1      37.550  34.603  33.899  1.00  0.00     0.261 C 
BRANCH  40  41
ATOM     41  O   UNL A   1      38.882  34.159  32.783  1.00  0.00    -0.460 OA
BRANCH  41  42
ATOM     42  C   UNL A   1      39.725  33.729  31.545  1.00  0.00     0.338 C 
ATOM     43  O   UNL A   1      39.151  32.890  30.830  1.00  0.00    -0.246 OA
BRANCH  42  44
ATOM     44  C   UNL A   1      41.495  33.918  31.126  1.00  0.00     0.060 A 
ATOM     45  C   UNL A   1      41.978  34.208  29.821  1.00  0.00     0.016 A 
ATOM     46  C   UNL A   1      42.547  33.264  31.707  1.00  0.00     0.016 A 
ATOM     47  C   UNL A   1      42.934  33.264  29.040  1.00  0.00     0.010 A 
ATOM     48  C   UNL A   1      43.306  32.255  30.960  1.00  0.00     0.010 A 
ATOM     49  C   UNL A   1      43.439  32.052  29.562  1.00  0.00    -0.014 A 
BRANCH  49  50
ATOM     50  C   UNL A   1      44.152  30.650  28.785  1.00  0.00     0.031 A 
ATOM     51  C   UNL A   1      43.908  29.035  28.956  1.00  0.00     0.074 A 
ATOM     52  C   UNL A   1      44.799  30.763  27.576  1.00  0.00     0.049 A 
ATOM     53  N   UNL A   1      43.817  28.241  27.916  1.00  0.00    -0.248 NA
ATOM     54  C   UNL A   1      43.629  28.183  30.139  1.00  0.00     0.031 C 
ATOM     55  C   UNL A   1      45.557  29.827  26.694  1.00  0.00     0.029 A 
ATOM     56  N   UNL A   1      45.185  31.901  26.943  1.00  0.00    -0.354 N 
ATOM     57  C   UNL A   1      43.443  26.943  28.215  1.00  0.00     0.074 A 
ATOM     58  C   UNL A   1      43.190  27.007  29.636  1.00  0.00     0.031 C 
ATOM     59  C   UNL A   1      46.650  30.460  26.202  1.00  0.00     0.029 A 
ATOM     60  C   UNL A   1      46.566  31.814  26.682  1.00  0.00     0.049 A 
ATOM     61  H   UNL A   1      44.600  32.657  26.707  1.00  0.00     0.167 HD
ATOM     62  C   UNL A   1      44.040  25.872  27.592  1.00  0.00     0.037 A 
ATOM     63  C   UNL A   1      47.276  32.541  27.582  1.00  0.00     0.037 A 
ATOM     64  C   UNL A   1      45.436  26.191  27.324  1.00  0.00     0.049 A 
ATOM     65  C   UNL A   1      47.761  31.418  28.650  1.00  0.00     0.074 A 
ATOM     66  C   UNL A   1      46.285  26.399  26.257  1.00  0.00     0.029 A 
ATOM     67  N   UNL A   1      46.152  26.586  28.437  1.00  0.00    -0.354 N 
ATOM     68  N   UNL A   1      47.403  30.144  28.562  1.00  0.00    -0.248 NA
ATOM     69  C   UNL A   1      48.762  31.515  29.721  1.00  0.00     0.031 C 
ATOM     70  C   UNL A   1      47.439  27.109  26.770  1.00  0.00     0.029 A 
ATOM     71  C   UNL A   1      47.283  27.303  28.139  1.00  0.00     0.049 A 
ATOM     72  H   UNL A   1      45.878  26.372  29.358  1.00  0.00     0.167 HD
ATOM     73  C   UNL A   1      48.114  29.292  29.352  1.00  0.00     0.074 A 
ATOM     74  C   UNL A   1      48.901  30.228  30.142  1.00  0.00     0.031 C 
ATOM     75  C   UNL A   1      48.036  27.913  29.251  1.00  0.00     0.037 A 
BRANCH  62  76
ATOM     76  C   UNL A   1      43.355  24.531  27.315  1.00  0.00     0.058 A 
ATOM     77  C   UNL A   1      42.085  24.458  26.694  1.00  0.00     0.135 A 
ATOM     78  C   UNL A   1      43.859  23.279  27.747  1.00  0.00     0.135 A 
ATOM     79  F   UNL A   1      41.469  25.568  26.261  1.00  0.00    -0.206 F 
ATOM     80  C   UNL A   1      41.376  23.256  26.513  1.00  0.00     0.059 A 
ATOM     81  C   UNL A   1      43.168  22.060  27.571  1.00  0.00     0.059 A 
ATOM     82  F   UNL A   1      45.043  23.205  28.377  1.00  0.00    -0.206 F 
ATOM     83  C   UNL A   1      41.919  22.057  26.959  1.00  0.00     0.060 A 
BRANCH  83  84
ATOM     84  S   UNL A   1      40.961  20.527  26.748  1.00  0.00     0.124 S 
ATOM     85  O   UNL A   1      39.762  21.005  26.065  1.00  0.00    -0.237 OA
ATOM     86  O   UNL A   1      41.859  19.704  25.941  1.00  0.00    -0.237 OA
ATOM     87  O   UNL A   1      40.753  20.059  28.115  1.00  0.00    -0.744 OA
ENDBRANCH  83  84
ENDBRANCH  62  76
BRANCH  63  88
ATOM     88  C   UNL A   1      46.405  33.904  27.562  1.00  0.00     0.058 A 
ATOM     89  C   UNL A   1      46.300  34.714  28.745  1.00  0.00     0.135 A 
ATOM     90  C   UNL A   1      46.396  34.794  26.555  1.00  0.00     0.135 A 
ATOM     91  F   UNL A   1      45.912  34.115  29.884  1.00  0.00    -0.206 F 
ATOM     92  C   UNL A   1      46.819  36.153  28.897  1.00  0.00     0.059 A 
ATOM     93  C   UNL A   1      46.678  36.240  26.790  1.00  0.00     0.059 A 
ATOM     94  F   UNL A   1      45.998  34.401  25.332  1.00  0.00    -0.206 F 
ATOM     95  C   UNL A   1      47.285  36.974  27.857  1.00  0.00     0.060 A 
BRANCH  95  96
ATOM     96  S   UNL A   1      48.133  39.097  27.813  1.00  0.00     0.124 S 
ATOM     97  O   UNL A   1      48.094  39.727  29.133  1.00  0.00    -0.237 OA
ATOM     98  O   UNL A   1      49.530  39.141  27.435  1.00  0.00    -0.237 OA
ATOM     99  O   UNL A   1      47.305  39.849  26.872  1.00  0.00    -0.744 OA
ENDBRANCH  95  96
ENDBRANCH  63  88
BRANCH  75 100
ATOM    100  C   UNL A   1      48.711  26.936  30.203  1.00  0.00     0.058 A 
ATOM    101  C   UNL A   1      49.676  26.020  29.777  1.00  0.00     0.135 A 
ATOM    102  C   UNL A   1      48.315  26.813  31.566  1.00  0.00     0.135 A 
ATOM    103  F   UNL A   1      50.046  25.969  28.489  1.00  0.00    -0.206 F 
ATOM    104  C   UNL A   1      50.280  25.118  30.657  1.00  0.00     0.059 A 
ATOM    105  C   UNL A   1      48.835  25.862  32.435  1.00  0.00     0.059 A 
ATOM    106  F   UNL A   1      47.440  27.655  32.134  1.00  0.00    -0.206 F 
ATOM    107  C   UNL A   1      49.860  25.054  31.986  1.00  0.00     0.060 A 
BRANCH 107 108
ATOM    108  S   UNL A   1      50.688  23.942  33.136  1.00  0.00     0.124 S 
ATOM    109  O   UNL A   1      50.129  24.348  34.422  1.00  0.00    -0.237 OA
ATOM    110  O   UNL A   1      50.252  22.644  32.635  1.00  0.00    -0.237 OA
ATOM    111  O   UNL A   1      52.102  24.248  32.948  1.00  0.00    -0.744 OA
ENDBRANCH 107 108
ENDBRANCH  75 100
ENDBRANCH  49  50
ENDBRANCH  42  44
ENDBRANCH  41  42
ENDBRANCH  40  41
ENDBRANCH  39  40
ENDBRANCH  38  39
ENDBRANCH  37  38
ENDBRANCH   1  37
TORSDOF 26
ENDMDL
MODEL 3
REMARK VINA RESULT:     -11.1      3.857      6.923
REMARK SMILES Cc1cc([N+](=O)[O-])ccc1-c1ccc(/C=C/C(=O)Nc2ccc(O)c(C(=O)OCCOCCOCCOC(=O)c3ccc(-c4c5nc(c(-c6c(F)cc(S(=O)(=O)[O-])cc6F)c6ccc([nH]6)c(-c6c(F)cc(S(=O)(=O)[O-])cc6F)c6nc(c(-c7c(F)cc(S(=O)(=O)[O-])cc7F)c7ccc4[nH]7)C=C6)C=C5)cc3)c2)o1
REMARK SMILES IDX 32 1 31 2 30 3 29 4 28 5 26 6 27 7 25 8 20 9 21 10 106 11
REMARK SMILES IDX 22 12 23 13 19 14 17 15 18 16 16 18 15 19 14 20 11 21 12 22
REMARK SMILES IDX 107 23 13 24 10 25 1 26 2 27 3 28 4 29 9 30 8 31 5 32 6 33
REMARK SMILES IDX 7 34 24 35 33 37 34 38 35 39 36 40 37 41 38 42 39 43 40 44
REMARK SMILES IDX 41 45 105 46 42 47 104 48 43 49 44 50 45 51 98 52 46 53
REMARK SMILES IDX 103 54 97 55 99 56 47 57 102 58 96 59 95 60 48 62 82 63
REMARK SMILES IDX 61 64 81 65 62 66 65 67 80 68 100 69 63 70 64 71 79 73
REMARK SMILES IDX 101 74 66 75 49 76 50 77 59 78 51 79 52 80 58 81 60 82 53 83
REMARK SMILES IDX 54 84 55 85 56 86 57 87 83 88 84 89 93 90 85 91 86 92 92 93
REMARK SMILES IDX 94 94 87 95 88 96 89 97 90 98 91 99 67 100 68 101 77 102
REMARK SMILES IDX 69 103 70 104 76 105 78 106 71 107 72 108 73 109 74 110
REMARK SMILES IDX 75 111
REMARK H PARENT 19 17 24 36 99 61 65 72
REMARK Flexibility Score: inf
ROOT
ATOM      1  C   UNL A   1      34.489  33.488  28.856  1.00  0.00     0.188 C 
ENDROOT
BRANCH   1   2
ATOM      2  O   UNL A   1      34.057  32.171  28.528  1.00  0.00    -0.376 OA
BRANCH   2   3
ATOM      3  C   UNL A   1      34.940  31.235  27.902  1.00  0.00     0.202 C 
BRANCH   3   4
ATOM      4  C   UNL A   1      34.362  29.926  27.244  1.00  0.00     0.261 C 
BRANCH   4   5
ATOM      5  O   UNL A   1      32.967  29.342  27.350  1.00  0.00    -0.460 OA
BRANCH   5   6
ATOM      6  C   UNL A   1      32.101  29.615  26.337  1.00  0.00     0.342 C 
ATOM      7  O   UNL A   1      31.899  30.825  26.158  1.00  0.00    -0.246 OA
BRANCH   6   8
ATOM      8  C   UNL A   1      31.337  28.435  25.463  1.00  0.00     0.103 A 
ATOM      9  C   UNL A   1      30.159  26.090  25.507  1.00  0.00     0.042 A 
ATOM     10  C   UNL A   1      29.654  26.305  24.262  1.00  0.00     0.030 A 
ATOM     11  C   UNL A   1      30.971  27.140  25.998  1.00  0.00     0.045 A 
ATOM     12  C   UNL A   1      29.960  27.546  23.635  1.00  0.00     0.049 A 
ATOM     13  C   UNL A   1      30.776  28.586  24.216  1.00  0.00     0.130 A 
BRANCH   9  14
ATOM     14  N   UNL A   1      29.859  24.982  26.372  1.00  0.00    -0.322 N 
ATOM     15  C   UNL A   1      30.538  23.820  26.684  1.00  0.00     0.248 C 
ATOM     16  O   UNL A   1      30.010  22.860  27.238  1.00  0.00    -0.270 OA
ATOM     17  H   UNL A   1      28.994  25.067  26.834  1.00  0.00     0.170 HD
BRANCH  15  18
ATOM     18  C   UNL A   1      31.994  23.863  26.513  1.00  0.00     0.075 C 
ATOM     19  C   UNL A   1      32.365  23.797  25.230  1.00  0.00     0.053 C 
BRANCH  19  20
ATOM     20  C   UNL A   1      33.601  23.217  24.911  1.00  0.00     0.127 A 
ATOM     21  C   UNL A   1      35.713  22.666  25.003  1.00  0.00     0.135 A 
ATOM     22  C   UNL A   1      35.247  22.113  23.837  1.00  0.00     0.051 A 
ATOM     23  O   UNL A   1      34.719  23.284  25.686  1.00  0.00    -0.457 OA
ATOM     24  C   UNL A   1      33.893  22.479  23.770  1.00  0.00     0.051 A 
BRANCH  21  25
ATOM     25  C   UNL A   1      37.022  22.801  25.585  1.00  0.00     0.021 A 
ATOM     26  C   UNL A   1      37.623  20.404  24.906  1.00  0.00     0.045 C 
ATOM     27  C   UNL A   1      37.932  21.726  25.564  1.00  0.00    -0.033 A 
ATOM     28  C   UNL A   1      39.178  21.889  26.187  1.00  0.00     0.089 A 
ATOM     29  C   UNL A   1      39.512  23.115  26.781  1.00  0.00     0.269 A 
ATOM     30  C   UNL A   1      37.375  24.031  26.158  1.00  0.00     0.019 A 
ATOM     31  C   UNL A   1      38.619  24.194  26.758  1.00  0.00     0.086 A 
BRANCH  29  32
ATOM     32  N   UNL A   1      40.811  23.272  27.441  1.00  0.00     0.062 N 
ATOM     33  O   UNL A   1      41.359  24.382  27.392  1.00  0.00    -0.258 OA
ATOM     34  O   UNL A   1      41.297  22.277  28.002  1.00  0.00    -0.258 OA
ENDBRANCH  29  32
ENDBRANCH  21  25
ENDBRANCH  19  20
ENDBRANCH  15  18
ENDBRANCH   9  14
BRANCH  13  35
ATOM     35  O   UNL A   1      30.926  29.725  23.487  1.00  0.00    -0.507 OA
ATOM     36  H   UNL A   1      31.176  29.674  22.585  1.00  0.00     0.293 HD
ENDBRANCH  13  35
ENDBRANCH   6   8
ENDBRANCH   5   6
ENDBRANCH   4   5
ENDBRANCH   3   4
ENDBRANCH   2   3
ENDBRANCH   1   2
BRANCH   1  37
ATOM     37  C   UNL A   1      35.923  33.931  28.910  1.00  0.00     0.188 C 
BRANCH  37  38
ATOM     38  O   UNL A   1      36.636  33.873  30.152  1.00  0.00    -0.376 OA
BRANCH  38  39
ATOM     39  C   UNL A   1      38.031  34.184  30.507  1.00  0.00     0.202 C 
BRANCH  39  40
ATOM     40  C   UNL A   1      39.770  33.729  29.995  1.00  0.00     0.261 C 
BRANCH  40  41
ATOM     41  O   UNL A   1      41.315  34.488  29.491  1.00  0.00    -0.460 OA
BRANCH  41  42
ATOM     42  C   UNL A   1      42.521  35.043  28.676  1.00  0.00     0.338 C 
ATOM     43  O   UNL A   1      42.219  35.368  27.514  1.00  0.00    -0.246 OA
BRANCH  42  44
ATOM     44  C   UNL A   1      44.330  34.981  28.941  1.00  0.00     0.060 A 
ATOM     45  C   UNL A   1      45.263  34.538  27.964  1.00  0.00     0.016 A 
ATOM     46  C   UNL A   1      44.975  34.731  30.120  1.00  0.00     0.016 A 
ATOM     47  C   UNL A   1      46.207  33.324  28.181  1.00  0.00     0.010 A 
ATOM     48  C   UNL A   1      45.713  33.479  30.319  1.00  0.00     0.010 A 
ATOM     49  C   UNL A   1      46.253  32.569  29.374  1.00  0.00    -0.014 A 
BRANCH  49  50
ATOM     50  C   UNL A   1      46.879  30.967  29.724  1.00  0.00     0.031 A 
ATOM     51  C   UNL A   1      47.900  29.967  28.914  1.00  0.00     0.074 A 
ATOM     52  C   UNL A   1      46.870  30.468  31.006  1.00  0.00     0.049 A 
ATOM     53  N   UNL A   1      48.856  29.317  29.532  1.00  0.00    -0.248 NA
ATOM     54  C   UNL A   1      48.081  29.675  27.470  1.00  0.00     0.031 C 
ATOM     55  C   UNL A   1      47.243  29.166  31.632  1.00  0.00     0.029 A 
ATOM     56  N   UNL A   1      46.218  30.966  32.088  1.00  0.00    -0.354 N 
ATOM     57  C   UNL A   1      49.733  28.652  28.694  1.00  0.00     0.074 A 
ATOM     58  C   UNL A   1      49.274  29.044  27.382  1.00  0.00     0.031 C 
ATOM     59  C   UNL A   1      46.321  28.838  32.570  1.00  0.00     0.029 A 
ATOM     60  C   UNL A   1      45.404  29.947  32.620  1.00  0.00     0.049 A 
ATOM     61  H   UNL A   1      46.298  31.882  32.439  1.00  0.00     0.167 HD
ATOM     62  C   UNL A   1      50.187  27.390  29.000  1.00  0.00     0.037 A 
ATOM     63  C   UNL A   1      44.110  30.117  32.251  1.00  0.00     0.037 A 
ATOM     64  C   UNL A   1      49.135  26.657  29.692  1.00  0.00     0.049 A 
ATOM     65  C   UNL A   1      43.956  29.102  30.993  1.00  0.00     0.074 A 
ATOM     66  C   UNL A   1      48.870  26.110  30.931  1.00  0.00     0.029 A 
ATOM     67  N   UNL A   1      47.935  26.607  29.012  1.00  0.00    -0.354 N 
ATOM     68  N   UNL A   1      44.972  28.396  30.515  1.00  0.00    -0.248 NA
ATOM     69  C   UNL A   1      42.743  28.637  30.308  1.00  0.00     0.031 C 
ATOM     70  C   UNL A   1      47.436  25.924  31.010  1.00  0.00     0.029 A 
ATOM     71  C   UNL A   1      46.856  26.340  29.816  1.00  0.00     0.049 A 
ATOM     72  H   UNL A   1      47.860  26.748  28.040  1.00  0.00     0.167 HD
ATOM     73  C   UNL A   1      44.623  27.393  29.661  1.00  0.00     0.074 A 
ATOM     74  C   UNL A   1      43.201  27.652  29.487  1.00  0.00     0.031 C 
ATOM     75  C   UNL A   1      45.507  26.422  29.223  1.00  0.00     0.037 A 
BRANCH  62  76
ATOM     76  C   UNL A   1      51.551  26.830  28.588  1.00  0.00     0.058 A 
ATOM     77  C   UNL A   1      52.705  27.020  29.385  1.00  0.00     0.135 A 
ATOM     78  C   UNL A   1      51.803  26.189  27.350  1.00  0.00     0.135 A 
ATOM     79  F   UNL A   1      52.624  27.641  30.571  1.00  0.00    -0.206 F 
ATOM     80  C   UNL A   1      53.995  26.611  28.996  1.00  0.00     0.059 A 
ATOM     81  C   UNL A   1      53.087  25.765  26.941  1.00  0.00     0.059 A 
ATOM     82  F   UNL A   1      50.802  25.969  26.483  1.00  0.00    -0.206 F 
ATOM     83  C   UNL A   1      54.183  25.988  27.768  1.00  0.00     0.060 A 
BRANCH  83  84
ATOM     84  S   UNL A   1      55.866  25.508  27.276  1.00  0.00     0.124 S 
ATOM     85  O   UNL A   1      56.512  26.804  27.084  1.00  0.00    -0.237 OA
ATOM     86  O   UNL A   1      56.324  24.742  28.432  1.00  0.00    -0.237 OA
ATOM     87  O   UNL A   1      55.661  24.730  26.058  1.00  0.00    -0.744 OA
ENDBRANCH  83  84
ENDBRANCH  62  76
BRANCH  63  88
ATOM     88  C   UNL A   1      43.954  31.696  32.565  1.00  0.00     0.058 A 
ATOM     89  C   UNL A   1      42.896  32.455  31.956  1.00  0.00     0.135 A 
ATOM     90  C   UNL A   1      44.100  32.255  33.778  1.00  0.00     0.135 A 
ATOM     91  F   UNL A   1      42.767  32.390  30.619  1.00  0.00    -0.206 F 
ATOM     92  C   UNL A   1      41.744  33.148  32.700  1.00  0.00     0.059 A 
ATOM     93  C   UNL A   1      43.039  33.124  34.369  1.00  0.00     0.059 A 
ATOM     94  F   UNL A   1      45.275  32.139  34.421  1.00  0.00    -0.206 F 
ATOM     95  C   UNL A   1      41.652  33.328  34.090  1.00  0.00     0.060 A 
BRANCH  95  96
ATOM     96  S   UNL A   1      40.059  34.269  35.434  1.00  0.00     0.124 S 
ATOM     97  O   UNL A   1      40.638  34.829  36.656  1.00  0.00    -0.237 OA
ATOM     98  O   UNL A   1      39.381  35.387  34.812  1.00  0.00    -0.237 OA
ATOM     99  O   UNL A   1      39.121  33.198  35.767  1.00  0.00    -0.744 OA
ENDBRANCH  95  96
ENDBRANCH  63  88
BRANCH  75 100
ATOM    100  C   UNL A   1      45.186  25.372  28.169  1.00  0.00     0.058 A 
ATOM    101  C   UNL A   1      45.023  25.691  26.819  1.00  0.00     0.135 A 
ATOM    102  C   UNL A   1      44.914  24.015  28.511  1.00  0.00     0.135 A 
ATOM    103  F   UNL A   1      45.145  26.958  26.398  1.00  0.00    -0.206 F 
ATOM    104  C   UNL A   1      44.715  24.721  25.860  1.00  0.00     0.059 A 
ATOM    105  C   UNL A   1      44.517  23.055  27.590  1.00  0.00     0.059 A 
ATOM    106  F   UNL A   1      45.081  23.546  29.756  1.00  0.00    -0.206 F 
ATOM    107  C   UNL A   1      44.475  23.405  26.254  1.00  0.00     0.060 A 
BRANCH 107 108
ATOM    108  S   UNL A   1      44.150  22.142  25.013  1.00  0.00     0.124 S 
ATOM    109  O   UNL A   1      43.388  22.877  24.008  1.00  0.00    -0.237 OA
ATOM    110  O   UNL A   1      45.507  21.766  24.631  1.00  0.00    -0.237 OA
ATOM    111  O   UNL A   1      43.398  21.128  25.745  1.00  0.00    -0.744 OA
ENDBRANCH 107 108
ENDBRANCH  75 100
ENDBRANCH  49  50
ENDBRANCH  42  44
ENDBRANCH  41  42
ENDBRANCH  40  41
ENDBRANCH  39  40
ENDBRANCH  38  39
ENDBRANCH  37  38
ENDBRANCH   1  37
TORSDOF 26
ENDMDL
