MODEL 1
REMARK VINA RESULT:     -10.9      0.000      0.000
REMARK SMILES Cc1ccc(O[C@H](C)C(=O)NNC(=O)[C@@H]2[C@@H](C(=O)OCCOCCOCCOC(=O)c3ccc(-c4c5nc(c(-c6c(F)cc(S(=O)(=O)[O-])cc6F)c6ccc([nH]6)c(-c6c(F)cc(S(=O)(=O)[O-])cc6F)c6nc(c(-c7c(F)cc(S(=O)(=O)[O-])cc7F)c7ccc4[nH]7)C=C6)C=C5)cc3)[C@@H]3C=C[C@H]2C3)cc1C
REMARK SMILES IDX 23 1 22 2 21 3 20 4 19 5 17 6 18 7 16 8 15 9 100 10 97 11
REMARK SMILES IDX 99 12 101 13 98 14 13 15 12 16 14 18 11 19 9 20 10 21 7 23
REMARK SMILES IDX 8 24 6 25 5 26 1 27 2 28 3 29 103 30 4 31 102 32 104 33
REMARK SMILES IDX 24 34 25 35 26 36 27 37 28 38 29 39 30 40 31 41 32 42 96 43
REMARK SMILES IDX 33 44 95 45 34 46 35 47 36 48 89 49 37 50 94 51 88 52 90 53
REMARK SMILES IDX 38 54 93 55 87 56 86 57 39 59 73 60 52 61 72 62 53 63 56 64
REMARK SMILES IDX 71 65 91 66 54 67 55 68 70 70 92 71 57 72 40 73 41 74 50 75
REMARK SMILES IDX 42 76 43 77 49 78 51 79 44 80 45 81 46 82 47 83 48 84 74 85
REMARK SMILES IDX 75 86 84 87 76 88 77 89 83 90 85 91 78 92 79 93 80 94 81 95
REMARK SMILES IDX 82 96 58 97 59 98 68 99 60 100 61 101 67 102 69 103 62 104
REMARK SMILES IDX 63 105 64 106 65 107 66 108
REMARK H PARENT 12 17 11 22 90 58 56 69
REMARK Flexibility Score: inf
ROOT
ATOM      1  C   UNL A   1      38.420  21.815  25.716  1.00  0.00     0.188 C 
ENDROOT
BRANCH   1   2
ATOM      2  O   UNL A   1      37.703  21.309  24.601  1.00  0.00    -0.376 OA
BRANCH   2   3
ATOM      3  C   UNL A   1      37.050  20.056  24.796  1.00  0.00     0.202 C 
BRANCH   3   4
ATOM      4  C   UNL A   1      35.622  20.092  25.371  1.00  0.00     0.261 C 
BRANCH   4   5
ATOM      5  O   UNL A   1      34.546  20.177  24.399  1.00  0.00    -0.463 OA
BRANCH   5   6
ATOM      6  C   UNL A   1      33.378  20.694  24.872  1.00  0.00     0.310 C 
ATOM      7  O   UNL A   1      32.446  20.007  25.284  1.00  0.00    -0.252 OA
BRANCH   6   8
ATOM      8  C   UNL A   1      33.265  22.208  24.833  1.00  0.00     0.119 C 
ATOM      9  C   UNL A   1      32.416  22.920  23.708  1.00  0.00     0.102 C 
ATOM     10  C   UNL A   1      33.455  23.899  23.098  1.00  0.00     0.025 C 
ATOM     11  C   UNL A   1      34.681  22.819  24.617  1.00  0.00     0.027 C 
ATOM     12  C   UNL A   1      33.891  24.919  24.124  1.00  0.00    -0.027 C 
ATOM     13  C   UNL A   1      34.717  23.038  23.105  1.00  0.00     0.017 C 
ATOM     14  C   UNL A   1      34.621  24.268  25.041  1.00  0.00    -0.027 C 
BRANCH   9  15
ATOM     15  C   UNL A   1      31.137  23.489  24.339  1.00  0.00     0.242 C 
ATOM     16  N   UNL A   1      30.344  24.431  23.742  1.00  0.00    -0.267 N 
ATOM     17  H   UNL A   1      29.490  24.634  24.188  1.00  0.00     0.191 HD
ATOM     18  O   UNL A   1      30.724  23.025  25.410  1.00  0.00    -0.273 OA
BRANCH  16  19
ATOM     19  N   UNL A   1      30.613  25.130  22.579  1.00  0.00    -0.264 N 
ATOM     20  C   UNL A   1      30.817  26.489  22.516  1.00  0.00     0.279 C 
ATOM     21  O   UNL A   1      31.273  26.973  21.478  1.00  0.00    -0.269 OA
ATOM     22  H   UNL A   1      30.661  24.619  21.738  1.00  0.00     0.191 HD
BRANCH  20  23
ATOM     23  C   UNL A   1      30.339  27.395  23.667  1.00  0.00     0.260 C 
ATOM     24  C   UNL A   1      28.807  27.466  23.594  1.00  0.00     0.064 C 
BRANCH  23  25
ATOM     25  O   UNL A   1      30.795  26.934  24.939  1.00  0.00    -0.481 OA
BRANCH  25  26
ATOM     26  C   UNL A   1      31.659  27.729  25.651  1.00  0.00     0.120 A 
ATOM     27  C   UNL A   1      34.313  30.578  27.550  1.00  0.00     0.044 C 
ATOM     28  C   UNL A   1      33.349  29.614  26.915  1.00  0.00    -0.048 A 
ATOM     29  C   UNL A   1      33.688  28.255  26.863  1.00  0.00     0.007 A 
ATOM     30  C   UNL A   1      32.121  30.027  26.369  1.00  0.00    -0.045 A 
ATOM     31  C   UNL A   1      32.847  27.321  26.253  1.00  0.00     0.047 A 
ATOM     32  C   UNL A   1      31.293  29.074  25.739  1.00  0.00     0.050 A 
ATOM     33  C   UNL A   1      31.635  31.450  26.428  1.00  0.00     0.045 C 
ENDBRANCH  25  26
ENDBRANCH  23  25
ENDBRANCH  20  23
ENDBRANCH  16  19
ENDBRANCH   9  15
ENDBRANCH   6   8
ENDBRANCH   5   6
ENDBRANCH   4   5
ENDBRANCH   3   4
ENDBRANCH   2   3
ENDBRANCH   1   2
BRANCH   1  34
ATOM     34  C   UNL A   1      39.631  20.988  26.156  1.00  0.00     0.188 C 
BRANCH  34  35
ATOM     35  O   UNL A   1      40.265  21.437  27.345  1.00  0.00    -0.376 OA
BRANCH  35  36
ATOM     36  C   UNL A   1      41.661  21.732  27.269  1.00  0.00     0.202 C 
BRANCH  36  37
ATOM     37  C   UNL A   1      42.075  23.079  26.642  1.00  0.00     0.261 C 
BRANCH  37  38
ATOM     38  O   UNL A   1      41.034  24.072  26.522  1.00  0.00    -0.460 OA
BRANCH  38  39
ATOM     39  C   UNL A   1      41.381  25.326  26.152  1.00  0.00     0.338 C 
ATOM     40  O   UNL A   1      41.478  25.743  25.009  1.00  0.00    -0.246 OA
BRANCH  39  41
ATOM     41  C   UNL A   1      41.349  26.198  27.359  1.00  0.00     0.060 A 
ATOM     42  C   UNL A   1      40.316  26.001  28.289  1.00  0.00     0.016 A 
ATOM     43  C   UNL A   1      42.345  27.143  27.621  1.00  0.00     0.016 A 
ATOM     44  C   UNL A   1      40.251  26.773  29.452  1.00  0.00     0.010 A 
ATOM     45  C   UNL A   1      42.272  27.927  28.780  1.00  0.00     0.010 A 
ATOM     46  C   UNL A   1      41.205  27.772  29.684  1.00  0.00    -0.014 A 
BRANCH  46  47
ATOM     47  C   UNL A   1      40.966  28.800  30.731  1.00  0.00     0.031 A 
ATOM     48  C   UNL A   1      41.823  28.752  31.970  1.00  0.00     0.074 A 
ATOM     49  C   UNL A   1      40.042  29.769  30.594  1.00  0.00     0.049 A 
ATOM     50  N   UNL A   1      41.754  29.470  33.060  1.00  0.00    -0.248 NA
ATOM     51  C   UNL A   1      42.906  27.754  31.973  1.00  0.00     0.031 C 
ATOM     52  C   UNL A   1      39.192  29.975  29.423  1.00  0.00     0.029 A 
ATOM     53  N   UNL A   1      39.660  30.763  31.464  1.00  0.00    -0.354 N 
ATOM     54  C   UNL A   1      42.770  29.000  33.884  1.00  0.00     0.074 A 
ATOM     55  C   UNL A   1      43.426  27.922  33.178  1.00  0.00     0.031 C 
ATOM     56  C   UNL A   1      38.379  31.023  29.653  1.00  0.00     0.029 A 
ATOM     57  C   UNL A   1      38.620  31.536  31.003  1.00  0.00     0.049 A 
ATOM     58  H   UNL A   1      40.092  30.909  32.337  1.00  0.00     0.167 HD
ATOM     59  C   UNL A   1      43.130  29.431  35.116  1.00  0.00     0.037 A 
ATOM     60  C   UNL A   1      37.925  32.521  31.610  1.00  0.00     0.037 A 
ATOM     61  C   UNL A   1      42.480  30.505  35.818  1.00  0.00     0.049 A 
ATOM     62  C   UNL A   1      38.287  32.929  33.019  1.00  0.00     0.074 A 
ATOM     63  C   UNL A   1      42.770  31.010  37.074  1.00  0.00     0.029 A 
ATOM     64  N   UNL A   1      41.410  31.239  35.329  1.00  0.00    -0.354 N 
ATOM     65  N   UNL A   1      39.243  32.471  33.793  1.00  0.00    -0.248 NA
ATOM     66  C   UNL A   1      37.473  33.985  33.640  1.00  0.00     0.031 C 
ATOM     67  C   UNL A   1      41.842  32.014  37.365  1.00  0.00     0.029 A 
ATOM     68  C   UNL A   1      41.013  32.177  36.266  1.00  0.00     0.049 A 
ATOM     69  H   UNL A   1      40.994  31.111  34.445  1.00  0.00     0.167 HD
ATOM     70  C   UNL A   1      39.166  33.207  34.974  1.00  0.00     0.074 A 
ATOM     71  C   UNL A   1      38.073  34.141  34.813  1.00  0.00     0.031 C 
ATOM     72  C   UNL A   1      39.935  33.119  36.087  1.00  0.00     0.037 A 
BRANCH  59  73
ATOM     73  C   UNL A   1      44.257  28.707  35.800  1.00  0.00     0.058 A 
ATOM     74  C   UNL A   1      44.054  27.503  36.493  1.00  0.00     0.135 A 
ATOM     75  C   UNL A   1      45.562  29.221  35.745  1.00  0.00     0.135 A 
ATOM     76  F   UNL A   1      42.822  26.981  36.595  1.00  0.00    -0.206 F 
ATOM     77  C   UNL A   1      45.102  26.850  37.134  1.00  0.00     0.059 A 
ATOM     78  C   UNL A   1      46.631  28.568  36.354  1.00  0.00     0.059 A 
ATOM     79  F   UNL A   1      45.811  30.372  35.100  1.00  0.00    -0.206 F 
ATOM     80  C   UNL A   1      46.387  27.391  37.059  1.00  0.00     0.060 A 
BRANCH  80  81
ATOM     81  S   UNL A   1      47.734  26.534  37.900  1.00  0.00     0.124 S 
ATOM     82  O   UNL A   1      48.137  25.564  36.886  1.00  0.00    -0.237 OA
ATOM     83  O   UNL A   1      48.681  27.614  38.155  1.00  0.00    -0.237 OA
ATOM     84  O   UNL A   1      47.093  25.971  39.084  1.00  0.00    -0.744 OA
ENDBRANCH  80  81
ENDBRANCH  59  73
BRANCH  60  85
ATOM     85  C   UNL A   1      36.788  33.181  30.906  1.00  0.00     0.058 A 
ATOM     86  C   UNL A   1      37.005  34.200  29.966  1.00  0.00     0.135 A 
ATOM     87  C   UNL A   1      35.459  32.822  31.181  1.00  0.00     0.135 A 
ATOM     88  F   UNL A   1      38.255  34.594  29.682  1.00  0.00    -0.206 F 
ATOM     89  C   UNL A   1      35.947  34.848  29.334  1.00  0.00     0.059 A 
ATOM     90  C   UNL A   1      34.385  33.436  30.541  1.00  0.00     0.059 A 
ATOM     91  F   UNL A   1      35.193  31.854  32.071  1.00  0.00    -0.206 F 
ATOM     92  C   UNL A   1      34.640  34.457  29.627  1.00  0.00     0.060 A 
BRANCH  92  93
ATOM     93  S   UNL A   1      33.277  35.277  28.770  1.00  0.00     0.124 S 
ATOM     94  O   UNL A   1      33.990  36.176  27.873  1.00  0.00    -0.237 OA
ATOM     95  O   UNL A   1      32.593  34.153  28.139  1.00  0.00    -0.237 OA
ATOM     96  O   UNL A   1      32.539  35.921  29.854  1.00  0.00    -0.744 OA
ENDBRANCH  92  93
ENDBRANCH  60  85
BRANCH  72  97
ATOM     97  C   UNL A   1      39.671  34.089  37.208  1.00  0.00     0.058 A 
ATOM     98  C   UNL A   1      38.949  33.724  38.354  1.00  0.00     0.135 A 
ATOM     99  C   UNL A   1      40.223  35.381  37.168  1.00  0.00     0.135 A 
ATOM    100  F   UNL A   1      38.398  32.503  38.445  1.00  0.00    -0.206 F 
ATOM    101  C   UNL A   1      38.769  34.609  39.414  1.00  0.00     0.059 A 
ATOM    102  C   UNL A   1      40.080  36.273  38.226  1.00  0.00     0.059 A 
ATOM    103  F   UNL A   1      40.935  35.779  36.100  1.00  0.00    -0.206 F 
ATOM    104  C   UNL A   1      39.345  35.881  39.343  1.00  0.00     0.060 A 
BRANCH 104 105
ATOM    105  S   UNL A   1      39.147  37.001  40.746  1.00  0.00     0.124 S 
ATOM    106  O   UNL A   1      40.534  37.345  41.046  1.00  0.00    -0.237 OA
ATOM    107  O   UNL A   1      38.335  38.072  40.179  1.00  0.00    -0.237 OA
ATOM    108  O   UNL A   1      38.476  36.176  41.747  1.00  0.00    -0.744 OA
ENDBRANCH 104 105
ENDBRANCH  72  97
ENDBRANCH  46  47
ENDBRANCH  39  41
ENDBRANCH  38  39
ENDBRANCH  37  38
ENDBRANCH  36  37
ENDBRANCH  35  36
ENDBRANCH  34  35
ENDBRANCH   1  34
TORSDOF 25
ENDMDL
MODEL 2
REMARK VINA RESULT:     -10.8      1.310      2.226
REMARK SMILES Cc1ccc(O[C@H](C)C(=O)NNC(=O)[C@@H]2[C@@H](C(=O)OCCOCCOCCOC(=O)c3ccc(-c4c5nc(c(-c6c(F)cc(S(=O)(=O)[O-])cc6F)c6ccc([nH]6)c(-c6c(F)cc(S(=O)(=O)[O-])cc6F)c6nc(c(-c7c(F)cc(S(=O)(=O)[O-])cc7F)c7ccc4[nH]7)C=C6)C=C5)cc3)[C@@H]3C=C[C@H]2C3)cc1C
REMARK SMILES IDX 23 1 22 2 21 3 20 4 19 5 17 6 18 7 16 8 15 9 100 10 97 11
REMARK SMILES IDX 99 12 101 13 98 14 13 15 12 16 14 18 11 19 9 20 10 21 7 23
REMARK SMILES IDX 8 24 6 25 5 26 1 27 2 28 3 29 103 30 4 31 102 32 104 33
REMARK SMILES IDX 24 34 25 35 26 36 27 37 28 38 29 39 30 40 31 41 32 42 96 43
REMARK SMILES IDX 33 44 95 45 34 46 35 47 36 48 89 49 37 50 94 51 88 52 90 53
REMARK SMILES IDX 38 54 93 55 87 56 86 57 39 59 73 60 52 61 72 62 53 63 56 64
REMARK SMILES IDX 71 65 91 66 54 67 55 68 70 70 92 71 57 72 40 73 41 74 50 75
REMARK SMILES IDX 42 76 43 77 49 78 51 79 44 80 45 81 46 82 47 83 48 84 74 85
REMARK SMILES IDX 75 86 84 87 76 88 77 89 83 90 85 91 78 92 79 93 80 94 81 95
REMARK SMILES IDX 82 96 58 97 59 98 68 99 60 100 61 101 67 102 69 103 62 104
REMARK SMILES IDX 63 105 64 106 65 107 66 108
REMARK H PARENT 12 17 11 22 90 58 56 69
REMARK Flexibility Score: inf
ROOT
ATOM      1  C   UNL A   1      38.219  22.143  25.746  1.00  0.00     0.188 C 
ENDROOT
BRANCH   1   2
ATOM      2  O   UNL A   1      37.362  21.704  24.703  1.00  0.00    -0.376 OA
BRANCH   2   3
ATOM      3  C   UNL A   1      36.525  20.590  25.011  1.00  0.00     0.202 C 
BRANCH   3   4
ATOM      4  C   UNL A   1      35.078  20.899  25.440  1.00  0.00     0.261 C 
BRANCH   4   5
ATOM      5  O   UNL A   1      34.072  20.808  24.396  1.00  0.00    -0.463 OA
BRANCH   5   6
ATOM      6  C   UNL A   1      32.782  20.818  24.833  1.00  0.00     0.310 C 
ATOM      7  O   UNL A   1      32.128  19.801  25.052  1.00  0.00    -0.252 OA
BRANCH   6   8
ATOM      8  C   UNL A   1      32.158  22.192  25.010  1.00  0.00     0.119 C 
ATOM      9  C   UNL A   1      33.066  23.481  25.091  1.00  0.00     0.102 C 
ATOM     10  C   UNL A   1      32.604  24.109  26.434  1.00  0.00     0.025 C 
ATOM     11  C   UNL A   1      31.398  22.235  26.368  1.00  0.00     0.027 C 
ATOM     12  C   UNL A   1      31.152  24.518  26.358  1.00  0.00    -0.027 C 
ATOM     13  C   UNL A   1      32.429  22.864  27.303  1.00  0.00     0.017 C 
ATOM     14  C   UNL A   1      30.427  23.392  26.311  1.00  0.00    -0.027 C 
BRANCH   9  15
ATOM     15  C   UNL A   1      32.899  24.286  23.795  1.00  0.00     0.242 C 
ATOM     16  N   UNL A   1      33.409  25.542  23.605  1.00  0.00    -0.267 N 
ATOM     17  H   UNL A   1      33.339  25.912  22.696  1.00  0.00     0.191 HD
ATOM     18  O   UNL A   1      32.354  23.762  22.815  1.00  0.00    -0.273 OA
BRANCH  16  19
ATOM     19  N   UNL A   1      34.011  26.349  24.554  1.00  0.00    -0.264 N 
ATOM     20  C   UNL A   1      33.750  27.690  24.715  1.00  0.00     0.279 C 
ATOM     21  O   UNL A   1      34.163  28.257  25.729  1.00  0.00    -0.269 OA
ATOM     22  H   UNL A   1      34.673  25.934  25.154  1.00  0.00     0.191 HD
BRANCH  20  23
ATOM     23  C   UNL A   1      33.085  28.489  23.578  1.00  0.00     0.260 C 
ATOM     24  C   UNL A   1      34.099  28.586  22.428  1.00  0.00     0.064 C 
BRANCH  23  25
ATOM     25  O   UNL A   1      31.852  27.905  23.159  1.00  0.00    -0.481 OA
BRANCH  25  26
ATOM     26  C   UNL A   1      30.726  28.689  23.149  1.00  0.00     0.120 A 
ATOM     27  C   UNL A   1      27.263  31.254  23.599  1.00  0.00     0.044 C 
ATOM     28  C   UNL A   1      28.496  30.408  23.435  1.00  0.00    -0.048 A 
ATOM     29  C   UNL A   1      28.413  29.231  22.680  1.00  0.00     0.007 A 
ATOM     30  C   UNL A   1      29.730  30.756  24.015  1.00  0.00    -0.045 A 
ATOM     31  C   UNL A   1      29.518  28.389  22.525  1.00  0.00     0.047 A 
ATOM     32  C   UNL A   1      30.829  29.885  23.866  1.00  0.00     0.050 A 
ATOM     33  C   UNL A   1      29.941  32.027  24.790  1.00  0.00     0.045 C 
ENDBRANCH  25  26
ENDBRANCH  23  25
ENDBRANCH  20  23
ENDBRANCH  16  19
ENDBRANCH   9  15
ENDBRANCH   6   8
ENDBRANCH   5   6
ENDBRANCH   4   5
ENDBRANCH   3   4
ENDBRANCH   2   3
ENDBRANCH   1   2
BRANCH   1  34
ATOM     34  C   UNL A   1      39.355  21.186  26.116  1.00  0.00     0.188 C 
BRANCH  34  35
ATOM     35  O   UNL A   1      40.113  21.565  27.256  1.00  0.00    -0.376 OA
BRANCH  35  36
ATOM     36  C   UNL A   1      41.531  21.640  27.102  1.00  0.00     0.202 C 
BRANCH  36  37
ATOM     37  C   UNL A   1      42.119  22.932  26.498  1.00  0.00     0.261 C 
BRANCH  37  38
ATOM     38  O   UNL A   1      41.231  24.068  26.441  1.00  0.00    -0.460 OA
BRANCH  38  39
ATOM     39  C   UNL A   1      41.756  25.279  26.143  1.00  0.00     0.338 C 
ATOM     40  O   UNL A   1      42.023  25.698  25.027  1.00  0.00    -0.246 OA
BRANCH  39  41
ATOM     41  C   UNL A   1      41.691  26.132  27.361  1.00  0.00     0.060 A 
ATOM     42  C   UNL A   1      40.629  25.927  28.256  1.00  0.00     0.016 A 
ATOM     43  C   UNL A   1      42.684  27.067  27.669  1.00  0.00     0.016 A 
ATOM     44  C   UNL A   1      40.533  26.681  29.429  1.00  0.00     0.010 A 
ATOM     45  C   UNL A   1      42.579  27.832  28.838  1.00  0.00     0.010 A 
ATOM     46  C   UNL A   1      41.484  27.669  29.706  1.00  0.00    -0.014 A 
BRANCH  46  47
ATOM     47  C   UNL A   1      41.219  28.682  30.762  1.00  0.00     0.031 A 
ATOM     48  C   UNL A   1      42.075  28.645  32.002  1.00  0.00     0.074 A 
ATOM     49  C   UNL A   1      40.272  29.630  30.632  1.00  0.00     0.049 A 
ATOM     50  N   UNL A   1      41.987  29.350  33.098  1.00  0.00    -0.248 NA
ATOM     51  C   UNL A   1      43.182  27.672  31.998  1.00  0.00     0.031 C 
ATOM     52  C   UNL A   1      39.418  29.825  29.462  1.00  0.00     0.029 A 
ATOM     53  N   UNL A   1      39.865  30.607  31.511  1.00  0.00    -0.354 N 
ATOM     54  C   UNL A   1      43.013  28.899  33.920  1.00  0.00     0.074 A 
ATOM     55  C   UNL A   1      43.697  27.843  33.205  1.00  0.00     0.031 C 
ATOM     56  C   UNL A   1      38.580  30.851  29.700  1.00  0.00     0.029 A 
ATOM     57  C   UNL A   1      38.807  31.357  31.054  1.00  0.00     0.049 A 
ATOM     58  H   UNL A   1      40.292  30.755  32.385  1.00  0.00     0.167 HD
ATOM     59  C   UNL A   1      43.361  29.327  35.156  1.00  0.00     0.037 A 
ATOM     60  C   UNL A   1      38.087  32.320  31.669  1.00  0.00     0.037 A 
ATOM     61  C   UNL A   1      42.684  30.378  35.866  1.00  0.00     0.049 A 
ATOM     62  C   UNL A   1      38.437  32.724  33.082  1.00  0.00     0.074 A 
ATOM     63  C   UNL A   1      42.960  30.879  37.127  1.00  0.00     0.029 A 
ATOM     64  N   UNL A   1      41.598  31.090  35.382  1.00  0.00    -0.354 N 
ATOM     65  N   UNL A   1      39.403  32.283  33.853  1.00  0.00    -0.248 NA
ATOM     66  C   UNL A   1      37.596  33.754  33.711  1.00  0.00     0.031 C 
ATOM     67  C   UNL A   1      42.007  31.858  37.426  1.00  0.00     0.029 A 
ATOM     68  C   UNL A   1      41.176  32.011  36.326  1.00  0.00     0.049 A 
ATOM     69  H   UNL A   1      41.186  30.960  34.497  1.00  0.00     0.167 HD
ATOM     70  C   UNL A   1      39.307  33.006  35.040  1.00  0.00     0.074 A 
ATOM     71  C   UNL A   1      38.192  33.915  34.886  1.00  0.00     0.031 C 
ATOM     72  C   UNL A   1      40.076  32.927  36.154  1.00  0.00     0.037 A 
BRANCH  59  73
ATOM     73  C   UNL A   1      44.504  28.625  35.835  1.00  0.00     0.058 A 
ATOM     74  C   UNL A   1      44.302  27.520  36.678  1.00  0.00     0.135 A 
ATOM     75  C   UNL A   1      45.824  29.057  35.625  1.00  0.00     0.135 A 
ATOM     76  F   UNL A   1      43.060  27.082  36.931  1.00  0.00    -0.206 F 
ATOM     77  C   UNL A   1      45.367  26.887  37.312  1.00  0.00     0.059 A 
ATOM     78  C   UNL A   1      46.906  28.419  36.225  1.00  0.00     0.059 A 
ATOM     79  F   UNL A   1      46.072  30.112  34.832  1.00  0.00    -0.206 F 
ATOM     80  C   UNL A   1      46.665  27.345  37.080  1.00  0.00     0.060 A 
BRANCH  80  81
ATOM     81  S   UNL A   1      48.034  26.517  37.914  1.00  0.00     0.124 S 
ATOM     82  O   UNL A   1      47.778  25.120  37.572  1.00  0.00    -0.237 OA
ATOM     83  O   UNL A   1      49.199  27.122  37.278  1.00  0.00    -0.237 OA
ATOM     84  O   UNL A   1      47.838  26.863  39.318  1.00  0.00    -0.744 OA
ENDBRANCH  80  81
ENDBRANCH  59  73
BRANCH  60  85
ATOM     85  C   UNL A   1      36.935  32.959  30.969  1.00  0.00     0.058 A 
ATOM     86  C   UNL A   1      35.610  32.626  31.291  1.00  0.00     0.135 A 
ATOM     87  C   UNL A   1      37.139  33.898  29.946  1.00  0.00     0.135 A 
ATOM     88  F   UNL A   1      35.361  31.719  32.248  1.00  0.00    -0.206 F 
ATOM     89  C   UNL A   1      34.531  33.189  30.616  1.00  0.00     0.059 A 
ATOM     90  C   UNL A   1      36.076  34.496  29.276  1.00  0.00     0.059 A 
ATOM     91  F   UNL A   1      38.385  34.253  29.598  1.00  0.00    -0.206 F 
ATOM     92  C   UNL A   1      34.774  34.125  29.610  1.00  0.00     0.060 A 
BRANCH  92  93
ATOM     93  S   UNL A   1      33.365  34.881  28.768  1.00  0.00     0.124 S 
ATOM     94  O   UNL A   1      33.024  33.857  27.788  1.00  0.00    -0.237 OA
ATOM     95  O   UNL A   1      32.416  35.059  29.863  1.00  0.00    -0.237 OA
ATOM     96  O   UNL A   1      33.922  36.116  28.224  1.00  0.00    -0.744 OA
ENDBRANCH  92  93
ENDBRANCH  60  85
BRANCH  72  97
ATOM     97  C   UNL A   1      39.787  33.881  37.283  1.00  0.00     0.058 A 
ATOM     98  C   UNL A   1      39.009  33.510  38.390  1.00  0.00     0.135 A 
ATOM     99  C   UNL A   1      40.369  35.160  37.293  1.00  0.00     0.135 A 
ATOM    100  F   UNL A   1      38.427  32.301  38.433  1.00  0.00    -0.206 F 
ATOM    101  C   UNL A   1      38.805  34.378  39.460  1.00  0.00     0.059 A 
ATOM    102  C   UNL A   1      40.202  36.033  38.363  1.00  0.00     0.059 A 
ATOM    103  F   UNL A   1      41.134  35.563  36.264  1.00  0.00    -0.206 F 
ATOM    104  C   UNL A   1      39.411  35.637  39.439  1.00  0.00     0.060 A 
BRANCH 104 105
ATOM    105  S   UNL A   1      39.180  36.733  40.856  1.00  0.00     0.124 S 
ATOM    106  O   UNL A   1      40.552  36.901  41.326  1.00  0.00    -0.237 OA
ATOM    107  O   UNL A   1      38.570  37.909  40.246  1.00  0.00    -0.237 OA
ATOM    108  O   UNL A   1      38.305  35.967  41.740  1.00  0.00    -0.744 OA
ENDBRANCH 104 105
ENDBRANCH  72  97
ENDBRANCH  46  47
ENDBRANCH  39  41
ENDBRANCH  38  39
ENDBRANCH  37  38
ENDBRANCH  36  37
ENDBRANCH  35  36
ENDBRANCH  34  35
ENDBRANCH   1  34
TORSDOF 25
ENDMDL
MODEL 3
REMARK VINA RESULT:     -10.8      1.475      8.083
REMARK SMILES Cc1ccc(O[C@H](C)C(=O)NNC(=O)[C@@H]2[C@@H](C(=O)OCCOCCOCCOC(=O)c3ccc(-c4c5nc(c(-c6c(F)cc(S(=O)(=O)[O-])cc6F)c6ccc([nH]6)c(-c6c(F)cc(S(=O)(=O)[O-])cc6F)c6nc(c(-c7c(F)cc(S(=O)(=O)[O-])cc7F)c7ccc4[nH]7)C=C6)C=C5)cc3)[C@@H]3C=C[C@H]2C3)cc1C
REMARK SMILES IDX 23 1 22 2 21 3 20 4 19 5 17 6 18 7 16 8 15 9 100 10 97 11
REMARK SMILES IDX 99 12 101 13 98 14 13 15 12 16 14 18 11 19 9 20 10 21 7 23
REMARK SMILES IDX 8 24 6 25 5 26 1 27 2 28 3 29 103 30 4 31 102 32 104 33
REMARK SMILES IDX 24 34 25 35 26 36 27 37 28 38 29 39 30 40 31 41 32 42 96 43
REMARK SMILES IDX 33 44 95 45 34 46 35 47 36 48 89 49 37 50 94 51 88 52 90 53
REMARK SMILES IDX 38 54 93 55 87 56 86 57 39 59 73 60 52 61 72 62 53 63 56 64
REMARK SMILES IDX 71 65 91 66 54 67 55 68 70 70 92 71 57 72 40 73 41 74 50 75
REMARK SMILES IDX 42 76 43 77 49 78 51 79 44 80 45 81 46 82 47 83 48 84 74 85
REMARK SMILES IDX 75 86 84 87 76 88 77 89 83 90 85 91 78 92 79 93 80 94 81 95
REMARK SMILES IDX 82 96 58 97 59 98 68 99 60 100 61 101 67 102 69 103 62 104
REMARK SMILES IDX 63 105 64 106 65 107 66 108
REMARK H PARENT 12 17 11 22 90 58 56 69
REMARK Flexibility Score: inf
ROOT
ATOM      1  C   UNL A   1      38.370  22.361  25.785  1.00  0.00     0.188 C 
ENDROOT
BRANCH   1   2
ATOM      2  O   UNL A   1      37.512  21.943  24.734  1.00  0.00    -0.376 OA
BRANCH   2   3
ATOM      3  C   UNL A   1      36.647  20.849  25.034  1.00  0.00     0.202 C 
BRANCH   3   4
ATOM      4  C   UNL A   1      35.204  21.190  25.450  1.00  0.00     0.261 C 
BRANCH   4   5
ATOM      5  O   UNL A   1      34.196  21.068  24.412  1.00  0.00    -0.463 OA
BRANCH   5   6
ATOM      6  C   UNL A   1      32.909  21.039  24.856  1.00  0.00     0.310 C 
ATOM      7  O   UNL A   1      32.296  20.003  25.103  1.00  0.00    -0.252 OA
BRANCH   6   8
ATOM      8  C   UNL A   1      32.232  22.392  25.001  1.00  0.00     0.119 C 
ATOM      9  C   UNL A   1      33.090  23.715  25.059  1.00  0.00     0.102 C 
ATOM     10  C   UNL A   1      32.599  24.354  26.386  1.00  0.00     0.025 C 
ATOM     11  C   UNL A   1      31.464  22.434  26.355  1.00  0.00     0.027 C 
ATOM     12  C   UNL A   1      31.133  24.705  26.296  1.00  0.00    -0.027 C 
ATOM     13  C   UNL A   1      32.467  23.122  27.280  1.00  0.00     0.017 C 
ATOM     14  C   UNL A   1      30.451  23.552  26.270  1.00  0.00    -0.027 C 
BRANCH   9  15
ATOM     15  C   UNL A   1      32.899  24.487  23.745  1.00  0.00     0.242 C 
ATOM     16  N   UNL A   1      33.376  25.751  23.525  1.00  0.00    -0.267 N 
ATOM     17  H   UNL A   1      33.293  26.098  22.608  1.00  0.00     0.191 HD
ATOM     18  O   UNL A   1      32.364  23.927  22.779  1.00  0.00    -0.273 OA
BRANCH  16  19
ATOM     19  N   UNL A   1      33.960  26.594  24.453  1.00  0.00    -0.264 N 
ATOM     20  C   UNL A   1      33.805  27.960  24.470  1.00  0.00     0.279 C 
ATOM     21  O   UNL A   1      34.176  28.587  25.465  1.00  0.00    -0.269 OA
ATOM     22  H   UNL A   1      34.527  26.187  25.149  1.00  0.00     0.191 HD
BRANCH  20  23
ATOM     23  C   UNL A   1      33.317  28.698  23.208  1.00  0.00     0.260 C 
ATOM     24  C   UNL A   1      34.341  28.434  22.094  1.00  0.00     0.064 C 
BRANCH  23  25
ATOM     25  O   UNL A   1      31.999  28.303  22.830  1.00  0.00    -0.481 OA
BRANCH  25  26
ATOM     26  C   UNL A   1      30.956  29.149  23.112  1.00  0.00     0.120 A 
ATOM     27  C   UNL A   1      27.721  31.998  23.546  1.00  0.00     0.044 C 
ATOM     28  C   UNL A   1      28.809  30.975  23.371  1.00  0.00    -0.048 A 
ATOM     29  C   UNL A   1      29.707  30.756  24.425  1.00  0.00     0.007 A 
ATOM     30  C   UNL A   1      28.959  30.230  22.187  1.00  0.00    -0.045 A 
ATOM     31  C   UNL A   1      30.759  29.844  24.303  1.00  0.00     0.047 A 
ATOM     32  C   UNL A   1      30.038  29.328  22.075  1.00  0.00     0.050 A 
ATOM     33  C   UNL A   1      28.013  30.343  21.023  1.00  0.00     0.045 C 
ENDBRANCH  25  26
ENDBRANCH  23  25
ENDBRANCH  20  23
ENDBRANCH  16  19
ENDBRANCH   9  15
ENDBRANCH   6   8
ENDBRANCH   5   6
ENDBRANCH   4   5
ENDBRANCH   3   4
ENDBRANCH   2   3
ENDBRANCH   1   2
BRANCH   1  34
ATOM     34  C   UNL A   1      39.545  21.430  26.092  1.00  0.00     0.188 C 
BRANCH  34  35
ATOM     35  O   UNL A   1      40.410  21.875  27.126  1.00  0.00    -0.376 OA
BRANCH  35  36
ATOM     36  C   UNL A   1      41.782  22.083  26.786  1.00  0.00     0.202 C 
BRANCH  36  37
ATOM     37  C   UNL A   1      42.149  23.394  26.061  1.00  0.00     0.261 C 
BRANCH  37  38
ATOM     38  O   UNL A   1      41.185  24.464  26.153  1.00  0.00    -0.460 OA
BRANCH  38  39
ATOM     39  C   UNL A   1      41.615  25.734  25.976  1.00  0.00     0.338 C 
ATOM     40  O   UNL A   1      41.755  26.309  24.908  1.00  0.00    -0.246 OA
BRANCH  39  41
ATOM     41  C   UNL A   1      41.620  26.418  27.299  1.00  0.00     0.060 A 
ATOM     42  C   UNL A   1      40.627  26.068  28.227  1.00  0.00     0.016 A 
ATOM     43  C   UNL A   1      42.614  27.332  27.661  1.00  0.00     0.016 A 
ATOM     44  C   UNL A   1      40.598  26.658  29.493  1.00  0.00     0.010 A 
ATOM     45  C   UNL A   1      42.577  27.934  28.925  1.00  0.00     0.010 A 
ATOM     46  C   UNL A   1      41.548  27.628  29.835  1.00  0.00    -0.014 A 
BRANCH  46  47
ATOM     47  C   UNL A   1      41.338  28.486  31.031  1.00  0.00     0.031 A 
ATOM     48  C   UNL A   1      40.227  29.503  30.979  1.00  0.00     0.074 A 
ATOM     49  C   UNL A   1      42.080  28.365  32.147  1.00  0.00     0.049 A 
ATOM     50  N   UNL A   1      39.899  30.426  31.844  1.00  0.00    -0.248 NA
ATOM     51  C   UNL A   1      39.370  29.469  29.780  1.00  0.00     0.031 C 
ATOM     52  C   UNL A   1      43.140  27.382  32.360  1.00  0.00     0.029 A 
ATOM     53  N   UNL A   1      42.055  29.089  33.316  1.00  0.00    -0.354 N 
ATOM     54  C   UNL A   1      38.812  31.092  31.290  1.00  0.00     0.074 A 
ATOM     55  C   UNL A   1      38.550  30.483  30.004  1.00  0.00     0.031 C 
ATOM     56  C   UNL A   1      43.673  27.573  33.582  1.00  0.00     0.029 A 
ATOM     57  C   UNL A   1      43.023  28.718  34.220  1.00  0.00     0.049 A 
ATOM     58  H   UNL A   1      41.404  29.808  33.489  1.00  0.00     0.167 HD
ATOM     59  C   UNL A   1      38.091  32.115  31.806  1.00  0.00     0.037 A 
ATOM     60  C   UNL A   1      43.362  29.258  35.409  1.00  0.00     0.037 A 
ATOM     61  C   UNL A   1      38.348  32.719  33.085  1.00  0.00     0.049 A 
ATOM     62  C   UNL A   1      42.600  30.455  35.929  1.00  0.00     0.074 A 
ATOM     63  C   UNL A   1      37.676  33.766  33.692  1.00  0.00     0.029 A 
ATOM     64  N   UNL A   1      39.358  32.335  33.955  1.00  0.00    -0.354 N 
ATOM     65  N   UNL A   1      41.580  31.083  35.392  1.00  0.00    -0.248 NA
ATOM     66  C   UNL A   1      43.037  31.020  37.215  1.00  0.00     0.031 C 
ATOM     67  C   UNL A   1      38.311  34.049  34.905  1.00  0.00     0.029 A 
ATOM     68  C   UNL A   1      39.341  33.138  35.083  1.00  0.00     0.049 A 
ATOM     69  H   UNL A   1      39.993  31.600  33.793  1.00  0.00     0.167 HD
ATOM     70  C   UNL A   1      41.235  32.091  36.290  1.00  0.00     0.074 A 
ATOM     71  C   UNL A   1      42.150  31.988  37.406  1.00  0.00     0.031 C 
ATOM     72  C   UNL A   1      40.245  33.014  36.200  1.00  0.00     0.037 A 
BRANCH  59  73
ATOM     73  C   UNL A   1      36.978  32.672  30.963  1.00  0.00     0.058 A 
ATOM     74  C   UNL A   1      37.190  33.715  30.047  1.00  0.00     0.135 A 
ATOM     75  C   UNL A   1      35.682  32.140  31.062  1.00  0.00     0.135 A 
ATOM     76  F   UNL A   1      38.404  34.275  29.929  1.00  0.00    -0.206 F 
ATOM     77  C   UNL A   1      36.149  34.232  29.281  1.00  0.00     0.059 A 
ATOM     78  C   UNL A   1      34.632  32.621  30.284  1.00  0.00     0.059 A 
ATOM     79  F   UNL A   1      35.423  31.145  31.925  1.00  0.00    -0.206 F 
ATOM     80  C   UNL A   1      34.874  33.678  29.408  1.00  0.00     0.060 A 
BRANCH  80  81
ATOM     81  S   UNL A   1      33.534  34.363  28.412  1.00  0.00     0.124 S 
ATOM     82  O   UNL A   1      34.236  35.394  27.653  1.00  0.00    -0.237 OA
ATOM     83  O   UNL A   1      33.090  33.203  27.646  1.00  0.00    -0.237 OA
ATOM     84  O   UNL A   1      32.586  34.855  29.407  1.00  0.00    -0.744 OA
ENDBRANCH  80  81
ENDBRANCH  59  73
BRANCH  60  85
ATOM     85  C   UNL A   1      44.501  28.697  36.192  1.00  0.00     0.058 A 
ATOM     86  C   UNL A   1      44.312  27.648  37.105  1.00  0.00     0.135 A 
ATOM     87  C   UNL A   1      45.798  29.217  36.059  1.00  0.00     0.135 A 
ATOM     88  F   UNL A   1      43.088  27.128  37.284  1.00  0.00    -0.206 F 
ATOM     89  C   UNL A   1      45.363  27.144  37.867  1.00  0.00     0.059 A 
ATOM     90  C   UNL A   1      46.870  28.712  36.789  1.00  0.00     0.059 A 
ATOM     91  F   UNL A   1      46.036  30.220  35.200  1.00  0.00    -0.206 F 
ATOM     92  C   UNL A   1      46.639  27.682  37.700  1.00  0.00     0.060 A 
BRANCH  92  93
ATOM     93  S   UNL A   1      48.003  26.994  38.665  1.00  0.00     0.124 S 
ATOM     94  O   UNL A   1      48.769  28.191  38.987  1.00  0.00    -0.237 OA
ATOM     95  O   UNL A   1      47.302  26.364  39.779  1.00  0.00    -0.237 OA
ATOM     96  O   UNL A   1      48.641  26.068  37.732  1.00  0.00    -0.744 OA
ENDBRANCH  92  93
ENDBRANCH  60  85
BRANCH  72  97
ATOM     97  C   UNL A   1      40.050  33.959  37.356  1.00  0.00     0.058 A 
ATOM     98  C   UNL A   1      40.583  35.257  37.354  1.00  0.00     0.135 A 
ATOM     99  C   UNL A   1      39.247  33.583  38.446  1.00  0.00     0.135 A 
ATOM    100  F   UNL A   1      41.359  35.667  36.339  1.00  0.00    -0.206 F 
ATOM    101  C   UNL A   1      40.339  36.145  38.399  1.00  0.00     0.059 A 
ATOM    102  C   UNL A   1      38.968  34.463  39.488  1.00  0.00     0.059 A 
ATOM    103  F   UNL A   1      38.702  32.357  38.494  1.00  0.00    -0.206 F 
ATOM    104  C   UNL A   1      39.525  35.739  39.460  1.00  0.00     0.060 A 
BRANCH 104 105
ATOM    105  S   UNL A   1      39.175  36.918  40.783  1.00  0.00     0.124 S 
ATOM    106  O   UNL A   1      40.464  36.986  41.465  1.00  0.00    -0.237 OA
ATOM    107  O   UNL A   1      38.785  38.113  40.042  1.00  0.00    -0.237 OA
ATOM    108  O   UNL A   1      38.101  36.275  41.536  1.00  0.00    -0.744 OA
ENDBRANCH 104 105
ENDBRANCH  72  97
ENDBRANCH  46  47
ENDBRANCH  39  41
ENDBRANCH  38  39
ENDBRANCH  37  38
ENDBRANCH  36  37
ENDBRANCH  35  36
ENDBRANCH  34  35
ENDBRANCH   1  34
TORSDOF 25
ENDMDL
