MODEL 1
REMARK VINA RESULT:     -10.1      0.000      0.000
REMARK SMILES Cc1ccc([C@H](CC2CCCC2)C(=O)OCCOCCOCCOC(=O)c2ccc(-c3c4nc(c(-c5c(F)cc(S(=O)(=O)[O-])cc5F)c5ccc([nH]5)c(-c5c(F)cc(S(=O)(=O)[O-])cc5F)c5nc(c(-c6c(F)cc(S(=O)(=O)[O-])cc6F)c6ccc3[nH]6)C=C5)C=C4)cc2)cc1
REMARK SMILES IDX 20 1 19 2 18 3 17 4 16 5 15 6 13 7 14 8 6 9 5 10 1 11 2 12
REMARK SMILES IDX 3 13 94 14 4 15 93 16 7 17 8 18 9 19 12 20 10 21 11 22 21 23
REMARK SMILES IDX 22 24 23 25 24 26 25 27 26 28 27 29 28 30 92 31 29 32 91 33
REMARK SMILES IDX 30 34 31 35 32 36 85 37 33 38 90 39 84 40 86 41 34 42 89 43
REMARK SMILES IDX 83 44 82 45 35 47 69 48 48 49 68 50 49 51 52 52 67 53 87 54
REMARK SMILES IDX 50 55 51 56 66 58 88 59 53 60 36 61 37 62 46 63 38 64 39 65
REMARK SMILES IDX 45 66 47 67 40 68 41 69 42 70 43 71 44 72 70 73 71 74 80 75
REMARK SMILES IDX 72 76 73 77 79 78 81 79 74 80 75 81 76 82 77 83 78 84 54 85
REMARK SMILES IDX 55 86 64 87 56 88 57 89 63 90 65 91 58 92 59 93 60 94 61 95
REMARK SMILES IDX 62 96
REMARK H PARENT 86 46 52 57
REMARK Flexibility Score: inf
ROOT
ATOM      1  C   UNL A   1      46.675  18.615  39.546  1.00  0.00     0.188 C 
ENDROOT
BRANCH   1   2
ATOM      2  C   UNL A   1      45.862  17.342  39.315  1.00  0.00     0.188 C 
BRANCH   2   3
ATOM      3  O   UNL A   1      44.758  17.551  38.456  1.00  0.00    -0.376 OA
BRANCH   3   4
ATOM      4  C   UNL A   1      43.780  16.533  38.650  1.00  0.00     0.202 C 
BRANCH   4   5
ATOM      5  C   UNL A   1      42.828  16.680  39.877  1.00  0.00     0.261 C 
BRANCH   5   6
ATOM      6  O   UNL A   1      43.121  16.498  41.303  1.00  0.00    -0.463 OA
BRANCH   6   7
ATOM      7  C   UNL A   1      42.770  15.297  41.878  1.00  0.00     0.313 C 
ATOM      8  O   UNL A   1      42.484  14.335  41.175  1.00  0.00    -0.252 OA
BRANCH   7   9
ATOM      9  C   UNL A   1      42.712  15.137  43.417  1.00  0.00     0.129 C 
BRANCH   9  10
ATOM     10  C   UNL A   1      44.129  15.150  44.138  1.00  0.00    -0.034 A 
ATOM     11  C   UNL A   1      48.112  15.756  45.882  1.00  0.00     0.044 C 
ATOM     12  C   UNL A   1      46.765  15.488  45.271  1.00  0.00    -0.051 A 
ATOM     13  C   UNL A   1      46.597  15.111  43.938  1.00  0.00     0.004 A 
ATOM     14  C   UNL A   1      45.619  15.591  46.052  1.00  0.00     0.004 A 
ATOM     15  C   UNL A   1      45.305  14.943  43.383  1.00  0.00     0.005 A 
ATOM     16  C   UNL A   1      44.334  15.426  45.502  1.00  0.00     0.005 A 
ENDBRANCH   9  10
BRANCH   9  17
ATOM     17  C   UNL A   1      41.991  13.841  43.817  1.00  0.00     0.023 C 
BRANCH  17  18
ATOM     18  C   UNL A   1      42.741  12.520  43.642  1.00  0.00    -0.010 C 
ATOM     19  C   UNL A   1      43.194  11.968  44.997  1.00  0.00     0.003 C 
ATOM     20  C   UNL A   1      41.805  11.410  43.145  1.00  0.00     0.003 C 
ATOM     21  C   UNL A   1      43.382  10.481  44.766  1.00  0.00     0.000 C 
ATOM     22  C   UNL A   1      42.357  10.103  43.704  1.00  0.00     0.000 C 
ENDBRANCH  17  18
ENDBRANCH   9  17
ENDBRANCH   7   9
ENDBRANCH   6   7
ENDBRANCH   5   6
ENDBRANCH   4   5
ENDBRANCH   3   4
ENDBRANCH   2   3
ENDBRANCH   1   2
BRANCH   1  23
ATOM     23  O   UNL A   1      46.040  19.837  39.191  1.00  0.00    -0.376 OA
BRANCH  23  24
ATOM     24  C   UNL A   1      46.890  20.935  38.883  1.00  0.00     0.202 C 
BRANCH  24  25
ATOM     25  C   UNL A   1      46.033  21.901  38.073  1.00  0.00     0.261 C 
BRANCH  25  26
ATOM     26  O   UNL A   1      46.534  22.103  36.726  1.00  0.00    -0.460 OA
BRANCH  26  27
ATOM     27  C   UNL A   1      45.845  21.510  35.715  1.00  0.00     0.338 C 
ATOM     28  O   UNL A   1      45.443  20.350  35.720  1.00  0.00    -0.246 OA
BRANCH  27  29
ATOM     29  C   UNL A   1      45.708  22.468  34.575  1.00  0.00     0.060 A 
ATOM     30  C   UNL A   1      46.572  23.553  34.473  1.00  0.00     0.016 A 
ATOM     31  C   UNL A   1      44.598  22.424  33.729  1.00  0.00     0.016 A 
ATOM     32  C   UNL A   1      46.181  24.685  33.729  1.00  0.00     0.010 A 
ATOM     33  C   UNL A   1      44.201  23.563  33.025  1.00  0.00     0.010 A 
ATOM     34  C   UNL A   1      44.914  24.760  33.123  1.00  0.00    -0.014 A 
BRANCH  34  35
ATOM     35  C   UNL A   1      44.322  25.958  32.422  1.00  0.00     0.031 A 
ATOM     36  C   UNL A   1      44.128  27.031  33.403  1.00  0.00     0.074 A 
ATOM     37  C   UNL A   1      44.067  26.182  31.088  1.00  0.00     0.049 A 
ATOM     38  N   UNL A   1      44.517  28.251  33.314  1.00  0.00    -0.248 NA
ATOM     39  C   UNL A   1      43.533  26.660  34.701  1.00  0.00     0.031 C 
ATOM     40  C   UNL A   1      44.162  27.418  30.318  1.00  0.00     0.029 A 
ATOM     41  N   UNL A   1      43.539  25.319  30.119  1.00  0.00    -0.354 N 
ATOM     42  C   UNL A   1      44.007  28.853  34.442  1.00  0.00     0.074 A 
ATOM     43  C   UNL A   1      43.723  27.783  35.381  1.00  0.00     0.031 C 
ATOM     44  C   UNL A   1      43.715  27.229  29.051  1.00  0.00     0.029 A 
ATOM     45  C   UNL A   1      43.181  25.871  28.884  1.00  0.00     0.049 A 
ATOM     46  H   UNL A   1      43.423  24.359  30.300  1.00  0.00     0.167 HD
ATOM     47  C   UNL A   1      43.111  29.877  34.342  1.00  0.00     0.037 A 
ATOM     48  C   UNL A   1      42.027  25.475  28.230  1.00  0.00     0.037 A 
ATOM     49  C   UNL A   1      42.631  30.091  32.987  1.00  0.00     0.049 A 
ATOM     50  C   UNL A   1      40.936  26.416  28.711  1.00  0.00     0.074 A 
ATOM     51  C   UNL A   1      43.239  30.522  31.820  1.00  0.00     0.029 A 
ATOM     52  N   UNL A   1      41.428  29.526  32.596  1.00  0.00    -0.354 N 
ATOM     53  N   UNL A   1      41.137  27.305  29.648  1.00  0.00    -0.248 NA
ATOM     54  C   UNL A   1      39.556  26.422  28.226  1.00  0.00     0.031 C 
ATOM     55  C   UNL A   1      42.385  30.211  30.727  1.00  0.00     0.029 A 
ATOM     56  C   UNL A   1      41.246  29.604  31.223  1.00  0.00     0.049 A 
ATOM     57  H   UNL A   1      40.782  29.119  33.216  1.00  0.00     0.167 HD
ATOM     58  C   UNL A   1      40.014  28.043  29.822  1.00  0.00     0.074 A 
ATOM     59  C   UNL A   1      39.019  27.395  28.982  1.00  0.00     0.031 C 
ATOM     60  C   UNL A   1      40.003  29.161  30.599  1.00  0.00     0.037 A 
BRANCH  47  61
ATOM     61  C   UNL A   1      43.338  30.882  35.429  1.00  0.00     0.058 A 
ATOM     62  C   UNL A   1      44.553  31.578  35.462  1.00  0.00     0.135 A 
ATOM     63  C   UNL A   1      42.527  30.980  36.583  1.00  0.00     0.135 A 
ATOM     64  F   UNL A   1      45.366  31.592  34.398  1.00  0.00    -0.206 F 
ATOM     65  C   UNL A   1      44.998  32.218  36.614  1.00  0.00     0.059 A 
ATOM     66  C   UNL A   1      42.983  31.549  37.767  1.00  0.00     0.059 A 
ATOM     67  F   UNL A   1      41.274  30.500  36.596  1.00  0.00    -0.206 F 
ATOM     68  C   UNL A   1      44.231  32.153  37.776  1.00  0.00     0.060 A 
BRANCH  68  69
ATOM     69  S   UNL A   1      44.912  32.833  39.298  1.00  0.00     0.124 S 
ATOM     70  O   UNL A   1      45.109  34.237  38.949  1.00  0.00    -0.237 OA
ATOM     71  O   UNL A   1      43.843  32.555  40.249  1.00  0.00    -0.237 OA
ATOM     72  O   UNL A   1      46.142  32.068  39.492  1.00  0.00    -0.744 OA
ENDBRANCH  68  69
ENDBRANCH  47  61
BRANCH  48  73
ATOM     73  C   UNL A   1      41.749  23.996  27.882  1.00  0.00     0.058 A 
ATOM     74  C   UNL A   1      41.217  23.647  26.620  1.00  0.00     0.135 A 
ATOM     75  C   UNL A   1      42.113  22.883  28.671  1.00  0.00     0.135 A 
ATOM     76  F   UNL A   1      40.716  24.607  25.825  1.00  0.00    -0.206 F 
ATOM     77  C   UNL A   1      41.274  22.340  26.085  1.00  0.00     0.059 A 
ATOM     78  C   UNL A   1      42.219  21.577  28.150  1.00  0.00     0.059 A 
ATOM     79  F   UNL A   1      42.492  23.041  29.947  1.00  0.00    -0.206 F 
ATOM     80  C   UNL A   1      41.855  21.321  26.834  1.00  0.00     0.060 A 
BRANCH  80  81
ATOM     81  S   UNL A   1      42.365  19.740  26.073  1.00  0.00     0.124 S 
ATOM     82  O   UNL A   1      42.784  18.953  27.225  1.00  0.00    -0.237 OA
ATOM     83  O   UNL A   1      41.159  19.268  25.400  1.00  0.00    -0.237 OA
ATOM     84  O   UNL A   1      43.433  20.167  25.173  1.00  0.00    -0.744 OA
ENDBRANCH  80  81
ENDBRANCH  48  73
BRANCH  60  85
ATOM     85  C   UNL A   1      38.794  30.022  30.706  1.00  0.00     0.058 A 
ATOM     86  C   UNL A   1      37.891  29.926  31.775  1.00  0.00     0.135 A 
ATOM     87  C   UNL A   1      38.459  30.900  29.660  1.00  0.00     0.135 A 
ATOM     88  F   UNL A   1      38.079  29.039  32.766  1.00  0.00    -0.206 F 
ATOM     89  C   UNL A   1      36.767  30.736  31.854  1.00  0.00     0.059 A 
ATOM     90  C   UNL A   1      37.302  31.660  29.680  1.00  0.00     0.059 A 
ATOM     91  F   UNL A   1      39.267  31.067  28.601  1.00  0.00    -0.206 F 
ATOM     92  C   UNL A   1      36.488  31.607  30.804  1.00  0.00     0.060 A 
BRANCH  92  93
ATOM     93  S   UNL A   1      35.061  32.692  30.917  1.00  0.00     0.124 S 
ATOM     94  O   UNL A   1      35.673  34.014  31.015  1.00  0.00    -0.237 OA
ATOM     95  O   UNL A   1      34.384  32.399  29.658  1.00  0.00    -0.237 OA
ATOM     96  O   UNL A   1      34.383  32.229  32.123  1.00  0.00    -0.744 OA
ENDBRANCH  92  93
ENDBRANCH  60  85
ENDBRANCH  34  35
ENDBRANCH  27  29
ENDBRANCH  26  27
ENDBRANCH  25  26
ENDBRANCH  24  25
ENDBRANCH  23  24
ENDBRANCH   1  23
TORSDOF 23
ENDMDL
MODEL 2
REMARK VINA RESULT:     -10.0     10.233     14.184
REMARK SMILES Cc1ccc([C@H](CC2CCCC2)C(=O)OCCOCCOCCOC(=O)c2ccc(-c3c4nc(c(-c5c(F)cc(S(=O)(=O)[O-])cc5F)c5ccc([nH]5)c(-c5c(F)cc(S(=O)(=O)[O-])cc5F)c5nc(c(-c6c(F)cc(S(=O)(=O)[O-])cc6F)c6ccc3[nH]6)C=C5)C=C4)cc2)cc1
REMARK SMILES IDX 20 1 19 2 18 3 17 4 16 5 15 6 13 7 14 8 6 9 5 10 1 11 2 12
REMARK SMILES IDX 3 13 94 14 4 15 93 16 7 17 8 18 9 19 12 20 10 21 11 22 21 23
REMARK SMILES IDX 22 24 23 25 24 26 25 27 26 28 27 29 28 30 92 31 29 32 91 33
REMARK SMILES IDX 30 34 31 35 32 36 85 37 33 38 90 39 84 40 86 41 34 42 89 43
REMARK SMILES IDX 83 44 82 45 35 47 69 48 48 49 68 50 49 51 52 52 67 53 87 54
REMARK SMILES IDX 50 55 51 56 66 58 88 59 53 60 36 61 37 62 46 63 38 64 39 65
REMARK SMILES IDX 45 66 47 67 40 68 41 69 42 70 43 71 44 72 70 73 71 74 80 75
REMARK SMILES IDX 72 76 73 77 79 78 81 79 74 80 75 81 76 82 77 83 78 84 54 85
REMARK SMILES IDX 55 86 64 87 56 88 57 89 63 90 65 91 58 92 59 93 60 94 61 95
REMARK SMILES IDX 62 96
REMARK H PARENT 86 46 52 57
REMARK Flexibility Score: inf
ROOT
ATOM      1  C   UNL A   1      36.318  34.090  34.417  1.00  0.00     0.188 C 
ENDROOT
BRANCH   1   2
ATOM      2  C   UNL A   1      34.972  33.886  33.723  1.00  0.00     0.188 C 
BRANCH   2   3
ATOM      3  O   UNL A   1      34.296  35.105  33.482  1.00  0.00    -0.376 OA
BRANCH   3   4
ATOM      4  C   UNL A   1      33.874  35.176  32.122  1.00  0.00     0.202 C 
BRANCH   4   5
ATOM      5  C   UNL A   1      34.400  34.075  31.151  1.00  0.00     0.261 C 
BRANCH   5   6
ATOM      6  O   UNL A   1      34.836  34.204  29.756  1.00  0.00    -0.463 OA
BRANCH   6   7
ATOM      7  C   UNL A   1      34.931  33.050  29.009  1.00  0.00     0.313 C 
ATOM      8  O   UNL A   1      33.931  32.384  28.770  1.00  0.00    -0.252 OA
BRANCH   7   9
ATOM      9  C   UNL A   1      36.298  32.561  28.469  1.00  0.00     0.129 C 
BRANCH   9  10
ATOM     10  C   UNL A   1      36.809  31.195  29.102  1.00  0.00    -0.034 A 
ATOM     11  C   UNL A   1      38.760  27.725  30.953  1.00  0.00     0.044 C 
ATOM     12  C   UNL A   1      38.067  28.874  30.275  1.00  0.00    -0.051 A 
ATOM     13  C   UNL A   1      38.312  29.232  28.949  1.00  0.00     0.004 A 
ATOM     14  C   UNL A   1      37.118  29.616  30.969  1.00  0.00     0.004 A 
ATOM     15  C   UNL A   1      37.694  30.369  28.373  1.00  0.00     0.005 A 
ATOM     16  C   UNL A   1      36.504  30.747  30.400  1.00  0.00     0.005 A 
ENDBRANCH   9  10
BRANCH   9  17
ATOM     17  C   UNL A   1      37.392  33.618  28.680  1.00  0.00     0.023 C 
BRANCH  17  18
ATOM     18  C   UNL A   1      38.407  33.386  29.801  1.00  0.00    -0.010 C 
ATOM     19  C   UNL A   1      39.722  34.113  29.503  1.00  0.00     0.003 C 
ATOM     20  C   UNL A   1      37.961  34.061  31.104  1.00  0.00     0.003 C 
ATOM     21  C   UNL A   1      40.382  34.289  30.856  1.00  0.00     0.000 C 
ATOM     22  C   UNL A   1      39.236  34.437  31.850  1.00  0.00     0.000 C 
ENDBRANCH  17  18
ENDBRANCH   9  17
ENDBRANCH   7   9
ENDBRANCH   6   7
ENDBRANCH   5   6
ENDBRANCH   4   5
ENDBRANCH   3   4
ENDBRANCH   2   3
ENDBRANCH   1   2
BRANCH   1  23
ATOM     23  O   UNL A   1      36.426  33.576  35.739  1.00  0.00    -0.376 OA
BRANCH  23  24
ATOM     24  C   UNL A   1      37.655  33.803  36.417  1.00  0.00     0.202 C 
BRANCH  24  25
ATOM     25  C   UNL A   1      37.846  32.599  37.333  1.00  0.00     0.261 C 
BRANCH  25  26
ATOM     26  O   UNL A   1      39.147  31.977  37.180  1.00  0.00    -0.460 OA
BRANCH  26  27
ATOM     27  C   UNL A   1      39.266  31.021  36.219  1.00  0.00     0.338 C 
ATOM     28  O   UNL A   1      38.502  30.073  36.070  1.00  0.00    -0.246 OA
BRANCH  27  29
ATOM     29  C   UNL A   1      40.503  31.271  35.417  1.00  0.00     0.060 A 
ATOM     30  C   UNL A   1      41.647  31.759  36.038  1.00  0.00     0.016 A 
ATOM     31  C   UNL A   1      40.473  31.233  34.021  1.00  0.00     0.016 A 
ATOM     32  C   UNL A   1      42.620  32.434  35.272  1.00  0.00     0.010 A 
ATOM     33  C   UNL A   1      41.422  31.936  33.274  1.00  0.00     0.010 A 
ATOM     34  C   UNL A   1      42.437  32.665  33.898  1.00  0.00    -0.014 A 
BRANCH  34  35
ATOM     35  C   UNL A   1      43.327  33.488  32.998  1.00  0.00     0.031 A 
ATOM     36  C   UNL A   1      43.338  34.872  33.483  1.00  0.00     0.074 A 
ATOM     37  C   UNL A   1      44.135  33.112  31.948  1.00  0.00     0.049 A 
ATOM     38  N   UNL A   1      44.362  35.606  33.728  1.00  0.00    -0.248 NA
ATOM     39  C   UNL A   1      42.041  35.467  33.857  1.00  0.00     0.031 C 
ATOM     40  C   UNL A   1      45.426  33.647  31.532  1.00  0.00     0.029 A 
ATOM     41  N   UNL A   1      43.897  32.193  30.918  1.00  0.00    -0.354 N 
ATOM     42  C   UNL A   1      43.829  36.831  34.062  1.00  0.00     0.074 A 
ATOM     43  C   UNL A   1      42.450  36.584  34.443  1.00  0.00     0.031 C 
ATOM     44  C   UNL A   1      45.836  33.067  30.376  1.00  0.00     0.029 A 
ATOM     45  C   UNL A   1      44.804  32.160  29.854  1.00  0.00     0.049 A 
ATOM     46  H   UNL A   1      43.118  31.591  30.942  1.00  0.00     0.167 HD
ATOM     47  C   UNL A   1      44.103  37.938  33.315  1.00  0.00     0.037 A 
ATOM     48  C   UNL A   1      44.371  32.013  28.547  1.00  0.00     0.037 A 
ATOM     49  C   UNL A   1      44.806  37.638  32.078  1.00  0.00     0.049 A 
ATOM     50  C   UNL A   1      44.152  33.421  28.022  1.00  0.00     0.074 A 
ATOM     51  C   UNL A   1      46.070  37.148  31.798  1.00  0.00     0.029 A 
ATOM     52  N   UNL A   1      44.085  37.508  30.902  1.00  0.00    -0.354 N 
ATOM     53  N   UNL A   1      44.265  34.479  28.780  1.00  0.00    -0.248 NA
ATOM     54  C   UNL A   1      43.765  33.757  26.653  1.00  0.00     0.031 C 
ATOM     55  C   UNL A   1      46.098  36.727  30.440  1.00  0.00     0.029 A 
ATOM     56  C   UNL A   1      44.857  36.972  29.882  1.00  0.00     0.049 A 
ATOM     57  H   UNL A   1      43.140  37.765  30.802  1.00  0.00     0.167 HD
ATOM     58  C   UNL A   1      44.082  35.596  28.033  1.00  0.00     0.074 A 
ATOM     59  C   UNL A   1      43.676  35.096  26.729  1.00  0.00     0.031 C 
ATOM     60  C   UNL A   1      44.332  36.839  28.527  1.00  0.00     0.037 A 
BRANCH  47  61
ATOM     61  C   UNL A   1      44.214  39.149  34.189  1.00  0.00     0.058 A 
ATOM     62  C   UNL A   1      43.688  40.364  33.729  1.00  0.00     0.135 A 
ATOM     63  C   UNL A   1      45.051  39.218  35.325  1.00  0.00     0.135 A 
ATOM     64  F   UNL A   1      42.841  40.397  32.692  1.00  0.00    -0.206 F 
ATOM     65  C   UNL A   1      44.077  41.582  34.276  1.00  0.00     0.059 A 
ATOM     66  C   UNL A   1      45.511  40.426  35.840  1.00  0.00     0.059 A 
ATOM     67  F   UNL A   1      45.467  38.107  35.952  1.00  0.00    -0.206 F 
ATOM     68  C   UNL A   1      45.028  41.606  35.294  1.00  0.00     0.060 A 
BRANCH  68  69
ATOM     69  S   UNL A   1      45.647  43.200  35.859  1.00  0.00     0.124 S 
ATOM     70  O   UNL A   1      45.171  43.245  37.239  1.00  0.00    -0.237 OA
ATOM     71  O   UNL A   1      47.085  43.036  35.686  1.00  0.00    -0.237 OA
ATOM     72  O   UNL A   1      45.008  44.152  34.955  1.00  0.00    -0.744 OA
ENDBRANCH  68  69
ENDBRANCH  47  61
BRANCH  48  73
ATOM     73  C   UNL A   1      43.494  30.820  28.106  1.00  0.00     0.058 A 
ATOM     74  C   UNL A   1      43.971  29.902  27.141  1.00  0.00     0.135 A 
ATOM     75  C   UNL A   1      42.264  30.444  28.686  1.00  0.00     0.135 A 
ATOM     76  F   UNL A   1      45.066  30.205  26.425  1.00  0.00    -0.206 F 
ATOM     77  C   UNL A   1      43.417  28.616  26.951  1.00  0.00     0.059 A 
ATOM     78  C   UNL A   1      41.713  29.153  28.547  1.00  0.00     0.059 A 
ATOM     79  F   UNL A   1      41.608  31.278  29.505  1.00  0.00    -0.206 F 
ATOM     80  C   UNL A   1      42.329  28.219  27.723  1.00  0.00     0.060 A 
BRANCH  80  81
ATOM     81  S   UNL A   1      41.838  26.465  27.863  1.00  0.00     0.124 S 
ATOM     82  O   UNL A   1      40.395  26.522  27.674  1.00  0.00    -0.237 OA
ATOM     83  O   UNL A   1      42.582  25.805  26.794  1.00  0.00    -0.237 OA
ATOM     84  O   UNL A   1      42.289  26.130  29.211  1.00  0.00    -0.744 OA
ENDBRANCH  80  81
ENDBRANCH  48  73
BRANCH  60  85
ATOM     85  C   UNL A   1      44.226  38.051  27.671  1.00  0.00     0.058 A 
ATOM     86  C   UNL A   1      45.347  38.672  27.099  1.00  0.00     0.135 A 
ATOM     87  C   UNL A   1      42.983  38.684  27.496  1.00  0.00     0.135 A 
ATOM     88  F   UNL A   1      46.586  38.194  27.303  1.00  0.00    -0.206 F 
ATOM     89  C   UNL A   1      45.227  39.806  26.307  1.00  0.00     0.059 A 
ATOM     90  C   UNL A   1      42.851  39.859  26.774  1.00  0.00     0.059 A 
ATOM     91  F   UNL A   1      41.853  38.158  27.996  1.00  0.00    -0.206 F 
ATOM     92  C   UNL A   1      43.971  40.384  26.144  1.00  0.00     0.060 A 
BRANCH  92  93
ATOM     93  S   UNL A   1      43.797  41.824  25.084  1.00  0.00     0.124 S 
ATOM     94  O   UNL A   1      42.465  41.642  24.515  1.00  0.00    -0.237 OA
ATOM     95  O   UNL A   1      43.930  42.906  26.054  1.00  0.00    -0.237 OA
ATOM     96  O   UNL A   1      44.901  41.681  24.141  1.00  0.00    -0.744 OA
ENDBRANCH  92  93
ENDBRANCH  60  85
ENDBRANCH  34  35
ENDBRANCH  27  29
ENDBRANCH  26  27
ENDBRANCH  25  26
ENDBRANCH  24  25
ENDBRANCH  23  24
ENDBRANCH   1  23
TORSDOF 23
ENDMDL
MODEL 3
REMARK VINA RESULT:      -9.8      6.212     13.071
REMARK SMILES Cc1ccc([C@H](CC2CCCC2)C(=O)OCCOCCOCCOC(=O)c2ccc(-c3c4nc(c(-c5c(F)cc(S(=O)(=O)[O-])cc5F)c5ccc([nH]5)c(-c5c(F)cc(S(=O)(=O)[O-])cc5F)c5nc(c(-c6c(F)cc(S(=O)(=O)[O-])cc6F)c6ccc3[nH]6)C=C5)C=C4)cc2)cc1
REMARK SMILES IDX 20 1 19 2 18 3 17 4 16 5 15 6 13 7 14 8 6 9 5 10 1 11 2 12
REMARK SMILES IDX 3 13 94 14 4 15 93 16 7 17 8 18 9 19 12 20 10 21 11 22 21 23
REMARK SMILES IDX 22 24 23 25 24 26 25 27 26 28 27 29 28 30 92 31 29 32 91 33
REMARK SMILES IDX 30 34 31 35 32 36 85 37 33 38 90 39 84 40 86 41 34 42 89 43
REMARK SMILES IDX 83 44 82 45 35 47 69 48 48 49 68 50 49 51 52 52 67 53 87 54
REMARK SMILES IDX 50 55 51 56 66 58 88 59 53 60 36 61 37 62 46 63 38 64 39 65
REMARK SMILES IDX 45 66 47 67 40 68 41 69 42 70 43 71 44 72 70 73 71 74 80 75
REMARK SMILES IDX 72 76 73 77 79 78 81 79 74 80 75 81 76 82 77 83 78 84 54 85
REMARK SMILES IDX 55 86 64 87 56 88 57 89 63 90 65 91 58 92 59 93 60 94 61 95
REMARK SMILES IDX 62 96
REMARK H PARENT 86 46 52 57
REMARK Flexibility Score: inf
ROOT
ATOM      1  C   UNL A   1      43.553  21.111  25.552  1.00  0.00     0.188 C 
ENDROOT
BRANCH   1   2
ATOM      2  C   UNL A   1      42.149  20.987  26.139  1.00  0.00     0.188 C 
BRANCH   2   3
ATOM      3  O   UNL A   1      41.946  21.842  27.248  1.00  0.00    -0.376 OA
BRANCH   3   4
ATOM      4  C   UNL A   1      40.788  22.647  27.047  1.00  0.00     0.202 C 
BRANCH   4   5
ATOM      5  C   UNL A   1      40.857  24.131  27.524  1.00  0.00     0.261 C 
BRANCH   5   6
ATOM      6  O   UNL A   1      40.058  25.281  27.086  1.00  0.00    -0.463 OA
BRANCH   6   7
ATOM      7  C   UNL A   1      39.714  26.217  28.037  1.00  0.00     0.313 C 
ATOM      8  O   UNL A   1      39.277  25.861  29.125  1.00  0.00    -0.252 OA
BRANCH   7   9
ATOM      9  C   UNL A   1      39.856  27.732  27.752  1.00  0.00     0.129 C 
BRANCH   9  10
ATOM     10  C   UNL A   1      41.341  28.291  27.863  1.00  0.00    -0.034 A 
ATOM     11  C   UNL A   1      45.513  29.419  28.635  1.00  0.00     0.044 C 
ATOM     12  C   UNL A   1      44.070  29.095  28.363  1.00  0.00    -0.051 A 
ATOM     13  C   UNL A   1      43.025  29.558  29.164  1.00  0.00     0.004 A 
ATOM     14  C   UNL A   1      43.730  28.320  27.260  1.00  0.00     0.004 A 
ATOM     15  C   UNL A   1      41.687  29.166  28.917  1.00  0.00     0.005 A 
ATOM     16  C   UNL A   1      42.401  27.927  27.014  1.00  0.00     0.005 A 
ENDBRANCH   9  10
BRANCH   9  17
ATOM     17  C   UNL A   1      38.968  28.562  28.691  1.00  0.00     0.023 C 
BRANCH  17  18
ATOM     18  C   UNL A   1      38.177  29.725  28.089  1.00  0.00    -0.010 C 
ATOM     19  C   UNL A   1      36.682  29.396  28.036  1.00  0.00     0.003 C 
ATOM     20  C   UNL A   1      38.199  30.950  29.012  1.00  0.00     0.003 C 
ATOM     21  C   UNL A   1      35.991  30.744  27.984  1.00  0.00     0.000 C 
ATOM     22  C   UNL A   1      36.888  31.691  28.772  1.00  0.00     0.000 C 
ENDBRANCH  17  18
ENDBRANCH   9  17
ENDBRANCH   7   9
ENDBRANCH   6   7
ENDBRANCH   5   6
ENDBRANCH   4   5
ENDBRANCH   3   4
ENDBRANCH   2   3
ENDBRANCH   1   2
BRANCH   1  23
ATOM     23  O   UNL A   1      43.680  21.935  24.398  1.00  0.00    -0.376 OA
BRANCH  23  24
ATOM     24  C   UNL A   1      43.963  23.310  24.622  1.00  0.00     0.202 C 
BRANCH  24  25
ATOM     25  C   UNL A   1      45.032  23.336  25.710  1.00  0.00     0.261 C 
BRANCH  25  26
ATOM     26  O   UNL A   1      45.192  24.648  26.307  1.00  0.00    -0.460 OA
BRANCH  26  27
ATOM     27  C   UNL A   1      46.216  24.805  27.189  1.00  0.00     0.338 C 
ATOM     28  O   UNL A   1      47.378  24.467  26.987  1.00  0.00    -0.246 OA
BRANCH  27  29
ATOM     29  C   UNL A   1      45.694  25.395  28.460  1.00  0.00     0.060 A 
ATOM     30  C   UNL A   1      46.571  25.989  29.361  1.00  0.00     0.016 A 
ATOM     31  C   UNL A   1      44.377  25.173  28.867  1.00  0.00     0.016 A 
ATOM     32  C   UNL A   1      46.200  26.108  30.716  1.00  0.00     0.010 A 
ATOM     33  C   UNL A   1      44.031  25.259  30.218  1.00  0.00     0.010 A 
ATOM     34  C   UNL A   1      44.979  25.597  31.187  1.00  0.00    -0.014 A 
BRANCH  34  35
ATOM     35  C   UNL A   1      44.524  25.534  32.625  1.00  0.00     0.031 A 
ATOM     36  C   UNL A   1      43.844  26.790  32.959  1.00  0.00     0.074 A 
ATOM     37  C   UNL A   1      44.568  24.504  33.537  1.00  0.00     0.049 A 
ATOM     38  N   UNL A   1      42.688  26.933  33.499  1.00  0.00    -0.248 NA
ATOM     39  C   UNL A   1      44.485  28.044  32.519  1.00  0.00     0.031 C 
ATOM     40  C   UNL A   1      43.620  24.151  34.588  1.00  0.00     0.029 A 
ATOM     41  N   UNL A   1      45.586  23.575  33.791  1.00  0.00    -0.354 N 
ATOM     42  C   UNL A   1      42.564  28.292  33.681  1.00  0.00     0.074 A 
ATOM     43  C   UNL A   1      43.516  28.911  32.775  1.00  0.00     0.031 C 
ATOM     44  C   UNL A   1      44.096  23.126  35.340  1.00  0.00     0.029 A 
ATOM     45  C   UNL A   1      45.459  22.766  34.925  1.00  0.00     0.049 A 
ATOM     46  H   UNL A   1      46.363  23.495  33.192  1.00  0.00     0.167 HD
ATOM     47  C   UNL A   1      42.426  28.820  34.931  1.00  0.00     0.037 A 
ATOM     48  C   UNL A   1      46.551  22.474  35.724  1.00  0.00     0.037 A 
ATOM     49  C   UNL A   1      42.633  27.848  35.991  1.00  0.00     0.049 A 
ATOM     50  C   UNL A   1      46.592  23.563  36.782  1.00  0.00     0.074 A 
ATOM     51  C   UNL A   1      41.935  26.724  36.400  1.00  0.00     0.029 A 
ATOM     52  N   UNL A   1      43.875  27.757  36.597  1.00  0.00    -0.354 N 
ATOM     53  N   UNL A   1      45.779  24.586  36.770  1.00  0.00    -0.248 NA
ATOM     54  C   UNL A   1      47.540  23.619  37.894  1.00  0.00     0.031 C 
ATOM     55  C   UNL A   1      42.773  25.961  37.259  1.00  0.00     0.029 A 
ATOM     56  C   UNL A   1      43.979  26.624  37.390  1.00  0.00     0.049 A 
ATOM     57  H   UNL A   1      44.597  28.416  36.478  1.00  0.00     0.167 HD
ATOM     58  C   UNL A   1      45.998  25.354  37.865  1.00  0.00     0.074 A 
ATOM     59  C   UNL A   1      47.172  24.767  38.491  1.00  0.00     0.031 C 
ATOM     60  C   UNL A   1      45.167  26.377  38.203  1.00  0.00     0.037 A 
BRANCH  47  61
ATOM     61  C   UNL A   1      41.507  30.003  34.904  1.00  0.00     0.058 A 
ATOM     62  C   UNL A   1      41.789  31.094  35.736  1.00  0.00     0.135 A 
ATOM     63  C   UNL A   1      40.228  29.984  34.306  1.00  0.00     0.135 A 
ATOM     64  F   UNL A   1      42.993  31.231  36.307  1.00  0.00    -0.206 F 
ATOM     65  C   UNL A   1      40.818  32.035  36.061  1.00  0.00     0.059 A 
ATOM     66  C   UNL A   1      39.220  30.869  34.673  1.00  0.00     0.059 A 
ATOM     67  F   UNL A   1      39.914  29.084  33.360  1.00  0.00    -0.206 F 
ATOM     68  C   UNL A   1      39.523  31.884  35.568  1.00  0.00     0.060 A 
BRANCH  68  69
ATOM     69  S   UNL A   1      38.243  33.011  36.147  1.00  0.00     0.124 S 
ATOM     70  O   UNL A   1      37.030  32.406  35.605  1.00  0.00    -0.237 OA
ATOM     71  O   UNL A   1      38.406  32.924  37.593  1.00  0.00    -0.237 OA
ATOM     72  O   UNL A   1      38.617  34.289  35.547  1.00  0.00    -0.744 OA
ENDBRANCH  68  69
ENDBRANCH  47  61
BRANCH  48  73
ATOM     73  C   UNL A   1      47.832  21.828  35.153  1.00  0.00     0.058 A 
ATOM     74  C   UNL A   1      48.967  22.622  34.869  1.00  0.00     0.135 A 
ATOM     75  C   UNL A   1      48.058  20.443  35.002  1.00  0.00     0.135 A 
ATOM     76  F   UNL A   1      48.851  23.960  34.852  1.00  0.00    -0.206 F 
ATOM     77  C   UNL A   1      50.267  22.091  34.700  1.00  0.00     0.059 A 
ATOM     78  C   UNL A   1      49.348  19.885  34.876  1.00  0.00     0.059 A 
ATOM     79  F   UNL A   1      47.046  19.569  35.088  1.00  0.00    -0.206 F 
ATOM     80  C   UNL A   1      50.458  20.716  34.787  1.00  0.00     0.060 A 
BRANCH  80  81
ATOM     81  S   UNL A   1      52.119  19.989  35.023  1.00  0.00     0.124 S 
ATOM     82  O   UNL A   1      52.530  19.686  33.659  1.00  0.00    -0.237 OA
ATOM     83  O   UNL A   1      52.876  21.050  35.682  1.00  0.00    -0.237 OA
ATOM     84  O   UNL A   1      51.828  18.836  35.871  1.00  0.00    -0.744 OA
ENDBRANCH  80  81
ENDBRANCH  48  73
BRANCH  60  85
ATOM     85  C   UNL A   1      45.356  27.150  39.459  1.00  0.00     0.058 A 
ATOM     86  C   UNL A   1      46.177  28.286  39.531  1.00  0.00     0.135 A 
ATOM     87  C   UNL A   1      44.789  26.692  40.662  1.00  0.00     0.135 A 
ATOM     88  F   UNL A   1      46.841  28.732  38.452  1.00  0.00    -0.206 F 
ATOM     89  C   UNL A   1      46.343  28.991  40.715  1.00  0.00     0.059 A 
ATOM     90  C   UNL A   1      45.006  27.335  41.869  1.00  0.00     0.059 A 
ATOM     91  F   UNL A   1      43.981  25.621  40.691  1.00  0.00    -0.206 F 
ATOM     92  C   UNL A   1      45.744  28.511  41.876  1.00  0.00     0.060 A 
BRANCH  92  93
ATOM     93  S   UNL A   1      45.916  29.440  43.403  1.00  0.00     0.124 S 
ATOM     94  O   UNL A   1      44.788  30.367  43.341  1.00  0.00    -0.237 OA
ATOM     95  O   UNL A   1      45.807  28.376  44.395  1.00  0.00    -0.237 OA
ATOM     96  O   UNL A   1      47.233  30.054  43.275  1.00  0.00    -0.744 OA
ENDBRANCH  92  93
ENDBRANCH  60  85
ENDBRANCH  34  35
ENDBRANCH  27  29
ENDBRANCH  26  27
ENDBRANCH  25  26
ENDBRANCH  24  25
ENDBRANCH  23  24
ENDBRANCH   1  23
TORSDOF 23
ENDMDL
