MODEL 1
REMARK VINA RESULT:     -10.3      0.000      0.000
REMARK SMILES O=C(OCCOCCOCCOC(=O)c1sccc1S(=O)(=O)Nc1ccccc1N1CCCCC1)c1ccc(-c2c3nc(c(-c4c(F)cc(S(=O)(=O)[O-])cc4F)c4ccc([nH]4)c(-c4c(F)cc(S(=O)(=O)[O-])cc4F)c4nc(c(-c5c(F)cc(S(=O)(=O)[O-])cc5F)c5ccc2[nH]5)C=C4)C=C3)cc1
REMARK SMILES IDX 8 1 7 2 6 3 5 4 4 5 3 6 2 7 1 8 36 9 37 10 101 11 38 12
REMARK SMILES IDX 100 13 39 14 40 15 41 16 94 17 42 18 99 19 93 20 95 21 43 22
REMARK SMILES IDX 98 23 92 24 91 25 44 27 78 28 57 29 77 30 58 31 61 32 76 33
REMARK SMILES IDX 96 34 59 35 60 36 75 38 97 39 62 40 45 41 46 42 55 43 47 44
REMARK SMILES IDX 48 45 54 46 56 47 49 48 50 49 51 50 52 51 53 52 79 53 80 54
REMARK SMILES IDX 89 55 81 56 82 57 88 58 90 59 83 60 84 61 85 62 86 63 87 64
REMARK SMILES IDX 63 65 64 66 73 67 65 68 66 69 72 70 74 71 67 72 68 73 69 74
REMARK SMILES IDX 70 75 71 76 9 77 10 78 11 79 12 80 13 81 14 82 15 83 16 84
REMARK SMILES IDX 19 85 17 86 18 87 20 88 21 89 22 90 23 91 24 93 25 94 29 95
REMARK SMILES IDX 26 96 28 97 27 98 30 99 31 100 35 101 32 102 34 103 33 104
REMARK H PARENT 95 26 61 37 23 92
REMARK Flexibility Score: inf
ROOT
ATOM      1  C   UNL A   1      33.240  32.474  27.616  1.00  0.00     0.188 C 
ENDROOT
BRANCH   1   2
ATOM      2  C   UNL A   1      33.386  33.877  28.215  1.00  0.00     0.188 C 
BRANCH   2   3
ATOM      3  O   UNL A   1      34.571  33.988  28.987  1.00  0.00    -0.376 OA
BRANCH   3   4
ATOM      4  C   UNL A   1      34.587  33.316  30.238  1.00  0.00     0.202 C 
BRANCH   4   5
ATOM      5  C   UNL A   1      35.899  32.623  30.645  1.00  0.00     0.261 C 
BRANCH   5   6
ATOM      6  O   UNL A   1      35.899  31.192  30.502  1.00  0.00    -0.460 OA
BRANCH   6   7
ATOM      7  C   UNL A   1      36.265  30.470  29.414  1.00  0.00     0.338 C 
ATOM      8  O   UNL A   1      35.401  30.109  28.617  1.00  0.00    -0.246 OA
BRANCH   7   9
ATOM      9  C   UNL A   1      37.684  30.085  29.158  1.00  0.00     0.060 A 
ATOM     10  C   UNL A   1      38.168  29.755  27.896  1.00  0.00     0.016 A 
ATOM     11  C   UNL A   1      38.603  30.170  30.211  1.00  0.00     0.016 A 
ATOM     12  C   UNL A   1      39.502  29.426  27.677  1.00  0.00     0.010 A 
ATOM     13  C   UNL A   1      39.960  29.896  29.993  1.00  0.00     0.010 A 
ATOM     14  C   UNL A   1      40.412  29.491  28.724  1.00  0.00    -0.014 A 
BRANCH  14  15
ATOM     15  C   UNL A   1      41.795  28.998  28.531  1.00  0.00     0.031 A 
ATOM     16  C   UNL A   1      42.897  30.009  28.536  1.00  0.00     0.074 A 
ATOM     17  C   UNL A   1      42.084  27.685  28.438  1.00  0.00     0.049 A 
ATOM     18  N   UNL A   1      44.161  29.852  28.258  1.00  0.00    -0.248 NA
ATOM     19  C   UNL A   1      42.534  31.373  28.962  1.00  0.00     0.031 C 
ATOM     20  C   UNL A   1      41.140  26.600  28.666  1.00  0.00     0.029 A 
ATOM     21  N   UNL A   1      43.248  27.033  28.118  1.00  0.00    -0.354 N 
ATOM     22  C   UNL A   1      44.746  31.088  28.489  1.00  0.00     0.074 A 
ATOM     23  C   UNL A   1      43.697  31.999  28.885  1.00  0.00     0.031 C 
ATOM     24  C   UNL A   1      41.719  25.425  28.376  1.00  0.00     0.029 A 
ATOM     25  C   UNL A   1      43.073  25.681  27.921  1.00  0.00     0.049 A 
ATOM     26  H   UNL A   1      44.120  27.484  28.039  1.00  0.00     0.167 HD
ATOM     27  C   UNL A   1      46.053  31.415  28.401  1.00  0.00     0.037 A 
ATOM     28  C   UNL A   1      43.895  24.757  27.388  1.00  0.00     0.037 A 
ATOM     29  C   UNL A   1      47.073  30.486  28.002  1.00  0.00     0.049 A 
ATOM     30  C   UNL A   1      45.296  25.189  27.074  1.00  0.00     0.074 A 
ATOM     31  C   UNL A   1      48.426  30.709  27.831  1.00  0.00     0.029 A 
ATOM     32  N   UNL A   1      46.843  29.148  27.705  1.00  0.00    -0.354 N 
ATOM     33  N   UNL A   1      45.836  26.374  27.242  1.00  0.00    -0.248 NA
ATOM     34  C   UNL A   1      46.210  24.173  26.544  1.00  0.00     0.031 C 
ATOM     35  C   UNL A   1      49.006  29.515  27.386  1.00  0.00     0.029 A 
ATOM     36  C   UNL A   1      48.023  28.538  27.322  1.00  0.00     0.049 A 
ATOM     37  H   UNL A   1      45.967  28.699  27.760  1.00  0.00     0.167 HD
ATOM     38  C   UNL A   1      47.170  26.233  26.894  1.00  0.00     0.074 A 
ATOM     39  C   UNL A   1      47.349  24.851  26.488  1.00  0.00     0.031 C 
ATOM     40  C   UNL A   1      48.162  27.157  26.930  1.00  0.00     0.037 A 
BRANCH  27  41
ATOM     41  C   UNL A   1      46.418  32.837  28.698  1.00  0.00     0.058 A 
ATOM     42  C   UNL A   1      46.569  33.792  27.679  1.00  0.00     0.135 A 
ATOM     43  C   UNL A   1      46.650  33.243  30.020  1.00  0.00     0.135 A 
ATOM     44  F   UNL A   1      46.400  33.443  26.394  1.00  0.00    -0.206 F 
ATOM     45  C   UNL A   1      46.951  35.099  27.961  1.00  0.00     0.059 A 
ATOM     46  C   UNL A   1      47.014  34.551  30.327  1.00  0.00     0.059 A 
ATOM     47  F   UNL A   1      46.544  32.362  31.027  1.00  0.00    -0.206 F 
ATOM     48  C   UNL A   1      47.172  35.469  29.290  1.00  0.00     0.060 A 
BRANCH  48  49
ATOM     49  S   UNL A   1      47.666  37.168  29.643  1.00  0.00     0.124 S 
ATOM     50  O   UNL A   1      49.121  37.051  29.660  1.00  0.00    -0.237 OA
ATOM     51  O   UNL A   1      47.104  37.898  28.511  1.00  0.00    -0.237 OA
ATOM     52  O   UNL A   1      47.043  37.442  30.934  1.00  0.00    -0.744 OA
ENDBRANCH  48  49
ENDBRANCH  27  41
BRANCH  28  53
ATOM     53  C   UNL A   1      43.404  23.384  27.081  1.00  0.00     0.058 A 
ATOM     54  C   UNL A   1      43.229  22.417  28.080  1.00  0.00     0.135 A 
ATOM     55  C   UNL A   1      43.123  23.003  25.756  1.00  0.00     0.135 A 
ATOM     56  F   UNL A   1      43.481  22.725  29.361  1.00  0.00    -0.206 F 
ATOM     57  C   UNL A   1      42.834  21.114  27.777  1.00  0.00     0.059 A 
ATOM     58  C   UNL A   1      42.710  21.713  25.430  1.00  0.00     0.059 A 
ATOM     59  F   UNL A   1      43.250  23.892  24.758  1.00  0.00    -0.206 F 
ATOM     60  C   UNL A   1      42.590  20.768  26.446  1.00  0.00     0.060 A 
BRANCH  60  61
ATOM     61  S   UNL A   1      42.126  19.064  26.056  1.00  0.00     0.124 S 
ATOM     62  O   UNL A   1      40.717  19.218  25.712  1.00  0.00    -0.237 OA
ATOM     63  O   UNL A   1      43.019  18.742  24.948  1.00  0.00    -0.237 OA
ATOM     64  O   UNL A   1      42.392  18.350  27.301  1.00  0.00    -0.744 OA
ENDBRANCH  60  61
ENDBRANCH  28  53
BRANCH  40  65
ATOM     65  C   UNL A   1      49.532  26.681  26.563  1.00  0.00     0.058 A 
ATOM     66  C   UNL A   1      49.973  26.673  25.232  1.00  0.00     0.135 A 
ATOM     67  C   UNL A   1      50.425  26.273  27.565  1.00  0.00     0.135 A 
ATOM     68  F   UNL A   1      49.145  27.044  24.243  1.00  0.00    -0.206 F 
ATOM     69  C   UNL A   1      51.256  26.256  24.904  1.00  0.00     0.059 A 
ATOM     70  C   UNL A   1      51.721  25.877  27.261  1.00  0.00     0.059 A 
ATOM     71  F   UNL A   1      50.046  26.272  28.853  1.00  0.00    -0.206 F 
ATOM     72  C   UNL A   1      52.123  25.862  25.926  1.00  0.00     0.060 A 
BRANCH  72  73
ATOM     73  S   UNL A   1      53.802  25.369  25.492  1.00  0.00     0.124 S 
ATOM     74  O   UNL A   1      54.347  25.007  26.796  1.00  0.00    -0.237 OA
ATOM     75  O   UNL A   1      53.576  24.261  24.568  1.00  0.00    -0.237 OA
ATOM     76  O   UNL A   1      54.362  26.575  24.888  1.00  0.00    -0.744 OA
ENDBRANCH  72  73
ENDBRANCH  40  65
ENDBRANCH  14  15
ENDBRANCH   7   9
ENDBRANCH   6   7
ENDBRANCH   5   6
ENDBRANCH   4   5
ENDBRANCH   3   4
ENDBRANCH   2   3
ENDBRANCH   1   2
BRANCH   1  77
ATOM     77  O   UNL A   1      32.068  32.199  26.865  1.00  0.00    -0.376 OA
BRANCH  77  78
ATOM     78  C   UNL A   1      31.729  30.870  26.496  1.00  0.00     0.202 C 
BRANCH  78  79
ATOM     79  C   UNL A   1      32.188  29.602  27.257  1.00  0.00     0.261 C 
BRANCH  79  80
ATOM     80  O   UNL A   1      31.713  28.307  26.857  1.00  0.00    -0.459 OA
BRANCH  80  81
ATOM     81  C   UNL A   1      32.556  27.638  26.016  1.00  0.00     0.349 C 
ATOM     82  O   UNL A   1      33.731  27.437  26.282  1.00  0.00    -0.245 OA
BRANCH  81  83
ATOM     83  C   UNL A   1      31.906  27.090  24.843  1.00  0.00     0.133 A 
ATOM     84  S   UNL A   1      31.807  28.204  23.491  1.00  0.00    -0.136 S 
ATOM     85  C   UNL A   1      31.346  25.873  24.497  1.00  0.00     0.113 A 
ATOM     86  C   UNL A   1      31.195  27.017  22.442  1.00  0.00     0.067 A 
ATOM     87  C   UNL A   1      30.970  25.834  23.100  1.00  0.00     0.035 A 
BRANCH  85  88
ATOM     88  S   UNL A   1      31.201  24.439  25.447  1.00  0.00     0.263 S 
ATOM     89  O   UNL A   1      30.384  24.846  26.571  1.00  0.00    -0.201 OA
ATOM     90  O   UNL A   1      30.666  23.497  24.481  1.00  0.00    -0.201 OA
BRANCH  88  91
ATOM     91  N   UNL A   1      32.523  23.669  26.088  1.00  0.00    -0.277 N 
ATOM     92  H   UNL A   1      32.496  23.505  27.059  1.00  0.00     0.180 HD
BRANCH  91  93
ATOM     93  C   UNL A   1      33.692  23.215  25.411  1.00  0.00     0.072 A 
ATOM     94  C   UNL A   1      34.637  24.234  25.183  1.00  0.00     0.029 A 
ATOM     95  C   UNL A   1      33.926  21.913  24.916  1.00  0.00     0.061 A 
ATOM     96  C   UNL A   1      35.858  23.962  24.579  1.00  0.00     0.002 A 
ATOM     97  C   UNL A   1      35.190  21.658  24.354  1.00  0.00     0.028 A 
ATOM     98  C   UNL A   1      36.147  22.664  24.193  1.00  0.00     0.002 A 
BRANCH  95  99
ATOM     99  N   UNL A   1      32.961  20.916  24.909  1.00  0.00    -0.370 N 
ATOM    100  C   UNL A   1      33.074  19.724  25.754  1.00  0.00     0.116 C 
ATOM    101  C   UNL A   1      32.121  20.814  23.710  1.00  0.00     0.116 C 
ATOM    102  C   UNL A   1      33.358  18.451  24.978  1.00  0.00     0.021 C 
ATOM    103  C   UNL A   1      32.502  19.562  22.916  1.00  0.00     0.021 C 
ATOM    104  C   UNL A   1      32.406  18.319  23.797  1.00  0.00     0.004 C 
ENDBRANCH  95  99
ENDBRANCH  91  93
ENDBRANCH  88  91
ENDBRANCH  85  88
ENDBRANCH  81  83
ENDBRANCH  80  81
ENDBRANCH  79  80
ENDBRANCH  78  79
ENDBRANCH  77  78
ENDBRANCH   1  77
TORSDOF 24
ENDMDL
MODEL 2
REMARK VINA RESULT:     -10.2      1.022      7.903
REMARK SMILES O=C(OCCOCCOCCOC(=O)c1sccc1S(=O)(=O)Nc1ccccc1N1CCCCC1)c1ccc(-c2c3nc(c(-c4c(F)cc(S(=O)(=O)[O-])cc4F)c4ccc([nH]4)c(-c4c(F)cc(S(=O)(=O)[O-])cc4F)c4nc(c(-c5c(F)cc(S(=O)(=O)[O-])cc5F)c5ccc2[nH]5)C=C4)C=C3)cc1
REMARK SMILES IDX 8 1 7 2 6 3 5 4 4 5 3 6 2 7 1 8 36 9 37 10 101 11 38 12
REMARK SMILES IDX 100 13 39 14 40 15 41 16 94 17 42 18 99 19 93 20 95 21 43 22
REMARK SMILES IDX 98 23 92 24 91 25 44 27 78 28 57 29 77 30 58 31 61 32 76 33
REMARK SMILES IDX 96 34 59 35 60 36 75 38 97 39 62 40 45 41 46 42 55 43 47 44
REMARK SMILES IDX 48 45 54 46 56 47 49 48 50 49 51 50 52 51 53 52 79 53 80 54
REMARK SMILES IDX 89 55 81 56 82 57 88 58 90 59 83 60 84 61 85 62 86 63 87 64
REMARK SMILES IDX 63 65 64 66 73 67 65 68 66 69 72 70 74 71 67 72 68 73 69 74
REMARK SMILES IDX 70 75 71 76 9 77 10 78 11 79 12 80 13 81 14 82 15 83 16 84
REMARK SMILES IDX 19 85 17 86 18 87 20 88 21 89 22 90 23 91 24 93 25 94 29 95
REMARK SMILES IDX 26 96 28 97 27 98 30 99 31 100 35 101 32 102 34 103 33 104
REMARK H PARENT 95 26 61 37 23 92
REMARK Flexibility Score: inf
ROOT
ATOM      1  C   UNL A   1      35.397  31.742  28.075  1.00  0.00     0.188 C 
ENDROOT
BRANCH   1   2
ATOM      2  C   UNL A   1      35.237  33.264  28.154  1.00  0.00     0.188 C 
BRANCH   2   3
ATOM      3  O   UNL A   1      34.685  33.661  29.399  1.00  0.00    -0.376 OA
BRANCH   3   4
ATOM      4  C   UNL A   1      34.799  32.742  30.475  1.00  0.00     0.202 C 
BRANCH   4   5
ATOM      5  C   UNL A   1      35.823  33.073  31.574  1.00  0.00     0.261 C 
BRANCH   5   6
ATOM      6  O   UNL A   1      37.150  32.568  31.341  1.00  0.00    -0.460 OA
BRANCH   6   7
ATOM      7  C   UNL A   1      37.583  31.290  31.471  1.00  0.00     0.338 C 
ATOM      8  O   UNL A   1      36.919  30.498  32.136  1.00  0.00    -0.246 OA
BRANCH   7   9
ATOM      9  C   UNL A   1      38.850  30.815  30.843  1.00  0.00     0.060 A 
ATOM     10  C   UNL A   1      39.994  30.506  31.573  1.00  0.00     0.016 A 
ATOM     11  C   UNL A   1      38.861  30.556  29.466  1.00  0.00     0.016 A 
ATOM     12  C   UNL A   1      41.156  30.038  30.967  1.00  0.00     0.010 A 
ATOM     13  C   UNL A   1      40.006  30.032  28.852  1.00  0.00     0.010 A 
ATOM     14  C   UNL A   1      41.175  29.798  29.599  1.00  0.00    -0.014 A 
BRANCH  14  15
ATOM     15  C   UNL A   1      42.448  29.446  28.930  1.00  0.00     0.031 A 
ATOM     16  C   UNL A   1      42.638  28.024  28.507  1.00  0.00     0.074 A 
ATOM     17  C   UNL A   1      43.379  30.371  28.624  1.00  0.00     0.049 A 
ATOM     18  N   UNL A   1      43.702  27.441  28.030  1.00  0.00    -0.248 NA
ATOM     19  C   UNL A   1      41.452  27.152  28.586  1.00  0.00     0.031 C 
ATOM     20  C   UNL A   1      43.206  31.811  28.757  1.00  0.00     0.029 A 
ATOM     21  N   UNL A   1      44.660  30.246  28.150  1.00  0.00    -0.354 N 
ATOM     22  C   UNL A   1      43.312  26.143  27.738  1.00  0.00     0.074 A 
ATOM     23  C   UNL A   1      41.929  26.005  28.132  1.00  0.00     0.031 C 
ATOM     24  C   UNL A   1      44.362  32.435  28.482  1.00  0.00     0.029 A 
ATOM     25  C   UNL A   1      45.363  31.431  28.174  1.00  0.00     0.049 A 
ATOM     26  H   UNL A   1      45.039  29.398  27.824  1.00  0.00     0.167 HD
ATOM     27  C   UNL A   1      44.047  25.166  27.165  1.00  0.00     0.037 A 
ATOM     28  C   UNL A   1      46.677  31.676  28.012  1.00  0.00     0.037 A 
ATOM     29  C   UNL A   1      45.422  25.335  26.785  1.00  0.00     0.049 A 
ATOM     30  C   UNL A   1      47.540  30.525  27.592  1.00  0.00     0.074 A 
ATOM     31  C   UNL A   1      46.287  24.407  26.236  1.00  0.00     0.029 A 
ATOM     32  N   UNL A   1      46.135  26.520  26.923  1.00  0.00    -0.354 N 
ATOM     33  N   UNL A   1      47.182  29.282  27.368  1.00  0.00    -0.248 NA
ATOM     34  C   UNL A   1      48.962  30.799  27.362  1.00  0.00     0.031 C 
ATOM     35  C   UNL A   1      47.536  25.020  26.086  1.00  0.00     0.029 A 
ATOM     36  C   UNL A   1      47.438  26.340  26.500  1.00  0.00     0.049 A 
ATOM     37  H   UNL A   1      45.765  27.364  27.270  1.00  0.00     0.167 HD
ATOM     38  C   UNL A   1      48.321  28.636  26.913  1.00  0.00     0.074 A 
ATOM     39  C   UNL A   1      49.384  29.624  26.914  1.00  0.00     0.031 C 
ATOM     40  C   UNL A   1      48.468  27.350  26.510  1.00  0.00     0.037 A 
BRANCH  27  41
ATOM     41  C   UNL A   1      43.379  23.840  26.968  1.00  0.00     0.058 A 
ATOM     42  C   UNL A   1      42.834  23.461  25.731  1.00  0.00     0.135 A 
ATOM     43  C   UNL A   1      43.257  22.947  28.043  1.00  0.00     0.135 A 
ATOM     44  F   UNL A   1      42.888  24.298  24.683  1.00  0.00    -0.206 F 
ATOM     45  C   UNL A   1      42.177  22.246  25.569  1.00  0.00     0.059 A 
ATOM     46  C   UNL A   1      42.621  21.718  27.899  1.00  0.00     0.059 A 
ATOM     47  F   UNL A   1      43.739  23.274  29.252  1.00  0.00    -0.206 F 
ATOM     48  C   UNL A   1      42.075  21.381  26.661  1.00  0.00     0.060 A 
BRANCH  48  49
ATOM     49  S   UNL A   1      41.221  19.807  26.438  1.00  0.00     0.124 S 
ATOM     50  O   UNL A   1      42.024  19.185  25.390  1.00  0.00    -0.237 OA
ATOM     51  O   UNL A   1      41.331  19.202  27.762  1.00  0.00    -0.237 OA
ATOM     52  O   UNL A   1      39.873  20.204  26.045  1.00  0.00    -0.744 OA
ENDBRANCH  48  49
ENDBRANCH  27  41
BRANCH  28  53
ATOM     53  C   UNL A   1      47.242  33.027  28.292  1.00  0.00     0.058 A 
ATOM     54  C   UNL A   1      47.675  33.401  29.571  1.00  0.00     0.135 A 
ATOM     55  C   UNL A   1      47.332  33.990  27.271  1.00  0.00     0.135 A 
ATOM     56  F   UNL A   1      47.613  32.521  30.582  1.00  0.00    -0.206 F 
ATOM     57  C   UNL A   1      48.139  34.688  29.840  1.00  0.00     0.059 A 
ATOM     58  C   UNL A   1      47.809  35.277  27.511  1.00  0.00     0.059 A 
ATOM     59  F   UNL A   1      46.953  33.684  26.021  1.00  0.00    -0.206 F 
ATOM     60  C   UNL A   1      48.190  35.625  28.805  1.00  0.00     0.060 A 
BRANCH  60  61
ATOM     61  S   UNL A   1      48.746  37.305  29.172  1.00  0.00     0.124 S 
ATOM     62  O   UNL A   1      50.174  37.098  29.385  1.00  0.00    -0.237 OA
ATOM     63  O   UNL A   1      48.383  38.029  27.958  1.00  0.00    -0.237 OA
ATOM     64  O   UNL A   1      47.981  37.660  30.363  1.00  0.00    -0.744 OA
ENDBRANCH  60  61
ENDBRANCH  28  53
BRANCH  40  65
ATOM     65  C   UNL A   1      49.817  26.962  25.993  1.00  0.00     0.058 A 
ATOM     66  C   UNL A   1      50.197  27.221  24.669  1.00  0.00     0.135 A 
ATOM     67  C   UNL A   1      50.753  26.367  26.852  1.00  0.00     0.135 A 
ATOM     68  F   UNL A   1      49.327  27.778  23.812  1.00  0.00    -0.206 F 
ATOM     69  C   UNL A   1      51.461  26.883  24.206  1.00  0.00     0.059 A 
ATOM     70  C   UNL A   1      52.032  26.045  26.416  1.00  0.00     0.059 A 
ATOM     71  F   UNL A   1      50.433  26.108  28.130  1.00  0.00    -0.206 F 
ATOM     72  C   UNL A   1      52.372  26.298  25.088  1.00  0.00     0.060 A 
BRANCH  72  73
ATOM     73  S   UNL A   1      54.027  25.907  24.488  1.00  0.00     0.124 S 
ATOM     74  O   UNL A   1      54.815  26.981  25.085  1.00  0.00    -0.237 OA
ATOM     75  O   UNL A   1      54.254  24.573  25.036  1.00  0.00    -0.237 OA
ATOM     76  O   UNL A   1      53.882  25.965  23.036  1.00  0.00    -0.744 OA
ENDBRANCH  72  73
ENDBRANCH  40  65
ENDBRANCH  14  15
ENDBRANCH   7   9
ENDBRANCH   6   7
ENDBRANCH   5   6
ENDBRANCH   4   5
ENDBRANCH   3   4
ENDBRANCH   2   3
ENDBRANCH   1   2
BRANCH   1  77
ATOM     77  O   UNL A   1      34.450  31.021  27.304  1.00  0.00    -0.376 OA
BRANCH  77  78
ATOM     78  C   UNL A   1      34.613  29.633  27.052  1.00  0.00     0.202 C 
BRANCH  78  79
ATOM     79  C   UNL A   1      33.503  28.570  27.236  1.00  0.00     0.261 C 
BRANCH  79  80
ATOM     80  O   UNL A   1      33.262  27.592  26.211  1.00  0.00    -0.459 OA
BRANCH  80  81
ATOM     81  C   UNL A   1      32.126  27.811  25.486  1.00  0.00     0.349 C 
ATOM     82  O   UNL A   1      31.441  28.813  25.621  1.00  0.00    -0.245 OA
BRANCH  81  83
ATOM     83  C   UNL A   1      31.875  26.812  24.468  1.00  0.00     0.133 A 
ATOM     84  S   UNL A   1      31.920  27.431  22.827  1.00  0.00    -0.136 S 
ATOM     85  C   UNL A   1      31.624  25.450  24.454  1.00  0.00     0.113 A 
ATOM     86  C   UNL A   1      31.783  25.883  22.143  1.00  0.00     0.067 A 
ATOM     87  C   UNL A   1      31.605  24.923  23.107  1.00  0.00     0.035 A 
BRANCH  85  88
ATOM     88  S   UNL A   1      31.494  24.361  25.787  1.00  0.00     0.263 S 
ATOM     89  O   UNL A   1      31.042  25.197  26.879  1.00  0.00    -0.201 OA
ATOM     90  O   UNL A   1      30.607  23.345  25.252  1.00  0.00    -0.201 OA
BRANCH  88  91
ATOM     91  N   UNL A   1      32.798  23.511  26.362  1.00  0.00    -0.277 N 
ATOM     92  H   UNL A   1      32.781  23.296  27.322  1.00  0.00     0.180 HD
BRANCH  91  93
ATOM     93  C   UNL A   1      33.939  23.055  25.640  1.00  0.00     0.072 A 
ATOM     94  C   UNL A   1      34.942  24.034  25.504  1.00  0.00     0.029 A 
ATOM     95  C   UNL A   1      34.096  21.794  25.024  1.00  0.00     0.061 A 
ATOM     96  C   UNL A   1      36.146  23.748  24.873  1.00  0.00     0.002 A 
ATOM     97  C   UNL A   1      35.344  21.519  24.435  1.00  0.00     0.028 A 
ATOM     98  C   UNL A   1      36.359  22.477  24.365  1.00  0.00     0.002 A 
BRANCH  95  99
ATOM     99  N   UNL A   1      33.075  20.860  24.928  1.00  0.00    -0.370 N 
ATOM    100  C   UNL A   1      33.140  19.568  25.615  1.00  0.00     0.116 C 
ATOM    101  C   UNL A   1      32.196  20.956  23.755  1.00  0.00     0.116 C 
ATOM    102  C   UNL A   1      33.326  18.388  24.679  1.00  0.00     0.021 C 
ATOM    103  C   UNL A   1      32.481  19.794  22.800  1.00  0.00     0.021 C 
ATOM    104  C   UNL A   1      32.336  18.457  23.524  1.00  0.00     0.004 C 
ENDBRANCH  95  99
ENDBRANCH  91  93
ENDBRANCH  88  91
ENDBRANCH  85  88
ENDBRANCH  81  83
ENDBRANCH  80  81
ENDBRANCH  79  80
ENDBRANCH  78  79
ENDBRANCH  77  78
ENDBRANCH   1  77
TORSDOF 24
ENDMDL
MODEL 3
REMARK VINA RESULT:     -10.0      6.066     11.282
REMARK SMILES O=C(OCCOCCOCCOC(=O)c1sccc1S(=O)(=O)Nc1ccccc1N1CCCCC1)c1ccc(-c2c3nc(c(-c4c(F)cc(S(=O)(=O)[O-])cc4F)c4ccc([nH]4)c(-c4c(F)cc(S(=O)(=O)[O-])cc4F)c4nc(c(-c5c(F)cc(S(=O)(=O)[O-])cc5F)c5ccc2[nH]5)C=C4)C=C3)cc1
REMARK SMILES IDX 8 1 7 2 6 3 5 4 4 5 3 6 2 7 1 8 36 9 37 10 101 11 38 12
REMARK SMILES IDX 100 13 39 14 40 15 41 16 94 17 42 18 99 19 93 20 95 21 43 22
REMARK SMILES IDX 98 23 92 24 91 25 44 27 78 28 57 29 77 30 58 31 61 32 76 33
REMARK SMILES IDX 96 34 59 35 60 36 75 38 97 39 62 40 45 41 46 42 55 43 47 44
REMARK SMILES IDX 48 45 54 46 56 47 49 48 50 49 51 50 52 51 53 52 79 53 80 54
REMARK SMILES IDX 89 55 81 56 82 57 88 58 90 59 83 60 84 61 85 62 86 63 87 64
REMARK SMILES IDX 63 65 64 66 73 67 65 68 66 69 72 70 74 71 67 72 68 73 69 74
REMARK SMILES IDX 70 75 71 76 9 77 10 78 11 79 12 80 13 81 14 82 15 83 16 84
REMARK SMILES IDX 19 85 17 86 18 87 20 88 21 89 22 90 23 91 24 93 25 94 29 95
REMARK SMILES IDX 26 96 28 97 27 98 30 99 31 100 35 101 32 102 34 103 33 104
REMARK H PARENT 95 26 61 37 23 92
REMARK Flexibility Score: inf
ROOT
ATOM      1  C   UNL A   1      39.063  23.491  26.910  1.00  0.00     0.188 C 
ENDROOT
BRANCH   1   2
ATOM      2  C   UNL A   1      39.509  22.271  26.096  1.00  0.00     0.188 C 
BRANCH   2   3
ATOM      3  O   UNL A   1      40.508  21.531  26.781  1.00  0.00    -0.376 OA
BRANCH   3   4
ATOM      4  C   UNL A   1      41.783  21.449  26.161  1.00  0.00     0.202 C 
BRANCH   4   5
ATOM      5  C   UNL A   1      42.446  22.773  25.743  1.00  0.00     0.261 C 
BRANCH   5   6
ATOM      6  O   UNL A   1      42.788  23.651  26.830  1.00  0.00    -0.460 OA
BRANCH   6   7
ATOM      7  C   UNL A   1      43.053  24.979  26.768  1.00  0.00     0.338 C 
ATOM      8  O   UNL A   1      43.623  25.430  25.777  1.00  0.00    -0.246 OA
BRANCH   7   9
ATOM      9  C   UNL A   1      42.686  25.912  27.872  1.00  0.00     0.060 A 
ATOM     10  C   UNL A   1      43.483  26.986  28.259  1.00  0.00     0.016 A 
ATOM     11  C   UNL A   1      41.430  25.776  28.477  1.00  0.00     0.016 A 
ATOM     12  C   UNL A   1      43.107  27.860  29.274  1.00  0.00     0.010 A 
ATOM     13  C   UNL A   1      41.015  26.683  29.462  1.00  0.00     0.010 A 
ATOM     14  C   UNL A   1      41.869  27.716  29.888  1.00  0.00    -0.014 A 
BRANCH  14  15
ATOM     15  C   UNL A   1      41.529  28.546  31.066  1.00  0.00     0.031 A 
ATOM     16  C   UNL A   1      40.443  29.562  30.909  1.00  0.00     0.074 A 
ATOM     17  C   UNL A   1      42.103  28.354  32.271  1.00  0.00     0.049 A 
ATOM     18  N   UNL A   1      40.055  30.490  31.737  1.00  0.00    -0.248 NA
ATOM     19  C   UNL A   1      39.653  29.488  29.667  1.00  0.00     0.031 C 
ATOM     20  C   UNL A   1      42.984  27.246  32.613  1.00  0.00     0.029 A 
ATOM     21  N   UNL A   1      42.045  29.085  33.430  1.00  0.00    -0.354 N 
ATOM     22  C   UNL A   1      38.970  31.100  31.128  1.00  0.00     0.074 A 
ATOM     23  C   UNL A   1      38.784  30.472  29.840  1.00  0.00     0.031 C 
ATOM     24  C   UNL A   1      43.473  27.419  33.850  1.00  0.00     0.029 A 
ATOM     25  C   UNL A   1      42.953  28.666  34.378  1.00  0.00     0.049 A 
ATOM     26  H   UNL A   1      41.419  29.831  33.571  1.00  0.00     0.167 HD
ATOM     27  C   UNL A   1      38.185  32.081  31.622  1.00  0.00     0.037 A 
ATOM     28  C   UNL A   1      43.357  29.247  35.524  1.00  0.00     0.037 A 
ATOM     29  C   UNL A   1      38.396  32.686  32.907  1.00  0.00     0.049 A 
ATOM     30  C   UNL A   1      42.626  30.481  35.959  1.00  0.00     0.074 A 
ATOM     31  C   UNL A   1      37.697  33.720  33.500  1.00  0.00     0.029 A 
ATOM     32  N   UNL A   1      39.394  32.310  33.798  1.00  0.00    -0.354 N 
ATOM     33  N   UNL A   1      41.633  31.092  35.355  1.00  0.00    -0.248 NA
ATOM     34  C   UNL A   1      43.027  31.086  37.234  1.00  0.00     0.031 C 
ATOM     35  C   UNL A   1      38.302  33.998  34.731  1.00  0.00     0.029 A 
ATOM     36  C   UNL A   1      39.351  33.110  34.924  1.00  0.00     0.049 A 
ATOM     37  H   UNL A   1      40.037  31.579  33.649  1.00  0.00     0.167 HD
ATOM     38  C   UNL A   1      41.249  32.118  36.203  1.00  0.00     0.074 A 
ATOM     39  C   UNL A   1      42.131  32.057  37.353  1.00  0.00     0.031 C 
ATOM     40  C   UNL A   1      40.243  33.015  36.053  1.00  0.00     0.037 A 
BRANCH  27  41
ATOM     41  C   UNL A   1      37.074  32.570  30.743  1.00  0.00     0.058 A 
ATOM     42  C   UNL A   1      37.207  33.724  29.955  1.00  0.00     0.135 A 
ATOM     43  C   UNL A   1      35.849  31.888  30.713  1.00  0.00     0.135 A 
ATOM     44  F   UNL A   1      38.345  34.435  29.982  1.00  0.00    -0.206 F 
ATOM     45  C   UNL A   1      36.155  34.194  29.176  1.00  0.00     0.059 A 
ATOM     46  C   UNL A   1      34.790  32.330  29.926  1.00  0.00     0.059 A 
ATOM     47  F   UNL A   1      35.664  30.794  31.468  1.00  0.00    -0.206 F 
ATOM     48  C   UNL A   1      34.949  33.490  29.169  1.00  0.00     0.060 A 
BRANCH  48  49
ATOM     49  S   UNL A   1      33.593  34.110  28.153  1.00  0.00     0.124 S 
ATOM     50  O   UNL A   1      34.305  34.956  27.200  1.00  0.00    -0.237 OA
ATOM     51  O   UNL A   1      33.025  32.882  27.608  1.00  0.00    -0.237 OA
ATOM     52  O   UNL A   1      32.747  34.817  29.110  1.00  0.00    -0.744 OA
ENDBRANCH  48  49
ENDBRANCH  27  41
BRANCH  28  53
ATOM     53  C   UNL A   1      44.515  28.703  36.288  1.00  0.00     0.058 A 
ATOM     54  C   UNL A   1      45.817  29.191  36.114  1.00  0.00     0.135 A 
ATOM     55  C   UNL A   1      44.338  27.648  37.202  1.00  0.00     0.135 A 
ATOM     56  F   UNL A   1      46.044  30.198  35.256  1.00  0.00    -0.206 F 
ATOM     57  C   UNL A   1      46.906  28.632  36.783  1.00  0.00     0.059 A 
ATOM     58  C   UNL A   1      45.407  27.084  37.896  1.00  0.00     0.059 A 
ATOM     59  F   UNL A   1      43.111  27.151  37.428  1.00  0.00    -0.206 F 
ATOM     60  C   UNL A   1      46.692  27.568  37.663  1.00  0.00     0.060 A 
BRANCH  60  61
ATOM     61  S   UNL A   1      48.114  26.816  38.488  1.00  0.00     0.124 S 
ATOM     62  O   UNL A   1      48.595  27.925  39.305  1.00  0.00    -0.237 OA
ATOM     63  O   UNL A   1      47.504  25.708  39.216  1.00  0.00    -0.237 OA
ATOM     64  O   UNL A   1      48.982  26.433  37.379  1.00  0.00    -0.744 OA
ENDBRANCH  60  61
ENDBRANCH  28  53
BRANCH  40  65
ATOM     65  C   UNL A   1      40.021  33.965  37.187  1.00  0.00     0.058 A 
ATOM     66  C   UNL A   1      40.583  35.250  37.186  1.00  0.00     0.135 A 
ATOM     67  C   UNL A   1      39.199  33.597  38.262  1.00  0.00     0.135 A 
ATOM     68  F   UNL A   1      41.385  35.637  36.182  1.00  0.00    -0.206 F 
ATOM     69  C   UNL A   1      40.349  36.136  38.228  1.00  0.00     0.059 A 
ATOM     70  C   UNL A   1      38.932  34.477  39.303  1.00  0.00     0.059 A 
ATOM     71  F   UNL A   1      38.637  32.378  38.299  1.00  0.00    -0.206 F 
ATOM     72  C   UNL A   1      39.520  35.741  39.281  1.00  0.00     0.060 A 
BRANCH  72  73
ATOM     73  S   UNL A   1      39.185  36.917  40.606  1.00  0.00     0.124 S 
ATOM     74  O   UNL A   1      38.431  37.947  39.899  1.00  0.00    -0.237 OA
ATOM     75  O   UNL A   1      38.425  36.112  41.557  1.00  0.00    -0.237 OA
ATOM     76  O   UNL A   1      40.519  37.309  41.054  1.00  0.00    -0.744 OA
ENDBRANCH  72  73
ENDBRANCH  40  65
ENDBRANCH  14  15
ENDBRANCH   7   9
ENDBRANCH   6   7
ENDBRANCH   5   6
ENDBRANCH   4   5
ENDBRANCH   3   4
ENDBRANCH   2   3
ENDBRANCH   1   2
BRANCH   1  77
ATOM     77  O   UNL A   1      37.785  24.037  26.627  1.00  0.00    -0.376 OA
BRANCH  77  78
ATOM     78  C   UNL A   1      37.187  23.882  25.348  1.00  0.00     0.202 C 
BRANCH  78  79
ATOM     79  C   UNL A   1      35.664  23.773  25.097  1.00  0.00     0.261 C 
BRANCH  79  80
ATOM     80  O   UNL A   1      34.839  24.949  25.132  1.00  0.00    -0.459 OA
BRANCH  80  81
ATOM     81  C   UNL A   1      33.798  24.874  26.012  1.00  0.00     0.349 C 
ATOM     82  O   UNL A   1      33.640  23.929  26.769  1.00  0.00    -0.245 OA
BRANCH  81  83
ATOM     83  C   UNL A   1      32.972  26.064  26.049  1.00  0.00     0.133 A 
ATOM     84  S   UNL A   1      33.863  27.549  26.328  1.00  0.00    -0.136 S 
ATOM     85  C   UNL A   1      31.624  26.341  25.894  1.00  0.00     0.113 A 
ATOM     86  C   UNL A   1      32.497  28.523  26.069  1.00  0.00     0.067 A 
ATOM     87  C   UNL A   1      31.370  27.766  25.875  1.00  0.00     0.035 A 
BRANCH  85  88
ATOM     88  S   UNL A   1      30.324  25.249  25.585  1.00  0.00     0.263 S 
ATOM     89  O   UNL A   1      30.062  24.645  26.874  1.00  0.00    -0.201 OA
ATOM     90  O   UNL A   1      29.332  26.131  24.995  1.00  0.00    -0.201 OA
BRANCH  88  91
ATOM     91  N   UNL A   1      30.460  23.999  24.504  1.00  0.00    -0.277 N 
ATOM     92  H   UNL A   1      29.735  23.333  24.523  1.00  0.00     0.180 HD
BRANCH  91  93
ATOM     93  C   UNL A   1      31.495  23.766  23.552  1.00  0.00     0.072 A 
ATOM     94  C   UNL A   1      31.682  24.837  22.657  1.00  0.00     0.029 A 
ATOM     95  C   UNL A   1      32.250  22.582  23.402  1.00  0.00     0.061 A 
ATOM     96  C   UNL A   1      32.682  24.804  21.693  1.00  0.00     0.002 A 
ATOM     97  C   UNL A   1      33.286  22.598  22.450  1.00  0.00     0.028 A 
ATOM     98  C   UNL A   1      33.506  23.694  21.611  1.00  0.00     0.002 A 
BRANCH  95  99
ATOM     99  N   UNL A   1      31.980  21.412  24.098  1.00  0.00    -0.370 N 
ATOM    100  C   UNL A   1      32.074  21.341  25.558  1.00  0.00     0.116 C 
ATOM    101  C   UNL A   1      32.102  20.153  23.352  1.00  0.00     0.116 C 
ATOM    102  C   UNL A   1      33.243  20.509  26.053  1.00  0.00     0.021 C 
ATOM    103  C   UNL A   1      33.341  19.391  23.826  1.00  0.00     0.021 C 
ATOM    104  C   UNL A   1      33.289  19.166  25.335  1.00  0.00     0.004 C 
ENDBRANCH  95  99
ENDBRANCH  91  93
ENDBRANCH  88  91
ENDBRANCH  85  88
ENDBRANCH  81  83
ENDBRANCH  80  81
ENDBRANCH  79  80
ENDBRANCH  78  79
ENDBRANCH  77  78
ENDBRANCH   1  77
TORSDOF 24
ENDMDL
