MODEL 1
REMARK VINA RESULT:     -10.1      0.000      0.000
REMARK SMILES CC[C@@H](C(=O)OCCOCCOCCOC(=O)c1ccc(-c2c3nc(c(-c4c(F)cc(S(=O)(=O)[O-])cc4F)c4ccc([nH]4)c(-c4c(F)cc(S(=O)(=O)[O-])cc4F)c4nc(c(-c5c(F)cc(S(=O)(=O)[O-])cc5F)c5ccc2[nH]5)C=C4)C=C3)cc1)N1CCN(Cc2cccc(C)c2)C(=O)C1=O
REMARK SMILES IDX 10 1 9 2 8 3 7 4 6 5 4 6 5 7 3 8 2 9 1 10 84 11 85 12 98 13
REMARK SMILES IDX 86 14 96 15 99 16 87 17 97 18 88 19 89 20 90 21 95 22 91 23
REMARK SMILES IDX 93 24 92 25 94 26 11 27 12 28 13 29 14 30 15 31 16 32 17 33
REMARK SMILES IDX 18 34 19 35 83 36 20 37 82 38 21 39 22 40 23 41 76 42 24 43
REMARK SMILES IDX 81 44 75 45 77 46 25 47 80 48 74 49 73 50 26 52 60 53 39 54
REMARK SMILES IDX 59 55 40 56 43 57 58 58 78 59 41 60 42 61 57 63 79 64 44 65
REMARK SMILES IDX 27 66 28 67 37 68 29 69 30 70 36 71 38 72 31 73 32 74 33 75
REMARK SMILES IDX 34 76 35 77 61 78 62 79 71 80 63 81 64 82 70 83 72 84 65 85
REMARK SMILES IDX 66 86 67 87 68 88 69 89 45 90 46 91 55 92 47 93 48 94 54 95
REMARK SMILES IDX 56 96 49 97 50 98 51 99 52 100 53 101
REMARK H PARENT 77 51 43 62
REMARK Flexibility Score: inf
ROOT
ATOM      1  C   UNL A   1      39.005  20.099  25.525  1.00  0.00     0.188 C 
ENDROOT
BRANCH   1   2
ATOM      2  O   UNL A   1      37.652  20.203  25.103  1.00  0.00    -0.376 OA
BRANCH   2   3
ATOM      3  C   UNL A   1      37.002  21.469  25.199  1.00  0.00     0.202 C 
BRANCH   3   4
ATOM      4  C   UNL A   1      36.843  22.315  23.921  1.00  0.00     0.261 C 
BRANCH   4   5
ATOM      5  O   UNL A   1      35.516  22.848  23.714  1.00  0.00    -0.462 OA
BRANCH   5   6
ATOM      6  C   UNL A   1      34.890  23.357  24.811  1.00  0.00     0.328 C 
ATOM      7  O   UNL A   1      35.331  24.310  25.447  1.00  0.00    -0.250 OA
BRANCH   6   8
ATOM      8  C   UNL A   1      33.479  22.754  25.095  1.00  0.00     0.195 C 
BRANCH   8   9
ATOM      9  C   UNL A   1      33.088  21.405  24.440  1.00  0.00     0.034 C 
ATOM     10  C   UNL A   1      33.043  20.181  25.340  1.00  0.00     0.007 C 
ENDBRANCH   8   9
BRANCH   8  11
ATOM     11  N   UNL A   1      32.378  23.750  24.922  1.00  0.00    -0.319 N 
ATOM     12  C   UNL A   1      32.025  24.284  23.613  1.00  0.00     0.142 C 
ATOM     13  C   UNL A   1      31.647  24.229  26.028  1.00  0.00     0.312 C 
ATOM     14  C   UNL A   1      30.510  24.251  23.479  1.00  0.00     0.142 C 
ATOM     15  C   UNL A   1      30.466  25.229  25.722  1.00  0.00     0.312 C 
ATOM     16  O   UNL A   1      31.872  23.877  27.180  1.00  0.00    -0.263 OA
ATOM     17  N   UNL A   1      29.970  25.216  24.413  1.00  0.00    -0.328 N 
ATOM     18  O   UNL A   1      30.046  25.958  26.610  1.00  0.00    -0.263 OA
BRANCH  17  19
ATOM     19  C   UNL A   1      28.963  26.177  23.975  1.00  0.00     0.155 C 
BRANCH  19  20
ATOM     20  C   UNL A   1      29.531  27.498  23.484  1.00  0.00    -0.028 A 
ATOM     21  C   UNL A   1      28.678  28.471  22.949  1.00  0.00     0.005 A 
ATOM     22  C   UNL A   1      30.916  27.739  23.422  1.00  0.00     0.009 A 
ATOM     23  C   UNL A   1      29.196  29.623  22.350  1.00  0.00     0.001 A 
ATOM     24  C   UNL A   1      31.449  28.868  22.781  1.00  0.00    -0.051 A 
ATOM     25  C   UNL A   1      30.574  29.813  22.250  1.00  0.00     0.003 A 
ATOM     26  C   UNL A   1      32.925  28.977  22.529  1.00  0.00     0.044 C 
ENDBRANCH  19  20
ENDBRANCH  17  19
ENDBRANCH   8  11
ENDBRANCH   6   8
ENDBRANCH   5   6
ENDBRANCH   4   5
ENDBRANCH   3   4
ENDBRANCH   2   3
ENDBRANCH   1   2
BRANCH   1  27
ATOM     27  C   UNL A   1      39.649  21.297  26.233  1.00  0.00     0.188 C 
BRANCH  27  28
ATOM     28  O   UNL A   1      40.611  20.939  27.196  1.00  0.00    -0.376 OA
BRANCH  28  29
ATOM     29  C   UNL A   1      41.809  21.686  27.272  1.00  0.00     0.202 C 
BRANCH  29  30
ATOM     30  C   UNL A   1      42.341  22.468  26.057  1.00  0.00     0.261 C 
BRANCH  30  31
ATOM     31  O   UNL A   1      42.026  23.868  25.975  1.00  0.00    -0.460 OA
BRANCH  31  32
ATOM     32  C   UNL A   1      42.972  24.738  26.393  1.00  0.00     0.338 C 
ATOM     33  O   UNL A   1      44.120  24.810  25.986  1.00  0.00    -0.246 OA
BRANCH  32  34
ATOM     34  C   UNL A   1      42.324  25.744  27.273  1.00  0.00     0.060 A 
ATOM     35  C   UNL A   1      42.829  27.051  27.290  1.00  0.00     0.016 A 
ATOM     36  C   UNL A   1      41.247  25.399  28.096  1.00  0.00     0.016 A 
ATOM     37  C   UNL A   1      42.301  27.995  28.177  1.00  0.00     0.010 A 
ATOM     38  C   UNL A   1      40.733  26.341  29.001  1.00  0.00     0.010 A 
ATOM     39  C   UNL A   1      41.291  27.629  29.080  1.00  0.00    -0.014 A 
BRANCH  39  40
ATOM     40  C   UNL A   1      41.026  28.502  30.255  1.00  0.00     0.031 A 
ATOM     41  C   UNL A   1      41.951  28.405  31.435  1.00  0.00     0.074 A 
ATOM     42  C   UNL A   1      40.000  29.372  30.305  1.00  0.00     0.049 A 
ATOM     43  N   UNL A   1      41.950  29.095  32.545  1.00  0.00    -0.248 NA
ATOM     44  C   UNL A   1      42.988  27.364  31.367  1.00  0.00     0.031 C 
ATOM     45  C   UNL A   1      38.963  29.494  29.293  1.00  0.00     0.029 A 
ATOM     46  N   UNL A   1      39.664  30.317  31.247  1.00  0.00    -0.354 N 
ATOM     47  C   UNL A   1      42.959  28.550  33.324  1.00  0.00     0.074 A 
ATOM     48  C   UNL A   1      43.549  27.471  32.561  1.00  0.00     0.031 C 
ATOM     49  C   UNL A   1      38.132  30.489  29.649  1.00  0.00     0.029 A 
ATOM     50  C   UNL A   1      38.577  31.086  30.896  1.00  0.00     0.049 A 
ATOM     51  H   UNL A   1      40.155  30.433  32.092  1.00  0.00     0.167 HD
ATOM     52  C   UNL A   1      43.349  28.904  34.571  1.00  0.00     0.037 A 
ATOM     53  C   UNL A   1      38.007  32.154  31.493  1.00  0.00     0.037 A 
ATOM     54  C   UNL A   1      42.755  29.965  35.341  1.00  0.00     0.049 A 
ATOM     55  C   UNL A   1      38.532  32.603  32.829  1.00  0.00     0.074 A 
ATOM     56  C   UNL A   1      43.088  30.391  36.616  1.00  0.00     0.029 A 
ATOM     57  N   UNL A   1      41.704  30.765  34.917  1.00  0.00    -0.354 N 
ATOM     58  N   UNL A   1      39.510  32.096  33.539  1.00  0.00    -0.248 NA
ATOM     59  C   UNL A   1      37.861  33.750  33.458  1.00  0.00     0.031 C 
ATOM     60  C   UNL A   1      42.215  31.422  36.978  1.00  0.00     0.029 A 
ATOM     61  C   UNL A   1      41.376  31.679  35.906  1.00  0.00     0.049 A 
ATOM     62  H   UNL A   1      41.258  30.693  34.043  1.00  0.00     0.167 HD
ATOM     63  C   UNL A   1      39.565  32.855  34.701  1.00  0.00     0.074 A 
ATOM     64  C   UNL A   1      38.556  33.886  34.578  1.00  0.00     0.031 C 
ATOM     65  C   UNL A   1      40.364  32.696  35.783  1.00  0.00     0.037 A 
BRANCH  52  66
ATOM     66  C   UNL A   1      44.451  28.098  35.193  1.00  0.00     0.058 A 
ATOM     67  C   UNL A   1      45.797  28.476  35.082  1.00  0.00     0.135 A 
ATOM     68  C   UNL A   1      44.150  26.931  35.914  1.00  0.00     0.135 A 
ATOM     69  F   UNL A   1      46.139  29.565  34.376  1.00  0.00    -0.206 F 
ATOM     70  C   UNL A   1      46.813  27.712  35.646  1.00  0.00     0.059 A 
ATOM     71  C   UNL A   1      45.148  26.169  36.512  1.00  0.00     0.059 A 
ATOM     72  F   UNL A   1      42.879  26.520  36.036  1.00  0.00    -0.206 F 
ATOM     73  C   UNL A   1      46.477  26.561  36.361  1.00  0.00     0.060 A 
BRANCH  73  74
ATOM     74  S   UNL A   1      47.804  25.585  37.095  1.00  0.00     0.124 S 
ATOM     75  O   UNL A   1      48.553  25.178  35.911  1.00  0.00    -0.237 OA
ATOM     76  O   UNL A   1      48.463  26.559  37.959  1.00  0.00    -0.237 OA
ATOM     77  O   UNL A   1      47.095  24.514  37.788  1.00  0.00    -0.744 OA
ENDBRANCH  73  74
ENDBRANCH  52  66
BRANCH  53  78
ATOM     78  C   UNL A   1      36.884  32.898  30.852  1.00  0.00     0.058 A 
ATOM     79  C   UNL A   1      35.554  32.672  31.246  1.00  0.00     0.135 A 
ATOM     80  C   UNL A   1      37.102  33.806  29.806  1.00  0.00     0.135 A 
ATOM     81  F   UNL A   1      35.287  31.803  32.233  1.00  0.00    -0.206 F 
ATOM     82  C   UNL A   1      34.482  33.296  30.613  1.00  0.00     0.059 A 
ATOM     83  C   UNL A   1      36.049  34.469  29.180  1.00  0.00     0.059 A 
ATOM     84  F   UNL A   1      38.352  34.072  29.395  1.00  0.00    -0.206 F 
ATOM     85  C   UNL A   1      34.742  34.199  29.582  1.00  0.00     0.060 A 
BRANCH  85  86
ATOM     86  S   UNL A   1      33.370  35.112  28.842  1.00  0.00     0.124 S 
ATOM     87  O   UNL A   1      34.071  36.175  28.132  1.00  0.00    -0.237 OA
ATOM     88  O   UNL A   1      32.728  34.102  28.007  1.00  0.00    -0.237 OA
ATOM     89  O   UNL A   1      32.592  35.529  30.006  1.00  0.00    -0.744 OA
ENDBRANCH  85  86
ENDBRANCH  53  78
BRANCH  65  90
ATOM     90  C   UNL A   1      40.193  33.677  36.909  1.00  0.00     0.058 A 
ATOM     91  C   UNL A   1      40.920  34.877  36.965  1.00  0.00     0.135 A 
ATOM     92  C   UNL A   1      39.291  33.407  37.949  1.00  0.00     0.135 A 
ATOM     93  F   UNL A   1      41.799  35.181  35.997  1.00  0.00    -0.206 F 
ATOM     94  C   UNL A   1      40.792  35.754  38.037  1.00  0.00     0.059 A 
ATOM     95  C   UNL A   1      39.124  34.284  39.016  1.00  0.00     0.059 A 
ATOM     96  F   UNL A   1      38.563  32.279  37.939  1.00  0.00    -0.206 F 
ATOM     97  C   UNL A   1      39.895  35.444  39.062  1.00  0.00     0.060 A 
BRANCH  97  98
ATOM     98  S   UNL A   1      39.745  36.583  40.455  1.00  0.00     0.124 S 
ATOM     99  O   UNL A   1      39.980  37.869  39.807  1.00  0.00    -0.237 OA
ATOM    100  O   UNL A   1      38.380  36.341  40.911  1.00  0.00    -0.237 OA
ATOM    101  O   UNL A   1      40.793  36.139  41.369  1.00  0.00    -0.744 OA
ENDBRANCH  97  98
ENDBRANCH  65  90
ENDBRANCH  39  40
ENDBRANCH  32  34
ENDBRANCH  31  32
ENDBRANCH  30  31
ENDBRANCH  29  30
ENDBRANCH  28  29
ENDBRANCH  27  28
ENDBRANCH   1  27
TORSDOF 24
ENDMDL
MODEL 2
REMARK VINA RESULT:     -10.0      1.149      2.168
REMARK SMILES CC[C@@H](C(=O)OCCOCCOCCOC(=O)c1ccc(-c2c3nc(c(-c4c(F)cc(S(=O)(=O)[O-])cc4F)c4ccc([nH]4)c(-c4c(F)cc(S(=O)(=O)[O-])cc4F)c4nc(c(-c5c(F)cc(S(=O)(=O)[O-])cc5F)c5ccc2[nH]5)C=C4)C=C3)cc1)N1CCN(Cc2cccc(C)c2)C(=O)C1=O
REMARK SMILES IDX 10 1 9 2 8 3 7 4 6 5 4 6 5 7 3 8 2 9 1 10 84 11 85 12 98 13
REMARK SMILES IDX 86 14 96 15 99 16 87 17 97 18 88 19 89 20 90 21 95 22 91 23
REMARK SMILES IDX 93 24 92 25 94 26 11 27 12 28 13 29 14 30 15 31 16 32 17 33
REMARK SMILES IDX 18 34 19 35 83 36 20 37 82 38 21 39 22 40 23 41 76 42 24 43
REMARK SMILES IDX 81 44 75 45 77 46 25 47 80 48 74 49 73 50 26 52 60 53 39 54
REMARK SMILES IDX 59 55 40 56 43 57 58 58 78 59 41 60 42 61 57 63 79 64 44 65
REMARK SMILES IDX 27 66 28 67 37 68 29 69 30 70 36 71 38 72 31 73 32 74 33 75
REMARK SMILES IDX 34 76 35 77 61 78 62 79 71 80 63 81 64 82 70 83 72 84 65 85
REMARK SMILES IDX 66 86 67 87 68 88 69 89 45 90 46 91 55 92 47 93 48 94 54 95
REMARK SMILES IDX 56 96 49 97 50 98 51 99 52 100 53 101
REMARK H PARENT 77 51 43 62
REMARK Flexibility Score: inf
ROOT
ATOM      1  C   UNL A   1      38.539  19.587  25.021  1.00  0.00     0.188 C 
ENDROOT
BRANCH   1   2
ATOM      2  O   UNL A   1      37.255  20.112  24.716  1.00  0.00    -0.376 OA
BRANCH   2   3
ATOM      3  C   UNL A   1      36.717  21.133  25.554  1.00  0.00     0.202 C 
BRANCH   3   4
ATOM      4  C   UNL A   1      36.633  22.570  25.004  1.00  0.00     0.261 C 
BRANCH   4   5
ATOM      5  O   UNL A   1      35.311  22.976  24.586  1.00  0.00    -0.462 OA
BRANCH   5   6
ATOM      6  C   UNL A   1      34.402  23.195  25.577  1.00  0.00     0.328 C 
ATOM      7  O   UNL A   1      34.724  23.357  26.751  1.00  0.00    -0.250 OA
BRANCH   6   8
ATOM      8  C   UNL A   1      32.938  23.404  25.084  1.00  0.00     0.195 C 
BRANCH   8   9
ATOM      9  C   UNL A   1      32.333  22.405  24.066  1.00  0.00     0.034 C 
ATOM     10  C   UNL A   1      32.366  20.930  24.433  1.00  0.00     0.007 C 
ENDBRANCH   8   9
BRANCH   8  11
ATOM     11  N   UNL A   1      32.666  24.809  24.652  1.00  0.00    -0.319 N 
ATOM     12  C   UNL A   1      33.075  25.301  23.342  1.00  0.00     0.142 C 
ATOM     13  C   UNL A   1      32.018  25.723  25.506  1.00  0.00     0.312 C 
ATOM     14  C   UNL A   1      31.910  26.071  22.739  1.00  0.00     0.142 C 
ATOM     15  C   UNL A   1      31.726  27.160  24.923  1.00  0.00     0.312 C 
ATOM     16  O   UNL A   1      31.654  25.435  26.640  1.00  0.00    -0.263 OA
ATOM     17  N   UNL A   1      31.727  27.271  23.527  1.00  0.00    -0.328 N 
ATOM     18  O   UNL A   1      31.523  28.093  25.688  1.00  0.00    -0.263 OA
BRANCH  17  19
ATOM     19  C   UNL A   1      31.590  28.567  22.870  1.00  0.00     0.155 C 
BRANCH  19  20
ATOM     20  C   UNL A   1      30.156  28.963  22.562  1.00  0.00    -0.028 A 
ATOM     21  C   UNL A   1      29.892  30.145  21.859  1.00  0.00     0.005 A 
ATOM     22  C   UNL A   1      29.056  28.248  23.074  1.00  0.00     0.009 A 
ATOM     23  C   UNL A   1      28.581  30.604  21.704  1.00  0.00     0.001 A 
ATOM     24  C   UNL A   1      27.741  28.725  22.966  1.00  0.00    -0.051 A 
ATOM     25  C   UNL A   1      27.512  29.909  22.269  1.00  0.00     0.003 A 
ATOM     26  C   UNL A   1      26.624  28.063  23.721  1.00  0.00     0.044 C 
ENDBRANCH  19  20
ENDBRANCH  17  19
ENDBRANCH   8  11
ENDBRANCH   6   8
ENDBRANCH   5   6
ENDBRANCH   4   5
ENDBRANCH   3   4
ENDBRANCH   2   3
ENDBRANCH   1   2
BRANCH   1  27
ATOM     27  C   UNL A   1      39.449  20.374  25.973  1.00  0.00     0.188 C 
BRANCH  27  28
ATOM     28  O   UNL A   1      40.739  19.828  26.108  1.00  0.00    -0.376 OA
BRANCH  28  29
ATOM     29  C   UNL A   1      41.714  20.558  26.826  1.00  0.00     0.202 C 
BRANCH  29  30
ATOM     30  C   UNL A   1      42.535  21.674  26.152  1.00  0.00     0.261 C 
BRANCH  30  31
ATOM     31  O   UNL A   1      41.852  22.892  25.813  1.00  0.00    -0.460 OA
BRANCH  31  32
ATOM     32  C   UNL A   1      42.606  24.005  25.678  1.00  0.00     0.338 C 
ATOM     33  O   UNL A   1      43.474  24.194  24.842  1.00  0.00    -0.246 OA
BRANCH  32  34
ATOM     34  C   UNL A   1      42.056  25.053  26.575  1.00  0.00     0.060 A 
ATOM     35  C   UNL A   1      42.597  26.344  26.517  1.00  0.00     0.016 A 
ATOM     36  C   UNL A   1      41.034  24.764  27.486  1.00  0.00     0.016 A 
ATOM     37  C   UNL A   1      42.166  27.328  27.412  1.00  0.00     0.010 A 
ATOM     38  C   UNL A   1      40.618  25.745  28.399  1.00  0.00     0.010 A 
ATOM     39  C   UNL A   1      41.216  27.017  28.399  1.00  0.00    -0.014 A 
BRANCH  39  40
ATOM     40  C   UNL A   1      41.066  27.929  29.565  1.00  0.00     0.031 A 
ATOM     41  C   UNL A   1      42.104  27.872  30.649  1.00  0.00     0.074 A 
ATOM     42  C   UNL A   1      40.047  28.799  29.688  1.00  0.00     0.049 A 
ATOM     43  N   UNL A   1      42.211  28.598  31.730  1.00  0.00    -0.248 NA
ATOM     44  C   UNL A   1      43.134  26.830  30.513  1.00  0.00     0.031 C 
ATOM     45  C   UNL A   1      38.913  28.886  28.781  1.00  0.00     0.029 A 
ATOM     46  N   UNL A   1      39.802  29.775  30.626  1.00  0.00    -0.354 N 
ATOM     47  C   UNL A   1      43.295  28.081  32.423  1.00  0.00     0.074 A 
ATOM     48  C   UNL A   1      43.811  26.977  31.641  1.00  0.00     0.031 C 
ATOM     49  C   UNL A   1      38.118  29.891  29.184  1.00  0.00     0.029 A 
ATOM     50  C   UNL A   1      38.683  30.531  30.360  1.00  0.00     0.049 A 
ATOM     51  H   UNL A   1      40.375  29.919  31.414  1.00  0.00     0.167 HD
ATOM     52  C   UNL A   1      43.806  28.477  33.612  1.00  0.00     0.037 A 
ATOM     53  C   UNL A   1      38.171  31.617  30.975  1.00  0.00     0.037 A 
ATOM     54  C   UNL A   1      43.287  29.563  34.402  1.00  0.00     0.049 A 
ATOM     55  C   UNL A   1      38.824  32.112  32.236  1.00  0.00     0.074 A 
ATOM     56  C   UNL A   1      43.743  30.031  35.622  1.00  0.00     0.029 A 
ATOM     57  N   UNL A   1      42.196  30.347  34.058  1.00  0.00    -0.354 N 
ATOM     58  N   UNL A   1      39.870  31.630  32.862  1.00  0.00    -0.248 NA
ATOM     59  C   UNL A   1      38.214  33.278  32.890  1.00  0.00     0.031 C 
ATOM     60  C   UNL A   1      42.906  31.074  36.035  1.00  0.00     0.029 A 
ATOM     61  C   UNL A   1      41.964  31.294  35.044  1.00  0.00     0.049 A 
ATOM     62  H   UNL A   1      41.665  30.246  33.236  1.00  0.00     0.167 HD
ATOM     63  C   UNL A   1      40.037  32.428  33.987  1.00  0.00     0.074 A 
ATOM     64  C   UNL A   1      39.016  33.453  33.930  1.00  0.00     0.031 C 
ATOM     65  C   UNL A   1      40.941  32.306  34.988  1.00  0.00     0.037 A 
BRANCH  52  66
ATOM     66  C   UNL A   1      44.967  27.693  34.148  1.00  0.00     0.058 A 
ATOM     67  C   UNL A   1      44.786  26.580  34.982  1.00  0.00     0.135 A 
ATOM     68  C   UNL A   1      46.281  28.061  33.815  1.00  0.00     0.135 A 
ATOM     69  F   UNL A   1      43.552  26.208  35.356  1.00  0.00    -0.206 F 
ATOM     70  C   UNL A   1      45.869  25.871  35.489  1.00  0.00     0.059 A 
ATOM     71  C   UNL A   1      47.378  27.348  34.285  1.00  0.00     0.059 A 
ATOM     72  F   UNL A   1      46.507  29.127  33.030  1.00  0.00    -0.206 F 
ATOM     73  C   UNL A   1      47.161  26.263  35.133  1.00  0.00     0.060 A 
BRANCH  73  74
ATOM     74  S   UNL A   1      48.556  25.327  35.790  1.00  0.00     0.124 S 
ATOM     75  O   UNL A   1      48.035  23.965  35.753  1.00  0.00    -0.237 OA
ATOM     76  O   UNL A   1      49.613  25.629  34.829  1.00  0.00    -0.237 OA
ATOM     77  O   UNL A   1      48.745  25.891  37.123  1.00  0.00    -0.744 OA
ENDBRANCH  73  74
ENDBRANCH  52  66
BRANCH  53  78
ATOM     78  C   UNL A   1      36.987  32.339  30.424  1.00  0.00     0.058 A 
ATOM     79  C   UNL A   1      37.143  33.334  29.443  1.00  0.00     0.135 A 
ATOM     80  C   UNL A   1      35.688  32.094  30.893  1.00  0.00     0.135 A 
ATOM     81  F   UNL A   1      38.366  33.619  28.969  1.00  0.00    -0.206 F 
ATOM     82  C   UNL A   1      36.065  34.075  28.967  1.00  0.00     0.059 A 
ATOM     83  C   UNL A   1      34.589  32.798  30.408  1.00  0.00     0.059 A 
ATOM     84  F   UNL A   1      35.475  31.146  31.820  1.00  0.00    -0.206 F 
ATOM     85  C   UNL A   1      34.788  33.795  29.453  1.00  0.00     0.060 A 
BRANCH  85  86
ATOM     86  S   UNL A   1      33.366  34.659  28.750  1.00  0.00     0.124 S 
ATOM     87  O   UNL A   1      32.624  35.033  29.948  1.00  0.00    -0.237 OA
ATOM     88  O   UNL A   1      33.991  35.756  28.016  1.00  0.00    -0.237 OA
ATOM     89  O   UNL A   1      32.748  33.636  27.911  1.00  0.00    -0.744 OA
ENDBRANCH  85  86
ENDBRANCH  53  78
BRANCH  65  90
ATOM     90  C   UNL A   1      40.879  33.323  36.092  1.00  0.00     0.058 A 
ATOM     91  C   UNL A   1      40.023  33.169  37.196  1.00  0.00     0.135 A 
ATOM     92  C   UNL A   1      41.684  34.471  36.042  1.00  0.00     0.135 A 
ATOM     93  F   UNL A   1      39.228  32.091  37.291  1.00  0.00    -0.206 F 
ATOM     94  C   UNL A   1      39.935  34.140  38.187  1.00  0.00     0.059 A 
ATOM     95  C   UNL A   1      41.635  35.441  37.038  1.00  0.00     0.059 A 
ATOM     96  F   UNL A   1      42.528  34.662  35.015  1.00  0.00    -0.206 F 
ATOM     97  C   UNL A   1      40.741  35.277  38.095  1.00  0.00     0.060 A 
BRANCH  97  98
ATOM     98  S   UNL A   1      40.612  36.538  39.381  1.00  0.00     0.124 S 
ATOM     99  O   UNL A   1      39.710  37.500  38.755  1.00  0.00    -0.237 OA
ATOM    100  O   UNL A   1      40.058  35.786  40.502  1.00  0.00    -0.237 OA
ATOM    101  O   UNL A   1      41.990  36.987  39.554  1.00  0.00    -0.744 OA
ENDBRANCH  97  98
ENDBRANCH  65  90
ENDBRANCH  39  40
ENDBRANCH  32  34
ENDBRANCH  31  32
ENDBRANCH  30  31
ENDBRANCH  29  30
ENDBRANCH  28  29
ENDBRANCH  27  28
ENDBRANCH   1  27
TORSDOF 24
ENDMDL
MODEL 3
REMARK VINA RESULT:      -8.8      2.891      4.002
REMARK SMILES CC[C@@H](C(=O)OCCOCCOCCOC(=O)c1ccc(-c2c3nc(c(-c4c(F)cc(S(=O)(=O)[O-])cc4F)c4ccc([nH]4)c(-c4c(F)cc(S(=O)(=O)[O-])cc4F)c4nc(c(-c5c(F)cc(S(=O)(=O)[O-])cc5F)c5ccc2[nH]5)C=C4)C=C3)cc1)N1CCN(Cc2cccc(C)c2)C(=O)C1=O
REMARK SMILES IDX 10 1 9 2 8 3 7 4 6 5 4 6 5 7 3 8 2 9 1 10 84 11 85 12 98 13
REMARK SMILES IDX 86 14 96 15 99 16 87 17 97 18 88 19 89 20 90 21 95 22 91 23
REMARK SMILES IDX 93 24 92 25 94 26 11 27 12 28 13 29 14 30 15 31 16 32 17 33
REMARK SMILES IDX 18 34 19 35 83 36 20 37 82 38 21 39 22 40 23 41 76 42 24 43
REMARK SMILES IDX 81 44 75 45 77 46 25 47 80 48 74 49 73 50 26 52 60 53 39 54
REMARK SMILES IDX 59 55 40 56 43 57 58 58 78 59 41 60 42 61 57 63 79 64 44 65
REMARK SMILES IDX 27 66 28 67 37 68 29 69 30 70 36 71 38 72 31 73 32 74 33 75
REMARK SMILES IDX 34 76 35 77 61 78 62 79 71 80 63 81 64 82 70 83 72 84 65 85
REMARK SMILES IDX 66 86 67 87 68 88 69 89 45 90 46 91 55 92 47 93 48 94 54 95
REMARK SMILES IDX 56 96 49 97 50 98 51 99 52 100 53 101
REMARK H PARENT 77 51 43 62
REMARK Flexibility Score: inf
ROOT
ATOM      1  C   UNL A   1      38.641  19.025  25.334  1.00  0.00     0.188 C 
ENDROOT
BRANCH   1   2
ATOM      2  O   UNL A   1      37.521  19.867  25.099  1.00  0.00    -0.376 OA
BRANCH   2   3
ATOM      3  C   UNL A   1      37.703  21.280  25.161  1.00  0.00     0.202 C 
BRANCH   3   4
ATOM      4  C   UNL A   1      37.029  22.158  24.089  1.00  0.00     0.261 C 
BRANCH   4   5
ATOM      5  O   UNL A   1      36.389  23.347  24.602  1.00  0.00    -0.462 OA
BRANCH   5   6
ATOM      6  C   UNL A   1      35.223  23.163  25.281  1.00  0.00     0.328 C 
ATOM      7  O   UNL A   1      35.186  22.804  26.455  1.00  0.00    -0.250 OA
BRANCH   6   8
ATOM      8  C   UNL A   1      33.943  23.616  24.514  1.00  0.00     0.195 C 
BRANCH   8   9
ATOM      9  C   UNL A   1      34.022  23.850  22.984  1.00  0.00     0.034 C 
ATOM     10  C   UNL A   1      33.084  23.039  22.105  1.00  0.00     0.007 C 
ENDBRANCH   8   9
BRANCH   8  11
ATOM     11  N   UNL A   1      33.243  24.759  25.176  1.00  0.00    -0.319 N 
ATOM     12  C   UNL A   1      33.952  25.975  25.555  1.00  0.00     0.142 C 
ATOM     13  C   UNL A   1      31.869  24.697  25.478  1.00  0.00     0.312 C 
ATOM     14  C   UNL A   1      33.116  27.168  25.118  1.00  0.00     0.142 C 
ATOM     15  C   UNL A   1      31.221  25.986  26.119  1.00  0.00     0.312 C 
ATOM     16  O   UNL A   1      31.175  23.717  25.235  1.00  0.00    -0.263 OA
ATOM     17  N   UNL A   1      31.920  27.184  25.934  1.00  0.00    -0.328 N 
ATOM     18  O   UNL A   1      30.170  25.890  26.738  1.00  0.00    -0.263 OA
BRANCH  17  19
ATOM     19  C   UNL A   1      31.489  28.420  26.578  1.00  0.00     0.155 C 
BRANCH  19  20
ATOM     20  C   UNL A   1      32.622  29.368  26.933  1.00  0.00    -0.028 A 
ATOM     21  C   UNL A   1      33.826  28.862  27.439  1.00  0.00     0.005 A 
ATOM     22  C   UNL A   1      32.466  30.767  26.898  1.00  0.00     0.009 A 
ATOM     23  C   UNL A   1      34.817  29.724  27.917  1.00  0.00     0.001 A 
ATOM     24  C   UNL A   1      33.433  31.639  27.420  1.00  0.00    -0.051 A 
ATOM     25  C   UNL A   1      34.616  31.104  27.925  1.00  0.00     0.003 A 
ATOM     26  C   UNL A   1      33.135  33.103  27.580  1.00  0.00     0.044 C 
ENDBRANCH  19  20
ENDBRANCH  17  19
ENDBRANCH   8  11
ENDBRANCH   6   8
ENDBRANCH   5   6
ENDBRANCH   4   5
ENDBRANCH   3   4
ENDBRANCH   2   3
ENDBRANCH   1   2
BRANCH   1  27
ATOM     27  C   UNL A   1      39.961  19.665  25.782  1.00  0.00     0.188 C 
BRANCH  27  28
ATOM     28  O   UNL A   1      41.070  18.802  25.699  1.00  0.00    -0.376 OA
BRANCH  28  29
ATOM     29  C   UNL A   1      42.299  19.218  26.261  1.00  0.00     0.202 C 
BRANCH  29  30
ATOM     30  C   UNL A   1      43.022  20.480  25.756  1.00  0.00     0.261 C 
BRANCH  30  31
ATOM     31  O   UNL A   1      42.249  21.685  25.627  1.00  0.00    -0.460 OA
BRANCH  31  32
ATOM     32  C   UNL A   1      42.906  22.803  25.248  1.00  0.00     0.338 C 
ATOM     33  O   UNL A   1      43.453  22.992  24.173  1.00  0.00    -0.246 OA
BRANCH  32  34
ATOM     34  C   UNL A   1      42.667  23.854  26.269  1.00  0.00     0.060 A 
ATOM     35  C   UNL A   1      43.333  25.081  26.144  1.00  0.00     0.016 A 
ATOM     36  C   UNL A   1      41.816  23.628  27.356  1.00  0.00     0.016 A 
ATOM     37  C   UNL A   1      43.201  26.055  27.138  1.00  0.00     0.010 A 
ATOM     38  C   UNL A   1      41.702  24.598  28.364  1.00  0.00     0.010 A 
ATOM     39  C   UNL A   1      42.433  25.796  28.284  1.00  0.00    -0.014 A 
BRANCH  39  40
ATOM     40  C   UNL A   1      42.620  26.655  29.485  1.00  0.00     0.031 A 
ATOM     41  C   UNL A   1      43.886  26.500  30.278  1.00  0.00     0.074 A 
ATOM     42  C   UNL A   1      41.709  27.561  29.886  1.00  0.00     0.049 A 
ATOM     43  N   UNL A   1      44.291  27.167  31.327  1.00  0.00    -0.248 NA
ATOM     44  C   UNL A   1      44.795  25.423  29.855  1.00  0.00     0.031 C 
ATOM     45  C   UNL A   1      40.395  27.740  29.289  1.00  0.00     0.029 A 
ATOM     46  N   UNL A   1      41.752  28.499  30.892  1.00  0.00    -0.354 N 
ATOM     47  C   UNL A   1      45.481  26.570  31.713  1.00  0.00     0.074 A 
ATOM     48  C   UNL A   1      45.732  25.485  30.788  1.00  0.00     0.031 C 
ATOM     49  C   UNL A   1      39.777  28.758  29.913  1.00  0.00     0.029 A 
ATOM     50  C   UNL A   1      40.644  29.314  30.937  1.00  0.00     0.049 A 
ATOM     51  H   UNL A   1      42.506  28.579  31.520  1.00  0.00     0.167 HD
ATOM     52  C   UNL A   1      46.287  26.885  32.754  1.00  0.00     0.037 A 
ATOM     53  C   UNL A   1      40.356  30.389  31.699  1.00  0.00     0.037 A 
ATOM     54  C   UNL A   1      46.034  27.952  33.688  1.00  0.00     0.049 A 
ATOM     55  C   UNL A   1      41.322  30.792  32.779  1.00  0.00     0.074 A 
ATOM     56  C   UNL A   1      46.798  28.339  34.775  1.00  0.00     0.029 A 
ATOM     57  N   UNL A   1      44.936  28.797  33.651  1.00  0.00    -0.354 N 
ATOM     58  N   UNL A   1      42.461  30.236  33.111  1.00  0.00    -0.248 NA
ATOM     59  C   UNL A   1      40.952  31.950  33.606  1.00  0.00     0.031 C 
ATOM     60  C   UNL A   1      46.144  29.394  35.419  1.00  0.00     0.029 A 
ATOM     61  C   UNL A   1      45.002  29.703  34.699  1.00  0.00     0.049 A 
ATOM     62  H   UNL A   1      44.216  28.759  32.981  1.00  0.00     0.167 HD
ATOM     63  C   UNL A   1      42.939  30.969  34.190  1.00  0.00     0.074 A 
ATOM     64  C   UNL A   1      41.992  32.039  34.424  1.00  0.00     0.031 C 
ATOM     65  C   UNL A   1      44.052  30.759  34.933  1.00  0.00     0.037 A 
BRANCH  52  66
ATOM     66  C   UNL A   1      47.500  26.026  32.959  1.00  0.00     0.058 A 
ATOM     67  C   UNL A   1      48.721  26.309  32.328  1.00  0.00     0.135 A 
ATOM     68  C   UNL A   1      47.437  24.906  33.803  1.00  0.00     0.135 A 
ATOM     69  F   UNL A   1      48.823  27.349  31.486  1.00  0.00    -0.206 F 
ATOM     70  C   UNL A   1      49.834  25.496  32.510  1.00  0.00     0.059 A 
ATOM     71  C   UNL A   1      48.547  24.097  34.023  1.00  0.00     0.059 A 
ATOM     72  F   UNL A   1      46.288  24.586  34.418  1.00  0.00    -0.206 F 
ATOM     73  C   UNL A   1      49.737  24.394  33.360  1.00  0.00     0.060 A 
BRANCH  73  74
ATOM     74  S   UNL A   1      51.192  23.354  33.593  1.00  0.00     0.124 S 
ATOM     75  O   UNL A   1      51.751  23.909  34.822  1.00  0.00    -0.237 OA
ATOM     76  O   UNL A   1      50.607  22.022  33.707  1.00  0.00    -0.237 OA
ATOM     77  O   UNL A   1      51.976  23.591  32.385  1.00  0.00    -0.744 OA
ENDBRANCH  73  74
ENDBRANCH  52  66
BRANCH  53  78
ATOM     78  C   UNL A   1      39.114  31.188  31.483  1.00  0.00     0.058 A 
ATOM     79  C   UNL A   1      39.125  32.325  30.657  1.00  0.00     0.135 A 
ATOM     80  C   UNL A   1      37.910  30.869  32.128  1.00  0.00     0.135 A 
ATOM     81  F   UNL A   1      40.254  32.684  30.027  1.00  0.00    -0.206 F 
ATOM     82  C   UNL A   1      38.001  33.131  30.499  1.00  0.00     0.059 A 
ATOM     83  C   UNL A   1      36.763  31.640  31.958  1.00  0.00     0.059 A 
ATOM     84  F   UNL A   1      37.835  29.787  32.918  1.00  0.00    -0.206 F 
ATOM     85  C   UNL A   1      36.820  32.776  31.151  1.00  0.00     0.060 A 
BRANCH  85  86
ATOM     86  S   UNL A   1      35.321  33.738  30.849  1.00  0.00     0.124 S 
ATOM     87  O   UNL A   1      35.378  34.720  31.926  1.00  0.00    -0.237 OA
ATOM     88  O   UNL A   1      35.539  34.253  29.501  1.00  0.00    -0.237 OA
ATOM     89  O   UNL A   1      34.265  32.735  30.957  1.00  0.00    -0.744 OA
ENDBRANCH  85  86
ENDBRANCH  53  78
BRANCH  65  90
ATOM     90  C   UNL A   1      44.314  31.723  36.057  1.00  0.00     0.058 A 
ATOM     91  C   UNL A   1      45.114  32.864  35.884  1.00  0.00     0.135 A 
ATOM     92  C   UNL A   1      43.759  31.497  37.326  1.00  0.00     0.135 A 
ATOM     93  F   UNL A   1      45.673  33.124  34.691  1.00  0.00    -0.206 F 
ATOM     94  C   UNL A   1      45.394  33.722  36.942  1.00  0.00     0.059 A 
ATOM     95  C   UNL A   1      44.000  32.358  38.391  1.00  0.00     0.059 A 
ATOM     96  F   UNL A   1      42.977  30.427  37.542  1.00  0.00    -0.206 F 
ATOM     97  C   UNL A   1      44.836  33.456  38.194  1.00  0.00     0.060 A 
BRANCH  97  98
ATOM     98  S   UNL A   1      45.213  34.569  39.565  1.00  0.00     0.124 S 
ATOM     99  O   UNL A   1      46.579  34.972  39.246  1.00  0.00    -0.237 OA
ATOM    100  O   UNL A   1      44.195  35.604  39.417  1.00  0.00    -0.237 OA
ATOM    101  O   UNL A   1      45.067  33.718  40.742  1.00  0.00    -0.744 OA
ENDBRANCH  97  98
ENDBRANCH  65  90
ENDBRANCH  39  40
ENDBRANCH  32  34
ENDBRANCH  31  32
ENDBRANCH  30  31
ENDBRANCH  29  30
ENDBRANCH  28  29
ENDBRANCH  27  28
ENDBRANCH   1  27
TORSDOF 24
ENDMDL
