MODEL 1
REMARK VINA RESULT:     -11.2      0.000      0.000
REMARK SMILES Cc1cc(C(=O)N[C@H](C(=O)OCCOCCOCCOC(=O)c2ccc(-c3c4nc(c(-c5c(F)cc(S(=O)(=O)[O-])cc5F)c5ccc([nH]5)c(-c5c(F)cc(S(=O)(=O)[O-])cc5F)c5nc(c(-c6c(F)cc(S(=O)(=O)[O-])cc6F)c6ccc3[nH]6)C=C5)C=C4)cc2)c2c(C)n[nH]c2C)c2ccc(C)c(C)c2n1
REMARK SMILES IDX 16 1 15 2 14 3 13 4 12 5 11 6 9 7 10 8 8 9 7 10 5 11 6 12
REMARK SMILES IDX 4 14 1 15 2 16 3 17 104 18 103 19 96 20 101 21 97 22 99 23
REMARK SMILES IDX 102 24 98 25 100 26 89 27 90 28 94 29 91 30 92 31 93 32
REMARK SMILES IDX 95 33 17 35 18 36 19 37 20 38 21 39 22 40 23 41 24 42 88 43
REMARK SMILES IDX 25 44 87 45 26 46 27 47 28 48 81 49 29 50 86 51 80 52 82 53
REMARK SMILES IDX 30 54 85 55 79 56 78 57 31 59 65 60 44 61 64 62 45 63 48 64
REMARK SMILES IDX 63 65 83 66 46 67 47 68 62 70 84 71 49 72 32 73 33 74 42 75
REMARK SMILES IDX 34 76 35 77 41 78 43 79 36 80 37 81 38 82 39 83 40 84 66 85
REMARK SMILES IDX 67 86 76 87 68 88 69 89 75 90 77 91 70 92 71 93 72 94 73 95
REMARK SMILES IDX 74 96 50 97 51 98 60 99 52 100 53 101 59 102 61 103 54 104
REMARK SMILES IDX 55 105 56 106 57 107 58 108
REMARK H PARENT 7 13 93 34 82 58 48 69
REMARK Flexibility Score: inf
ROOT
ATOM      1  C   UNL A   1      39.923  20.423  26.128  1.00  0.00     0.188 C 
ENDROOT
BRANCH   1   2
ATOM      2  C   UNL A   1      39.292  21.832  26.054  1.00  0.00     0.188 C 
BRANCH   2   3
ATOM      3  O   UNL A   1      37.875  21.861  26.017  1.00  0.00    -0.376 OA
BRANCH   3   4
ATOM      4  C   UNL A   1      37.332  21.792  24.708  1.00  0.00     0.202 C 
BRANCH   4   5
ATOM      5  C   UNL A   1      36.998  23.162  24.142  1.00  0.00     0.261 C 
BRANCH   5   6
ATOM      6  O   UNL A   1      35.594  23.468  24.029  1.00  0.00    -0.461 OA
BRANCH   6   7
ATOM      7  C   UNL A   1      34.917  24.053  25.057  1.00  0.00     0.333 C 
ATOM      8  O   UNL A   1      35.300  24.035  26.217  1.00  0.00    -0.249 OA
BRANCH   7   9
ATOM      9  C   UNL A   1      33.675  24.825  24.509  1.00  0.00     0.227 C 
BRANCH   9  10
ATOM     10  N   UNL A   1      33.666  25.300  23.119  1.00  0.00    -0.335 N 
ATOM     11  C   UNL A   1      33.264  26.478  22.537  1.00  0.00     0.252 C 
ATOM     12  O   UNL A   1      33.663  26.734  21.402  1.00  0.00    -0.269 OA
ATOM     13  H   UNL A   1      34.019  24.642  22.475  1.00  0.00     0.165 HD
BRANCH  11  14
ATOM     14  C   UNL A   1      32.321  27.410  23.211  1.00  0.00     0.051 A 
ATOM     15  C   UNL A   1      29.009  28.979  22.426  1.00  0.00     0.067 C 
ATOM     16  C   UNL A   1      30.243  28.581  23.184  1.00  0.00     0.039 A 
ATOM     17  C   UNL A   1      31.029  27.554  22.710  1.00  0.00     0.038 A 
ATOM     18  N   UNL A   1      30.653  29.388  24.182  1.00  0.00    -0.253 NA
ATOM     19  C   UNL A   1      31.864  29.206  24.753  1.00  0.00     0.074 A 
ATOM     20  C   UNL A   1      32.761  28.220  24.291  1.00  0.00     0.013 A 
ATOM     21  C   UNL A   1      32.250  30.057  25.805  1.00  0.00    -0.022 A 
ATOM     22  C   UNL A   1      34.037  28.132  24.898  1.00  0.00     0.011 A 
ATOM     23  C   UNL A   1      33.509  29.921  26.434  1.00  0.00    -0.046 A 
ATOM     24  C   UNL A   1      31.312  31.183  26.181  1.00  0.00     0.047 C 
ATOM     25  C   UNL A   1      34.396  28.955  25.962  1.00  0.00     0.004 A 
ATOM     26  C   UNL A   1      33.925  30.783  27.592  1.00  0.00     0.044 C 
ENDBRANCH  11  14
ENDBRANCH   9  10
BRANCH   9  27
ATOM     27  C   UNL A   1      32.319  24.267  24.896  1.00  0.00     0.029 A 
ATOM     28  C   UNL A   1      31.887  22.924  24.609  1.00  0.00     0.065 A 
ATOM     29  C   UNL A   1      31.277  24.772  25.674  1.00  0.00     0.038 A 
ATOM     30  C   UNL A   1      32.643  21.812  23.971  1.00  0.00     0.069 C 
ATOM     31  N   UNL A   1      30.656  22.684  25.063  1.00  0.00    -0.180 NA
ATOM     32  N   UNL A   1      30.295  23.820  25.651  1.00  0.00    -0.282 N 
ATOM     33  C   UNL A   1      31.052  26.001  26.475  1.00  0.00     0.066 C 
ATOM     34  H   UNL A   1      29.399  23.963  26.035  1.00  0.00     0.190 HD
ENDBRANCH   9  27
ENDBRANCH   7   9
ENDBRANCH   6   7
ENDBRANCH   5   6
ENDBRANCH   4   5
ENDBRANCH   3   4
ENDBRANCH   2   3
ENDBRANCH   1   2
BRANCH   1  35
ATOM     35  O   UNL A   1      41.279  20.231  25.756  1.00  0.00    -0.376 OA
BRANCH  35  36
ATOM     36  C   UNL A   1      42.293  20.813  26.568  1.00  0.00     0.202 C 
BRANCH  36  37
ATOM     37  C   UNL A   1      42.962  22.098  26.063  1.00  0.00     0.261 C 
BRANCH  37  38
ATOM     38  O   UNL A   1      42.664  23.245  26.881  1.00  0.00    -0.460 OA
BRANCH  38  39
ATOM     39  C   UNL A   1      42.728  24.455  26.257  1.00  0.00     0.338 C 
ATOM     40  O   UNL A   1      42.954  24.666  25.089  1.00  0.00    -0.246 OA
BRANCH  39  41
ATOM     41  C   UNL A   1      42.194  25.483  27.185  1.00  0.00     0.060 A 
ATOM     42  C   UNL A   1      42.875  26.710  27.264  1.00  0.00     0.016 A 
ATOM     43  C   UNL A   1      41.014  25.283  27.903  1.00  0.00     0.016 A 
ATOM     44  C   UNL A   1      42.380  27.735  28.068  1.00  0.00     0.010 A 
ATOM     45  C   UNL A   1      40.546  26.292  28.750  1.00  0.00     0.010 A 
ATOM     46  C   UNL A   1      41.245  27.508  28.858  1.00  0.00    -0.014 A 
BRANCH  46  47
ATOM     47  C   UNL A   1      40.983  28.409  30.005  1.00  0.00     0.031 A 
ATOM     48  C   UNL A   1      41.835  28.216  31.231  1.00  0.00     0.074 A 
ATOM     49  C   UNL A   1      40.041  29.367  29.971  1.00  0.00     0.049 A 
ATOM     50  N   UNL A   1      41.827  28.870  32.360  1.00  0.00    -0.248 NA
ATOM     51  C   UNL A   1      42.839  27.137  31.166  1.00  0.00     0.031 C 
ATOM     52  C   UNL A   1      39.181  29.675  28.831  1.00  0.00     0.029 A 
ATOM     53  N   UNL A   1      39.649  30.259  30.939  1.00  0.00    -0.354 N 
ATOM     54  C   UNL A   1      42.834  28.301  33.128  1.00  0.00     0.074 A 
ATOM     55  C   UNL A   1      43.413  27.227  32.354  1.00  0.00     0.031 C 
ATOM     56  C   UNL A   1      38.349  30.677  29.171  1.00  0.00     0.029 A 
ATOM     57  C   UNL A   1      38.605  31.067  30.559  1.00  0.00     0.049 A 
ATOM     58  H   UNL A   1      40.078  30.315  31.824  1.00  0.00     0.167 HD
ATOM     59  C   UNL A   1      43.248  28.643  34.369  1.00  0.00     0.037 A 
ATOM     60  C   UNL A   1      37.928  32.001  31.259  1.00  0.00     0.037 A 
ATOM     61  C   UNL A   1      42.637  29.675  35.157  1.00  0.00     0.049 A 
ATOM     62  C   UNL A   1      38.332  32.296  32.682  1.00  0.00     0.074 A 
ATOM     63  C   UNL A   1      42.973  30.094  36.430  1.00  0.00     0.029 A 
ATOM     64  N   UNL A   1      41.548  30.433  34.756  1.00  0.00    -0.354 N 
ATOM     65  N   UNL A   1      39.314  31.778  33.384  1.00  0.00    -0.248 NA
ATOM     66  C   UNL A   1      37.540  33.300  33.411  1.00  0.00     0.031 C 
ATOM     67  C   UNL A   1      42.052  31.071  36.820  1.00  0.00     0.029 A 
ATOM     68  C   UNL A   1      41.177  31.298  35.769  1.00  0.00     0.049 A 
ATOM     69  H   UNL A   1      41.105  30.366  33.879  1.00  0.00     0.167 HD
ATOM     70  C   UNL A   1      39.272  32.409  34.625  1.00  0.00     0.074 A 
ATOM     71  C   UNL A   1      38.171  33.348  34.578  1.00  0.00     0.031 C 
ATOM     72  C   UNL A   1      40.078  32.230  35.702  1.00  0.00     0.037 A 
BRANCH  59  73
ATOM     73  C   UNL A   1      44.391  27.864  34.949  1.00  0.00     0.058 A 
ATOM     74  C   UNL A   1      45.721  28.284  34.784  1.00  0.00     0.135 A 
ATOM     75  C   UNL A   1      44.158  26.686  35.675  1.00  0.00     0.135 A 
ATOM     76  F   UNL A   1      45.998  29.388  34.072  1.00  0.00    -0.206 F 
ATOM     77  C   UNL A   1      46.782  27.550  35.301  1.00  0.00     0.059 A 
ATOM     78  C   UNL A   1      45.203  25.949  36.223  1.00  0.00     0.059 A 
ATOM     79  F   UNL A   1      42.906  26.235  35.849  1.00  0.00    -0.206 F 
ATOM     80  C   UNL A   1      46.513  26.383  36.019  1.00  0.00     0.060 A 
BRANCH  80  81
ATOM     81  S   UNL A   1      47.903  25.442  36.681  1.00  0.00     0.124 S 
ATOM     82  O   UNL A   1      47.219  24.453  37.507  1.00  0.00    -0.237 OA
ATOM     83  O   UNL A   1      48.535  24.928  35.470  1.00  0.00    -0.237 OA
ATOM     84  O   UNL A   1      48.674  26.443  37.412  1.00  0.00    -0.744 OA
ENDBRANCH  80  81
ENDBRANCH  59  73
BRANCH  60  85
ATOM     85  C   UNL A   1      36.797  32.728  30.619  1.00  0.00     0.058 A 
ATOM     86  C   UNL A   1      35.468  32.437  30.956  1.00  0.00     0.135 A 
ATOM     87  C   UNL A   1      37.025  33.750  29.684  1.00  0.00     0.135 A 
ATOM     88  F   UNL A   1      35.197  31.457  31.830  1.00  0.00    -0.206 F 
ATOM     89  C   UNL A   1      34.403  33.140  30.396  1.00  0.00     0.059 A 
ATOM     90  C   UNL A   1      35.979  34.480  29.125  1.00  0.00     0.059 A 
ATOM     91  F   UNL A   1      38.280  34.067  29.328  1.00  0.00    -0.206 F 
ATOM     92  C   UNL A   1      34.670  34.168  29.491  1.00  0.00     0.060 A 
BRANCH  92  93
ATOM     93  S   UNL A   1      33.285  35.127  28.838  1.00  0.00     0.124 S 
ATOM     94  O   UNL A   1      32.685  34.183  27.902  1.00  0.00    -0.237 OA
ATOM     95  O   UNL A   1      32.513  35.406  30.046  1.00  0.00    -0.237 OA
ATOM     96  O   UNL A   1      33.932  36.288  28.235  1.00  0.00    -0.744 OA
ENDBRANCH  92  93
ENDBRANCH  60  85
BRANCH  72  97
ATOM     97  C   UNL A   1      39.828  33.069  36.925  1.00  0.00     0.058 A 
ATOM     98  C   UNL A   1      38.877  32.697  37.887  1.00  0.00     0.135 A 
ATOM     99  C   UNL A   1      40.641  34.181  37.200  1.00  0.00     0.135 A 
ATOM    100  F   UNL A   1      38.073  31.643  37.669  1.00  0.00    -0.206 F 
ATOM    101  C   UNL A   1      38.745  33.395  39.082  1.00  0.00     0.059 A 
ATOM    102  C   UNL A   1      40.543  34.879  38.399  1.00  0.00     0.059 A 
ATOM    103  F   UNL A   1      41.575  34.569  36.316  1.00  0.00    -0.206 F 
ATOM    104  C   UNL A   1      39.591  34.477  39.335  1.00  0.00     0.060 A 
BRANCH 104 105
ATOM    105  S   UNL A   1      39.463  35.320  40.927  1.00  0.00     0.124 S 
ATOM    106  O   UNL A   1      39.037  36.655  40.520  1.00  0.00    -0.237 OA
ATOM    107  O   UNL A   1      38.461  34.519  41.622  1.00  0.00    -0.237 OA
ATOM    108  O   UNL A   1      40.815  35.231  41.469  1.00  0.00    -0.744 OA
ENDBRANCH 104 105
ENDBRANCH  72  97
ENDBRANCH  46  47
ENDBRANCH  39  41
ENDBRANCH  38  39
ENDBRANCH  37  38
ENDBRANCH  36  37
ENDBRANCH  35  36
ENDBRANCH   1  35
TORSDOF 23
ENDMDL
MODEL 2
REMARK VINA RESULT:     -11.0      1.364      2.509
REMARK SMILES Cc1cc(C(=O)N[C@H](C(=O)OCCOCCOCCOC(=O)c2ccc(-c3c4nc(c(-c5c(F)cc(S(=O)(=O)[O-])cc5F)c5ccc([nH]5)c(-c5c(F)cc(S(=O)(=O)[O-])cc5F)c5nc(c(-c6c(F)cc(S(=O)(=O)[O-])cc6F)c6ccc3[nH]6)C=C5)C=C4)cc2)c2c(C)n[nH]c2C)c2ccc(C)c(C)c2n1
REMARK SMILES IDX 16 1 15 2 14 3 13 4 12 5 11 6 9 7 10 8 8 9 7 10 5 11 6 12
REMARK SMILES IDX 4 14 1 15 2 16 3 17 104 18 103 19 96 20 101 21 97 22 99 23
REMARK SMILES IDX 102 24 98 25 100 26 89 27 90 28 94 29 91 30 92 31 93 32
REMARK SMILES IDX 95 33 17 35 18 36 19 37 20 38 21 39 22 40 23 41 24 42 88 43
REMARK SMILES IDX 25 44 87 45 26 46 27 47 28 48 81 49 29 50 86 51 80 52 82 53
REMARK SMILES IDX 30 54 85 55 79 56 78 57 31 59 65 60 44 61 64 62 45 63 48 64
REMARK SMILES IDX 63 65 83 66 46 67 47 68 62 70 84 71 49 72 32 73 33 74 42 75
REMARK SMILES IDX 34 76 35 77 41 78 43 79 36 80 37 81 38 82 39 83 40 84 66 85
REMARK SMILES IDX 67 86 76 87 68 88 69 89 75 90 77 91 70 92 71 93 72 94 73 95
REMARK SMILES IDX 74 96 50 97 51 98 60 99 52 100 53 101 59 102 61 103 54 104
REMARK SMILES IDX 55 105 56 106 57 107 58 108
REMARK H PARENT 7 13 93 34 82 58 48 69
REMARK Flexibility Score: inf
ROOT
ATOM      1  C   UNL A   1      41.781  21.240  26.958  1.00  0.00     0.188 C 
ENDROOT
BRANCH   1   2
ATOM      2  C   UNL A   1      40.292  21.202  26.545  1.00  0.00     0.188 C 
BRANCH   2   3
ATOM      3  O   UNL A   1      39.550  22.375  26.835  1.00  0.00    -0.376 OA
BRANCH   3   4
ATOM      4  C   UNL A   1      38.399  22.542  26.023  1.00  0.00     0.202 C 
BRANCH   4   5
ATOM      5  C   UNL A   1      37.645  23.823  26.337  1.00  0.00     0.261 C 
BRANCH   5   6
ATOM      6  O   UNL A   1      36.213  23.764  26.172  1.00  0.00    -0.461 OA
BRANCH   6   7
ATOM      7  C   UNL A   1      35.655  23.607  24.939  1.00  0.00     0.333 C 
ATOM      8  O   UNL A   1      36.196  23.956  23.901  1.00  0.00    -0.249 OA
BRANCH   7   9
ATOM      9  C   UNL A   1      34.306  22.828  25.058  1.00  0.00     0.227 C 
BRANCH   9  10
ATOM     10  N   UNL A   1      33.447  23.033  26.230  1.00  0.00    -0.335 N 
ATOM     11  C   UNL A   1      32.585  24.042  26.591  1.00  0.00     0.252 C 
ATOM     12  O   UNL A   1      31.752  23.812  27.466  1.00  0.00    -0.269 OA
ATOM     13  H   UNL A   1      33.497  22.304  26.890  1.00  0.00     0.165 HD
BRANCH  11  14
ATOM     14  C   UNL A   1      32.673  25.404  26.001  1.00  0.00     0.051 A 
ATOM     15  C   UNL A   1      34.804  28.451  26.478  1.00  0.00     0.067 C 
ATOM     16  C   UNL A   1      33.774  27.518  25.908  1.00  0.00     0.039 A 
ATOM     17  C   UNL A   1      33.798  26.185  26.252  1.00  0.00     0.038 A 
ATOM     18  N   UNL A   1      32.731  28.063  25.250  1.00  0.00    -0.253 NA
ATOM     19  C   UNL A   1      31.669  27.303  24.907  1.00  0.00     0.074 A 
ATOM     20  C   UNL A   1      31.580  25.944  25.273  1.00  0.00     0.013 A 
ATOM     21  C   UNL A   1      30.606  27.904  24.205  1.00  0.00    -0.022 A 
ATOM     22  C   UNL A   1      30.406  25.229  24.932  1.00  0.00     0.011 A 
ATOM     23  C   UNL A   1      29.464  27.161  23.828  1.00  0.00    -0.046 A 
ATOM     24  C   UNL A   1      30.685  29.392  23.947  1.00  0.00     0.047 C 
ATOM     25  C   UNL A   1      29.376  25.822  24.207  1.00  0.00     0.004 A 
ATOM     26  C   UNL A   1      28.340  27.765  23.035  1.00  0.00     0.044 C 
ENDBRANCH  11  14
ENDBRANCH   9  10
BRANCH   9  27
ATOM     27  C   UNL A   1      33.477  22.734  23.792  1.00  0.00     0.029 A 
ATOM     28  C   UNL A   1      32.665  21.598  23.440  1.00  0.00     0.065 A 
ATOM     29  C   UNL A   1      33.175  23.658  22.790  1.00  0.00     0.038 A 
ATOM     30  C   UNL A   1      32.404  20.356  24.216  1.00  0.00     0.069 C 
ATOM     31  N   UNL A   1      32.032  21.773  22.278  1.00  0.00    -0.180 NA
ATOM     32  N   UNL A   1      32.394  22.991  21.887  1.00  0.00    -0.282 N 
ATOM     33  C   UNL A   1      33.472  25.092  22.546  1.00  0.00     0.066 C 
ATOM     34  H   UNL A   1      32.122  23.378  21.022  1.00  0.00     0.190 HD
ENDBRANCH   9  27
ENDBRANCH   7   9
ENDBRANCH   6   7
ENDBRANCH   5   6
ENDBRANCH   4   5
ENDBRANCH   3   4
ENDBRANCH   2   3
ENDBRANCH   1   2
BRANCH   1  35
ATOM     35  O   UNL A   1      42.794  21.274  25.965  1.00  0.00    -0.376 OA
BRANCH  35  36
ATOM     36  C   UNL A   1      43.671  22.395  25.930  1.00  0.00     0.202 C 
BRANCH  36  37
ATOM     37  C   UNL A   1      43.171  23.669  25.236  1.00  0.00     0.261 C 
BRANCH  37  38
ATOM     38  O   UNL A   1      42.407  24.521  26.110  1.00  0.00    -0.460 OA
BRANCH  38  39
ATOM     39  C   UNL A   1      42.441  25.853  25.823  1.00  0.00     0.338 C 
ATOM     40  O   UNL A   1      42.359  26.370  24.734  1.00  0.00    -0.246 OA
BRANCH  39  41
ATOM     41  C   UNL A   1      42.313  26.605  27.097  1.00  0.00     0.060 A 
ATOM     42  C   UNL A   1      41.333  26.182  28.010  1.00  0.00     0.016 A 
ATOM     43  C   UNL A   1      43.181  27.648  27.424  1.00  0.00     0.016 A 
ATOM     44  C   UNL A   1      41.214  26.807  29.249  1.00  0.00     0.010 A 
ATOM     45  C   UNL A   1      43.027  28.310  28.646  1.00  0.00     0.010 A 
ATOM     46  C   UNL A   1      42.024  27.911  29.548  1.00  0.00    -0.014 A 
BRANCH  46  47
ATOM     47  C   UNL A   1      41.612  28.822  30.642  1.00  0.00     0.031 A 
ATOM     48  C   UNL A   1      42.399  28.748  31.923  1.00  0.00     0.074 A 
ATOM     49  C   UNL A   1      40.592  29.688  30.515  1.00  0.00     0.049 A 
ATOM     50  N   UNL A   1      42.262  29.436  33.023  1.00  0.00    -0.248 NA
ATOM     51  C   UNL A   1      43.496  27.764  31.960  1.00  0.00     0.031 C 
ATOM     52  C   UNL A   1      39.781  29.878  29.315  1.00  0.00     0.029 A 
ATOM     53  N   UNL A   1      40.062  30.573  31.423  1.00  0.00    -0.354 N 
ATOM     54  C   UNL A   1      43.265  28.986  33.872  1.00  0.00     0.074 A 
ATOM     55  C   UNL A   1      43.985  27.945  33.176  1.00  0.00     0.031 C 
ATOM     56  C   UNL A   1      38.844  30.811  29.566  1.00  0.00     0.029 A 
ATOM     57  C   UNL A   1      38.976  31.269  30.951  1.00  0.00     0.049 A 
ATOM     58  H   UNL A   1      40.428  30.696  32.329  1.00  0.00     0.167 HD
ATOM     59  C   UNL A   1      43.568  29.406  35.120  1.00  0.00     0.037 A 
ATOM     60  C   UNL A   1      38.176  32.160  31.572  1.00  0.00     0.037 A 
ATOM     61  C   UNL A   1      42.820  30.403  35.831  1.00  0.00     0.049 A 
ATOM     62  C   UNL A   1      38.462  32.538  33.004  1.00  0.00     0.074 A 
ATOM     63  C   UNL A   1      43.037  30.894  37.104  1.00  0.00     0.029 A 
ATOM     64  N   UNL A   1      41.695  31.046  35.336  1.00  0.00    -0.354 N 
ATOM     65  N   UNL A   1      39.440  32.135  33.783  1.00  0.00    -0.248 NA
ATOM     66  C   UNL A   1      37.540  33.488  33.645  1.00  0.00     0.031 C 
ATOM     67  C   UNL A   1      42.010  31.795  37.401  1.00  0.00     0.029 A 
ATOM     68  C   UNL A   1      41.186  31.907  36.291  1.00  0.00     0.049 A 
ATOM     69  H   UNL A   1      41.315  30.909  34.437  1.00  0.00     0.167 HD
ATOM     70  C   UNL A   1      39.265  32.800  34.993  1.00  0.00     0.074 A 
ATOM     71  C   UNL A   1      38.089  33.632  34.845  1.00  0.00     0.031 C 
ATOM     72  C   UNL A   1      40.014  32.731  36.123  1.00  0.00     0.037 A 
BRANCH  59  73
ATOM     73  C   UNL A   1      44.737  28.754  35.798  1.00  0.00     0.058 A 
ATOM     74  C   UNL A   1      46.042  29.252  35.645  1.00  0.00     0.135 A 
ATOM     75  C   UNL A   1      44.555  27.621  36.605  1.00  0.00     0.135 A 
ATOM     76  F   UNL A   1      46.272  30.316  34.860  1.00  0.00    -0.206 F 
ATOM     77  C   UNL A   1      47.129  28.635  36.253  1.00  0.00     0.059 A 
ATOM     78  C   UNL A   1      45.625  27.002  37.243  1.00  0.00     0.059 A 
ATOM     79  F   UNL A   1      43.330  27.098  36.771  1.00  0.00    -0.206 F 
ATOM     80  C   UNL A   1      46.910  27.509  37.050  1.00  0.00     0.060 A 
BRANCH  80  81
ATOM     81  S   UNL A   1      48.334  26.719  37.829  1.00  0.00     0.124 S 
ATOM     82  O   UNL A   1      49.442  27.406  37.173  1.00  0.00    -0.237 OA
ATOM     83  O   UNL A   1      48.135  27.040  39.238  1.00  0.00    -0.237 OA
ATOM     84  O   UNL A   1      48.175  25.311  37.480  1.00  0.00    -0.744 OA
ENDBRANCH  80  81
ENDBRANCH  59  73
BRANCH  60  85
ATOM     85  C   UNL A   1      37.028  32.759  30.838  1.00  0.00     0.058 A 
ATOM     86  C   UNL A   1      35.717  32.313  31.059  1.00  0.00     0.135 A 
ATOM     87  C   UNL A   1      37.214  33.811  29.927  1.00  0.00     0.135 A 
ATOM     88  F   UNL A   1      35.488  31.298  31.905  1.00  0.00    -0.206 F 
ATOM     89  C   UNL A   1      34.630  32.895  30.411  1.00  0.00     0.059 A 
ATOM     90  C   UNL A   1      36.142  34.422  29.282  1.00  0.00     0.059 A 
ATOM     91  F   UNL A   1      38.450  34.275  29.681  1.00  0.00    -0.206 F 
ATOM     92  C   UNL A   1      34.852  33.957  29.533  1.00  0.00     0.060 A 
BRANCH  92  93
ATOM     93  S   UNL A   1      33.426  34.758  28.765  1.00  0.00     0.124 S 
ATOM     94  O   UNL A   1      32.551  34.970  29.913  1.00  0.00    -0.237 OA
ATOM     95  O   UNL A   1      34.026  35.957  28.189  1.00  0.00    -0.237 OA
ATOM     96  O   UNL A   1      32.965  33.769  27.795  1.00  0.00    -0.744 OA
ENDBRANCH  92  93
ENDBRANCH  60  85
BRANCH  72  97
ATOM     97  C   UNL A   1      39.614  33.584  37.295  1.00  0.00     0.058 A 
ATOM     98  C   UNL A   1      38.707  33.123  38.260  1.00  0.00     0.135 A 
ATOM     99  C   UNL A   1      40.247  34.817  37.523  1.00  0.00     0.135 A 
ATOM    100  F   UNL A   1      38.073  31.952  38.087  1.00  0.00    -0.206 F 
ATOM    101  C   UNL A   1      38.444  33.854  39.415  1.00  0.00     0.059 A 
ATOM    102  C   UNL A   1      40.018  35.553  38.682  1.00  0.00     0.059 A 
ATOM    103  F   UNL A   1      41.133  35.296  36.635  1.00  0.00    -0.206 F 
ATOM    104  C   UNL A   1      39.115  35.061  39.623  1.00  0.00     0.060 A 
BRANCH 104 105
ATOM    105  S   UNL A   1      38.827  35.954  41.165  1.00  0.00     0.124 S 
ATOM    106  O   UNL A   1      37.596  35.331  41.641  1.00  0.00    -0.237 OA
ATOM    107  O   UNL A   1      40.030  35.647  41.932  1.00  0.00    -0.237 OA
ATOM    108  O   UNL A   1      38.701  37.344  40.736  1.00  0.00    -0.744 OA
ENDBRANCH 104 105
ENDBRANCH  72  97
ENDBRANCH  46  47
ENDBRANCH  39  41
ENDBRANCH  38  39
ENDBRANCH  37  38
ENDBRANCH  36  37
ENDBRANCH  35  36
ENDBRANCH   1  35
TORSDOF 23
ENDMDL
MODEL 3
REMARK VINA RESULT:     -10.6      4.977     10.869
REMARK SMILES Cc1cc(C(=O)N[C@H](C(=O)OCCOCCOCCOC(=O)c2ccc(-c3c4nc(c(-c5c(F)cc(S(=O)(=O)[O-])cc5F)c5ccc([nH]5)c(-c5c(F)cc(S(=O)(=O)[O-])cc5F)c5nc(c(-c6c(F)cc(S(=O)(=O)[O-])cc6F)c6ccc3[nH]6)C=C5)C=C4)cc2)c2c(C)n[nH]c2C)c2ccc(C)c(C)c2n1
REMARK SMILES IDX 16 1 15 2 14 3 13 4 12 5 11 6 9 7 10 8 8 9 7 10 5 11 6 12
REMARK SMILES IDX 4 14 1 15 2 16 3 17 104 18 103 19 96 20 101 21 97 22 99 23
REMARK SMILES IDX 102 24 98 25 100 26 89 27 90 28 94 29 91 30 92 31 93 32
REMARK SMILES IDX 95 33 17 35 18 36 19 37 20 38 21 39 22 40 23 41 24 42 88 43
REMARK SMILES IDX 25 44 87 45 26 46 27 47 28 48 81 49 29 50 86 51 80 52 82 53
REMARK SMILES IDX 30 54 85 55 79 56 78 57 31 59 65 60 44 61 64 62 45 63 48 64
REMARK SMILES IDX 63 65 83 66 46 67 47 68 62 70 84 71 49 72 32 73 33 74 42 75
REMARK SMILES IDX 34 76 35 77 41 78 43 79 36 80 37 81 38 82 39 83 40 84 66 85
REMARK SMILES IDX 67 86 76 87 68 88 69 89 75 90 77 91 70 92 71 93 72 94 73 95
REMARK SMILES IDX 74 96 50 97 51 98 60 99 52 100 53 101 59 102 61 103 54 104
REMARK SMILES IDX 55 105 56 106 57 107 58 108
REMARK H PARENT 7 13 93 34 82 58 48 69
REMARK Flexibility Score: inf
ROOT
ATOM      1  C   UNL A   1      33.074  33.004  27.683  1.00  0.00     0.188 C 
ENDROOT
BRANCH   1   2
ATOM      2  C   UNL A   1      34.502  32.413  27.630  1.00  0.00     0.188 C 
BRANCH   2   3
ATOM      3  O   UNL A   1      34.576  31.033  27.314  1.00  0.00    -0.376 OA
BRANCH   3   4
ATOM      4  C   UNL A   1      33.346  30.476  26.879  1.00  0.00     0.202 C 
BRANCH   4   5
ATOM      5  C   UNL A   1      32.966  29.225  27.654  1.00  0.00     0.261 C 
BRANCH   5   6
ATOM      6  O   UNL A   1      32.532  28.103  26.858  1.00  0.00    -0.461 OA
BRANCH   6   7
ATOM      7  C   UNL A   1      33.306  27.618  25.846  1.00  0.00     0.333 C 
ATOM      8  O   UNL A   1      34.489  27.340  25.973  1.00  0.00    -0.249 OA
BRANCH   7   9
ATOM      9  C   UNL A   1      32.434  27.374  24.574  1.00  0.00     0.227 C 
BRANCH   9  10
ATOM     10  N   UNL A   1      33.079  27.005  23.308  1.00  0.00    -0.335 N 
ATOM     11  C   UNL A   1      33.618  25.829  22.842  1.00  0.00     0.252 C 
ATOM     12  O   UNL A   1      33.801  25.711  21.631  1.00  0.00    -0.269 OA
ATOM     13  H   UNL A   1      33.138  27.748  22.663  1.00  0.00     0.165 HD
BRANCH  11  14
ATOM     14  C   UNL A   1      34.035  24.734  23.757  1.00  0.00     0.051 A 
ATOM     15  C   UNL A   1      36.852  24.103  26.148  1.00  0.00     0.067 C 
ATOM     16  C   UNL A   1      35.568  23.917  25.392  1.00  0.00     0.039 A 
ATOM     17  C   UNL A   1      35.019  24.981  24.712  1.00  0.00     0.038 A 
ATOM     18  N   UNL A   1      35.113  22.659  25.229  1.00  0.00    -0.253 NA
ATOM     19  C   UNL A   1      34.092  22.407  24.382  1.00  0.00     0.074 A 
ATOM     20  C   UNL A   1      33.510  23.425  23.598  1.00  0.00     0.013 A 
ATOM     21  C   UNL A   1      33.633  21.082  24.251  1.00  0.00    -0.022 A 
ATOM     22  C   UNL A   1      32.487  23.071  22.686  1.00  0.00     0.011 A 
ATOM     23  C   UNL A   1      32.574  20.757  23.373  1.00  0.00    -0.046 A 
ATOM     24  C   UNL A   1      34.370  20.003  25.014  1.00  0.00     0.047 C 
ATOM     25  C   UNL A   1      32.015  21.765  22.589  1.00  0.00     0.004 A 
ATOM     26  C   UNL A   1      32.032  19.360  23.253  1.00  0.00     0.044 C 
ENDBRANCH  11  14
ENDBRANCH   9  10
BRANCH   9  27
ATOM     27  C   UNL A   1      31.161  26.577  24.783  1.00  0.00     0.029 A 
ATOM     28  C   UNL A   1      29.935  26.811  24.065  1.00  0.00     0.065 A 
ATOM     29  C   UNL A   1      30.875  25.432  25.528  1.00  0.00     0.038 A 
ATOM     30  C   UNL A   1      29.660  27.779  22.969  1.00  0.00     0.069 C 
ATOM     31  N   UNL A   1      28.968  25.967  24.432  1.00  0.00    -0.180 NA
ATOM     32  N   UNL A   1      29.542  25.187  25.343  1.00  0.00    -0.282 N 
ATOM     33  C   UNL A   1      31.657  24.494  26.372  1.00  0.00     0.066 C 
ATOM     34  H   UNL A   1      29.049  24.493  25.841  1.00  0.00     0.190 HD
ENDBRANCH   9  27
ENDBRANCH   7   9
ENDBRANCH   6   7
ENDBRANCH   5   6
ENDBRANCH   4   5
ENDBRANCH   3   4
ENDBRANCH   2   3
ENDBRANCH   1   2
BRANCH   1  35
ATOM     35  O   UNL A   1      32.740  33.969  28.668  1.00  0.00    -0.376 OA
BRANCH  35  36
ATOM     36  C   UNL A   1      33.798  34.651  29.333  1.00  0.00     0.202 C 
BRANCH  36  37
ATOM     37  C   UNL A   1      34.045  34.317  30.811  1.00  0.00     0.261 C 
BRANCH  37  38
ATOM     38  O   UNL A   1      34.283  32.914  31.036  1.00  0.00    -0.460 OA
BRANCH  38  39
ATOM     39  C   UNL A   1      35.154  32.612  32.041  1.00  0.00     0.338 C 
ATOM     40  O   UNL A   1      34.950  32.673  33.229  1.00  0.00    -0.246 OA
BRANCH  39  41
ATOM     41  C   UNL A   1      36.323  31.918  31.445  1.00  0.00     0.060 A 
ATOM     42  C   UNL A   1      37.094  31.097  32.285  1.00  0.00     0.016 A 
ATOM     43  C   UNL A   1      36.613  32.004  30.083  1.00  0.00     0.016 A 
ATOM     44  C   UNL A   1      38.162  30.369  31.765  1.00  0.00     0.010 A 
ATOM     45  C   UNL A   1      37.716  31.314  29.571  1.00  0.00     0.010 A 
ATOM     46  C   UNL A   1      38.511  30.520  30.416  1.00  0.00    -0.014 A 
BRANCH  46  47
ATOM     47  C   UNL A   1      39.865  30.106  29.980  1.00  0.00     0.031 A 
ATOM     48  C   UNL A   1      40.942  31.156  30.011  1.00  0.00     0.074 A 
ATOM     49  C   UNL A   1      40.144  28.853  29.580  1.00  0.00     0.049 A 
ATOM     50  N   UNL A   1      42.206  31.061  29.699  1.00  0.00    -0.248 NA
ATOM     51  C   UNL A   1      40.533  32.499  30.464  1.00  0.00     0.031 C 
ATOM     52  C   UNL A   1      39.196  27.741  29.543  1.00  0.00     0.029 A 
ATOM     53  N   UNL A   1      41.319  28.309  29.121  1.00  0.00    -0.354 N 
ATOM     54  C   UNL A   1      42.745  32.318  29.938  1.00  0.00     0.074 A 
ATOM     55  C   UNL A   1      41.670  33.171  30.390  1.00  0.00     0.031 C 
ATOM     56  C   UNL A   1      39.825  26.649  29.069  1.00  0.00     0.029 A 
ATOM     57  C   UNL A   1      41.213  26.991  28.751  1.00  0.00     0.049 A 
ATOM     58  H   UNL A   1      42.160  28.819  29.064  1.00  0.00     0.167 HD
ATOM     59  C   UNL A   1      44.025  32.730  29.801  1.00  0.00     0.037 A 
ATOM     60  C   UNL A   1      42.129  26.163  28.206  1.00  0.00     0.037 A 
ATOM     61  C   UNL A   1      45.082  31.897  29.302  1.00  0.00     0.049 A 
ATOM     62  C   UNL A   1      43.528  26.670  27.957  1.00  0.00     0.074 A 
ATOM     63  C   UNL A   1      46.413  32.219  29.114  1.00  0.00     0.029 A 
ATOM     64  N   UNL A   1      44.922  30.583  28.888  1.00  0.00    -0.354 N 
ATOM     65  N   UNL A   1      44.037  27.851  28.227  1.00  0.00    -0.248 NA
ATOM     66  C   UNL A   1      44.478  25.738  27.331  1.00  0.00     0.031 C 
ATOM     67  C   UNL A   1      47.047  31.115  28.536  1.00  0.00     0.029 A 
ATOM     68  C   UNL A   1      46.123  30.087  28.416  1.00  0.00     0.049 A 
ATOM     69  H   UNL A   1      44.077  30.077  28.927  1.00  0.00     0.167 HD
ATOM     70  C   UNL A   1      45.369  27.795  27.827  1.00  0.00     0.074 A 
ATOM     71  C   UNL A   1      45.590  26.465  27.298  1.00  0.00     0.031 C 
ATOM     72  C   UNL A   1      46.323  28.757  27.896  1.00  0.00     0.037 A 
BRANCH  59  73
ATOM     73  C   UNL A   1      44.331  34.153  30.165  1.00  0.00     0.058 A 
ATOM     74  C   UNL A   1      44.755  34.502  31.458  1.00  0.00     0.135 A 
ATOM     75  C   UNL A   1      44.198  35.177  29.216  1.00  0.00     0.135 A 
ATOM     76  F   UNL A   1      44.869  33.562  32.409  1.00  0.00    -0.206 F 
ATOM     77  C   UNL A   1      45.015  35.823  31.802  1.00  0.00     0.059 A 
ATOM     78  C   UNL A   1      44.477  36.503  29.532  1.00  0.00     0.059 A 
ATOM     79  F   UNL A   1      43.782  34.897  27.971  1.00  0.00    -0.206 F 
ATOM     80  C   UNL A   1      44.873  36.817  30.832  1.00  0.00     0.060 A 
BRANCH  80  81
ATOM     81  S   UNL A   1      45.213  38.527  31.299  1.00  0.00     0.124 S 
ATOM     82  O   UNL A   1      43.991  39.196  30.862  1.00  0.00    -0.237 OA
ATOM     83  O   UNL A   1      45.397  38.424  32.743  1.00  0.00    -0.237 OA
ATOM     84  O   UNL A   1      46.413  38.856  30.537  1.00  0.00    -0.744 OA
ENDBRANCH  80  81
ENDBRANCH  59  73
BRANCH  60  85
ATOM     85  C   UNL A   1      41.750  24.766  27.862  1.00  0.00     0.058 A 
ATOM     86  C   UNL A   1      40.970  24.486  26.732  1.00  0.00     0.135 A 
ATOM     87  C   UNL A   1      42.189  23.681  28.637  1.00  0.00     0.135 A 
ATOM     88  F   UNL A   1      40.510  25.489  25.970  1.00  0.00    -0.206 F 
ATOM     89  C   UNL A   1      40.645  23.179  26.375  1.00  0.00     0.059 A 
ATOM     90  C   UNL A   1      41.894  22.364  28.291  1.00  0.00     0.059 A 
ATOM     91  F   UNL A   1      42.940  23.895  29.730  1.00  0.00    -0.206 F 
ATOM     92  C   UNL A   1      41.122  22.124  27.155  1.00  0.00     0.060 A 
BRANCH  92  93
ATOM     93  S   UNL A   1      40.765  20.432  26.633  1.00  0.00     0.124 S 
ATOM     94  O   UNL A   1      39.457  20.584  26.006  1.00  0.00    -0.237 OA
ATOM     95  O   UNL A   1      41.877  20.152  25.729  1.00  0.00    -0.237 OA
ATOM     96  O   UNL A   1      40.781  19.682  27.885  1.00  0.00    -0.744 OA
ENDBRANCH  92  93
ENDBRANCH  60  85
BRANCH  72  97
ATOM     97  C   UNL A   1      47.707  28.423  27.411  1.00  0.00     0.058 A 
ATOM     98  C   UNL A   1      48.715  28.014  28.297  1.00  0.00     0.135 A 
ATOM     99  C   UNL A   1      47.986  28.384  26.035  1.00  0.00     0.135 A 
ATOM    100  F   UNL A   1      48.499  28.036  29.623  1.00  0.00    -0.206 F 
ATOM    101  C   UNL A   1      49.950  27.572  27.835  1.00  0.00     0.059 A 
ATOM    102  C   UNL A   1      49.206  27.923  25.550  1.00  0.00     0.059 A 
ATOM    103  F   UNL A   1      47.051  28.753  25.146  1.00  0.00    -0.206 F 
ATOM    104  C   UNL A   1      50.182  27.518  26.459  1.00  0.00     0.060 A 
BRANCH 104 105
ATOM    105  S   UNL A   1      51.760  26.863  25.874  1.00  0.00     0.124 S 
ATOM    106  O   UNL A   1      51.514  25.425  25.912  1.00  0.00    -0.237 OA
ATOM    107  O   UNL A   1      51.866  27.453  24.544  1.00  0.00    -0.237 OA
ATOM    108  O   UNL A   1      52.721  27.361  26.854  1.00  0.00    -0.744 OA
ENDBRANCH 104 105
ENDBRANCH  72  97
ENDBRANCH  46  47
ENDBRANCH  39  41
ENDBRANCH  38  39
ENDBRANCH  37  38
ENDBRANCH  36  37
ENDBRANCH  35  36
ENDBRANCH   1  35
TORSDOF 23
ENDMDL
