MODEL 1
REMARK VINA RESULT:      -9.7      0.000      0.000
REMARK SMILES O=C(COC1(Cc2ccccc2)CCCCC1)OCCOCCOCCOC(=O)c1ccc(-c2c3nc(c(-c4c(F)cc(S(=O)(=O)[O-])cc4F)c4ccc([nH]4)c(-c4c(F)cc(S(=O)(=O)[O-])cc4F)c4nc(c(-c5c(F)cc(S(=O)(=O)[O-])cc5F)c5ccc2[nH]5)C=C4)C=C3)cc1
REMARK SMILES IDX 22 1 21 2 20 3 19 4 18 5 2 6 1 7 3 8 4 9 5 10 13 11 17 12
REMARK SMILES IDX 14 13 16 14 15 15 6 16 7 17 8 18 12 19 9 20 11 21 10 22
REMARK SMILES IDX 23 23 24 24 25 25 26 26 27 27 28 28 29 29 30 30 31 31 95 32
REMARK SMILES IDX 32 33 94 34 33 35 34 36 35 37 88 38 36 39 93 40 87 41 89 42
REMARK SMILES IDX 37 43 92 44 86 45 85 46 38 48 72 49 51 50 71 51 52 52 55 53
REMARK SMILES IDX 70 54 90 55 53 56 54 57 69 59 91 60 56 61 39 62 40 63 49 64
REMARK SMILES IDX 41 65 42 66 48 67 50 68 43 69 44 70 45 71 46 72 47 73 73 74
REMARK SMILES IDX 74 75 83 76 75 77 76 78 82 79 84 80 77 81 78 82 79 83 80 84
REMARK SMILES IDX 81 85 57 86 58 87 67 88 59 89 60 90 66 91 68 92 61 93 62 94
REMARK SMILES IDX 63 95 64 96 65 97
REMARK H PARENT 89 47 55 58
REMARK Flexibility Score: inf
ROOT
ATOM      1  C   UNL A   1      34.363  28.261  26.555  1.00  0.00     0.188 C 
ENDROOT
BRANCH   1   2
ATOM      2  O   UNL A   1      33.021  27.927  26.252  1.00  0.00    -0.376 OA
BRANCH   2   3
ATOM      3  C   UNL A   1      32.370  28.435  25.109  1.00  0.00     0.202 C 
BRANCH   3   4
ATOM      4  C   UNL A   1      33.207  28.608  23.836  1.00  0.00     0.261 C 
BRANCH   4   5
ATOM      5  O   UNL A   1      32.502  28.377  22.617  1.00  0.00    -0.462 OA
BRANCH   5   6
ATOM      6  C   UNL A   1      31.805  27.259  22.334  1.00  0.00     0.332 C 
ATOM      7  O   UNL A   1      30.620  27.390  22.050  1.00  0.00    -0.250 OA
BRANCH   6   8
ATOM      8  C   UNL A   1      32.490  25.887  22.517  1.00  0.00     0.283 C 
BRANCH   8   9
ATOM      9  O   UNL A   1      31.831  24.816  23.084  1.00  0.00    -0.363 OA
BRANCH   9  10
ATOM     10  C   UNL A   1      32.172  24.286  24.366  1.00  0.00     0.073 C 
ATOM     11  C   UNL A   1      31.047  24.995  25.175  1.00  0.00     0.036 C 
ATOM     12  C   UNL A   1      31.881  22.774  24.279  1.00  0.00     0.036 C 
ATOM     13  C   UNL A   1      30.691  24.354  26.498  1.00  0.00     0.003 C 
ATOM     14  C   UNL A   1      31.565  22.146  25.633  1.00  0.00     0.003 C 
ATOM     15  C   UNL A   1      30.411  22.868  26.323  1.00  0.00     0.000 C 
BRANCH  10  16
ATOM     16  C   UNL A   1      33.564  24.551  25.073  1.00  0.00     0.071 C 
BRANCH  16  17
ATOM     17  C   UNL A   1      34.838  23.730  24.850  1.00  0.00    -0.045 A 
ATOM     18  C   UNL A   1      35.368  23.644  23.549  1.00  0.00     0.004 A 
ATOM     19  C   UNL A   1      35.450  22.915  25.811  1.00  0.00     0.004 A 
ATOM     20  C   UNL A   1      36.481  22.844  23.252  1.00  0.00     0.000 A 
ATOM     21  C   UNL A   1      36.592  22.151  25.533  1.00  0.00     0.000 A 
ATOM     22  C   UNL A   1      37.113  22.118  24.251  1.00  0.00     0.000 A 
ENDBRANCH  16  17
ENDBRANCH  10  16
ENDBRANCH   9  10
ENDBRANCH   8   9
ENDBRANCH   6   8
ENDBRANCH   5   6
ENDBRANCH   4   5
ENDBRANCH   3   4
ENDBRANCH   2   3
ENDBRANCH   1   2
BRANCH   1  23
ATOM     23  C   UNL A   1      34.507  29.466  27.514  1.00  0.00     0.188 C 
BRANCH  23  24
ATOM     24  O   UNL A   1      33.536  30.507  27.557  1.00  0.00    -0.376 OA
BRANCH  24  25
ATOM     25  C   UNL A   1      33.950  31.841  27.786  1.00  0.00     0.202 C 
BRANCH  25  26
ATOM     26  C   UNL A   1      32.846  32.917  27.758  1.00  0.00     0.261 C 
BRANCH  26  27
ATOM     27  O   UNL A   1      33.271  34.291  27.625  1.00  0.00    -0.460 OA
BRANCH  27  28
ATOM     28  C   UNL A   1      33.296  35.014  28.776  1.00  0.00     0.338 C 
ATOM     29  O   UNL A   1      32.443  35.798  29.147  1.00  0.00    -0.246 OA
BRANCH  28  30
ATOM     30  C   UNL A   1      34.463  34.642  29.631  1.00  0.00     0.060 A 
ATOM     31  C   UNL A   1      35.716  34.553  29.010  1.00  0.00     0.016 A 
ATOM     32  C   UNL A   1      34.349  34.309  30.986  1.00  0.00     0.016 A 
ATOM     33  C   UNL A   1      36.833  34.083  29.712  1.00  0.00     0.010 A 
ATOM     34  C   UNL A   1      35.473  33.825  31.690  1.00  0.00     0.010 A 
ATOM     35  C   UNL A   1      36.717  33.677  31.048  1.00  0.00    -0.014 A 
BRANCH  35  36
ATOM     36  C   UNL A   1      37.846  32.921  31.672  1.00  0.00     0.031 A 
ATOM     37  C   UNL A   1      38.378  33.390  33.006  1.00  0.00     0.074 A 
ATOM     38  C   UNL A   1      38.346  31.793  31.130  1.00  0.00     0.049 A 
ATOM     39  N   UNL A   1      39.292  32.854  33.775  1.00  0.00    -0.248 NA
ATOM     40  C   UNL A   1      37.789  34.625  33.545  1.00  0.00     0.031 C 
ATOM     41  C   UNL A   1      37.915  31.192  29.870  1.00  0.00     0.029 A 
ATOM     42  N   UNL A   1      39.335  30.947  31.581  1.00  0.00    -0.354 N 
ATOM     43  C   UNL A   1      39.365  33.666  34.901  1.00  0.00     0.074 A 
ATOM     44  C   UNL A   1      38.440  34.759  34.691  1.00  0.00     0.031 C 
ATOM     45  C   UNL A   1      38.645  30.085  29.641  1.00  0.00     0.029 A 
ATOM     46  C   UNL A   1      39.607  29.900  30.728  1.00  0.00     0.049 A 
ATOM     47  H   UNL A   1      39.804  31.077  32.437  1.00  0.00     0.167 HD
ATOM     48  C   UNL A   1      40.117  33.513  36.020  1.00  0.00     0.037 A 
ATOM     49  C   UNL A   1      40.529  28.916  30.807  1.00  0.00     0.037 A 
ATOM     50  C   UNL A   1      41.071  32.454  36.227  1.00  0.00     0.049 A 
ATOM     51  C   UNL A   1      41.427  28.820  32.021  1.00  0.00     0.074 A 
ATOM     52  C   UNL A   1      41.892  32.237  37.321  1.00  0.00     0.029 A 
ATOM     53  N   UNL A   1      41.346  31.443  35.320  1.00  0.00    -0.354 N 
ATOM     54  N   UNL A   1      41.457  29.577  33.093  1.00  0.00    -0.248 NA
ATOM     55  C   UNL A   1      42.408  27.721  32.042  1.00  0.00     0.031 C 
ATOM     56  C   UNL A   1      42.699  31.126  37.054  1.00  0.00     0.029 A 
ATOM     57  C   UNL A   1      42.337  30.612  35.821  1.00  0.00     0.049 A 
ATOM     58  H   UNL A   1      40.902  31.329  34.449  1.00  0.00     0.167 HD
ATOM     59  C   UNL A   1      42.433  29.027  33.924  1.00  0.00     0.074 A 
ATOM     60  C   UNL A   1      42.955  27.864  33.241  1.00  0.00     0.031 C 
ATOM     61  C   UNL A   1      42.855  29.448  35.143  1.00  0.00     0.037 A 
BRANCH  48  62
ATOM     62  C   UNL A   1      39.941  34.533  37.114  1.00  0.00     0.058 A 
ATOM     63  C   UNL A   1      40.667  35.735  37.119  1.00  0.00     0.135 A 
ATOM     64  C   UNL A   1      39.012  34.325  38.146  1.00  0.00     0.135 A 
ATOM     65  F   UNL A   1      41.581  35.976  36.166  1.00  0.00    -0.206 F 
ATOM     66  C   UNL A   1      40.498  36.683  38.121  1.00  0.00     0.059 A 
ATOM     67  C   UNL A   1      38.805  35.274  39.143  1.00  0.00     0.059 A 
ATOM     68  F   UNL A   1      38.292  33.194  38.190  1.00  0.00    -0.206 F 
ATOM     69  C   UNL A   1      39.563  36.444  39.130  1.00  0.00     0.060 A 
BRANCH  69  70
ATOM     70  S   UNL A   1      39.350  37.690  40.419  1.00  0.00     0.124 S 
ATOM     71  O   UNL A   1      39.211  36.856  41.610  1.00  0.00    -0.237 OA
ATOM     72  O   UNL A   1      40.589  38.454  40.320  1.00  0.00    -0.237 OA
ATOM     73  O   UNL A   1      38.143  38.402  40.009  1.00  0.00    -0.744 OA
ENDBRANCH  69  70
ENDBRANCH  48  62
BRANCH  49  74
ATOM     74  C   UNL A   1      40.687  27.940  29.689  1.00  0.00     0.058 A 
ATOM     75  C   UNL A   1      39.814  26.851  29.529  1.00  0.00     0.135 A 
ATOM     76  C   UNL A   1      41.757  28.049  28.786  1.00  0.00     0.135 A 
ATOM     77  F   UNL A   1      38.787  26.687  30.377  1.00  0.00    -0.206 F 
ATOM     78  C   UNL A   1      40.011  25.894  28.538  1.00  0.00     0.059 A 
ATOM     79  C   UNL A   1      41.956  27.122  27.767  1.00  0.00     0.059 A 
ATOM     80  F   UNL A   1      42.623  29.069  28.889  1.00  0.00    -0.206 F 
ATOM     81  C   UNL A   1      41.086  26.039  27.660  1.00  0.00     0.060 A 
BRANCH  81  82
ATOM     82  S   UNL A   1      41.319  24.808  26.357  1.00  0.00     0.124 S 
ATOM     83  O   UNL A   1      42.560  24.168  26.775  1.00  0.00    -0.237 OA
ATOM     84  O   UNL A   1      40.110  24.000  26.480  1.00  0.00    -0.237 OA
ATOM     85  O   UNL A   1      41.403  25.615  25.144  1.00  0.00    -0.744 OA
ENDBRANCH  81  82
ENDBRANCH  49  74
BRANCH  61  86
ATOM     86  C   UNL A   1      43.908  28.627  35.846  1.00  0.00     0.058 A 
ATOM     87  C   UNL A   1      45.278  28.915  35.731  1.00  0.00     0.135 A 
ATOM     88  C   UNL A   1      43.539  27.554  36.675  1.00  0.00     0.135 A 
ATOM     89  F   UNL A   1      45.693  29.929  34.954  1.00  0.00    -0.206 F 
ATOM     90  C   UNL A   1      46.244  28.144  36.375  1.00  0.00     0.059 A 
ATOM     91  C   UNL A   1      44.485  26.791  37.356  1.00  0.00     0.059 A 
ATOM     92  F   UNL A   1      42.244  27.240  36.839  1.00  0.00    -0.206 F 
ATOM     93  C   UNL A   1      45.837  27.081  37.184  1.00  0.00     0.060 A 
BRANCH  93  94
ATOM     94  S   UNL A   1      47.098  26.091  38.015  1.00  0.00     0.124 S 
ATOM     95  O   UNL A   1      46.302  24.993  38.555  1.00  0.00    -0.237 OA
ATOM     96  O   UNL A   1      47.997  25.744  36.920  1.00  0.00    -0.237 OA
ATOM     97  O   UNL A   1      47.653  27.009  39.007  1.00  0.00    -0.744 OA
ENDBRANCH  93  94
ENDBRANCH  61  86
ENDBRANCH  35  36
ENDBRANCH  28  30
ENDBRANCH  27  28
ENDBRANCH  26  27
ENDBRANCH  25  26
ENDBRANCH  24  25
ENDBRANCH  23  24
ENDBRANCH   1  23
TORSDOF 24
ENDMDL
MODEL 2
REMARK VINA RESULT:      -9.6      6.451     10.921
REMARK SMILES O=C(COC1(Cc2ccccc2)CCCCC1)OCCOCCOCCOC(=O)c1ccc(-c2c3nc(c(-c4c(F)cc(S(=O)(=O)[O-])cc4F)c4ccc([nH]4)c(-c4c(F)cc(S(=O)(=O)[O-])cc4F)c4nc(c(-c5c(F)cc(S(=O)(=O)[O-])cc5F)c5ccc2[nH]5)C=C4)C=C3)cc1
REMARK SMILES IDX 22 1 21 2 20 3 19 4 18 5 2 6 1 7 3 8 4 9 5 10 13 11 17 12
REMARK SMILES IDX 14 13 16 14 15 15 6 16 7 17 8 18 12 19 9 20 11 21 10 22
REMARK SMILES IDX 23 23 24 24 25 25 26 26 27 27 28 28 29 29 30 30 31 31 95 32
REMARK SMILES IDX 32 33 94 34 33 35 34 36 35 37 88 38 36 39 93 40 87 41 89 42
REMARK SMILES IDX 37 43 92 44 86 45 85 46 38 48 72 49 51 50 71 51 52 52 55 53
REMARK SMILES IDX 70 54 90 55 53 56 54 57 69 59 91 60 56 61 39 62 40 63 49 64
REMARK SMILES IDX 41 65 42 66 48 67 50 68 43 69 44 70 45 71 46 72 47 73 73 74
REMARK SMILES IDX 74 75 83 76 75 77 76 78 82 79 84 80 77 81 78 82 79 83 80 84
REMARK SMILES IDX 81 85 57 86 58 87 67 88 59 89 60 90 66 91 68 92 61 93 62 94
REMARK SMILES IDX 63 95 64 96 65 97
REMARK H PARENT 89 47 55 58
REMARK Flexibility Score: inf
ROOT
ATOM      1  C   UNL A   1      34.804  20.796  25.156  1.00  0.00     0.188 C 
ENDROOT
BRANCH   1   2
ATOM      2  O   UNL A   1      34.522  22.148  24.847  1.00  0.00    -0.376 OA
BRANCH   2   3
ATOM      3  C   UNL A   1      33.329  22.772  25.268  1.00  0.00     0.202 C 
BRANCH   3   4
ATOM      4  C   UNL A   1      32.121  21.872  25.549  1.00  0.00     0.261 C 
BRANCH   4   5
ATOM      5  O   UNL A   1      30.864  22.545  25.581  1.00  0.00    -0.462 OA
BRANCH   5   6
ATOM      6  C   UNL A   1      30.679  23.805  26.025  1.00  0.00     0.332 C 
ATOM      7  O   UNL A   1      30.538  23.963  27.231  1.00  0.00    -0.250 OA
BRANCH   6   8
ATOM      8  C   UNL A   1      30.518  24.943  24.992  1.00  0.00     0.283 C 
BRANCH   8   9
ATOM      9  O   UNL A   1      30.578  26.271  25.360  1.00  0.00    -0.363 OA
BRANCH   9  10
ATOM     10  C   UNL A   1      31.371  27.234  24.664  1.00  0.00     0.073 C 
ATOM     11  C   UNL A   1      31.466  28.277  25.815  1.00  0.00     0.036 C 
ATOM     12  C   UNL A   1      32.743  26.562  24.453  1.00  0.00     0.036 C 
ATOM     13  C   UNL A   1      32.623  29.246  25.726  1.00  0.00     0.003 C 
ATOM     14  C   UNL A   1      33.887  27.564  24.324  1.00  0.00     0.003 C 
ATOM     15  C   UNL A   1      33.937  28.503  25.526  1.00  0.00     0.000 C 
BRANCH  10  16
ATOM     16  C   UNL A   1      30.891  27.963  23.343  1.00  0.00     0.071 C 
BRANCH  16  17
ATOM     17  C   UNL A   1      29.680  28.897  23.241  1.00  0.00    -0.045 A 
ATOM     18  C   UNL A   1      29.871  30.276  23.446  1.00  0.00     0.004 A 
ATOM     19  C   UNL A   1      28.351  28.479  23.111  1.00  0.00     0.004 A 
ATOM     20  C   UNL A   1      28.800  31.181  23.452  1.00  0.00     0.000 A 
ATOM     21  C   UNL A   1      27.279  29.382  23.066  1.00  0.00     0.000 A 
ATOM     22  C   UNL A   1      27.503  30.738  23.233  1.00  0.00     0.000 A 
ENDBRANCH  16  17
ENDBRANCH  10  16
ENDBRANCH   9  10
ENDBRANCH   8   9
ENDBRANCH   6   8
ENDBRANCH   5   6
ENDBRANCH   4   5
ENDBRANCH   3   4
ENDBRANCH   2   3
ENDBRANCH   1   2
BRANCH   1  23
ATOM     23  C   UNL A   1      36.260  20.374  24.845  1.00  0.00     0.188 C 
BRANCH  23  24
ATOM     24  O   UNL A   1      37.323  21.322  24.814  1.00  0.00    -0.376 OA
BRANCH  24  25
ATOM     25  C   UNL A   1      38.213  21.411  25.910  1.00  0.00     0.202 C 
BRANCH  25  26
ATOM     26  C   UNL A   1      39.666  20.965  25.653  1.00  0.00     0.261 C 
BRANCH  26  27
ATOM     27  O   UNL A   1      40.248  20.043  26.600  1.00  0.00    -0.460 OA
BRANCH  27  28
ATOM     28  C   UNL A   1      41.545  19.703  26.374  1.00  0.00     0.338 C 
ATOM     29  O   UNL A   1      41.947  18.610  26.022  1.00  0.00    -0.246 OA
BRANCH  28  30
ATOM     30  C   UNL A   1      42.448  20.888  26.484  1.00  0.00     0.060 A 
ATOM     31  C   UNL A   1      42.542  21.513  27.734  1.00  0.00     0.016 A 
ATOM     32  C   UNL A   1      43.134  21.437  25.394  1.00  0.00     0.016 A 
ATOM     33  C   UNL A   1      43.263  22.704  27.888  1.00  0.00     0.010 A 
ATOM     34  C   UNL A   1      43.851  22.643  25.547  1.00  0.00     0.010 A 
ATOM     35  C   UNL A   1      43.893  23.304  26.789  1.00  0.00    -0.014 A 
BRANCH  35  36
ATOM     36  C   UNL A   1      44.403  24.703  26.926  1.00  0.00     0.031 A 
ATOM     37  C   UNL A   1      43.423  25.795  27.288  1.00  0.00     0.074 A 
ATOM     38  C   UNL A   1      45.711  25.009  26.820  1.00  0.00     0.049 A 
ATOM     39  N   UNL A   1      43.640  27.062  27.537  1.00  0.00    -0.248 NA
ATOM     40  C   UNL A   1      42.011  25.396  27.390  1.00  0.00     0.031 C 
ATOM     41  C   UNL A   1      46.782  24.064  26.513  1.00  0.00     0.029 A 
ATOM     42  N   UNL A   1      46.362  26.215  26.964  1.00  0.00    -0.354 N 
ATOM     43  C   UNL A   1      42.400  27.604  27.858  1.00  0.00     0.074 A 
ATOM     44  C   UNL A   1      41.429  26.540  27.720  1.00  0.00     0.031 C 
ATOM     45  C   UNL A   1      47.953  24.727  26.475  1.00  0.00     0.029 A 
ATOM     46  C   UNL A   1      47.719  26.147  26.742  1.00  0.00     0.049 A 
ATOM     47  H   UNL A   1      45.899  27.049  27.205  1.00  0.00     0.167 HD
ATOM     48  C   UNL A   1      42.093  28.865  28.250  1.00  0.00     0.037 A 
ATOM     49  C   UNL A   1      48.661  27.115  26.741  1.00  0.00     0.037 A 
ATOM     50  C   UNL A   1      43.041  29.945  28.353  1.00  0.00     0.049 A 
ATOM     51  C   UNL A   1      48.280  28.539  27.086  1.00  0.00     0.074 A 
ATOM     52  C   UNL A   1      42.811  31.260  28.719  1.00  0.00     0.029 A 
ATOM     53  N   UNL A   1      44.395  29.843  28.076  1.00  0.00    -0.354 N 
ATOM     54  N   UNL A   1      47.107  29.025  27.421  1.00  0.00    -0.248 NA
ATOM     55  C   UNL A   1      49.357  29.542  27.069  1.00  0.00     0.031 C 
ATOM     56  C   UNL A   1      44.015  31.965  28.614  1.00  0.00     0.029 A 
ATOM     57  C   UNL A   1      45.009  31.076  28.244  1.00  0.00     0.049 A 
ATOM     58  H   UNL A   1      44.855  29.017  27.802  1.00  0.00     0.167 HD
ATOM     59  C   UNL A   1      47.315  30.379  27.684  1.00  0.00     0.074 A 
ATOM     60  C   UNL A   1      48.726  30.630  27.489  1.00  0.00     0.031 C 
ATOM     61  C   UNL A   1      46.417  31.326  28.055  1.00  0.00     0.037 A 
BRANCH  48  62
ATOM     62  C   UNL A   1      40.654  29.150  28.591  1.00  0.00     0.058 A 
ATOM     63  C   UNL A   1      40.219  29.227  29.924  1.00  0.00     0.135 A 
ATOM     64  C   UNL A   1      39.710  29.385  27.579  1.00  0.00     0.135 A 
ATOM     65  F   UNL A   1      41.076  28.992  30.930  1.00  0.00    -0.206 F 
ATOM     66  C   UNL A   1      38.893  29.501  30.242  1.00  0.00     0.059 A 
ATOM     67  C   UNL A   1      38.385  29.691  27.875  1.00  0.00     0.059 A 
ATOM     68  F   UNL A   1      40.072  29.324  26.289  1.00  0.00    -0.206 F 
ATOM     69  C   UNL A   1      37.983  29.733  29.209  1.00  0.00     0.060 A 
BRANCH  69  70
ATOM     70  S   UNL A   1      36.268  30.097  29.640  1.00  0.00     0.124 S 
ATOM     71  O   UNL A   1      36.311  31.547  29.812  1.00  0.00    -0.237 OA
ATOM     72  O   UNL A   1      35.544  29.618  28.468  1.00  0.00    -0.237 OA
ATOM     73  O   UNL A   1      36.054  29.329  30.863  1.00  0.00    -0.744 OA
ENDBRANCH  69  70
ENDBRANCH  48  62
BRANCH  49  74
ATOM     74  C   UNL A   1      50.072  26.794  26.373  1.00  0.00     0.058 A 
ATOM     75  C   UNL A   1      50.493  26.744  25.035  1.00  0.00     0.135 A 
ATOM     76  C   UNL A   1      51.016  26.475  27.362  1.00  0.00     0.135 A 
ATOM     77  F   UNL A   1      49.626  27.018  24.049  1.00  0.00    -0.206 F 
ATOM     78  C   UNL A   1      51.787  26.363  24.689  1.00  0.00     0.059 A 
ATOM     79  C   UNL A   1      52.325  26.122  27.042  1.00  0.00     0.059 A 
ATOM     80  F   UNL A   1      50.671  26.508  28.658  1.00  0.00    -0.206 F 
ATOM     81  C   UNL A   1      52.697  26.054  25.701  1.00  0.00     0.060 A 
BRANCH  81  82
ATOM     82  S   UNL A   1      54.382  25.587  25.246  1.00  0.00     0.124 S 
ATOM     83  O   UNL A   1      55.047  25.582  26.544  1.00  0.00    -0.237 OA
ATOM     84  O   UNL A   1      54.181  24.281  24.627  1.00  0.00    -0.237 OA
ATOM     85  O   UNL A   1      54.790  26.649  24.333  1.00  0.00    -0.744 OA
ENDBRANCH  81  82
ENDBRANCH  49  74
BRANCH  61  86
ATOM     86  C   UNL A   1      46.932  32.720  28.318  1.00  0.00     0.058 A 
ATOM     87  C   UNL A   1      47.535  33.076  29.535  1.00  0.00     0.135 A 
ATOM     88  C   UNL A   1      46.850  33.709  27.321  1.00  0.00     0.135 A 
ATOM     89  F   UNL A   1      47.643  32.175  30.525  1.00  0.00    -0.206 F 
ATOM     90  C   UNL A   1      47.998  34.369  29.772  1.00  0.00     0.059 A 
ATOM     91  C   UNL A   1      47.337  34.998  27.523  1.00  0.00     0.059 A 
ATOM     92  F   UNL A   1      46.299  33.424  26.130  1.00  0.00    -0.206 F 
ATOM     93  C   UNL A   1      47.892  35.325  28.760  1.00  0.00     0.060 A 
BRANCH  93  94
ATOM     94  S   UNL A   1      48.497  36.996  29.076  1.00  0.00     0.124 S 
ATOM     95  O   UNL A   1      47.437  37.539  29.920  1.00  0.00    -0.237 OA
ATOM     96  O   UNL A   1      49.772  36.746  29.742  1.00  0.00    -0.237 OA
ATOM     97  O   UNL A   1      48.599  37.581  27.742  1.00  0.00    -0.744 OA
ENDBRANCH  93  94
ENDBRANCH  61  86
ENDBRANCH  35  36
ENDBRANCH  28  30
ENDBRANCH  27  28
ENDBRANCH  26  27
ENDBRANCH  25  26
ENDBRANCH  24  25
ENDBRANCH  23  24
ENDBRANCH   1  23
TORSDOF 24
ENDMDL
MODEL 3
REMARK VINA RESULT:      -9.5      1.181      2.284
REMARK SMILES O=C(COC1(Cc2ccccc2)CCCCC1)OCCOCCOCCOC(=O)c1ccc(-c2c3nc(c(-c4c(F)cc(S(=O)(=O)[O-])cc4F)c4ccc([nH]4)c(-c4c(F)cc(S(=O)(=O)[O-])cc4F)c4nc(c(-c5c(F)cc(S(=O)(=O)[O-])cc5F)c5ccc2[nH]5)C=C4)C=C3)cc1
REMARK SMILES IDX 22 1 21 2 20 3 19 4 18 5 2 6 1 7 3 8 4 9 5 10 13 11 17 12
REMARK SMILES IDX 14 13 16 14 15 15 6 16 7 17 8 18 12 19 9 20 11 21 10 22
REMARK SMILES IDX 23 23 24 24 25 25 26 26 27 27 28 28 29 29 30 30 31 31 95 32
REMARK SMILES IDX 32 33 94 34 33 35 34 36 35 37 88 38 36 39 93 40 87 41 89 42
REMARK SMILES IDX 37 43 92 44 86 45 85 46 38 48 72 49 51 50 71 51 52 52 55 53
REMARK SMILES IDX 70 54 90 55 53 56 54 57 69 59 91 60 56 61 39 62 40 63 49 64
REMARK SMILES IDX 41 65 42 66 48 67 50 68 43 69 44 70 45 71 46 72 47 73 73 74
REMARK SMILES IDX 74 75 83 76 75 77 76 78 82 79 84 80 77 81 78 82 79 83 80 84
REMARK SMILES IDX 81 85 57 86 58 87 67 88 59 89 60 90 66 91 68 92 61 93 62 94
REMARK SMILES IDX 63 95 64 96 65 97
REMARK H PARENT 89 47 55 58
REMARK Flexibility Score: inf
ROOT
ATOM      1  C   UNL A   1      33.728  28.128  25.900  1.00  0.00     0.188 C 
ENDROOT
BRANCH   1   2
ATOM      2  O   UNL A   1      32.469  28.113  25.252  1.00  0.00    -0.376 OA
BRANCH   2   3
ATOM      3  C   UNL A   1      32.356  27.968  23.853  1.00  0.00     0.202 C 
BRANCH   3   4
ATOM      4  C   UNL A   1      33.654  27.961  23.036  1.00  0.00     0.261 C 
BRANCH   4   5
ATOM      5  O   UNL A   1      33.638  27.110  21.892  1.00  0.00    -0.462 OA
BRANCH   5   6
ATOM      6  C   UNL A   1      33.548  25.765  21.936  1.00  0.00     0.332 C 
ATOM      7  O   UNL A   1      33.187  25.190  20.916  1.00  0.00    -0.250 OA
BRANCH   6   8
ATOM      8  C   UNL A   1      33.765  25.048  23.286  1.00  0.00     0.283 C 
BRANCH   8   9
ATOM      9  O   UNL A   1      33.661  23.678  23.406  1.00  0.00    -0.363 OA
BRANCH   9  10
ATOM     10  C   UNL A   1      33.093  23.040  24.551  1.00  0.00     0.073 C 
ATOM     11  C   UNL A   1      33.355  24.191  25.565  1.00  0.00     0.036 C 
ATOM     12  C   UNL A   1      31.583  22.934  24.258  1.00  0.00     0.036 C 
ATOM     13  C   UNL A   1      32.483  24.185  26.800  1.00  0.00     0.003 C 
ATOM     14  C   UNL A   1      30.730  22.889  25.522  1.00  0.00     0.003 C 
ATOM     15  C   UNL A   1      31.011  24.087  26.423  1.00  0.00     0.000 C 
BRANCH  10  16
ATOM     16  C   UNL A   1      33.646  21.684  25.153  1.00  0.00     0.071 C 
BRANCH  16  17
ATOM     17  C   UNL A   1      33.130  20.285  24.798  1.00  0.00    -0.045 A 
ATOM     18  C   UNL A   1      33.041  19.318  25.817  1.00  0.00     0.004 A 
ATOM     19  C   UNL A   1      32.879  19.825  23.500  1.00  0.00     0.004 A 
ATOM     20  C   UNL A   1      32.659  17.995  25.554  1.00  0.00     0.000 A 
ATOM     21  C   UNL A   1      32.448  18.517  23.234  1.00  0.00     0.000 A 
ATOM     22  C   UNL A   1      32.333  17.599  24.264  1.00  0.00     0.000 A 
ENDBRANCH  16  17
ENDBRANCH  10  16
ENDBRANCH   9  10
ENDBRANCH   8   9
ENDBRANCH   6   8
ENDBRANCH   5   6
ENDBRANCH   4   5
ENDBRANCH   3   4
ENDBRANCH   2   3
ENDBRANCH   1   2
BRANCH   1  23
ATOM     23  C   UNL A   1      33.790  29.076  27.121  1.00  0.00     0.188 C 
BRANCH  23  24
ATOM     24  O   UNL A   1      33.016  30.271  27.182  1.00  0.00    -0.376 OA
BRANCH  24  25
ATOM     25  C   UNL A   1      33.608  31.464  27.657  1.00  0.00     0.202 C 
BRANCH  25  26
ATOM     26  C   UNL A   1      32.726  32.728  27.626  1.00  0.00     0.261 C 
BRANCH  26  27
ATOM     27  O   UNL A   1      33.404  34.001  27.553  1.00  0.00    -0.460 OA
BRANCH  27  28
ATOM     28  C   UNL A   1      33.394  34.742  28.693  1.00  0.00     0.338 C 
ATOM     29  O   UNL A   1      32.526  35.524  29.030  1.00  0.00    -0.246 OA
BRANCH  28  30
ATOM     30  C   UNL A   1      34.542  34.392  29.583  1.00  0.00     0.060 A 
ATOM     31  C   UNL A   1      35.823  34.392  29.015  1.00  0.00     0.016 A 
ATOM     32  C   UNL A   1      34.388  33.996  30.917  1.00  0.00     0.016 A 
ATOM     33  C   UNL A   1      36.931  33.949  29.747  1.00  0.00     0.010 A 
ATOM     34  C   UNL A   1      35.504  33.539  31.650  1.00  0.00     0.010 A 
ATOM     35  C   UNL A   1      36.780  33.481  31.059  1.00  0.00    -0.014 A 
BRANCH  35  36
ATOM     36  C   UNL A   1      37.919  32.756  31.701  1.00  0.00     0.031 A 
ATOM     37  C   UNL A   1      38.412  33.234  33.047  1.00  0.00     0.074 A 
ATOM     38  C   UNL A   1      38.463  31.646  31.164  1.00  0.00     0.049 A 
ATOM     39  N   UNL A   1      39.327  32.723  33.831  1.00  0.00    -0.248 NA
ATOM     40  C   UNL A   1      37.776  34.449  33.579  1.00  0.00     0.031 C 
ATOM     41  C   UNL A   1      38.074  31.038  29.893  1.00  0.00     0.029 A 
ATOM     42  N   UNL A   1      39.469  30.827  31.631  1.00  0.00    -0.354 N 
ATOM     43  C   UNL A   1      39.354  33.531  34.962  1.00  0.00     0.074 A 
ATOM     44  C   UNL A   1      38.401  34.597  34.738  1.00  0.00     0.031 C 
ATOM     45  C   UNL A   1      38.842  29.954  29.674  1.00  0.00     0.029 A 
ATOM     46  C   UNL A   1      39.788  29.794  30.778  1.00  0.00     0.049 A 
ATOM     47  H   UNL A   1      39.917  30.968  32.495  1.00  0.00     0.167 HD
ATOM     48  C   UNL A   1      40.088  33.396  36.094  1.00  0.00     0.037 A 
ATOM     49  C   UNL A   1      40.737  28.837  30.871  1.00  0.00     0.037 A 
ATOM     50  C   UNL A   1      41.070  32.365  36.315  1.00  0.00     0.049 A 
ATOM     51  C   UNL A   1      41.615  28.762  32.102  1.00  0.00     0.074 A 
ATOM     52  C   UNL A   1      41.876  32.167  37.423  1.00  0.00     0.029 A 
ATOM     53  N   UNL A   1      41.393  31.366  35.409  1.00  0.00    -0.354 N 
ATOM     54  N   UNL A   1      41.601  29.515  33.177  1.00  0.00    -0.248 NA
ATOM     55  C   UNL A   1      42.627  27.693  32.137  1.00  0.00     0.031 C 
ATOM     56  C   UNL A   1      42.721  31.082  37.167  1.00  0.00     0.029 A 
ATOM     57  C   UNL A   1      42.399  30.563  35.925  1.00  0.00     0.049 A 
ATOM     58  H   UNL A   1      40.969  31.243  34.529  1.00  0.00     0.167 HD
ATOM     59  C   UNL A   1      42.577  28.991  34.024  1.00  0.00     0.074 A 
ATOM     60  C   UNL A   1      43.147  27.847  33.346  1.00  0.00     0.031 C 
ATOM     61  C   UNL A   1      42.963  29.419  35.253  1.00  0.00     0.037 A 
BRANCH  48  62
ATOM     62  C   UNL A   1      39.861  34.404  37.188  1.00  0.00     0.058 A 
ATOM     63  C   UNL A   1      39.032  34.121  38.285  1.00  0.00     0.135 A 
ATOM     64  C   UNL A   1      40.507  35.651  37.160  1.00  0.00     0.135 A 
ATOM     65  F   UNL A   1      38.376  32.951  38.352  1.00  0.00    -0.206 F 
ATOM     66  C   UNL A   1      38.830  35.047  39.303  1.00  0.00     0.059 A 
ATOM     67  C   UNL A   1      40.343  36.581  38.183  1.00  0.00     0.059 A 
ATOM     68  F   UNL A   1      41.311  35.973  36.136  1.00  0.00    -0.206 F 
ATOM     69  C   UNL A   1      39.491  36.274  39.243  1.00  0.00     0.060 A 
BRANCH  69  70
ATOM     70  S   UNL A   1      39.224  37.461  40.578  1.00  0.00     0.124 S 
ATOM     71  O   UNL A   1      38.293  38.397  39.954  1.00  0.00    -0.237 OA
ATOM     72  O   UNL A   1      38.667  36.621  41.633  1.00  0.00    -0.237 OA
ATOM     73  O   UNL A   1      40.560  37.988  40.838  1.00  0.00    -0.744 OA
ENDBRANCH  69  70
ENDBRANCH  48  62
BRANCH  49  74
ATOM     74  C   UNL A   1      40.946  27.871  29.752  1.00  0.00     0.058 A 
ATOM     75  C   UNL A   1      42.047  27.969  28.886  1.00  0.00     0.135 A 
ATOM     76  C   UNL A   1      40.008  26.858  29.494  1.00  0.00     0.135 A 
ATOM     77  F   UNL A   1      42.962  28.932  29.074  1.00  0.00    -0.206 F 
ATOM     78  C   UNL A   1      42.196  27.120  27.793  1.00  0.00     0.059 A 
ATOM     79  C   UNL A   1      40.152  25.977  28.426  1.00  0.00     0.059 A 
ATOM     80  F   UNL A   1      38.936  26.716  30.289  1.00  0.00    -0.206 F 
ATOM     81  C   UNL A   1      41.242  26.125  27.571  1.00  0.00     0.060 A 
BRANCH  81  82
ATOM     82  S   UNL A   1      41.457  25.009  26.167  1.00  0.00     0.124 S 
ATOM     83  O   UNL A   1      40.453  23.989  26.445  1.00  0.00    -0.237 OA
ATOM     84  O   UNL A   1      41.180  25.886  25.033  1.00  0.00    -0.237 OA
ATOM     85  O   UNL A   1      42.846  24.577  26.290  1.00  0.00    -0.744 OA
ENDBRANCH  81  82
ENDBRANCH  49  74
BRANCH  61  86
ATOM     86  C   UNL A   1      44.027  28.626  35.972  1.00  0.00     0.058 A 
ATOM     87  C   UNL A   1      43.723  27.488  36.737  1.00  0.00     0.135 A 
ATOM     88  C   UNL A   1      45.381  28.992  35.867  1.00  0.00     0.135 A 
ATOM     89  F   UNL A   1      42.448  27.089  36.874  1.00  0.00    -0.206 F 
ATOM     90  C   UNL A   1      44.712  26.770  37.406  1.00  0.00     0.059 A 
ATOM     91  C   UNL A   1      46.390  28.269  36.498  1.00  0.00     0.059 A 
ATOM     92  F   UNL A   1      45.738  30.061  35.135  1.00  0.00    -0.206 F 
ATOM     93  C   UNL A   1      46.043  27.170  37.283  1.00  0.00     0.060 A 
BRANCH  93  94
ATOM     94  S   UNL A   1      47.316  26.229  38.151  1.00  0.00     0.124 S 
ATOM     95  O   UNL A   1      46.600  25.800  39.349  1.00  0.00    -0.237 OA
ATOM     96  O   UNL A   1      47.637  25.176  37.193  1.00  0.00    -0.237 OA
ATOM     97  O   UNL A   1      48.376  27.210  38.371  1.00  0.00    -0.744 OA
ENDBRANCH  93  94
ENDBRANCH  61  86
ENDBRANCH  35  36
ENDBRANCH  28  30
ENDBRANCH  27  28
ENDBRANCH  26  27
ENDBRANCH  25  26
ENDBRANCH  24  25
ENDBRANCH  23  24
ENDBRANCH   1  23
TORSDOF 24
ENDMDL
