MODEL 1
REMARK VINA RESULT:     -10.2      0.000      0.000
REMARK SMILES O=C(COc1ccc(Br)cc1)NC(=S)Nc1ccc(Cl)cc1C(=O)OCCOCCOCCOC(=O)c1ccc(-c2c3nc(c(-c4c(F)cc(S(=O)(=O)[O-])cc4F)c4ccc([nH]4)c(-c4c(F)cc(S(=O)(=O)[O-])cc4F)c4nc(c(-c5c(F)cc(S(=O)(=O)[O-])cc5F)c5ccc2[nH]5)C=C4)C=C3)cc1
REMARK SMILES IDX 28 1 27 2 26 3 25 4 23 5 24 6 22 7 16 8 17 9 18 10 21 11
REMARK SMILES IDX 19 12 20 13 15 14 13 16 14 17 12 18 1 19 2 20 3 22 4 23 5 24
REMARK SMILES IDX 6 25 11 26 7 27 10 28 8 29 9 30 29 31 30 32 31 33 32 34
REMARK SMILES IDX 33 35 34 36 35 37 36 38 37 39 38 40 102 41 39 42 101 43
REMARK SMILES IDX 40 44 41 45 42 46 95 47 43 48 100 49 94 50 96 51 44 52 99 53
REMARK SMILES IDX 93 54 92 55 45 57 79 58 58 59 78 60 59 61 62 62 77 63 97 64
REMARK SMILES IDX 60 65 61 66 76 68 98 69 63 70 46 71 47 72 56 73 48 74 49 75
REMARK SMILES IDX 55 76 57 77 50 78 51 79 52 80 53 81 54 82 80 83 81 84 90 85
REMARK SMILES IDX 82 86 83 87 89 88 91 89 84 90 85 91 86 92 87 93 88 94 64 95
REMARK SMILES IDX 65 96 74 97 66 98 67 99 73 100 75 101 68 102 69 103 70 104
REMARK SMILES IDX 71 105 72 106
REMARK H PARENT 15 15 12 21 96 56 62 67
REMARK Flexibility Score: inf
ROOT
ATOM      1  O   UNL A   1      36.250  23.399  25.269  1.00  0.00    -0.376 OA
ENDROOT
BRANCH   1   2
ATOM      2  C   UNL A   1      35.392  24.069  24.362  1.00  0.00     0.202 C 
BRANCH   2   3
ATOM      3  C   UNL A   1      34.385  25.079  24.922  1.00  0.00     0.261 C 
BRANCH   3   4
ATOM      4  O   UNL A   1      33.551  25.705  23.928  1.00  0.00    -0.460 OA
BRANCH   4   5
ATOM      5  C   UNL A   1      33.641  27.058  23.884  1.00  0.00     0.340 C 
ATOM      6  O   UNL A   1      33.995  27.717  22.917  1.00  0.00    -0.246 OA
BRANCH   5   7
ATOM      7  C   UNL A   1      33.176  27.721  25.129  1.00  0.00     0.085 A 
ATOM      8  C   UNL A   1      31.846  27.789  25.583  1.00  0.00     0.055 A 
ATOM      9  C   UNL A   1      31.617  28.186  26.910  1.00  0.00     0.028 A 
ATOM     10  C   UNL A   1      32.639  28.745  27.678  1.00  0.00     0.023 A 
ATOM     11  C   UNL A   1      34.197  28.309  25.899  1.00  0.00     0.038 A 
ATOM     12  C   UNL A   1      33.914  28.861  27.143  1.00  0.00     0.042 A 
ATOM     13  Cl  UNL A   1      35.141  29.675  28.025  1.00  0.00    -0.084 Cl
BRANCH   8  14
ATOM     14  N   UNL A   1      30.757  27.492  24.732  1.00  0.00    -0.332 N 
ATOM     15  H   UNL A   1      30.441  28.248  24.187  1.00  0.00     0.169 HD
BRANCH  14  16
ATOM     16  C   UNL A   1      30.078  26.332  24.546  1.00  0.00     0.177 C 
ATOM     17  S   UNL A   1      28.472  26.399  24.076  1.00  0.00    -0.040 S 
BRANCH  16  18
ATOM     18  N   UNL A   1      30.614  25.094  24.787  1.00  0.00    -0.300 N 
ATOM     19  O   UNL A   1      29.846  24.425  26.887  1.00  0.00    -0.271 OA
ATOM     20  C   UNL A   1      30.563  24.254  25.904  1.00  0.00     0.264 C 
ATOM     21  H   UNL A   1      31.133  24.728  24.034  1.00  0.00     0.172 HD
BRANCH  20  22
ATOM     22  C   UNL A   1      31.426  22.994  25.754  1.00  0.00     0.329 C 
BRANCH  22  23
ATOM     23  O   UNL A   1      31.971  22.829  24.444  1.00  0.00    -0.484 OA
BRANCH  23  24
ATOM     24  C   UNL A   1      32.308  21.518  24.228  1.00  0.00     0.120 A 
ATOM     25  C   UNL A   1      32.070  20.933  22.987  1.00  0.00     0.047 A 
ATOM     26  C   UNL A   1      32.919  20.789  25.247  1.00  0.00     0.047 A 
ATOM     27  C   UNL A   1      32.360  19.586  22.792  1.00  0.00     0.019 A 
ATOM     28  C   UNL A   1      33.220  19.437  25.044  1.00  0.00     0.019 A 
ATOM     29  C   UNL A   1      32.918  18.836  23.824  1.00  0.00     0.018 A 
ATOM     30  Br  UNL A   1      33.259  16.996  23.563  1.00  0.00    -0.051 Br
ENDBRANCH  23  24
ENDBRANCH  22  23
ENDBRANCH  20  22
ENDBRANCH  16  18
ENDBRANCH  14  16
ENDBRANCH   8  14
ENDBRANCH   5   7
ENDBRANCH   4   5
ENDBRANCH   3   4
ENDBRANCH   2   3
ENDBRANCH   1   2
BRANCH   1  31
ATOM     31  C   UNL A   1      36.519  22.013  25.103  1.00  0.00     0.188 C 
BRANCH  31  32
ATOM     32  C   UNL A   1      37.936  21.444  25.341  1.00  0.00     0.188 C 
BRANCH  32  33
ATOM     33  O   UNL A   1      38.814  22.253  26.114  1.00  0.00    -0.376 OA
BRANCH  33  34
ATOM     34  C   UNL A   1      40.076  21.663  26.418  1.00  0.00     0.202 C 
BRANCH  34  35
ATOM     35  C   UNL A   1      41.249  22.646  26.417  1.00  0.00     0.261 C 
BRANCH  35  36
ATOM     36  O   UNL A   1      40.806  24.012  26.350  1.00  0.00    -0.460 OA
BRANCH  36  37
ATOM     37  C   UNL A   1      41.747  24.965  26.220  1.00  0.00     0.338 C 
ATOM     38  O   UNL A   1      42.544  25.091  25.301  1.00  0.00    -0.246 OA
BRANCH  37  39
ATOM     39  C   UNL A   1      41.647  25.864  27.383  1.00  0.00     0.060 A 
ATOM     40  C   UNL A   1      40.641  25.691  28.344  1.00  0.00     0.016 A 
ATOM     41  C   UNL A   1      42.565  26.907  27.504  1.00  0.00     0.016 A 
ATOM     42  C   UNL A   1      40.546  26.572  29.427  1.00  0.00     0.010 A 
ATOM     43  C   UNL A   1      42.471  27.782  28.588  1.00  0.00     0.010 A 
ATOM     44  C   UNL A   1      41.451  27.634  29.546  1.00  0.00    -0.014 A 
BRANCH  44  45
ATOM     45  C   UNL A   1      41.287  28.675  30.594  1.00  0.00     0.031 A 
ATOM     46  C   UNL A   1      42.127  28.587  31.838  1.00  0.00     0.074 A 
ATOM     47  C   UNL A   1      40.367  29.649  30.468  1.00  0.00     0.049 A 
ATOM     48  N   UNL A   1      42.035  29.269  32.950  1.00  0.00    -0.248 NA
ATOM     49  C   UNL A   1      43.211  27.592  31.828  1.00  0.00     0.031 C 
ATOM     50  C   UNL A   1      39.515  29.866  29.300  1.00  0.00     0.029 A 
ATOM     51  N   UNL A   1      39.976  30.624  31.355  1.00  0.00    -0.354 N 
ATOM     52  C   UNL A   1      43.029  28.768  33.783  1.00  0.00     0.074 A 
ATOM     53  C   UNL A   1      43.705  27.718  33.052  1.00  0.00     0.031 C 
ATOM     54  C   UNL A   1      38.679  30.888  29.553  1.00  0.00     0.029 A 
ATOM     55  C   UNL A   1      38.907  31.370  30.915  1.00  0.00     0.049 A 
ATOM     56  H   UNL A   1      40.419  30.774  32.221  1.00  0.00     0.167 HD
ATOM     57  C   UNL A   1      43.344  29.149  35.043  1.00  0.00     0.037 A 
ATOM     58  C   UNL A   1      38.170  32.303  31.553  1.00  0.00     0.037 A 
ATOM     59  C   UNL A   1      42.678  30.202  35.765  1.00  0.00     0.049 A 
ATOM     60  C   UNL A   1      38.508  32.672  32.976  1.00  0.00     0.074 A 
ATOM     61  C   UNL A   1      42.950  30.680  37.035  1.00  0.00     0.029 A 
ATOM     62  N   UNL A   1      41.606  30.937  35.283  1.00  0.00    -0.354 N 
ATOM     63  N   UNL A   1      39.459  32.205  33.747  1.00  0.00    -0.248 NA
ATOM     64  C   UNL A   1      37.668  33.696  33.616  1.00  0.00     0.031 C 
ATOM     65  C   UNL A   1      42.014  31.673  37.340  1.00  0.00     0.029 A 
ATOM     66  C   UNL A   1      41.191  31.849  36.239  1.00  0.00     0.049 A 
ATOM     67  H   UNL A   1      41.199  30.827  34.393  1.00  0.00     0.167 HD
ATOM     68  C   UNL A   1      39.351  32.896  34.951  1.00  0.00     0.074 A 
ATOM     69  C   UNL A   1      38.246  33.820  34.804  1.00  0.00     0.031 C 
ATOM     70  C   UNL A   1      40.099  32.776  36.076  1.00  0.00     0.037 A 
BRANCH  57  71
ATOM     71  C   UNL A   1      44.448  28.405  35.743  1.00  0.00     0.058 A 
ATOM     72  C   UNL A   1      44.185  27.319  36.591  1.00  0.00     0.135 A 
ATOM     73  C   UNL A   1      45.790  28.751  35.515  1.00  0.00     0.135 A 
ATOM     74  F   UNL A   1      42.920  26.959  36.857  1.00  0.00    -0.206 F 
ATOM     75  C   UNL A   1      45.215  26.608  37.200  1.00  0.00     0.059 A 
ATOM     76  C   UNL A   1      46.836  28.039  36.094  1.00  0.00     0.059 A 
ATOM     77  F   UNL A   1      46.095  29.784  34.714  1.00  0.00    -0.206 F 
ATOM     78  C   UNL A   1      46.537  26.975  36.943  1.00  0.00     0.060 A 
BRANCH  78  79
ATOM     79  S   UNL A   1      47.862  26.024  37.717  1.00  0.00     0.124 S 
ATOM     80  O   UNL A   1      48.870  26.014  36.660  1.00  0.00    -0.237 OA
ATOM     81  O   UNL A   1      48.183  26.830  38.890  1.00  0.00    -0.237 OA
ATOM     82  O   UNL A   1      47.236  24.735  37.998  1.00  0.00    -0.744 OA
ENDBRANCH  78  79
ENDBRANCH  57  71
BRANCH  58  83
ATOM     83  C   UNL A   1      37.009  32.935  30.869  1.00  0.00     0.058 A 
ATOM     84  C   UNL A   1      35.691  32.597  31.210  1.00  0.00     0.135 A 
ATOM     85  C   UNL A   1      37.196  33.873  29.840  1.00  0.00     0.135 A 
ATOM     86  F   UNL A   1      35.460  31.693  32.176  1.00  0.00    -0.206 F 
ATOM     87  C   UNL A   1      34.601  33.146  30.545  1.00  0.00     0.059 A 
ATOM     88  C   UNL A   1      36.121  34.456  29.178  1.00  0.00     0.059 A 
ATOM     89  F   UNL A   1      38.436  34.236  29.479  1.00  0.00    -0.206 F 
ATOM     90  C   UNL A   1      34.826  34.076  29.528  1.00  0.00     0.060 A 
BRANCH  90  91
ATOM     91  S   UNL A   1      33.403  34.805  28.687  1.00  0.00     0.124 S 
ATOM     92  O   UNL A   1      32.392  34.769  29.736  1.00  0.00    -0.237 OA
ATOM     93  O   UNL A   1      33.902  36.128  28.327  1.00  0.00    -0.237 OA
ATOM     94  O   UNL A   1      33.180  33.901  27.562  1.00  0.00    -0.744 OA
ENDBRANCH  90  91
ENDBRANCH  58  83
BRANCH  70  95
ATOM     95  C   UNL A   1      39.786  33.696  37.225  1.00  0.00     0.058 A 
ATOM     96  C   UNL A   1      38.842  33.360  38.208  1.00  0.00     0.135 A 
ATOM     97  C   UNL A   1      40.485  34.905  37.376  1.00  0.00     0.135 A 
ATOM     98  F   UNL A   1      38.141  32.220  38.109  1.00  0.00    -0.206 F 
ATOM     99  C   UNL A   1      38.588  34.199  39.289  1.00  0.00     0.059 A 
ATOM    100  C   UNL A   1      40.267  35.747  38.463  1.00  0.00     0.059 A 
ATOM    101  F   UNL A   1      41.409  35.269  36.471  1.00  0.00    -0.206 F 
ATOM    102  C   UNL A   1      39.308  35.389  39.409  1.00  0.00     0.060 A 
BRANCH 102 103
ATOM    103  S   UNL A   1      38.997  36.453  40.836  1.00  0.00     0.124 S 
ATOM    104  O   UNL A   1      40.317  36.509  41.455  1.00  0.00    -0.237 OA
ATOM    105  O   UNL A   1      38.537  37.689  40.211  1.00  0.00    -0.237 OA
ATOM    106  O   UNL A   1      37.981  35.723  41.588  1.00  0.00    -0.744 OA
ENDBRANCH 102 103
ENDBRANCH  70  95
ENDBRANCH  44  45
ENDBRANCH  37  39
ENDBRANCH  36  37
ENDBRANCH  35  36
ENDBRANCH  34  35
ENDBRANCH  33  34
ENDBRANCH  32  33
ENDBRANCH  31  32
ENDBRANCH   1  31
TORSDOF 26
ENDMDL
MODEL 2
REMARK VINA RESULT:     -10.2      1.096      7.890
REMARK SMILES O=C(COc1ccc(Br)cc1)NC(=S)Nc1ccc(Cl)cc1C(=O)OCCOCCOCCOC(=O)c1ccc(-c2c3nc(c(-c4c(F)cc(S(=O)(=O)[O-])cc4F)c4ccc([nH]4)c(-c4c(F)cc(S(=O)(=O)[O-])cc4F)c4nc(c(-c5c(F)cc(S(=O)(=O)[O-])cc5F)c5ccc2[nH]5)C=C4)C=C3)cc1
REMARK SMILES IDX 28 1 27 2 26 3 25 4 23 5 24 6 22 7 16 8 17 9 18 10 21 11
REMARK SMILES IDX 19 12 20 13 15 14 13 16 14 17 12 18 1 19 2 20 3 22 4 23 5 24
REMARK SMILES IDX 6 25 11 26 7 27 10 28 8 29 9 30 29 31 30 32 31 33 32 34
REMARK SMILES IDX 33 35 34 36 35 37 36 38 37 39 38 40 102 41 39 42 101 43
REMARK SMILES IDX 40 44 41 45 42 46 95 47 43 48 100 49 94 50 96 51 44 52 99 53
REMARK SMILES IDX 93 54 92 55 45 57 79 58 58 59 78 60 59 61 62 62 77 63 97 64
REMARK SMILES IDX 60 65 61 66 76 68 98 69 63 70 46 71 47 72 56 73 48 74 49 75
REMARK SMILES IDX 55 76 57 77 50 78 51 79 52 80 53 81 54 82 80 83 81 84 90 85
REMARK SMILES IDX 82 86 83 87 89 88 91 89 84 90 85 91 86 92 87 93 88 94 64 95
REMARK SMILES IDX 65 96 74 97 66 98 67 99 73 100 75 101 68 102 69 103 70 104
REMARK SMILES IDX 71 105 72 106
REMARK H PARENT 15 15 12 21 96 56 62 67
REMARK Flexibility Score: inf
ROOT
ATOM      1  O   UNL A   1      37.704  24.079  25.781  1.00  0.00    -0.376 OA
ENDROOT
BRANCH   1   2
ATOM      2  C   UNL A   1      36.469  23.433  26.036  1.00  0.00     0.202 C 
BRANCH   2   3
ATOM      3  C   UNL A   1      35.242  23.858  25.222  1.00  0.00     0.261 C 
BRANCH   3   4
ATOM      4  O   UNL A   1      34.999  25.278  25.206  1.00  0.00    -0.460 OA
BRANCH   4   5
ATOM      5  C   UNL A   1      33.797  25.653  25.709  1.00  0.00     0.340 C 
ATOM      6  O   UNL A   1      32.990  24.912  26.252  1.00  0.00    -0.246 OA
BRANCH   5   7
ATOM      7  C   UNL A   1      33.552  27.116  25.623  1.00  0.00     0.085 A 
ATOM      8  C   UNL A   1      32.678  27.756  24.727  1.00  0.00     0.055 A 
ATOM      9  C   UNL A   1      32.342  29.098  24.972  1.00  0.00     0.028 A 
ATOM     10  C   UNL A   1      33.044  29.853  25.911  1.00  0.00     0.023 A 
ATOM     11  C   UNL A   1      34.275  27.888  26.552  1.00  0.00     0.038 A 
ATOM     12  C   UNL A   1      34.053  29.256  26.654  1.00  0.00     0.042 A 
ATOM     13  Cl  UNL A   1      35.017  30.209  27.708  1.00  0.00    -0.084 Cl
BRANCH   8  14
ATOM     14  N   UNL A   1      32.161  27.091  23.593  1.00  0.00    -0.332 N 
ATOM     15  H   UNL A   1      32.476  27.442  22.728  1.00  0.00     0.169 HD
BRANCH  14  16
ATOM     16  C   UNL A   1      31.300  26.046  23.503  1.00  0.00     0.177 C 
ATOM     17  S   UNL A   1      29.669  26.312  23.782  1.00  0.00    -0.040 S 
BRANCH  16  18
ATOM     18  N   UNL A   1      31.696  24.757  23.260  1.00  0.00    -0.300 N 
ATOM     19  O   UNL A   1      33.679  24.884  22.035  1.00  0.00    -0.271 OA
ATOM     20  C   UNL A   1      32.757  24.230  22.514  1.00  0.00     0.264 C 
ATOM     21  H   UNL A   1      31.129  24.075  23.687  1.00  0.00     0.172 HD
BRANCH  20  22
ATOM     22  C   UNL A   1      32.734  22.698  22.430  1.00  0.00     0.329 C 
BRANCH  22  23
ATOM     23  O   UNL A   1      32.140  22.074  23.570  1.00  0.00    -0.484 OA
BRANCH  23  24
ATOM     24  C   UNL A   1      32.529  20.762  23.653  1.00  0.00     0.120 A 
ATOM     25  C   UNL A   1      33.353  20.344  24.695  1.00  0.00     0.047 A 
ATOM     26  C   UNL A   1      32.067  19.847  22.708  1.00  0.00     0.047 A 
ATOM     27  C   UNL A   1      33.792  19.024  24.741  1.00  0.00     0.019 A 
ATOM     28  C   UNL A   1      32.501  18.518  22.763  1.00  0.00     0.019 A 
ATOM     29  C   UNL A   1      33.380  18.118  23.768  1.00  0.00     0.018 A 
ATOM     30  Br  UNL A   1      34.026  16.343  23.814  1.00  0.00    -0.051 Br
ENDBRANCH  23  24
ENDBRANCH  22  23
ENDBRANCH  20  22
ENDBRANCH  16  18
ENDBRANCH  14  16
ENDBRANCH   8  14
ENDBRANCH   5   7
ENDBRANCH   4   5
ENDBRANCH   3   4
ENDBRANCH   2   3
ENDBRANCH   1   2
BRANCH   1  31
ATOM     31  C   UNL A   1      38.802  23.891  26.664  1.00  0.00     0.188 C 
BRANCH  31  32
ATOM     32  C   UNL A   1      39.479  22.509  26.807  1.00  0.00     0.188 C 
BRANCH  32  33
ATOM     33  O   UNL A   1      40.476  22.196  25.842  1.00  0.00    -0.376 OA
BRANCH  33  34
ATOM     34  C   UNL A   1      41.807  22.115  26.346  1.00  0.00     0.202 C 
BRANCH  34  35
ATOM     35  C   UNL A   1      42.743  23.214  25.838  1.00  0.00     0.261 C 
BRANCH  35  36
ATOM     36  O   UNL A   1      42.246  24.528  26.142  1.00  0.00    -0.460 OA
BRANCH  36  37
ATOM     37  C   UNL A   1      43.149  25.506  26.334  1.00  0.00     0.338 C 
ATOM     38  O   UNL A   1      44.176  25.694  25.696  1.00  0.00    -0.246 OA
BRANCH  37  39
ATOM     39  C   UNL A   1      42.682  26.345  27.452  1.00  0.00     0.060 A 
ATOM     40  C   UNL A   1      43.205  27.630  27.657  1.00  0.00     0.016 A 
ATOM     41  C   UNL A   1      41.717  25.830  28.317  1.00  0.00     0.016 A 
ATOM     42  C   UNL A   1      42.768  28.400  28.740  1.00  0.00     0.010 A 
ATOM     43  C   UNL A   1      41.278  26.603  29.394  1.00  0.00     0.010 A 
ATOM     44  C   UNL A   1      41.814  27.884  29.626  1.00  0.00    -0.014 A 
BRANCH  44  45
ATOM     45  C   UNL A   1      41.441  28.610  30.868  1.00  0.00     0.031 A 
ATOM     46  C   UNL A   1      40.277  29.561  30.828  1.00  0.00     0.074 A 
ATOM     47  C   UNL A   1      42.159  28.469  31.997  1.00  0.00     0.049 A 
ATOM     48  N   UNL A   1      39.882  30.426  31.726  1.00  0.00    -0.248 NA
ATOM     49  C   UNL A   1      39.453  29.539  29.608  1.00  0.00     0.031 C 
ATOM     50  C   UNL A   1      43.286  27.555  32.178  1.00  0.00     0.029 A 
ATOM     51  N   UNL A   1      42.061  29.123  33.202  1.00  0.00    -0.354 N 
ATOM     52  C   UNL A   1      38.783  31.070  31.171  1.00  0.00     0.074 A 
ATOM     53  C   UNL A   1      38.579  30.504  29.855  1.00  0.00     0.031 C 
ATOM     54  C   UNL A   1      43.795  27.729  33.410  1.00  0.00     0.029 A 
ATOM     55  C   UNL A   1      43.060  28.795  34.089  1.00  0.00     0.049 A 
ATOM     56  H   UNL A   1      41.344  29.765  33.410  1.00  0.00     0.167 HD
ATOM     57  C   UNL A   1      38.016  32.047  31.711  1.00  0.00     0.037 A 
ATOM     58  C   UNL A   1      43.371  29.322  35.291  1.00  0.00     0.037 A 
ATOM     59  C   UNL A   1      38.213  32.600  33.026  1.00  0.00     0.049 A 
ATOM     60  C   UNL A   1      42.533  30.447  35.849  1.00  0.00     0.074 A 
ATOM     61  C   UNL A   1      37.466  33.571  33.671  1.00  0.00     0.029 A 
ATOM     62  N   UNL A   1      39.230  32.236  33.894  1.00  0.00    -0.354 N 
ATOM     63  N   UNL A   1      41.487  31.037  35.323  1.00  0.00    -0.248 NA
ATOM     64  C   UNL A   1      42.922  30.979  37.163  1.00  0.00     0.031 C 
ATOM     65  C   UNL A   1      38.058  33.827  34.912  1.00  0.00     0.029 A 
ATOM     66  C   UNL A   1      39.143  32.979  35.061  1.00  0.00     0.049 A 
ATOM     67  H   UNL A   1      39.913  31.552  33.711  1.00  0.00     0.167 HD
ATOM     68  C   UNL A   1      41.076  31.987  36.253  1.00  0.00     0.074 A 
ATOM     69  C   UNL A   1      41.982  31.890  37.378  1.00  0.00     0.031 C 
ATOM     70  C   UNL A   1      40.041  32.862  36.182  1.00  0.00     0.037 A 
BRANCH  57  71
ATOM     71  C   UNL A   1      36.901  32.606  30.871  1.00  0.00     0.058 A 
ATOM     72  C   UNL A   1      35.587  32.124  30.973  1.00  0.00     0.135 A 
ATOM     73  C   UNL A   1      37.144  33.675  29.993  1.00  0.00     0.135 A 
ATOM     74  F   UNL A   1      35.305  31.092  31.783  1.00  0.00    -0.206 F 
ATOM     75  C   UNL A   1      34.552  32.677  30.224  1.00  0.00     0.059 A 
ATOM     76  C   UNL A   1      36.120  34.258  29.253  1.00  0.00     0.059 A 
ATOM     77  F   UNL A   1      38.384  34.169  29.856  1.00  0.00    -0.206 F 
ATOM     78  C   UNL A   1      34.829  33.745  29.368  1.00  0.00     0.060 A 
BRANCH  78  79
ATOM     79  S   UNL A   1      33.470  34.469  28.426  1.00  0.00     0.124 S 
ATOM     80  O   UNL A   1      32.598  34.949  29.495  1.00  0.00    -0.237 OA
ATOM     81  O   UNL A   1      34.144  35.503  27.648  1.00  0.00    -0.237 OA
ATOM     82  O   UNL A   1      32.954  33.343  27.654  1.00  0.00    -0.744 OA
ENDBRANCH  78  79
ENDBRANCH  57  71
BRANCH  58  83
ATOM     83  C   UNL A   1      44.553  28.823  36.043  1.00  0.00     0.058 A 
ATOM     84  C   UNL A   1      44.438  27.771  36.965  1.00  0.00     0.135 A 
ATOM     85  C   UNL A   1      45.820  29.406  35.875  1.00  0.00     0.135 A 
ATOM     86  F   UNL A   1      43.245  27.192  37.174  1.00  0.00    -0.206 F 
ATOM     87  C   UNL A   1      45.527  27.329  37.708  1.00  0.00     0.059 A 
ATOM     88  C   UNL A   1      46.930  28.963  36.587  1.00  0.00     0.059 A 
ATOM     89  F   UNL A   1      45.987  30.411  35.001  1.00  0.00    -0.206 F 
ATOM     90  C   UNL A   1      46.770  27.933  37.512  1.00  0.00     0.060 A 
BRANCH  90  91
ATOM     91  S   UNL A   1      48.185  27.334  38.463  1.00  0.00     0.124 S 
ATOM     92  O   UNL A   1      49.194  27.180  37.421  1.00  0.00    -0.237 OA
ATOM     93  O   UNL A   1      48.405  28.424  39.408  1.00  0.00    -0.237 OA
ATOM     94  O   UNL A   1      47.692  26.093  39.052  1.00  0.00    -0.744 OA
ENDBRANCH  90  91
ENDBRANCH  58  83
BRANCH  70  95
ATOM     95  C   UNL A   1      39.797  33.754  37.370  1.00  0.00     0.058 A 
ATOM     96  C   UNL A   1      38.878  33.415  38.374  1.00  0.00     0.135 A 
ATOM     97  C   UNL A   1      40.539  34.935  37.533  1.00  0.00     0.135 A 
ATOM     98  F   UNL A   1      38.138  32.300  38.265  1.00  0.00    -0.206 F 
ATOM     99  C   UNL A   1      38.688  34.226  39.489  1.00  0.00     0.059 A 
ATOM    100  C   UNL A   1      40.386  35.748  38.653  1.00  0.00     0.059 A 
ATOM    101  F   UNL A   1      41.442  35.301  36.608  1.00  0.00    -0.206 F 
ATOM    102  C   UNL A   1      39.449  35.390  39.621  1.00  0.00     0.060 A 
BRANCH 102 103
ATOM    103  S   UNL A   1      39.221  36.415  41.090  1.00  0.00     0.124 S 
ATOM    104  O   UNL A   1      38.269  35.622  41.859  1.00  0.00    -0.237 OA
ATOM    105  O   UNL A   1      40.573  36.486  41.635  1.00  0.00    -0.237 OA
ATOM    106  O   UNL A   1      38.703  37.669  40.552  1.00  0.00    -0.744 OA
ENDBRANCH 102 103
ENDBRANCH  70  95
ENDBRANCH  44  45
ENDBRANCH  37  39
ENDBRANCH  36  37
ENDBRANCH  35  36
ENDBRANCH  34  35
ENDBRANCH  33  34
ENDBRANCH  32  33
ENDBRANCH  31  32
ENDBRANCH   1  31
TORSDOF 26
ENDMDL
MODEL 3
REMARK VINA RESULT:      -9.8      1.557      2.062
REMARK SMILES O=C(COc1ccc(Br)cc1)NC(=S)Nc1ccc(Cl)cc1C(=O)OCCOCCOCCOC(=O)c1ccc(-c2c3nc(c(-c4c(F)cc(S(=O)(=O)[O-])cc4F)c4ccc([nH]4)c(-c4c(F)cc(S(=O)(=O)[O-])cc4F)c4nc(c(-c5c(F)cc(S(=O)(=O)[O-])cc5F)c5ccc2[nH]5)C=C4)C=C3)cc1
REMARK SMILES IDX 28 1 27 2 26 3 25 4 23 5 24 6 22 7 16 8 17 9 18 10 21 11
REMARK SMILES IDX 19 12 20 13 15 14 13 16 14 17 12 18 1 19 2 20 3 22 4 23 5 24
REMARK SMILES IDX 6 25 11 26 7 27 10 28 8 29 9 30 29 31 30 32 31 33 32 34
REMARK SMILES IDX 33 35 34 36 35 37 36 38 37 39 38 40 102 41 39 42 101 43
REMARK SMILES IDX 40 44 41 45 42 46 95 47 43 48 100 49 94 50 96 51 44 52 99 53
REMARK SMILES IDX 93 54 92 55 45 57 79 58 58 59 78 60 59 61 62 62 77 63 97 64
REMARK SMILES IDX 60 65 61 66 76 68 98 69 63 70 46 71 47 72 56 73 48 74 49 75
REMARK SMILES IDX 55 76 57 77 50 78 51 79 52 80 53 81 54 82 80 83 81 84 90 85
REMARK SMILES IDX 82 86 83 87 89 88 91 89 84 90 85 91 86 92 87 93 88 94 64 95
REMARK SMILES IDX 65 96 74 97 66 98 67 99 73 100 75 101 68 102 69 103 70 104
REMARK SMILES IDX 71 105 72 106
REMARK H PARENT 15 15 12 21 96 56 62 67
REMARK Flexibility Score: inf
ROOT
ATOM      1  O   UNL A   1      35.911  24.159  24.708  1.00  0.00    -0.376 OA
ENDROOT
BRANCH   1   2
ATOM      2  C   UNL A   1      34.589  24.366  25.172  1.00  0.00     0.202 C 
BRANCH   2   3
ATOM      3  C   UNL A   1      34.221  25.743  25.735  1.00  0.00     0.261 C 
BRANCH   3   4
ATOM      4  O   UNL A   1      32.993  26.290  25.217  1.00  0.00    -0.460 OA
BRANCH   4   5
ATOM      5  C   UNL A   1      32.980  27.641  25.097  1.00  0.00     0.340 C 
ATOM      6  O   UNL A   1      33.730  28.414  25.677  1.00  0.00    -0.246 OA
BRANCH   5   7
ATOM      7  C   UNL A   1      31.997  28.135  24.099  1.00  0.00     0.085 A 
ATOM      8  C   UNL A   1      31.769  27.589  22.823  1.00  0.00     0.055 A 
ATOM      9  C   UNL A   1      30.613  27.983  22.130  1.00  0.00     0.028 A 
ATOM     10  C   UNL A   1      29.851  29.067  22.564  1.00  0.00     0.023 A 
ATOM     11  C   UNL A   1      31.240  29.245  24.519  1.00  0.00     0.038 A 
ATOM     12  C   UNL A   1      30.207  29.734  23.728  1.00  0.00     0.042 A 
ATOM     13  Cl  UNL A   1      29.363  31.154  24.192  1.00  0.00    -0.084 Cl
BRANCH   8  14
ATOM     14  N   UNL A   1      32.679  26.686  22.230  1.00  0.00    -0.332 N 
ATOM     15  H   UNL A   1      33.627  26.940  22.313  1.00  0.00     0.169 HD
BRANCH  14  16
ATOM     16  C   UNL A   1      32.457  25.523  21.566  1.00  0.00     0.177 C 
ATOM     17  S   UNL A   1      32.483  25.528  19.891  1.00  0.00    -0.040 S 
BRANCH  16  18
ATOM     18  N   UNL A   1      32.145  24.343  22.189  1.00  0.00    -0.300 N 
ATOM     19  O   UNL A   1      34.014  22.959  21.982  1.00  0.00    -0.271 OA
ATOM     20  C   UNL A   1      32.844  23.136  22.309  1.00  0.00     0.264 C 
ATOM     21  H   UNL A   1      31.267  24.343  22.633  1.00  0.00     0.172 HD
BRANCH  20  22
ATOM     22  C   UNL A   1      32.034  22.036  23.009  1.00  0.00     0.329 C 
BRANCH  22  23
ATOM     23  O   UNL A   1      31.896  20.847  22.229  1.00  0.00    -0.484 OA
BRANCH  23  24
ATOM     24  C   UNL A   1      32.271  19.750  22.961  1.00  0.00     0.120 A 
ATOM     25  C   UNL A   1      32.473  18.526  22.328  1.00  0.00     0.047 A 
ATOM     26  C   UNL A   1      32.481  19.878  24.333  1.00  0.00     0.047 A 
ATOM     27  C   UNL A   1      32.797  17.403  23.084  1.00  0.00     0.019 A 
ATOM     28  C   UNL A   1      32.818  18.750  25.089  1.00  0.00     0.019 A 
ATOM     29  C   UNL A   1      32.952  17.512  24.463  1.00  0.00     0.018 A 
ATOM     30  Br  UNL A   1      33.340  15.970  25.483  1.00  0.00    -0.051 Br
ENDBRANCH  23  24
ENDBRANCH  22  23
ENDBRANCH  20  22
ENDBRANCH  16  18
ENDBRANCH  14  16
ENDBRANCH   8  14
ENDBRANCH   5   7
ENDBRANCH   4   5
ENDBRANCH   3   4
ENDBRANCH   2   3
ENDBRANCH   1   2
BRANCH   1  31
ATOM     31  C   UNL A   1      36.413  22.838  24.551  1.00  0.00     0.188 C 
BRANCH  31  32
ATOM     32  C   UNL A   1      36.847  22.002  25.777  1.00  0.00     0.188 C 
BRANCH  32  33
ATOM     33  O   UNL A   1      38.243  21.768  25.913  1.00  0.00    -0.376 OA
BRANCH  33  34
ATOM     34  C   UNL A   1      39.028  22.921  26.207  1.00  0.00     0.202 C 
BRANCH  34  35
ATOM     35  C   UNL A   1      40.043  22.724  27.335  1.00  0.00     0.261 C 
BRANCH  35  36
ATOM     36  O   UNL A   1      41.188  23.580  27.184  1.00  0.00    -0.460 OA
BRANCH  36  37
ATOM     37  C   UNL A   1      40.985  24.807  26.672  1.00  0.00     0.338 C 
ATOM     38  O   UNL A   1      40.859  25.098  25.490  1.00  0.00    -0.246 OA
BRANCH  37  39
ATOM     39  C   UNL A   1      40.918  25.763  27.791  1.00  0.00     0.060 A 
ATOM     40  C   UNL A   1      39.731  25.945  28.514  1.00  0.00     0.016 A 
ATOM     41  C   UNL A   1      42.058  26.500  28.111  1.00  0.00     0.016 A 
ATOM     42  C   UNL A   1      39.680  26.877  29.556  1.00  0.00     0.010 A 
ATOM     43  C   UNL A   1      42.006  27.426  29.155  1.00  0.00     0.010 A 
ATOM     44  C   UNL A   1      40.813  27.636  29.872  1.00  0.00    -0.014 A 
BRANCH  44  45
ATOM     45  C   UNL A   1      40.752  28.739  30.865  1.00  0.00     0.031 A 
ATOM     46  C   UNL A   1      41.644  28.673  32.075  1.00  0.00     0.074 A 
ATOM     47  C   UNL A   1      39.880  29.754  30.726  1.00  0.00     0.049 A 
ATOM     48  N   UNL A   1      41.639  29.417  33.150  1.00  0.00    -0.248 NA
ATOM     49  C   UNL A   1      42.673  27.621  32.074  1.00  0.00     0.031 C 
ATOM     50  C   UNL A   1      38.987  29.954  29.585  1.00  0.00     0.029 A 
ATOM     51  N   UNL A   1      39.581  30.795  31.572  1.00  0.00    -0.354 N 
ATOM     52  C   UNL A   1      42.643  28.908  33.966  1.00  0.00     0.074 A 
ATOM     53  C   UNL A   1      43.229  27.786  33.266  1.00  0.00     0.031 C 
ATOM     54  C   UNL A   1      38.218  31.032  29.817  1.00  0.00     0.029 A 
ATOM     55  C   UNL A   1      38.533  31.573  31.138  1.00  0.00     0.049 A 
ATOM     56  H   UNL A   1      40.071  30.967  32.409  1.00  0.00     0.167 HD
ATOM     57  C   UNL A   1      43.036  29.338  35.188  1.00  0.00     0.037 A 
ATOM     58  C   UNL A   1      37.875  32.577  31.754  1.00  0.00     0.037 A 
ATOM     59  C   UNL A   1      42.459  30.463  35.877  1.00  0.00     0.049 A 
ATOM     60  C   UNL A   1      38.298  33.004  33.139  1.00  0.00     0.074 A 
ATOM     61  C   UNL A   1      42.815  30.993  37.106  1.00  0.00     0.029 A 
ATOM     62  N   UNL A   1      41.406  31.228  35.402  1.00  0.00    -0.354 N 
ATOM     63  N   UNL A   1      39.259  32.527  33.893  1.00  0.00    -0.248 NA
ATOM     64  C   UNL A   1      37.543  34.105  33.756  1.00  0.00     0.031 C 
ATOM     65  C   UNL A   1      41.946  32.050  37.395  1.00  0.00     0.029 A 
ATOM     66  C   UNL A   1      41.083  32.212  36.323  1.00  0.00     0.049 A 
ATOM     67  H   UNL A   1      40.953  31.094  34.538  1.00  0.00     0.167 HD
ATOM     68  C   UNL A   1      39.242  33.287  35.059  1.00  0.00     0.074 A 
ATOM     69  C   UNL A   1      38.181  34.260  34.909  1.00  0.00     0.031 C 
ATOM     70  C   UNL A   1      40.035  33.187  36.156  1.00  0.00     0.037 A 
BRANCH  57  71
ATOM     71  C   UNL A   1      44.131  28.574  35.879  1.00  0.00     0.058 A 
ATOM     72  C   UNL A   1      43.854  27.495  36.731  1.00  0.00     0.135 A 
ATOM     73  C   UNL A   1      45.478  28.894  35.639  1.00  0.00     0.135 A 
ATOM     74  F   UNL A   1      42.585  27.159  37.008  1.00  0.00    -0.206 F 
ATOM     75  C   UNL A   1      44.875  26.764  37.332  1.00  0.00     0.059 A 
ATOM     76  C   UNL A   1      46.514  28.163  36.211  1.00  0.00     0.059 A 
ATOM     77  F   UNL A   1      45.796  29.920  34.835  1.00  0.00    -0.206 F 
ATOM     78  C   UNL A   1      46.202  27.105  37.063  1.00  0.00     0.060 A 
BRANCH  78  79
ATOM     79  S   UNL A   1      47.515  26.130  37.828  1.00  0.00     0.124 S 
ATOM     80  O   UNL A   1      47.052  24.768  37.573  1.00  0.00    -0.237 OA
ATOM     81  O   UNL A   1      48.694  26.548  37.077  1.00  0.00    -0.237 OA
ATOM     82  O   UNL A   1      47.482  26.551  39.225  1.00  0.00    -0.744 OA
ENDBRANCH  78  79
ENDBRANCH  57  71
BRANCH  58  83
ATOM     83  C   UNL A   1      36.719  33.234  31.087  1.00  0.00     0.058 A 
ATOM     84  C   UNL A   1      35.403  32.988  31.506  1.00  0.00     0.135 A 
ATOM     85  C   UNL A   1      36.906  34.102  29.999  1.00  0.00     0.135 A 
ATOM     86  F   UNL A   1      35.170  32.153  32.530  1.00  0.00    -0.206 F 
ATOM     87  C   UNL A   1      34.312  33.560  30.859  1.00  0.00     0.059 A 
ATOM     88  C   UNL A   1      35.833  34.707  29.353  1.00  0.00     0.059 A 
ATOM     89  F   UNL A   1      38.145  34.376  29.563  1.00  0.00    -0.206 F 
ATOM     90  C   UNL A   1      34.538  34.418  29.781  1.00  0.00     0.060 A 
BRANCH  90  91
ATOM     91  S   UNL A   1      33.117  35.178  28.963  1.00  0.00     0.124 S 
ATOM     92  O   UNL A   1      32.707  34.120  28.047  1.00  0.00    -0.237 OA
ATOM     93  O   UNL A   1      32.218  35.436  30.083  1.00  0.00    -0.237 OA
ATOM     94  O   UNL A   1      33.687  36.369  28.339  1.00  0.00    -0.744 OA
ENDBRANCH  90  91
ENDBRANCH  58  83
BRANCH  70  95
ATOM     95  C   UNL A   1      39.823  34.183  37.264  1.00  0.00     0.058 A 
ATOM     96  C   UNL A   1      39.005  33.901  38.368  1.00  0.00     0.135 A 
ATOM     97  C   UNL A   1      40.499  35.414  37.249  1.00  0.00     0.135 A 
ATOM     98  F   UNL A   1      38.332  32.741  38.431  1.00  0.00    -0.206 F 
ATOM     99  C   UNL A   1      38.847  34.812  39.409  1.00  0.00     0.059 A 
ATOM    100  C   UNL A   1      40.378  36.330  38.290  1.00  0.00     0.059 A 
ATOM    101  F   UNL A   1      41.306  35.730  36.222  1.00  0.00    -0.206 F 
ATOM    102  C   UNL A   1      39.540  36.023  39.361  1.00  0.00     0.060 A 
BRANCH 102 103
ATOM    103  S   UNL A   1      39.358  37.183  40.734  1.00  0.00     0.124 S 
ATOM    104  O   UNL A   1      38.384  38.126  40.196  1.00  0.00    -0.237 OA
ATOM    105  O   UNL A   1      38.878  36.322  41.810  1.00  0.00    -0.237 OA
ATOM    106  O   UNL A   1      40.707  37.709  40.916  1.00  0.00    -0.744 OA
ENDBRANCH 102 103
ENDBRANCH  70  95
ENDBRANCH  44  45
ENDBRANCH  37  39
ENDBRANCH  36  37
ENDBRANCH  35  36
ENDBRANCH  34  35
ENDBRANCH  33  34
ENDBRANCH  32  33
ENDBRANCH  31  32
ENDBRANCH   1  31
TORSDOF 26
ENDMDL
