MODEL 1
REMARK VINA RESULT:     -10.8      0.000      0.000
REMARK SMILES Cc1cc(Cl)c(C)c2c1O[C@H](C(F)(F)F)C(C(=O)OCCOCCOCCOC(=O)c1ccc(-c3c4nc(c(-c5c(F)cc(S(=O)(=O)[O-])cc5F)c5ccc([nH]5)c(-c5c(F)cc(S(=O)(=O)[O-])cc5F)c5nc(c(-c6c(F)cc(S(=O)(=O)[O-])cc6F)c6ccc3[nH]6)C=C5)C=C4)cc1)=C2
REMARK SMILES IDX 24 1 23 2 22 3 21 4 20 5 19 6 17 7 18 8 16 9 1 10 2 11 3 12
REMARK SMILES IDX 9 13 4 14 8 15 10 16 5 17 6 18 97 19 11 20 7 21 12 22 13 23
REMARK SMILES IDX 14 24 15 25 25 26 26 27 27 28 28 29 29 30 30 31 31 32 32 33
REMARK SMILES IDX 96 34 33 35 95 36 34 37 35 38 36 39 89 40 37 41 94 42 88 43
REMARK SMILES IDX 90 44 38 45 93 46 87 47 86 48 39 50 73 51 52 52 72 53 53 54
REMARK SMILES IDX 56 55 71 56 91 57 54 58 55 59 70 61 92 62 57 63 40 64 41 65
REMARK SMILES IDX 50 66 42 67 43 68 49 69 51 70 44 71 45 72 46 73 47 74 48 75
REMARK SMILES IDX 74 76 75 77 84 78 76 79 77 80 83 81 85 82 78 83 79 84 80 85
REMARK SMILES IDX 81 86 82 87 58 88 59 89 68 90 60 91 61 92 67 93 69 94 62 95
REMARK SMILES IDX 63 96 64 97 65 98 66 99
REMARK H PARENT 90 49 56 60
REMARK Flexibility Score: inf
ROOT
ATOM      1  C   UNL A   1      38.283  21.562  25.738  1.00  0.00     0.188 C 
ENDROOT
BRANCH   1   2
ATOM      2  C   UNL A   1      37.369  21.005  24.624  1.00  0.00     0.188 C 
BRANCH   2   3
ATOM      3  O   UNL A   1      36.080  21.583  24.647  1.00  0.00    -0.376 OA
BRANCH   3   4
ATOM      4  C   UNL A   1      35.024  20.891  25.284  1.00  0.00     0.202 C 
BRANCH   4   5
ATOM      5  C   UNL A   1      34.427  21.390  26.611  1.00  0.00     0.261 C 
BRANCH   5   6
ATOM      6  O   UNL A   1      34.063  22.773  26.678  1.00  0.00    -0.460 OA
BRANCH   6   7
ATOM      7  C   UNL A   1      32.905  23.135  26.083  1.00  0.00     0.338 C 
ATOM      8  O   UNL A   1      31.852  22.522  26.114  1.00  0.00    -0.246 OA
BRANCH   7   9
ATOM      9  C   UNL A   1      33.088  24.465  25.463  1.00  0.00     0.087 C 
ATOM     10  C   UNL A   1      33.982  28.312  22.222  1.00  0.00     0.048 C 
ATOM     11  C   UNL A   1      33.407  28.192  23.605  1.00  0.00    -0.007 A 
ATOM     12  C   UNL A   1      32.935  29.334  24.256  1.00  0.00     0.028 A 
ATOM     13  C   UNL A   1      33.357  26.961  24.276  1.00  0.00     0.131 A 
ATOM     14  C   UNL A   1      32.425  29.260  25.556  1.00  0.00     0.045 A 
ATOM     15  C   UNL A   1      32.805  26.863  25.567  1.00  0.00     0.022 A 
ATOM     16  O   UNL A   1      33.884  25.899  23.594  1.00  0.00    -0.475 OA
ATOM     17  Cl  UNL A   1      31.876  30.746  26.248  1.00  0.00    -0.084 Cl
ATOM     18  C   UNL A   1      32.363  28.031  26.240  1.00  0.00    -0.021 A 
ATOM     19  C   UNL A   1      32.668  25.529  26.158  1.00  0.00     0.027 C 
ATOM     20  C   UNL A   1      33.754  24.558  24.121  1.00  0.00     0.316 C 
ATOM     21  C   UNL A   1      31.858  27.949  27.662  1.00  0.00     0.047 C 
BRANCH  20  22
ATOM     22  C   UNL A   1      33.066  23.695  23.055  1.00  0.00     0.430 C 
ATOM     23  F   UNL A   1      33.357  22.380  23.226  1.00  0.00    -0.167 F 
ATOM     24  F   UNL A   1      31.716  23.796  23.114  1.00  0.00    -0.167 F 
ATOM     25  F   UNL A   1      33.443  24.031  21.802  1.00  0.00    -0.167 F 
ENDBRANCH  20  22
ENDBRANCH   7   9
ENDBRANCH   6   7
ENDBRANCH   5   6
ENDBRANCH   4   5
ENDBRANCH   3   4
ENDBRANCH   2   3
ENDBRANCH   1   2
BRANCH   1  26
ATOM     26  O   UNL A   1      39.537  20.937  25.991  1.00  0.00    -0.376 OA
BRANCH  26  27
ATOM     27  C   UNL A   1      40.447  21.564  26.892  1.00  0.00     0.202 C 
BRANCH  27  28
ATOM     28  C   UNL A   1      41.278  22.758  26.401  1.00  0.00     0.261 C 
BRANCH  28  29
ATOM     29  O   UNL A   1      40.616  24.029  26.500  1.00  0.00    -0.460 OA
BRANCH  29  30
ATOM     30  C   UNL A   1      41.412  25.116  26.329  1.00  0.00     0.338 C 
ATOM     31  O   UNL A   1      42.132  25.361  25.377  1.00  0.00    -0.246 OA
BRANCH  30  32
ATOM     32  C   UNL A   1      41.137  26.096  27.398  1.00  0.00     0.060 A 
ATOM     33  C   UNL A   1      42.007  27.187  27.537  1.00  0.00     0.016 A 
ATOM     34  C   UNL A   1      40.061  25.932  28.273  1.00  0.00     0.016 A 
ATOM     35  C   UNL A   1      41.804  28.118  28.554  1.00  0.00     0.010 A 
ATOM     36  C   UNL A   1      39.878  26.851  29.313  1.00  0.00     0.010 A 
ATOM     37  C   UNL A   1      40.757  27.937  29.467  1.00  0.00    -0.014 A 
BRANCH  37  38
ATOM     38  C   UNL A   1      40.689  28.798  30.672  1.00  0.00     0.031 A 
ATOM     39  C   UNL A   1      39.683  29.916  30.701  1.00  0.00     0.074 A 
ATOM     40  C   UNL A   1      41.473  28.563  31.739  1.00  0.00     0.049 A 
ATOM     41  N   UNL A   1      39.437  30.782  31.647  1.00  0.00    -0.248 NA
ATOM     42  C   UNL A   1      38.839  30.071  29.504  1.00  0.00     0.031 C 
ATOM     43  C   UNL A   1      42.450  27.481  31.848  1.00  0.00     0.029 A 
ATOM     44  N   UNL A   1      41.567  29.222  32.939  1.00  0.00    -0.354 N 
ATOM     45  C   UNL A   1      38.397  31.571  31.173  1.00  0.00     0.074 A 
ATOM     46  C   UNL A   1      38.085  31.109  29.838  1.00  0.00     0.031 C 
ATOM     47  C   UNL A   1      43.045  27.551  33.053  1.00  0.00     0.029 A 
ATOM     48  C   UNL A   1      42.511  28.697  33.788  1.00  0.00     0.049 A 
ATOM     49  H   UNL A   1      41.009  30.000  33.171  1.00  0.00     0.167 HD
ATOM     50  C   UNL A   1      37.747  32.580  31.799  1.00  0.00     0.037 A 
ATOM     51  C   UNL A   1      42.905  29.102  35.013  1.00  0.00     0.037 A 
ATOM     52  C   UNL A   1      38.073  33.055  33.117  1.00  0.00     0.049 A 
ATOM     53  C   UNL A   1      42.245  30.303  35.644  1.00  0.00     0.074 A 
ATOM     54  C   UNL A   1      37.483  34.084  33.829  1.00  0.00     0.029 A 
ATOM     55  N   UNL A   1      39.080  32.537  33.917  1.00  0.00    -0.354 N 
ATOM     56  N   UNL A   1      41.254  31.033  35.189  1.00  0.00    -0.248 NA
ATOM     57  C   UNL A   1      42.757  30.739  36.953  1.00  0.00     0.031 C 
ATOM     58  C   UNL A   1      38.163  34.219  35.043  1.00  0.00     0.029 A 
ATOM     59  C   UNL A   1      39.144  33.241  35.107  1.00  0.00     0.049 A 
ATOM     60  H   UNL A   1      39.663  31.782  33.676  1.00  0.00     0.167 HD
ATOM     61  C   UNL A   1      41.006  31.993  36.167  1.00  0.00     0.074 A 
ATOM     62  C   UNL A   1      41.949  31.751  37.238  1.00  0.00     0.031 C 
ATOM     63  C   UNL A   1      40.079  32.981  36.175  1.00  0.00     0.037 A 
BRANCH  50  64
ATOM     64  C   UNL A   1      36.624  33.248  31.061  1.00  0.00     0.058 A 
ATOM     65  C   UNL A   1      36.867  34.059  29.941  1.00  0.00     0.135 A 
ATOM     66  C   UNL A   1      35.290  33.043  31.447  1.00  0.00     0.135 A 
ATOM     67  F   UNL A   1      38.127  34.303  29.545  1.00  0.00    -0.206 F 
ATOM     68  C   UNL A   1      35.828  34.656  29.238  1.00  0.00     0.059 A 
ATOM     69  C   UNL A   1      34.232  33.613  30.744  1.00  0.00     0.059 A 
ATOM     70  F   UNL A   1      35.004  32.282  32.514  1.00  0.00    -0.206 F 
ATOM     71  C   UNL A   1      34.513  34.426  29.647  1.00  0.00     0.060 A 
BRANCH  71  72
ATOM     72  S   UNL A   1      33.176  35.202  28.715  1.00  0.00     0.124 S 
ATOM     73  O   UNL A   1      33.907  36.185  27.921  1.00  0.00    -0.237 OA
ATOM     74  O   UNL A   1      32.620  34.075  27.972  1.00  0.00    -0.237 OA
ATOM     75  O   UNL A   1      32.311  35.754  29.753  1.00  0.00    -0.744 OA
ENDBRANCH  71  72
ENDBRANCH  50  64
BRANCH  51  76
ATOM     76  C   UNL A   1      43.979  28.366  35.733  1.00  0.00     0.058 A 
ATOM     77  C   UNL A   1      45.325  28.729  35.585  1.00  0.00     0.135 A 
ATOM     78  C   UNL A   1      43.682  27.286  36.579  1.00  0.00     0.135 A 
ATOM     79  F   UNL A   1      45.660  29.745  34.776  1.00  0.00    -0.206 F 
ATOM     80  C   UNL A   1      46.341  28.043  36.244  1.00  0.00     0.059 A 
ATOM     81  C   UNL A   1      44.678  26.599  37.266  1.00  0.00     0.059 A 
ATOM     82  F   UNL A   1      42.408  26.903  36.759  1.00  0.00    -0.206 F 
ATOM     83  C   UNL A   1      46.007  26.982  37.086  1.00  0.00     0.060 A 
BRANCH  83  84
ATOM     84  S   UNL A   1      47.331  26.130  37.972  1.00  0.00     0.124 S 
ATOM     85  O   UNL A   1      46.598  25.066  38.645  1.00  0.00    -0.237 OA
ATOM     86  O   UNL A   1      48.207  25.714  36.880  1.00  0.00    -0.237 OA
ATOM     87  O   UNL A   1      47.877  27.170  38.840  1.00  0.00    -0.744 OA
ENDBRANCH  83  84
ENDBRANCH  51  76
BRANCH  63  88
ATOM     88  C   UNL A   1      40.000  33.874  37.382  1.00  0.00     0.058 A 
ATOM     89  C   UNL A   1      40.638  35.122  37.412  1.00  0.00     0.135 A 
ATOM     90  C   UNL A   1      39.174  33.531  38.465  1.00  0.00     0.135 A 
ATOM     91  F   UNL A   1      41.443  35.495  36.405  1.00  0.00    -0.206 F 
ATOM     92  C   UNL A   1      40.453  36.005  38.472  1.00  0.00     0.059 A 
ATOM     93  C   UNL A   1      38.956  34.407  39.525  1.00  0.00     0.059 A 
ATOM     94  F   UNL A   1      38.534  32.350  38.480  1.00  0.00    -0.206 F 
ATOM     95  C   UNL A   1      39.599  35.644  39.517  1.00  0.00     0.060 A 
BRANCH  95  96
ATOM     96  S   UNL A   1      39.299  36.839  40.838  1.00  0.00     0.124 S 
ATOM     97  O   UNL A   1      40.631  36.981  41.415  1.00  0.00    -0.237 OA
ATOM     98  O   UNL A   1      38.799  37.996  40.102  1.00  0.00    -0.237 OA
ATOM     99  O   UNL A   1      38.316  36.170  41.686  1.00  0.00    -0.744 OA
ENDBRANCH  95  96
ENDBRANCH  63  88
ENDBRANCH  37  38
ENDBRANCH  30  32
ENDBRANCH  29  30
ENDBRANCH  28  29
ENDBRANCH  27  28
ENDBRANCH  26  27
ENDBRANCH   1  26
TORSDOF 21
ENDMDL
MODEL 2
REMARK VINA RESULT:     -10.8      0.689      8.021
REMARK SMILES Cc1cc(Cl)c(C)c2c1O[C@H](C(F)(F)F)C(C(=O)OCCOCCOCCOC(=O)c1ccc(-c3c4nc(c(-c5c(F)cc(S(=O)(=O)[O-])cc5F)c5ccc([nH]5)c(-c5c(F)cc(S(=O)(=O)[O-])cc5F)c5nc(c(-c6c(F)cc(S(=O)(=O)[O-])cc6F)c6ccc3[nH]6)C=C5)C=C4)cc1)=C2
REMARK SMILES IDX 24 1 23 2 22 3 21 4 20 5 19 6 17 7 18 8 16 9 1 10 2 11 3 12
REMARK SMILES IDX 9 13 4 14 8 15 10 16 5 17 6 18 97 19 11 20 7 21 12 22 13 23
REMARK SMILES IDX 14 24 15 25 25 26 26 27 27 28 28 29 29 30 30 31 31 32 32 33
REMARK SMILES IDX 96 34 33 35 95 36 34 37 35 38 36 39 89 40 37 41 94 42 88 43
REMARK SMILES IDX 90 44 38 45 93 46 87 47 86 48 39 50 73 51 52 52 72 53 53 54
REMARK SMILES IDX 56 55 71 56 91 57 54 58 55 59 70 61 92 62 57 63 40 64 41 65
REMARK SMILES IDX 50 66 42 67 43 68 49 69 51 70 44 71 45 72 46 73 47 74 48 75
REMARK SMILES IDX 74 76 75 77 84 78 76 79 77 80 83 81 85 82 78 83 79 84 80 85
REMARK SMILES IDX 81 86 82 87 58 88 59 89 68 90 60 91 61 92 67 93 69 94 62 95
REMARK SMILES IDX 63 96 64 97 65 98 66 99
REMARK H PARENT 90 49 56 60
REMARK Flexibility Score: inf
ROOT
ATOM      1  C   UNL A   1      37.813  22.591  25.072  1.00  0.00     0.188 C 
ENDROOT
BRANCH   1   2
ATOM      2  C   UNL A   1      36.725  21.694  24.442  1.00  0.00     0.188 C 
BRANCH   2   3
ATOM      3  O   UNL A   1      35.434  21.987  24.935  1.00  0.00    -0.376 OA
BRANCH   3   4
ATOM      4  C   UNL A   1      34.637  20.938  25.449  1.00  0.00     0.202 C 
BRANCH   4   5
ATOM      5  C   UNL A   1      33.262  21.216  26.082  1.00  0.00     0.261 C 
BRANCH   5   6
ATOM      6  O   UNL A   1      33.010  22.556  26.519  1.00  0.00    -0.460 OA
BRANCH   6   7
ATOM      7  C   UNL A   1      31.922  23.175  26.009  1.00  0.00     0.338 C 
ATOM      8  O   UNL A   1      30.772  22.774  26.053  1.00  0.00    -0.246 OA
BRANCH   7   9
ATOM      9  C   UNL A   1      32.336  24.488  25.468  1.00  0.00     0.087 C 
ATOM     10  C   UNL A   1      34.013  28.287  22.492  1.00  0.00     0.048 C 
ATOM     11  C   UNL A   1      33.315  28.198  23.820  1.00  0.00    -0.007 A 
ATOM     12  C   UNL A   1      32.951  29.371  24.486  1.00  0.00     0.028 A 
ATOM     13  C   UNL A   1      33.041  26.962  24.425  1.00  0.00     0.131 A 
ATOM     14  C   UNL A   1      32.331  29.321  25.739  1.00  0.00     0.045 A 
ATOM     15  C   UNL A   1      32.377  26.896  25.665  1.00  0.00     0.022 A 
ATOM     16  O   UNL A   1      33.472  25.863  23.736  1.00  0.00    -0.475 OA
ATOM     17  Cl  UNL A   1      31.936  30.844  26.456  1.00  0.00    -0.084 Cl
ATOM     18  C   UNL A   1      32.045  28.089  26.356  1.00  0.00    -0.021 A 
ATOM     19  C   UNL A   1      32.010  25.574  26.179  1.00  0.00     0.027 C 
ATOM     20  C   UNL A   1      33.117  24.535  24.187  1.00  0.00     0.316 C 
ATOM     21  C   UNL A   1      31.419  28.027  27.730  1.00  0.00     0.047 C 
BRANCH  20  22
ATOM     22  C   UNL A   1      32.406  23.816  23.032  1.00  0.00     0.430 C 
ATOM     23  F   UNL A   1      31.060  23.964  23.117  1.00  0.00    -0.167 F 
ATOM     24  F   UNL A   1      32.769  24.314  21.826  1.00  0.00    -0.167 F 
ATOM     25  F   UNL A   1      32.666  22.490  23.018  1.00  0.00    -0.167 F 
ENDBRANCH  20  22
ENDBRANCH   7   9
ENDBRANCH   6   7
ENDBRANCH   5   6
ENDBRANCH   4   5
ENDBRANCH   3   4
ENDBRANCH   2   3
ENDBRANCH   1   2
BRANCH   1  26
ATOM     26  O   UNL A   1      38.452  22.176  26.275  1.00  0.00    -0.376 OA
BRANCH  26  27
ATOM     27  C   UNL A   1      39.699  21.491  26.188  1.00  0.00     0.202 C 
BRANCH  27  28
ATOM     28  C   UNL A   1      40.999  22.277  26.413  1.00  0.00     0.261 C 
BRANCH  28  29
ATOM     29  O   UNL A   1      40.864  23.702  26.293  1.00  0.00    -0.460 OA
BRANCH  29  30
ATOM     30  C   UNL A   1      41.971  24.421  26.608  1.00  0.00     0.338 C 
ATOM     31  O   UNL A   1      43.077  24.335  26.101  1.00  0.00    -0.246 OA
BRANCH  30  32
ATOM     32  C   UNL A   1      41.604  25.499  27.548  1.00  0.00     0.060 A 
ATOM     33  C   UNL A   1      42.477  26.587  27.683  1.00  0.00     0.016 A 
ATOM     34  C   UNL A   1      40.436  25.428  28.310  1.00  0.00     0.016 A 
ATOM     35  C   UNL A   1      42.186  27.610  28.584  1.00  0.00     0.010 A 
ATOM     36  C   UNL A   1      40.161  26.441  29.237  1.00  0.00     0.010 A 
ATOM     37  C   UNL A   1      41.043  27.526  29.389  1.00  0.00    -0.014 A 
BRANCH  37  38
ATOM     38  C   UNL A   1      40.863  28.494  30.497  1.00  0.00     0.031 A 
ATOM     39  C   UNL A   1      41.785  28.409  31.683  1.00  0.00     0.074 A 
ATOM     40  C   UNL A   1      39.930  29.460  30.431  1.00  0.00     0.049 A 
ATOM     41  N   UNL A   1      41.822  29.155  32.755  1.00  0.00    -0.248 NA
ATOM     42  C   UNL A   1      42.803  27.346  31.649  1.00  0.00     0.031 C 
ATOM     43  C   UNL A   1      39.013  29.674  29.312  1.00  0.00     0.029 A 
ATOM     44  N   UNL A   1      39.604  30.448  31.326  1.00  0.00    -0.354 N 
ATOM     45  C   UNL A   1      42.879  28.667  33.514  1.00  0.00     0.074 A 
ATOM     46  C   UNL A   1      43.431  27.536  32.801  1.00  0.00     0.031 C 
ATOM     47  C   UNL A   1      38.225  30.729  29.590  1.00  0.00     0.029 A 
ATOM     48  C   UNL A   1      38.565  31.249  30.915  1.00  0.00     0.049 A 
ATOM     49  H   UNL A   1      40.070  30.572  32.185  1.00  0.00     0.167 HD
ATOM     50  C   UNL A   1      43.358  29.130  34.692  1.00  0.00     0.037 A 
ATOM     51  C   UNL A   1      37.953  32.275  31.541  1.00  0.00     0.037 A 
ATOM     52  C   UNL A   1      42.794  30.239  35.413  1.00  0.00     0.049 A 
ATOM     53  C   UNL A   1      38.431  32.700  32.908  1.00  0.00     0.074 A 
ATOM     54  C   UNL A   1      43.200  30.772  36.624  1.00  0.00     0.029 A 
ATOM     55  N   UNL A   1      41.702  30.982  34.993  1.00  0.00    -0.354 N 
ATOM     56  N   UNL A   1      39.439  32.237  33.609  1.00  0.00    -0.248 NA
ATOM     57  C   UNL A   1      37.687  33.782  33.571  1.00  0.00     0.031 C 
ATOM     58  C   UNL A   1      42.324  31.808  36.959  1.00  0.00     0.029 A 
ATOM     59  C   UNL A   1      41.403  31.954  35.932  1.00  0.00     0.049 A 
ATOM     60  H   UNL A   1      41.210  30.841  34.152  1.00  0.00     0.167 HD
ATOM     61  C   UNL A   1      39.468  32.991  34.779  1.00  0.00     0.074 A 
ATOM     62  C   UNL A   1      38.378  33.939  34.693  1.00  0.00     0.031 C 
ATOM     63  C   UNL A   1      40.323  32.904  35.827  1.00  0.00     0.037 A 
BRANCH  50  64
ATOM     64  C   UNL A   1      44.547  28.429  35.283  1.00  0.00     0.058 A 
ATOM     65  C   UNL A   1      45.856  28.839  34.985  1.00  0.00     0.135 A 
ATOM     66  C   UNL A   1      44.379  27.369  36.187  1.00  0.00     0.135 A 
ATOM     67  F   UNL A   1      46.070  29.834  34.110  1.00  0.00    -0.206 F 
ATOM     68  C   UNL A   1      46.959  28.211  35.551  1.00  0.00     0.059 A 
ATOM     69  C   UNL A   1      45.468  26.740  36.783  1.00  0.00     0.059 A 
ATOM     70  F   UNL A   1      43.149  26.935  36.499  1.00  0.00    -0.206 F 
ATOM     71  C   UNL A   1      46.755  27.163  36.450  1.00  0.00     0.060 A 
BRANCH  71  72
ATOM     72  S   UNL A   1      48.200  26.367  37.183  1.00  0.00     0.124 S 
ATOM     73  O   UNL A   1      49.261  26.804  36.283  1.00  0.00    -0.237 OA
ATOM     74  O   UNL A   1      48.227  26.945  38.523  1.00  0.00    -0.237 OA
ATOM     75  O   UNL A   1      47.874  24.945  37.123  1.00  0.00    -0.744 OA
ENDBRANCH  71  72
ENDBRANCH  50  64
BRANCH  51  76
ATOM     76  C   UNL A   1      36.820  32.981  30.884  1.00  0.00     0.058 A 
ATOM     77  C   UNL A   1      35.493  32.687  31.227  1.00  0.00     0.135 A 
ATOM     78  C   UNL A   1      37.042  33.959  29.902  1.00  0.00     0.135 A 
ATOM     79  F   UNL A   1      35.230  31.750  32.150  1.00  0.00    -0.206 F 
ATOM     80  C   UNL A   1      34.423  33.333  30.614  1.00  0.00     0.059 A 
ATOM     81  C   UNL A   1      35.989  34.634  29.291  1.00  0.00     0.059 A 
ATOM     82  F   UNL A   1      38.295  34.280  29.543  1.00  0.00    -0.206 F 
ATOM     83  C   UNL A   1      34.681  34.308  29.649  1.00  0.00     0.060 A 
BRANCH  83  84
ATOM     84  S   UNL A   1      33.285  35.171  28.896  1.00  0.00     0.124 S 
ATOM     85  O   UNL A   1      33.956  36.246  28.178  1.00  0.00    -0.237 OA
ATOM     86  O   UNL A   1      32.691  34.123  28.070  1.00  0.00    -0.237 OA
ATOM     87  O   UNL A   1      32.484  35.582  30.046  1.00  0.00    -0.744 OA
ENDBRANCH  83  84
ENDBRANCH  51  76
BRANCH  63  88
ATOM     88  C   UNL A   1      40.151  33.870  36.967  1.00  0.00     0.058 A 
ATOM     89  C   UNL A   1      40.760  35.133  36.955  1.00  0.00     0.135 A 
ATOM     90  C   UNL A   1      39.266  33.577  38.018  1.00  0.00     0.135 A 
ATOM     91  F   UNL A   1      41.619  35.459  35.977  1.00  0.00    -0.206 F 
ATOM     92  C   UNL A   1      40.492  36.077  37.941  1.00  0.00     0.059 A 
ATOM     93  C   UNL A   1      38.965  34.513  39.003  1.00  0.00     0.059 A 
ATOM     94  F   UNL A   1      38.651  32.384  38.070  1.00  0.00    -0.206 F 
ATOM     95  C   UNL A   1      39.582  35.762  38.954  1.00  0.00     0.060 A 
BRANCH  95  96
ATOM     96  S   UNL A   1      39.175  37.031  40.174  1.00  0.00     0.124 S 
ATOM     97  O   UNL A   1      40.496  37.383  40.684  1.00  0.00    -0.237 OA
ATOM     98  O   UNL A   1      38.519  38.048  39.357  1.00  0.00    -0.237 OA
ATOM     99  O   UNL A   1      38.305  36.333  41.115  1.00  0.00    -0.744 OA
ENDBRANCH  95  96
ENDBRANCH  63  88
ENDBRANCH  37  38
ENDBRANCH  30  32
ENDBRANCH  29  30
ENDBRANCH  28  29
ENDBRANCH  27  28
ENDBRANCH  26  27
ENDBRANCH   1  26
TORSDOF 21
ENDMDL
MODEL 3
REMARK VINA RESULT:     -10.8      1.053      8.176
REMARK SMILES Cc1cc(Cl)c(C)c2c1O[C@H](C(F)(F)F)C(C(=O)OCCOCCOCCOC(=O)c1ccc(-c3c4nc(c(-c5c(F)cc(S(=O)(=O)[O-])cc5F)c5ccc([nH]5)c(-c5c(F)cc(S(=O)(=O)[O-])cc5F)c5nc(c(-c6c(F)cc(S(=O)(=O)[O-])cc6F)c6ccc3[nH]6)C=C5)C=C4)cc1)=C2
REMARK SMILES IDX 24 1 23 2 22 3 21 4 20 5 19 6 17 7 18 8 16 9 1 10 2 11 3 12
REMARK SMILES IDX 9 13 4 14 8 15 10 16 5 17 6 18 97 19 11 20 7 21 12 22 13 23
REMARK SMILES IDX 14 24 15 25 25 26 26 27 27 28 28 29 29 30 30 31 31 32 32 33
REMARK SMILES IDX 96 34 33 35 95 36 34 37 35 38 36 39 89 40 37 41 94 42 88 43
REMARK SMILES IDX 90 44 38 45 93 46 87 47 86 48 39 50 73 51 52 52 72 53 53 54
REMARK SMILES IDX 56 55 71 56 91 57 54 58 55 59 70 61 92 62 57 63 40 64 41 65
REMARK SMILES IDX 50 66 42 67 43 68 49 69 51 70 44 71 45 72 46 73 47 74 48 75
REMARK SMILES IDX 74 76 75 77 84 78 76 79 77 80 83 81 85 82 78 83 79 84 80 85
REMARK SMILES IDX 81 86 82 87 58 88 59 89 68 90 60 91 61 92 67 93 69 94 62 95
REMARK SMILES IDX 63 96 64 97 65 98 66 99
REMARK H PARENT 90 49 56 60
REMARK Flexibility Score: inf
ROOT
ATOM      1  C   UNL A   1      39.192  21.276  26.110  1.00  0.00     0.188 C 
ENDROOT
BRANCH   1   2
ATOM      2  C   UNL A   1      38.233  22.366  25.585  1.00  0.00     0.188 C 
BRANCH   2   3
ATOM      3  O   UNL A   1      37.372  21.883  24.574  1.00  0.00    -0.376 OA
BRANCH   3   4
ATOM      4  C   UNL A   1      36.265  21.081  24.934  1.00  0.00     0.202 C 
BRANCH   4   5
ATOM      5  C   UNL A   1      34.822  21.546  24.674  1.00  0.00     0.261 C 
BRANCH   5   6
ATOM      6  O   UNL A   1      34.586  22.958  24.683  1.00  0.00    -0.460 OA
BRANCH   6   7
ATOM      7  C   UNL A   1      33.778  23.441  25.653  1.00  0.00     0.338 C 
ATOM      8  O   UNL A   1      33.686  23.024  26.795  1.00  0.00    -0.246 OA
BRANCH   7   9
ATOM      9  C   UNL A   1      33.084  24.641  25.136  1.00  0.00     0.087 C 
ATOM     10  C   UNL A   1      30.039  27.863  22.597  1.00  0.00     0.048 C 
ATOM     11  C   UNL A   1      30.942  27.965  23.794  1.00  0.00    -0.007 A 
ATOM     12  C   UNL A   1      31.030  29.174  24.489  1.00  0.00     0.028 A 
ATOM     13  C   UNL A   1      31.725  26.881  24.218  1.00  0.00     0.131 A 
ATOM     14  C   UNL A   1      31.887  29.310  25.585  1.00  0.00     0.045 A 
ATOM     15  C   UNL A   1      32.558  26.989  25.348  1.00  0.00     0.022 A 
ATOM     16  O   UNL A   1      31.623  25.749  23.457  1.00  0.00    -0.475 OA
ATOM     17  Cl  UNL A   1      31.903  30.858  26.355  1.00  0.00    -0.084 Cl
ATOM     18  C   UNL A   1      32.675  28.230  26.026  1.00  0.00    -0.021 A 
ATOM     19  C   UNL A   1      33.251  25.785  25.810  1.00  0.00     0.027 C 
ATOM     20  C   UNL A   1      32.267  24.526  23.882  1.00  0.00     0.316 C 
ATOM     21  C   UNL A   1      33.638  28.382  27.180  1.00  0.00     0.047 C 
BRANCH  20  22
ATOM     22  C   UNL A   1      31.193  23.432  23.971  1.00  0.00     0.430 C 
ATOM     23  F   UNL A   1      30.726  23.305  25.239  1.00  0.00    -0.167 F 
ATOM     24  F   UNL A   1      30.119  23.711  23.196  1.00  0.00    -0.167 F 
ATOM     25  F   UNL A   1      31.663  22.223  23.594  1.00  0.00    -0.167 F 
ENDBRANCH  20  22
ENDBRANCH   7   9
ENDBRANCH   6   7
ENDBRANCH   5   6
ENDBRANCH   4   5
ENDBRANCH   3   4
ENDBRANCH   2   3
ENDBRANCH   1   2
BRANCH   1  26
ATOM     26  O   UNL A   1      40.595  21.423  25.910  1.00  0.00    -0.376 OA
BRANCH  26  27
ATOM     27  C   UNL A   1      41.248  22.569  26.452  1.00  0.00     0.202 C 
BRANCH  27  28
ATOM     28  C   UNL A   1      42.396  23.215  25.662  1.00  0.00     0.261 C 
BRANCH  28  29
ATOM     29  O   UNL A   1      42.952  24.392  26.269  1.00  0.00    -0.460 OA
BRANCH  29  30
ATOM     30  C   UNL A   1      42.289  25.549  26.012  1.00  0.00     0.338 C 
ATOM     31  O   UNL A   1      41.745  25.873  24.970  1.00  0.00    -0.246 OA
BRANCH  30  32
ATOM     32  C   UNL A   1      42.140  26.316  27.265  1.00  0.00     0.060 A 
ATOM     33  C   UNL A   1      41.110  25.956  28.144  1.00  0.00     0.016 A 
ATOM     34  C   UNL A   1      42.978  27.394  27.558  1.00  0.00     0.016 A 
ATOM     35  C   UNL A   1      40.912  26.675  29.322  1.00  0.00     0.010 A 
ATOM     36  C   UNL A   1      42.759  28.134  28.726  1.00  0.00     0.010 A 
ATOM     37  C   UNL A   1      41.715  27.787  29.603  1.00  0.00    -0.014 A 
BRANCH  37  38
ATOM     38  C   UNL A   1      41.353  28.676  30.733  1.00  0.00     0.031 A 
ATOM     39  C   UNL A   1      42.166  28.601  31.997  1.00  0.00     0.074 A 
ATOM     40  C   UNL A   1      40.350  29.565  30.624  1.00  0.00     0.049 A 
ATOM     41  N   UNL A   1      42.042  29.286  33.101  1.00  0.00    -0.248 NA
ATOM     42  C   UNL A   1      43.271  27.627  32.010  1.00  0.00     0.031 C 
ATOM     43  C   UNL A   1      39.524  29.765  29.434  1.00  0.00     0.029 A 
ATOM     44  N   UNL A   1      39.860  30.473  31.529  1.00  0.00    -0.354 N 
ATOM     45  C   UNL A   1      43.063  28.845  33.934  1.00  0.00     0.074 A 
ATOM     46  C   UNL A   1      43.772  27.803  33.224  1.00  0.00     0.031 C 
ATOM     47  C   UNL A   1      38.627  30.736  29.685  1.00  0.00     0.029 A 
ATOM     48  C   UNL A   1      38.799  31.208  31.059  1.00  0.00     0.049 A 
ATOM     49  H   UNL A   1      40.235  30.586  32.433  1.00  0.00     0.167 HD
ATOM     50  C   UNL A   1      43.391  29.279  35.173  1.00  0.00     0.037 A 
ATOM     51  C   UNL A   1      38.047  32.145  31.672  1.00  0.00     0.037 A 
ATOM     52  C   UNL A   1      42.671  30.298  35.888  1.00  0.00     0.049 A 
ATOM     53  C   UNL A   1      38.360  32.532  33.096  1.00  0.00     0.074 A 
ATOM     54  C   UNL A   1      42.917  30.794  37.156  1.00  0.00     0.029 A 
ATOM     55  N   UNL A   1      41.561  30.972  35.401  1.00  0.00    -0.354 N 
ATOM     56  N   UNL A   1      39.335  32.114  33.868  1.00  0.00    -0.248 NA
ATOM     57  C   UNL A   1      37.469  33.512  33.736  1.00  0.00     0.031 C 
ATOM     58  C   UNL A   1      41.929  31.736  37.454  1.00  0.00     0.029 A 
ATOM     59  C   UNL A   1      41.096  31.863  36.352  1.00  0.00     0.049 A 
ATOM     60  H   UNL A   1      41.163  30.838  34.511  1.00  0.00     0.167 HD
ATOM     61  C   UNL A   1      39.193  32.802  35.070  1.00  0.00     0.074 A 
ATOM     62  C   UNL A   1      38.038  33.663  34.925  1.00  0.00     0.031 C 
ATOM     63  C   UNL A   1      39.953  32.727  36.190  1.00  0.00     0.037 A 
BRANCH  50  64
ATOM     64  C   UNL A   1      44.576  28.646  35.841  1.00  0.00     0.058 A 
ATOM     65  C   UNL A   1      44.431  27.527  36.676  1.00  0.00     0.135 A 
ATOM     66  C   UNL A   1      45.873  29.131  35.613  1.00  0.00     0.135 A 
ATOM     67  F   UNL A   1      43.209  27.037  36.944  1.00  0.00    -0.206 F 
ATOM     68  C   UNL A   1      45.529  26.920  37.274  1.00  0.00     0.059 A 
ATOM     69  C   UNL A   1      46.989  28.526  36.182  1.00  0.00     0.059 A 
ATOM     70  F   UNL A   1      46.065  30.202  34.827  1.00  0.00    -0.206 F 
ATOM     71  C   UNL A   1      46.805  27.426  37.020  1.00  0.00     0.060 A 
BRANCH  71  72
ATOM     72  S   UNL A   1      48.220  26.619  37.798  1.00  0.00     0.124 S 
ATOM     73  O   UNL A   1      49.067  26.342  36.642  1.00  0.00    -0.237 OA
ATOM     74  O   UNL A   1      48.706  27.652  38.707  1.00  0.00    -0.237 OA
ATOM     75  O   UNL A   1      47.634  25.446  38.440  1.00  0.00    -0.744 OA
ENDBRANCH  71  72
ENDBRANCH  50  64
BRANCH  51  76
ATOM     76  C   UNL A   1      36.923  32.793  30.944  1.00  0.00     0.058 A 
ATOM     77  C   UNL A   1      35.609  32.325  31.085  1.00  0.00     0.135 A 
ATOM     78  C   UNL A   1      37.139  33.888  30.093  1.00  0.00     0.135 A 
ATOM     79  F   UNL A   1      35.353  31.272  31.877  1.00  0.00    -0.206 F 
ATOM     80  C   UNL A   1      34.548  32.914  30.403  1.00  0.00     0.059 A 
ATOM     81  C   UNL A   1      36.092  34.508  29.417  1.00  0.00     0.059 A 
ATOM     82  F   UNL A   1      38.378  34.377  29.928  1.00  0.00    -0.206 F 
ATOM     83  C   UNL A   1      34.799  34.008  29.574  1.00  0.00     0.060 A 
BRANCH  83  84
ATOM     84  S   UNL A   1      33.408  34.793  28.731  1.00  0.00     0.124 S 
ATOM     85  O   UNL A   1      32.500  35.052  29.841  1.00  0.00    -0.237 OA
ATOM     86  O   UNL A   1      34.038  35.965  28.132  1.00  0.00    -0.237 OA
ATOM     87  O   UNL A   1      32.971  33.772  27.782  1.00  0.00    -0.744 OA
ENDBRANCH  83  84
ENDBRANCH  51  76
BRANCH  63  88
ATOM     88  C   UNL A   1      39.596  33.611  37.352  1.00  0.00     0.058 A 
ATOM     89  C   UNL A   1      38.778  33.155  38.396  1.00  0.00     0.135 A 
ATOM     90  C   UNL A   1      40.182  34.881  37.484  1.00  0.00     0.135 A 
ATOM     91  F   UNL A   1      38.189  31.951  38.315  1.00  0.00    -0.206 F 
ATOM     92  C   UNL A   1      38.560  33.922  39.536  1.00  0.00     0.059 A 
ATOM     93  C   UNL A   1      39.997  35.657  38.624  1.00  0.00     0.059 A 
ATOM     94  F   UNL A   1      40.981  35.361  36.516  1.00  0.00    -0.206 F 
ATOM     95  C   UNL A   1      39.185  35.167  39.647  1.00  0.00     0.060 A 
BRANCH  95  96
ATOM     96  S   UNL A   1      38.965  36.110  41.172  1.00  0.00     0.124 S 
ATOM     97  O   UNL A   1      38.910  37.478  40.667  1.00  0.00    -0.237 OA
ATOM     98  O   UNL A   1      37.709  35.574  41.689  1.00  0.00    -0.237 OA
ATOM     99  O   UNL A   1      40.151  35.778  41.954  1.00  0.00    -0.744 OA
ENDBRANCH  95  96
ENDBRANCH  63  88
ENDBRANCH  37  38
ENDBRANCH  30  32
ENDBRANCH  29  30
ENDBRANCH  28  29
ENDBRANCH  27  28
ENDBRANCH  26  27
ENDBRANCH   1  26
TORSDOF 21
ENDMDL
