MODEL 1
REMARK VINA RESULT:     -10.5      0.000      0.000
REMARK SMILES O=C(/C=C/c1cc(C(=O)NCCn2cccn2)cs1)OCCOCCOCCOC(=O)c1ccc(-c2c3nc(c(-c4c(F)cc(S(=O)(=O)[O-])cc4F)c4ccc([nH]4)c(-c4c(F)cc(S(=O)(=O)[O-])cc4F)c4nc(c(-c5c(F)cc(S(=O)(=O)[O-])cc5F)c5ccc2[nH]5)C=C4)C=C3)cc1
REMARK SMILES IDX 24 1 23 2 22 3 21 4 20 5 2 6 1 7 3 8 4 9 5 10 6 11 19 12
REMARK SMILES IDX 7 13 18 14 8 15 9 16 10 17 11 19 12 20 13 21 14 22 17 23
REMARK SMILES IDX 15 24 16 25 25 26 26 27 27 28 28 29 29 30 30 31 31 32 32 33
REMARK SMILES IDX 33 34 97 35 34 36 96 37 35 38 36 39 37 40 90 41 38 42 95 43
REMARK SMILES IDX 89 44 91 45 39 46 94 47 88 48 87 49 40 51 74 52 53 53 73 54
REMARK SMILES IDX 54 55 57 56 72 57 92 58 55 59 56 60 71 62 93 63 58 64 41 65
REMARK SMILES IDX 42 66 51 67 43 68 44 69 50 70 52 71 45 72 46 73 47 74 48 75
REMARK SMILES IDX 49 76 75 77 76 78 85 79 77 80 78 81 84 82 86 83 79 84 80 85
REMARK SMILES IDX 81 86 82 87 83 88 59 89 60 90 69 91 61 92 62 93 68 94 70 95
REMARK SMILES IDX 63 96 64 97 65 98 66 99 67 100
REMARK H PARENT 10 18 91 50 57 61
REMARK Flexibility Score: inf
ROOT
ATOM      1  C   UNL A   1      38.848  22.527  26.189  1.00  0.00     0.188 C 
ENDROOT
BRANCH   1   2
ATOM      2  O   UNL A   1      38.144  21.724  25.271  1.00  0.00    -0.376 OA
BRANCH   2   3
ATOM      3  C   UNL A   1      36.750  21.884  25.111  1.00  0.00     0.202 C 
BRANCH   3   4
ATOM      4  C   UNL A   1      35.847  20.642  25.102  1.00  0.00     0.261 C 
BRANCH   4   5
ATOM      5  O   UNL A   1      34.453  20.799  25.448  1.00  0.00    -0.460 OA
BRANCH   5   6
ATOM      6  C   UNL A   1      33.457  20.903  24.537  1.00  0.00     0.330 C 
ATOM      7  O   UNL A   1      32.874  19.932  24.074  1.00  0.00    -0.247 OA
BRANCH   6   8
ATOM      8  C   UNL A   1      33.399  22.195  23.845  1.00  0.00     0.095 C 
ATOM      9  C   UNL A   1      32.260  22.888  23.736  1.00  0.00     0.026 C 
BRANCH   9  10
ATOM     10  C   UNL A   1      32.230  24.182  23.149  1.00  0.00     0.028 A 
ATOM     11  C   UNL A   1      31.672  25.362  23.601  1.00  0.00     0.033 A 
ATOM     12  S   UNL A   1      32.920  24.454  21.594  1.00  0.00    -0.144 S 
ATOM     13  C   UNL A   1      32.389  26.478  23.073  1.00  0.00     0.051 A 
ATOM     14  C   UNL A   1      32.863  26.150  21.815  1.00  0.00     0.079 A 
BRANCH  13  15
ATOM     15  C   UNL A   1      32.587  27.787  23.669  1.00  0.00     0.252 C 
ATOM     16  O   UNL A   1      33.497  28.006  24.477  1.00  0.00    -0.269 OA
ATOM     17  N   UNL A   1      31.675  28.788  23.435  1.00  0.00    -0.350 N 
ATOM     18  H   UNL A   1      31.892  29.635  23.886  1.00  0.00     0.163 HD
BRANCH  17  19
ATOM     19  C   UNL A   1      30.443  28.839  22.642  1.00  0.00     0.140 C 
BRANCH  19  20
ATOM     20  C   UNL A   1      29.330  29.707  23.226  1.00  0.00     0.165 C 
BRANCH  20  21
ATOM     21  N   UNL A   1      28.790  30.729  22.351  1.00  0.00    -0.271 N 
ATOM     22  C   UNL A   1      28.693  32.076  22.560  1.00  0.00     0.108 A 
ATOM     23  N   UNL A   1      28.365  30.359  21.125  1.00  0.00    -0.181 NA
ATOM     24  C   UNL A   1      28.140  32.604  21.419  1.00  0.00     0.042 A 
ATOM     25  C   UNL A   1      27.961  31.502  20.567  1.00  0.00     0.135 A 
ENDBRANCH  20  21
ENDBRANCH  19  20
ENDBRANCH  17  19
ENDBRANCH  13  15
ENDBRANCH   9  10
ENDBRANCH   6   8
ENDBRANCH   5   6
ENDBRANCH   4   5
ENDBRANCH   3   4
ENDBRANCH   2   3
ENDBRANCH   1   2
BRANCH   1  26
ATOM     26  C   UNL A   1      40.040  21.811  26.843  1.00  0.00     0.188 C 
BRANCH  26  27
ATOM     27  O   UNL A   1      40.967  21.061  26.068  1.00  0.00    -0.376 OA
BRANCH  27  28
ATOM     28  C   UNL A   1      41.437  19.793  26.502  1.00  0.00     0.202 C 
BRANCH  28  29
ATOM     29  C   UNL A   1      42.775  19.232  26.015  1.00  0.00     0.261 C 
BRANCH  29  30
ATOM     30  O   UNL A   1      43.331  19.822  24.844  1.00  0.00    -0.460 OA
BRANCH  30  31
ATOM     31  C   UNL A   1      44.606  20.216  24.991  1.00  0.00     0.338 C 
ATOM     32  O   UNL A   1      45.585  19.474  25.138  1.00  0.00    -0.246 OA
BRANCH  31  33
ATOM     33  C   UNL A   1      44.694  21.673  25.118  1.00  0.00     0.060 A 
ATOM     34  C   UNL A   1      45.519  22.158  26.136  1.00  0.00     0.016 A 
ATOM     35  C   UNL A   1      43.805  22.518  24.434  1.00  0.00     0.016 A 
ATOM     36  C   UNL A   1      45.330  23.446  26.587  1.00  0.00     0.010 A 
ATOM     37  C   UNL A   1      43.615  23.813  24.892  1.00  0.00     0.010 A 
ATOM     38  C   UNL A   1      44.328  24.238  26.012  1.00  0.00    -0.014 A 
BRANCH  38  39
ATOM     39  C   UNL A   1      44.059  25.507  26.664  1.00  0.00     0.031 A 
ATOM     40  C   UNL A   1      45.113  26.531  26.523  1.00  0.00     0.074 A 
ATOM     41  C   UNL A   1      42.938  25.752  27.366  1.00  0.00     0.049 A 
ATOM     42  N   UNL A   1      45.895  26.995  27.441  1.00  0.00    -0.248 NA
ATOM     43  C   UNL A   1      45.391  27.034  25.173  1.00  0.00     0.031 C 
ATOM     44  C   UNL A   1      41.696  24.977  27.377  1.00  0.00     0.029 A 
ATOM     45  N   UNL A   1      42.656  26.817  28.169  1.00  0.00    -0.354 N 
ATOM     46  C   UNL A   1      46.627  28.006  26.831  1.00  0.00     0.074 A 
ATOM     47  C   UNL A   1      46.387  27.886  25.415  1.00  0.00     0.031 C 
ATOM     48  C   UNL A   1      40.732  25.703  27.986  1.00  0.00     0.029 A 
ATOM     49  C   UNL A   1      41.318  26.927  28.513  1.00  0.00     0.049 A 
ATOM     50  H   UNL A   1      43.341  27.454  28.476  1.00  0.00     0.167 HD
ATOM     51  C   UNL A   1      47.205  29.004  27.551  1.00  0.00     0.037 A 
ATOM     52  C   UNL A   1      40.726  27.983  29.122  1.00  0.00     0.037 A 
ATOM     53  C   UNL A   1      47.342  28.656  28.942  1.00  0.00     0.049 A 
ATOM     54  C   UNL A   1      41.782  28.756  29.826  1.00  0.00     0.074 A 
ATOM     55  C   UNL A   1      47.967  27.635  29.633  1.00  0.00     0.029 A 
ATOM     56  N   UNL A   1      46.508  29.263  29.849  1.00  0.00    -0.354 N 
ATOM     57  N   UNL A   1      42.413  28.350  30.892  1.00  0.00    -0.248 NA
ATOM     58  C   UNL A   1      42.397  29.879  29.132  1.00  0.00     0.031 C 
ATOM     59  C   UNL A   1      47.161  27.403  30.784  1.00  0.00     0.029 A 
ATOM     60  C   UNL A   1      46.098  28.304  30.740  1.00  0.00     0.049 A 
ATOM     61  H   UNL A   1      46.253  30.214  29.857  1.00  0.00     0.167 HD
ATOM     62  C   UNL A   1      43.689  28.880  30.776  1.00  0.00     0.074 A 
ATOM     63  C   UNL A   1      43.580  29.908  29.750  1.00  0.00     0.031 C 
ATOM     64  C   UNL A   1      44.772  28.252  31.320  1.00  0.00     0.037 A 
BRANCH  51  65
ATOM     65  C   UNL A   1      47.334  30.423  27.054  1.00  0.00     0.058 A 
ATOM     66  C   UNL A   1      48.577  31.081  27.141  1.00  0.00     0.135 A 
ATOM     67  C   UNL A   1      46.224  31.250  26.764  1.00  0.00     0.135 A 
ATOM     68  F   UNL A   1      49.695  30.394  27.425  1.00  0.00    -0.206 F 
ATOM     69  C   UNL A   1      48.697  32.465  27.025  1.00  0.00     0.059 A 
ATOM     70  C   UNL A   1      46.330  32.622  26.585  1.00  0.00     0.059 A 
ATOM     71  F   UNL A   1      44.970  30.781  26.743  1.00  0.00    -0.206 F 
ATOM     72  C   UNL A   1      47.561  33.229  26.768  1.00  0.00     0.060 A 
BRANCH  72  73
ATOM     73  S   UNL A   1      47.679  35.025  26.757  1.00  0.00     0.124 S 
ATOM     74  O   UNL A   1      49.070  35.216  26.362  1.00  0.00    -0.237 OA
ATOM     75  O   UNL A   1      46.675  35.394  25.765  1.00  0.00    -0.237 OA
ATOM     76  O   UNL A   1      47.355  35.388  28.134  1.00  0.00    -0.744 OA
ENDBRANCH  72  73
ENDBRANCH  51  65
BRANCH  52  77
ATOM     77  C   UNL A   1      39.354  28.513  28.916  1.00  0.00     0.058 A 
ATOM     78  C   UNL A   1      38.449  28.612  29.988  1.00  0.00     0.135 A 
ATOM     79  C   UNL A   1      38.989  29.185  27.731  1.00  0.00     0.135 A 
ATOM     80  F   UNL A   1      38.723  28.025  31.162  1.00  0.00    -0.206 F 
ATOM     81  C   UNL A   1      37.282  29.378  29.910  1.00  0.00     0.059 A 
ATOM     82  C   UNL A   1      37.822  29.936  27.623  1.00  0.00     0.059 A 
ATOM     83  F   UNL A   1      39.805  29.215  26.667  1.00  0.00    -0.206 F 
ATOM     84  C   UNL A   1      36.987  30.054  28.727  1.00  0.00     0.060 A 
BRANCH  84  85
ATOM     85  S   UNL A   1      35.585  31.192  28.680  1.00  0.00     0.124 S 
ATOM     86  O   UNL A   1      36.149  32.336  27.973  1.00  0.00    -0.237 OA
ATOM     87  O   UNL A   1      34.585  30.418  27.952  1.00  0.00    -0.237 OA
ATOM     88  O   UNL A   1      35.285  31.419  30.092  1.00  0.00    -0.744 OA
ENDBRANCH  84  85
ENDBRANCH  52  77
BRANCH  64  89
ATOM     89  C   UNL A   1      44.543  27.235  32.406  1.00  0.00     0.058 A 
ATOM     90  C   UNL A   1      44.368  27.547  33.766  1.00  0.00     0.135 A 
ATOM     91  C   UNL A   1      44.360  25.895  32.026  1.00  0.00     0.135 A 
ATOM     92  F   UNL A   1      44.418  28.817  34.195  1.00  0.00    -0.206 F 
ATOM     93  C   UNL A   1      44.071  26.562  34.709  1.00  0.00     0.059 A 
ATOM     94  C   UNL A   1      44.030  24.903  32.945  1.00  0.00     0.059 A 
ATOM     95  F   UNL A   1      44.452  25.543  30.732  1.00  0.00    -0.206 F 
ATOM     96  C   UNL A   1      43.902  25.242  34.289  1.00  0.00     0.060 A 
BRANCH  96  97
ATOM     97  S   UNL A   1      43.424  23.985  35.497  1.00  0.00     0.124 S 
ATOM     98  O   UNL A   1      43.687  22.748  34.771  1.00  0.00    -0.237 OA
ATOM     99  O   UNL A   1      44.316  24.265  36.620  1.00  0.00    -0.237 OA
ATOM    100  O   UNL A   1      42.014  24.274  35.750  1.00  0.00    -0.744 OA
ENDBRANCH  96  97
ENDBRANCH  64  89
ENDBRANCH  38  39
ENDBRANCH  31  33
ENDBRANCH  30  31
ENDBRANCH  29  30
ENDBRANCH  28  29
ENDBRANCH  27  28
ENDBRANCH  26  27
ENDBRANCH   1  26
TORSDOF 25
ENDMDL
MODEL 2
REMARK VINA RESULT:      -9.6      3.705     10.355
REMARK SMILES O=C(/C=C/c1cc(C(=O)NCCn2cccn2)cs1)OCCOCCOCCOC(=O)c1ccc(-c2c3nc(c(-c4c(F)cc(S(=O)(=O)[O-])cc4F)c4ccc([nH]4)c(-c4c(F)cc(S(=O)(=O)[O-])cc4F)c4nc(c(-c5c(F)cc(S(=O)(=O)[O-])cc5F)c5ccc2[nH]5)C=C4)C=C3)cc1
REMARK SMILES IDX 24 1 23 2 22 3 21 4 20 5 2 6 1 7 3 8 4 9 5 10 6 11 19 12
REMARK SMILES IDX 7 13 18 14 8 15 9 16 10 17 11 19 12 20 13 21 14 22 17 23
REMARK SMILES IDX 15 24 16 25 25 26 26 27 27 28 28 29 29 30 30 31 31 32 32 33
REMARK SMILES IDX 33 34 97 35 34 36 96 37 35 38 36 39 37 40 90 41 38 42 95 43
REMARK SMILES IDX 89 44 91 45 39 46 94 47 88 48 87 49 40 51 74 52 53 53 73 54
REMARK SMILES IDX 54 55 57 56 72 57 92 58 55 59 56 60 71 62 93 63 58 64 41 65
REMARK SMILES IDX 42 66 51 67 43 68 44 69 50 70 52 71 45 72 46 73 47 74 48 75
REMARK SMILES IDX 49 76 75 77 76 78 85 79 77 80 78 81 84 82 86 83 79 84 80 85
REMARK SMILES IDX 81 86 82 87 83 88 59 89 60 90 69 91 61 92 62 93 68 94 70 95
REMARK SMILES IDX 63 96 64 97 65 98 66 99 67 100
REMARK H PARENT 10 18 91 50 57 61
REMARK Flexibility Score: inf
ROOT
ATOM      1  C   UNL A   1      34.266  35.761  28.302  1.00  0.00     0.188 C 
ENDROOT
BRANCH   1   2
ATOM      2  O   UNL A   1      34.545  34.384  28.190  1.00  0.00    -0.376 OA
BRANCH   2   3
ATOM      3  C   UNL A   1      35.708  33.846  28.782  1.00  0.00     0.202 C 
BRANCH   3   4
ATOM      4  C   UNL A   1      36.227  32.479  28.311  1.00  0.00     0.261 C 
BRANCH   4   5
ATOM      5  O   UNL A   1      35.270  31.497  27.854  1.00  0.00    -0.460 OA
BRANCH   5   6
ATOM      6  C   UNL A   1      35.564  30.191  27.659  1.00  0.00     0.330 C 
ATOM      7  O   UNL A   1      36.701  29.744  27.741  1.00  0.00    -0.247 OA
BRANCH   6   8
ATOM      8  C   UNL A   1      34.526  29.433  26.954  1.00  0.00     0.095 C 
ATOM      9  C   UNL A   1      33.225  29.709  27.100  1.00  0.00     0.026 C 
BRANCH   9  10
ATOM     10  C   UNL A   1      32.231  29.034  26.341  1.00  0.00     0.028 A 
ATOM     11  C   UNL A   1      31.447  29.475  25.293  1.00  0.00     0.033 A 
ATOM     12  S   UNL A   1      31.795  27.410  26.717  1.00  0.00    -0.144 S 
ATOM     13  C   UNL A   1      31.091  28.378  24.451  1.00  0.00     0.051 A 
ATOM     14  C   UNL A   1      30.970  27.239  25.228  1.00  0.00     0.079 A 
BRANCH  13  15
ATOM     15  C   UNL A   1      30.832  28.384  23.022  1.00  0.00     0.252 C 
ATOM     16  O   UNL A   1      31.696  28.716  22.203  1.00  0.00    -0.269 OA
ATOM     17  N   UNL A   1      29.562  28.135  22.559  1.00  0.00    -0.350 N 
ATOM     18  H   UNL A   1      29.485  28.166  21.578  1.00  0.00     0.163 HD
BRANCH  17  19
ATOM     19  C   UNL A   1      28.301  27.829  23.242  1.00  0.00     0.140 C 
BRANCH  19  20
ATOM     20  C   UNL A   1      27.242  28.927  23.171  1.00  0.00     0.165 C 
BRANCH  20  21
ATOM     21  N   UNL A   1      27.642  30.161  22.524  1.00  0.00    -0.271 N 
ATOM     22  C   UNL A   1      27.831  31.398  23.072  1.00  0.00     0.108 A 
ATOM     23  N   UNL A   1      27.937  30.123  21.208  1.00  0.00    -0.181 NA
ATOM     24  C   UNL A   1      28.236  32.217  22.046  1.00  0.00     0.042 A 
ATOM     25  C   UNL A   1      28.287  31.378  20.921  1.00  0.00     0.135 A 
ENDBRANCH  20  21
ENDBRANCH  19  20
ENDBRANCH  17  19
ENDBRANCH  13  15
ENDBRANCH   9  10
ENDBRANCH   6   8
ENDBRANCH   5   6
ENDBRANCH   4   5
ENDBRANCH   3   4
ENDBRANCH   2   3
ENDBRANCH   1   2
BRANCH   1  26
ATOM     26  C   UNL A   1      32.885  36.060  28.905  1.00  0.00     0.188 C 
BRANCH  26  27
ATOM     27  O   UNL A   1      32.729  37.001  29.961  1.00  0.00    -0.376 OA
BRANCH  27  28
ATOM     28  C   UNL A   1      33.243  36.746  31.259  1.00  0.00     0.202 C 
BRANCH  28  29
ATOM     29  C   UNL A   1      33.558  35.322  31.724  1.00  0.00     0.261 C 
BRANCH  29  30
ATOM     30  O   UNL A   1      34.924  35.024  31.997  1.00  0.00    -0.460 OA
BRANCH  30  31
ATOM     31  C   UNL A   1      35.230  35.049  33.304  1.00  0.00     0.338 C 
ATOM     32  O   UNL A   1      34.720  35.784  34.158  1.00  0.00    -0.246 OA
BRANCH  31  33
ATOM     33  C   UNL A   1      36.381  34.188  33.591  1.00  0.00     0.060 A 
ATOM     34  C   UNL A   1      37.633  34.681  33.215  1.00  0.00     0.016 A 
ATOM     35  C   UNL A   1      36.210  32.847  33.974  1.00  0.00     0.016 A 
ATOM     36  C   UNL A   1      38.676  33.795  33.055  1.00  0.00     0.010 A 
ATOM     37  C   UNL A   1      37.260  31.958  33.811  1.00  0.00     0.010 A 
ATOM     38  C   UNL A   1      38.461  32.430  33.282  1.00  0.00    -0.014 A 
BRANCH  38  39
ATOM     39  C   UNL A   1      39.545  31.540  32.910  1.00  0.00     0.031 A 
ATOM     40  C   UNL A   1      40.526  31.250  33.974  1.00  0.00     0.074 A 
ATOM     41  C   UNL A   1      39.676  31.011  31.679  1.00  0.00     0.049 A 
ATOM     42  N   UNL A   1      41.760  31.628  34.039  1.00  0.00    -0.248 NA
ATOM     43  C   UNL A   1      40.046  30.528  35.157  1.00  0.00     0.031 C 
ATOM     44  C   UNL A   1      38.677  30.962  30.611  1.00  0.00     0.029 A 
ATOM     45  N   UNL A   1      40.732  30.324  31.159  1.00  0.00    -0.354 N 
ATOM     46  C   UNL A   1      42.279  31.014  35.172  1.00  0.00     0.074 A 
ATOM     47  C   UNL A   1      41.154  30.477  35.896  1.00  0.00     0.031 C 
ATOM     48  C   UNL A   1      39.103  30.111  29.651  1.00  0.00     0.029 A 
ATOM     49  C   UNL A   1      40.448  29.660  29.977  1.00  0.00     0.049 A 
ATOM     50  H   UNL A   1      41.620  30.301  31.586  1.00  0.00     0.167 HD
ATOM     51  C   UNL A   1      43.614  30.802  35.322  1.00  0.00     0.037 A 
ATOM     52  C   UNL A   1      41.234  28.748  29.354  1.00  0.00     0.037 A 
ATOM     53  C   UNL A   1      44.395  31.638  34.446  1.00  0.00     0.049 A 
ATOM     54  C   UNL A   1      42.630  28.955  29.820  1.00  0.00     0.074 A 
ATOM     55  C   UNL A   1      44.513  33.001  34.252  1.00  0.00     0.029 A 
ATOM     56  N   UNL A   1      45.005  31.053  33.364  1.00  0.00    -0.354 N 
ATOM     57  N   UNL A   1      43.374  29.980  29.507  1.00  0.00    -0.248 NA
ATOM     58  C   UNL A   1      43.109  28.163  30.944  1.00  0.00     0.031 C 
ATOM     59  C   UNL A   1      44.793  33.166  32.865  1.00  0.00     0.029 A 
ATOM     60  C   UNL A   1      44.845  31.895  32.294  1.00  0.00     0.049 A 
ATOM     61  H   UNL A   1      45.473  30.186  33.359  1.00  0.00     0.167 HD
ATOM     62  C   UNL A   1      44.169  30.199  30.620  1.00  0.00     0.074 A 
ATOM     63  C   UNL A   1      44.055  28.981  31.412  1.00  0.00     0.031 C 
ATOM     64  C   UNL A   1      44.625  31.446  30.934  1.00  0.00     0.037 A 
BRANCH  51  65
ATOM     65  C   UNL A   1      44.192  29.595  36.019  1.00  0.00     0.058 A 
ATOM     66  C   UNL A   1      43.779  28.304  35.634  1.00  0.00     0.135 A 
ATOM     67  C   UNL A   1      44.913  29.669  37.234  1.00  0.00     0.135 A 
ATOM     68  F   UNL A   1      43.077  28.121  34.504  1.00  0.00    -0.206 F 
ATOM     69  C   UNL A   1      43.998  27.183  36.433  1.00  0.00     0.059 A 
ATOM     70  C   UNL A   1      45.194  28.556  38.014  1.00  0.00     0.059 A 
ATOM     71  F   UNL A   1      45.288  30.836  37.772  1.00  0.00    -0.206 F 
ATOM     72  C   UNL A   1      44.689  27.325  37.633  1.00  0.00     0.060 A 
BRANCH  72  73
ATOM     73  S   UNL A   1      44.854  25.913  38.738  1.00  0.00     0.124 S 
ATOM     74  O   UNL A   1      44.065  26.354  39.882  1.00  0.00    -0.237 OA
ATOM     75  O   UNL A   1      44.282  24.831  37.944  1.00  0.00    -0.237 OA
ATOM     76  O   UNL A   1      46.296  25.829  38.956  1.00  0.00    -0.744 OA
ENDBRANCH  72  73
ENDBRANCH  51  65
BRANCH  52  77
ATOM     77  C   UNL A   1      40.820  27.545  28.589  1.00  0.00     0.058 A 
ATOM     78  C   UNL A   1      41.533  27.132  27.449  1.00  0.00     0.135 A 
ATOM     79  C   UNL A   1      39.889  26.621  29.107  1.00  0.00     0.135 A 
ATOM     80  F   UNL A   1      42.456  27.935  26.900  1.00  0.00    -0.206 F 
ATOM     81  C   UNL A   1      41.375  25.860  26.892  1.00  0.00     0.059 A 
ATOM     82  C   UNL A   1      39.699  25.357  28.557  1.00  0.00     0.059 A 
ATOM     83  F   UNL A   1      39.201  26.880  30.229  1.00  0.00    -0.206 F 
ATOM     84  C   UNL A   1      40.469  24.971  27.466  1.00  0.00     0.060 A 
BRANCH  84  85
ATOM     85  S   UNL A   1      40.396  23.267  26.870  1.00  0.00     0.124 S 
ATOM     86  O   UNL A   1      39.071  23.216  26.263  1.00  0.00    -0.237 OA
ATOM     87  O   UNL A   1      41.526  23.214  25.949  1.00  0.00    -0.237 OA
ATOM     88  O   UNL A   1      40.553  22.475  28.088  1.00  0.00    -0.744 OA
ENDBRANCH  84  85
ENDBRANCH  52  77
BRANCH  64  89
ATOM     89  C   UNL A   1      44.640  32.498  29.858  1.00  0.00     0.058 A 
ATOM     90  C   UNL A   1      45.713  32.722  28.977  1.00  0.00     0.135 A 
ATOM     91  C   UNL A   1      43.458  33.220  29.626  1.00  0.00     0.135 A 
ATOM     92  F   UNL A   1      46.838  31.998  29.061  1.00  0.00    -0.206 F 
ATOM     93  C   UNL A   1      45.627  33.656  27.943  1.00  0.00     0.059 A 
ATOM     94  C   UNL A   1      43.339  34.131  28.580  1.00  0.00     0.059 A 
ATOM     95  F   UNL A   1      42.376  33.006  30.395  1.00  0.00    -0.206 F 
ATOM     96  C   UNL A   1      44.434  34.355  27.750  1.00  0.00     0.060 A 
BRANCH  96  97
ATOM     97  S   UNL A   1      44.293  35.494  26.354  1.00  0.00     0.124 S 
ATOM     98  O   UNL A   1      45.490  35.181  25.582  1.00  0.00    -0.237 OA
ATOM     99  O   UNL A   1      43.024  35.100  25.746  1.00  0.00    -0.237 OA
ATOM    100  O   UNL A   1      44.285  36.810  26.988  1.00  0.00    -0.744 OA
ENDBRANCH  96  97
ENDBRANCH  64  89
ENDBRANCH  38  39
ENDBRANCH  31  33
ENDBRANCH  30  31
ENDBRANCH  29  30
ENDBRANCH  28  29
ENDBRANCH  27  28
ENDBRANCH  26  27
ENDBRANCH   1  26
TORSDOF 25
ENDMDL
MODEL 3
REMARK VINA RESULT:      -9.4      3.580     10.158
REMARK SMILES O=C(/C=C/c1cc(C(=O)NCCn2cccn2)cs1)OCCOCCOCCOC(=O)c1ccc(-c2c3nc(c(-c4c(F)cc(S(=O)(=O)[O-])cc4F)c4ccc([nH]4)c(-c4c(F)cc(S(=O)(=O)[O-])cc4F)c4nc(c(-c5c(F)cc(S(=O)(=O)[O-])cc5F)c5ccc2[nH]5)C=C4)C=C3)cc1
REMARK SMILES IDX 24 1 23 2 22 3 21 4 20 5 2 6 1 7 3 8 4 9 5 10 6 11 19 12
REMARK SMILES IDX 7 13 18 14 8 15 9 16 10 17 11 19 12 20 13 21 14 22 17 23
REMARK SMILES IDX 15 24 16 25 25 26 26 27 27 28 28 29 29 30 30 31 31 32 32 33
REMARK SMILES IDX 33 34 97 35 34 36 96 37 35 38 36 39 37 40 90 41 38 42 95 43
REMARK SMILES IDX 89 44 91 45 39 46 94 47 88 48 87 49 40 51 74 52 53 53 73 54
REMARK SMILES IDX 54 55 57 56 72 57 92 58 55 59 56 60 71 62 93 63 58 64 41 65
REMARK SMILES IDX 42 66 51 67 43 68 44 69 50 70 52 71 45 72 46 73 47 74 48 75
REMARK SMILES IDX 49 76 75 77 76 78 85 79 77 80 78 81 84 82 86 83 79 84 80 85
REMARK SMILES IDX 81 86 82 87 83 88 59 89 60 90 69 91 61 92 62 93 68 94 70 95
REMARK SMILES IDX 63 96 64 97 65 98 66 99 67 100
REMARK H PARENT 10 18 91 50 57 61
REMARK Flexibility Score: inf
ROOT
ATOM      1  C   UNL A   1      35.433  31.800  28.099  1.00  0.00     0.188 C 
ENDROOT
BRANCH   1   2
ATOM      2  O   UNL A   1      34.342  31.534  27.248  1.00  0.00    -0.376 OA
BRANCH   2   3
ATOM      3  C   UNL A   1      33.359  30.595  27.627  1.00  0.00     0.202 C 
BRANCH   3   4
ATOM      4  C   UNL A   1      32.845  29.584  26.592  1.00  0.00     0.261 C 
BRANCH   4   5
ATOM      5  O   UNL A   1      32.080  30.075  25.469  1.00  0.00    -0.460 OA
BRANCH   5   6
ATOM      6  C   UNL A   1      31.376  29.279  24.630  1.00  0.00     0.330 C 
ATOM      7  O   UNL A   1      30.489  29.700  23.899  1.00  0.00    -0.247 OA
BRANCH   6   8
ATOM      8  C   UNL A   1      31.454  27.848  24.941  1.00  0.00     0.095 C 
ATOM      9  C   UNL A   1      31.161  26.909  24.035  1.00  0.00     0.026 C 
BRANCH   9  10
ATOM     10  C   UNL A   1      31.331  25.526  24.313  1.00  0.00     0.028 A 
ATOM     11  C   UNL A   1      31.880  24.890  25.410  1.00  0.00     0.033 A 
ATOM     12  S   UNL A   1      30.868  24.337  23.156  1.00  0.00    -0.144 S 
ATOM     13  C   UNL A   1      31.295  23.598  25.572  1.00  0.00     0.051 A 
ATOM     14  C   UNL A   1      30.977  23.092  24.324  1.00  0.00     0.079 A 
BRANCH  13  15
ATOM     15  C   UNL A   1      31.081  22.852  26.799  1.00  0.00     0.252 C 
ATOM     16  O   UNL A   1      30.218  23.180  27.622  1.00  0.00    -0.269 OA
ATOM     17  N   UNL A   1      31.932  21.825  27.129  1.00  0.00    -0.350 N 
ATOM     18  H   UNL A   1      31.710  21.384  27.980  1.00  0.00     0.163 HD
BRANCH  17  19
ATOM     19  C   UNL A   1      33.105  21.257  26.457  1.00  0.00     0.140 C 
BRANCH  19  20
ATOM     20  C   UNL A   1      34.378  22.098  26.551  1.00  0.00     0.165 C 
BRANCH  20  21
ATOM     21  N   UNL A   1      34.771  22.798  25.344  1.00  0.00    -0.271 N 
ATOM     22  C   UNL A   1      34.605  22.425  24.040  1.00  0.00     0.108 A 
ATOM     23  N   UNL A   1      35.332  24.019  25.470  1.00  0.00    -0.181 NA
ATOM     24  C   UNL A   1      35.120  23.446  23.278  1.00  0.00     0.042 A 
ATOM     25  C   UNL A   1      35.552  24.403  24.211  1.00  0.00     0.135 A 
ENDBRANCH  20  21
ENDBRANCH  19  20
ENDBRANCH  17  19
ENDBRANCH  13  15
ENDBRANCH   9  10
ENDBRANCH   6   8
ENDBRANCH   5   6
ENDBRANCH   4   5
ENDBRANCH   3   4
ENDBRANCH   2   3
ENDBRANCH   1   2
BRANCH   1  26
ATOM     26  C   UNL A   1      35.822  33.286  28.152  1.00  0.00     0.188 C 
BRANCH  26  27
ATOM     27  O   UNL A   1      35.064  34.272  27.462  1.00  0.00    -0.376 OA
BRANCH  27  28
ATOM     28  C   UNL A   1      33.900  34.846  28.039  1.00  0.00     0.202 C 
BRANCH  28  29
ATOM     29  C   UNL A   1      33.858  35.247  29.514  1.00  0.00     0.261 C 
BRANCH  29  30
ATOM     30  O   UNL A   1      34.079  34.212  30.468  1.00  0.00    -0.460 OA
BRANCH  30  31
ATOM     31  C   UNL A   1      34.582  34.651  31.633  1.00  0.00     0.338 C 
ATOM     32  O   UNL A   1      34.305  35.721  32.190  1.00  0.00    -0.246 OA
BRANCH  31  33
ATOM     33  C   UNL A   1      35.647  33.765  32.112  1.00  0.00     0.060 A 
ATOM     34  C   UNL A   1      36.956  34.228  31.954  1.00  0.00     0.016 A 
ATOM     35  C   UNL A   1      35.381  32.431  32.462  1.00  0.00     0.016 A 
ATOM     36  C   UNL A   1      37.989  33.317  31.975  1.00  0.00     0.010 A 
ATOM     37  C   UNL A   1      36.423  31.517  32.480  1.00  0.00     0.010 A 
ATOM     38  C   UNL A   1      37.707  31.958  32.163  1.00  0.00    -0.014 A 
BRANCH  38  39
ATOM     39  C   UNL A   1      38.817  31.041  31.982  1.00  0.00     0.031 A 
ATOM     40  C   UNL A   1      39.666  30.825  33.171  1.00  0.00     0.074 A 
ATOM     41  C   UNL A   1      39.084  30.428  30.814  1.00  0.00     0.049 A 
ATOM     42  N   UNL A   1      40.888  31.203  33.352  1.00  0.00    -0.248 NA
ATOM     43  C   UNL A   1      39.044  30.188  34.337  1.00  0.00     0.031 C 
ATOM     44  C   UNL A   1      38.214  30.307  29.643  1.00  0.00     0.029 A 
ATOM     45  N   UNL A   1      40.186  29.703  30.469  1.00  0.00    -0.354 N 
ATOM     46  C   UNL A   1      41.265  30.668  34.577  1.00  0.00     0.074 A 
ATOM     47  C   UNL A   1      40.059  30.186  35.201  1.00  0.00     0.031 C 
ATOM     48  C   UNL A   1      38.739  29.389  28.801  1.00  0.00     0.029 A 
ATOM     49  C   UNL A   1      40.032  28.958  29.310  1.00  0.00     0.049 A 
ATOM     50  H   UNL A   1      41.017  29.708  30.996  1.00  0.00     0.167 HD
ATOM     51  C   UNL A   1      42.572  30.464  34.895  1.00  0.00     0.037 A 
ATOM     52  C   UNL A   1      40.876  28.004  28.848  1.00  0.00     0.037 A 
ATOM     53  C   UNL A   1      43.457  31.234  34.060  1.00  0.00     0.049 A 
ATOM     54  C   UNL A   1      42.211  28.239  29.457  1.00  0.00     0.074 A 
ATOM     55  C   UNL A   1      43.612  32.579  33.788  1.00  0.00     0.029 A 
ATOM     56  N   UNL A   1      44.182  30.573  33.099  1.00  0.00    -0.354 N 
ATOM     57  N   UNL A   1      42.997  29.237  29.162  1.00  0.00    -0.248 NA
ATOM     58  C   UNL A   1      42.548  27.526  30.682  1.00  0.00     0.031 C 
ATOM     59  C   UNL A   1      44.053  32.646  32.434  1.00  0.00     0.029 A 
ATOM     60  C   UNL A   1      44.157  31.339  31.962  1.00  0.00     0.049 A 
ATOM     61  H   UNL A   1      44.638  29.707  33.208  1.00  0.00     0.167 HD
ATOM     62  C   UNL A   1      43.660  29.531  30.343  1.00  0.00     0.074 A 
ATOM     63  C   UNL A   1      43.442  28.373  31.199  1.00  0.00     0.031 C 
ATOM     64  C   UNL A   1      44.091  30.796  30.620  1.00  0.00     0.037 A 
BRANCH  51  65
ATOM     65  C   UNL A   1      43.052  29.307  35.737  1.00  0.00     0.058 A 
ATOM     66  C   UNL A   1      43.938  29.546  36.807  1.00  0.00     0.135 A 
ATOM     67  C   UNL A   1      42.904  27.953  35.357  1.00  0.00     0.135 A 
ATOM     68  F   UNL A   1      44.163  30.796  37.241  1.00  0.00    -0.206 F 
ATOM     69  C   UNL A   1      44.679  28.526  37.403  1.00  0.00     0.059 A 
ATOM     70  C   UNL A   1      43.586  26.915  35.978  1.00  0.00     0.059 A 
ATOM     71  F   UNL A   1      42.170  27.584  34.300  1.00  0.00    -0.206 F 
ATOM     72  C   UNL A   1      44.510  27.216  36.964  1.00  0.00     0.060 A 
BRANCH  72  73
ATOM     73  S   UNL A   1      45.561  25.912  37.627  1.00  0.00     0.124 S 
ATOM     74  O   UNL A   1      44.771  25.462  38.767  1.00  0.00    -0.237 OA
ATOM     75  O   UNL A   1      45.649  24.986  36.503  1.00  0.00    -0.237 OA
ATOM     76  O   UNL A   1      46.799  26.616  37.950  1.00  0.00    -0.744 OA
ENDBRANCH  72  73
ENDBRANCH  51  65
BRANCH  52  77
ATOM     77  C   UNL A   1      40.539  26.751  28.125  1.00  0.00     0.058 A 
ATOM     78  C   UNL A   1      41.315  26.315  27.036  1.00  0.00     0.135 A 
ATOM     79  C   UNL A   1      39.624  25.816  28.649  1.00  0.00     0.135 A 
ATOM     80  F   UNL A   1      42.229  27.128  26.486  1.00  0.00    -0.206 F 
ATOM     81  C   UNL A   1      41.229  25.013  26.534  1.00  0.00     0.059 A 
ATOM     82  C   UNL A   1      39.505  24.520  28.152  1.00  0.00     0.059 A 
ATOM     83  F   UNL A   1      38.880  26.098  29.729  1.00  0.00    -0.206 F 
ATOM     84  C   UNL A   1      40.334  24.116  27.113  1.00  0.00     0.060 A 
BRANCH  84  85
ATOM     85  S   UNL A   1      40.350  22.385  26.596  1.00  0.00     0.124 S 
ATOM     86  O   UNL A   1      41.541  22.332  25.756  1.00  0.00    -0.237 OA
ATOM     87  O   UNL A   1      40.435  21.683  27.873  1.00  0.00    -0.237 OA
ATOM     88  O   UNL A   1      39.081  22.230  25.888  1.00  0.00    -0.744 OA
ENDBRANCH  84  85
ENDBRANCH  52  77
BRANCH  64  89
ATOM     89  C   UNL A   1      44.241  31.770  29.483  1.00  0.00     0.058 A 
ATOM     90  C   UNL A   1      43.246  32.673  29.070  1.00  0.00     0.135 A 
ATOM     91  C   UNL A   1      45.502  31.882  28.874  1.00  0.00     0.135 A 
ATOM     92  F   UNL A   1      42.050  32.707  29.675  1.00  0.00    -0.206 F 
ATOM     93  C   UNL A   1      43.483  33.612  28.064  1.00  0.00     0.059 A 
ATOM     94  C   UNL A   1      45.770  32.832  27.893  1.00  0.00     0.059 A 
ATOM     95  F   UNL A   1      46.513  31.089  29.269  1.00  0.00    -0.206 F 
ATOM     96  C   UNL A   1      44.749  33.686  27.482  1.00  0.00     0.060 A 
BRANCH  96  97
ATOM     97  S   UNL A   1      45.081  34.963  26.247  1.00  0.00     0.124 S 
ATOM     98  O   UNL A   1      46.212  35.671  26.835  1.00  0.00    -0.237 OA
ATOM     99  O   UNL A   1      45.375  34.181  25.048  1.00  0.00    -0.237 OA
ATOM    100  O   UNL A   1      43.831  35.718  26.194  1.00  0.00    -0.744 OA
ENDBRANCH  96  97
ENDBRANCH  64  89
ENDBRANCH  38  39
ENDBRANCH  31  33
ENDBRANCH  30  31
ENDBRANCH  29  30
ENDBRANCH  28  29
ENDBRANCH  27  28
ENDBRANCH  26  27
ENDBRANCH   1  26
TORSDOF 25
ENDMDL
