MODEL 1
REMARK VINA RESULT:     -10.7      0.000      0.000
REMARK SMILES Cc1cc2c(c(C)c1Br)C=C(C(=O)OCCOCCOCCOC(=O)c1ccc(-c3c4nc(c(-c5c(F)cc(S(=O)(=O)[O-])cc5F)c5ccc([nH]5)c(-c5c(F)cc(S(=O)(=O)[O-])cc5F)c5nc(c(-c6c(F)cc(S(=O)(=O)[O-])cc6F)c6ccc3[nH]6)C=C5)C=C4)cc1)[C@@H](C(F)(F)F)O2
REMARK SMILES IDX 19 1 18 2 17 3 16 4 15 5 14 6 12 7 13 8 11 9 1 10 2 11 3 12
REMARK SMILES IDX 8 13 4 14 6 15 9 16 5 17 97 18 7 19 10 20 92 21 93 22 94 23
REMARK SMILES IDX 95 24 96 25 20 26 21 27 22 28 23 29 24 30 25 31 26 32 27 33
REMARK SMILES IDX 91 34 28 35 90 36 29 37 30 38 31 39 84 40 32 41 89 42 83 43
REMARK SMILES IDX 85 44 33 45 88 46 82 47 81 48 34 50 68 51 47 52 67 53 48 54
REMARK SMILES IDX 51 55 66 56 86 57 49 58 50 59 65 61 87 62 52 63 35 64 36 65
REMARK SMILES IDX 45 66 37 67 38 68 44 69 46 70 39 71 40 72 41 73 42 74 43 75
REMARK SMILES IDX 69 76 70 77 79 78 71 79 72 80 78 81 80 82 73 83 74 84 75 85
REMARK SMILES IDX 76 86 77 87 53 88 54 89 63 90 55 91 56 92 62 93 64 94 57 95
REMARK SMILES IDX 58 96 59 97 60 98 61 99
REMARK H PARENT 85 49 51 60
REMARK Flexibility Score: inf
ROOT
ATOM      1  C   UNL A   1      34.024  33.932  29.195  1.00  0.00     0.188 C 
ENDROOT
BRANCH   1   2
ATOM      2  C   UNL A   1      34.614  32.800  28.328  1.00  0.00     0.188 C 
BRANCH   2   3
ATOM      3  O   UNL A   1      33.919  31.578  28.250  1.00  0.00    -0.376 OA
BRANCH   3   4
ATOM      4  C   UNL A   1      34.083  30.678  27.171  1.00  0.00     0.202 C 
BRANCH   4   5
ATOM      5  C   UNL A   1      34.464  29.194  27.283  1.00  0.00     0.261 C 
BRANCH   5   6
ATOM      6  O   UNL A   1      33.446  28.239  26.988  1.00  0.00    -0.460 OA
BRANCH   6   7
ATOM      7  C   UNL A   1      33.528  27.673  25.760  1.00  0.00     0.338 C 
ATOM      8  O   UNL A   1      33.829  28.230  24.717  1.00  0.00    -0.246 OA
BRANCH   7   9
ATOM      9  C   UNL A   1      33.303  26.222  25.879  1.00  0.00     0.087 C 
ATOM     10  C   UNL A   1      33.280  19.785  25.335  1.00  0.00     0.046 C 
ATOM     11  C   UNL A   1      33.660  21.223  25.564  1.00  0.00    -0.033 A 
ATOM     12  C   UNL A   1      32.634  22.135  25.843  1.00  0.00     0.051 A 
ATOM     13  C   UNL A   1      34.981  21.703  25.441  1.00  0.00     0.024 A 
ATOM     14  C   UNL A   1      32.894  23.498  25.942  1.00  0.00     0.128 A 
ATOM     15  C   UNL A   1      35.273  23.081  25.596  1.00  0.00    -0.026 A 
ATOM     16  Br  UNL A   1      36.366  20.457  25.000  1.00  0.00    -0.050 Br
ATOM     17  C   UNL A   1      34.196  23.985  25.784  1.00  0.00     0.021 A 
ATOM     18  O   UNL A   1      31.795  24.273  26.187  1.00  0.00    -0.475 OA
ATOM     19  C   UNL A   1      36.688  23.616  25.537  1.00  0.00     0.046 C 
ATOM     20  C   UNL A   1      34.378  25.436  25.747  1.00  0.00     0.027 C 
ATOM     21  C   UNL A   1      31.915  25.716  26.134  1.00  0.00     0.316 C 
BRANCH  21  22
ATOM     22  C   UNL A   1      30.894  26.247  25.118  1.00  0.00     0.430 C 
ATOM     23  F   UNL A   1      31.338  26.082  23.846  1.00  0.00    -0.167 F 
ATOM     24  F   UNL A   1      29.713  25.588  25.196  1.00  0.00    -0.167 F 
ATOM     25  F   UNL A   1      30.636  27.562  25.287  1.00  0.00    -0.167 F 
ENDBRANCH  21  22
ENDBRANCH   7   9
ENDBRANCH   6   7
ENDBRANCH   5   6
ENDBRANCH   4   5
ENDBRANCH   3   4
ENDBRANCH   2   3
ENDBRANCH   1   2
BRANCH   1  26
ATOM     26  O   UNL A   1      34.088  33.862  30.609  1.00  0.00    -0.376 OA
BRANCH  26  27
ATOM     27  C   UNL A   1      34.652  32.703  31.211  1.00  0.00     0.202 C 
BRANCH  27  28
ATOM     28  C   UNL A   1      36.164  32.624  31.455  1.00  0.00     0.261 C 
BRANCH  28  29
ATOM     29  O   UNL A   1      36.587  31.430  32.131  1.00  0.00    -0.460 OA
BRANCH  29  30
ATOM     30  C   UNL A   1      36.674  30.324  31.349  1.00  0.00     0.338 C 
ATOM     31  O   UNL A   1      35.764  29.594  30.999  1.00  0.00    -0.246 OA
BRANCH  30  32
ATOM     32  C   UNL A   1      38.037  30.228  30.791  1.00  0.00     0.060 A 
ATOM     33  C   UNL A   1      38.172  30.123  29.400  1.00  0.00     0.016 A 
ATOM     34  C   UNL A   1      39.160  30.196  31.620  1.00  0.00     0.016 A 
ATOM     35  C   UNL A   1      39.434  29.967  28.832  1.00  0.00     0.010 A 
ATOM     36  C   UNL A   1      40.423  30.008  31.049  1.00  0.00     0.010 A 
ATOM     37  C   UNL A   1      40.562  29.867  29.657  1.00  0.00    -0.014 A 
BRANCH  37  38
ATOM     38  C   UNL A   1      41.844  29.414  29.067  1.00  0.00     0.031 A 
ATOM     39  C   UNL A   1      42.969  30.406  28.960  1.00  0.00     0.074 A 
ATOM     40  C   UNL A   1      42.024  28.136  28.684  1.00  0.00     0.049 A 
ATOM     41  N   UNL A   1      44.183  30.235  28.508  1.00  0.00    -0.248 NA
ATOM     42  C   UNL A   1      42.690  31.770  29.440  1.00  0.00     0.031 C 
ATOM     43  C   UNL A   1      41.026  27.073  28.785  1.00  0.00     0.029 A 
ATOM     44  N   UNL A   1      43.121  27.518  28.138  1.00  0.00    -0.354 N 
ATOM     45  C   UNL A   1      44.818  31.461  28.666  1.00  0.00     0.074 A 
ATOM     46  C   UNL A   1      43.845  32.378  29.218  1.00  0.00     0.031 C 
ATOM     47  C   UNL A   1      41.558  25.932  28.311  1.00  0.00     0.029 A 
ATOM     48  C   UNL A   1      42.924  26.189  27.853  1.00  0.00     0.049 A 
ATOM     49  H   UNL A   1      43.972  27.985  27.966  1.00  0.00     0.167 HD
ATOM     50  C   UNL A   1      46.102  31.789  28.390  1.00  0.00     0.037 A 
ATOM     51  C   UNL A   1      43.747  25.290  27.276  1.00  0.00     0.037 A 
ATOM     52  C   UNL A   1      47.062  30.885  27.822  1.00  0.00     0.049 A 
ATOM     53  C   UNL A   1      45.136  25.713  26.866  1.00  0.00     0.074 A 
ATOM     54  C   UNL A   1      48.386  31.127  27.502  1.00  0.00     0.029 A 
ATOM     55  N   UNL A   1      46.799  29.568  27.474  1.00  0.00    -0.354 N 
ATOM     56  N   UNL A   1      45.732  26.869  27.041  1.00  0.00    -0.248 NA
ATOM     57  C   UNL A   1      45.963  24.712  26.174  1.00  0.00     0.031 C 
ATOM     58  C   UNL A   1      48.910  29.970  26.917  1.00  0.00     0.029 A 
ATOM     59  C   UNL A   1      47.926  28.994  26.914  1.00  0.00     0.049 A 
ATOM     60  H   UNL A   1      45.938  29.110  27.607  1.00  0.00     0.167 HD
ATOM     61  C   UNL A   1      47.006  26.729  26.497  1.00  0.00     0.074 A 
ATOM     62  C   UNL A   1      47.101  25.373  25.997  1.00  0.00     0.031 C 
ATOM     63  C   UNL A   1      48.007  27.641  26.421  1.00  0.00     0.037 A 
BRANCH  50  64
ATOM     64  C   UNL A   1      46.535  33.195  28.690  1.00  0.00     0.058 A 
ATOM     65  C   UNL A   1      46.405  34.218  27.737  1.00  0.00     0.135 A 
ATOM     66  C   UNL A   1      47.054  33.531  29.949  1.00  0.00     0.135 A 
ATOM     67  F   UNL A   1      45.935  33.943  26.510  1.00  0.00    -0.206 F 
ATOM     68  C   UNL A   1      46.790  35.524  28.018  1.00  0.00     0.059 A 
ATOM     69  C   UNL A   1      47.424  34.836  30.260  1.00  0.00     0.059 A 
ATOM     70  F   UNL A   1      47.205  32.588  30.893  1.00  0.00    -0.206 F 
ATOM     71  C   UNL A   1      47.297  35.824  29.283  1.00  0.00     0.060 A 
BRANCH  71  72
ATOM     72  S   UNL A   1      47.785  37.526  29.632  1.00  0.00     0.124 S 
ATOM     73  O   UNL A   1      48.151  37.440  31.043  1.00  0.00    -0.237 OA
ATOM     74  O   UNL A   1      48.891  37.729  28.702  1.00  0.00    -0.237 OA
ATOM     75  O   UNL A   1      46.577  38.293  29.344  1.00  0.00    -0.744 OA
ENDBRANCH  71  72
ENDBRANCH  50  64
BRANCH  51  76
ATOM     76  C   UNL A   1      43.282  23.896  27.043  1.00  0.00     0.058 A 
ATOM     77  C   UNL A   1      42.912  23.463  25.763  1.00  0.00     0.135 A 
ATOM     78  C   UNL A   1      43.197  22.972  28.097  1.00  0.00     0.135 A 
ATOM     79  F   UNL A   1      42.962  24.313  24.726  1.00  0.00    -0.206 F 
ATOM     80  C   UNL A   1      42.468  22.164  25.533  1.00  0.00     0.059 A 
ATOM     81  C   UNL A   1      42.777  21.662  27.889  1.00  0.00     0.059 A 
ATOM     82  F   UNL A   1      43.543  23.337  29.341  1.00  0.00    -0.206 F 
ATOM     83  C   UNL A   1      42.409  21.269  26.604  1.00  0.00     0.060 A 
BRANCH  83  84
ATOM     84  S   UNL A   1      41.880  19.572  26.282  1.00  0.00     0.124 S 
ATOM     85  O   UNL A   1      42.283  18.900  27.511  1.00  0.00    -0.237 OA
ATOM     86  O   UNL A   1      40.443  19.734  26.084  1.00  0.00    -0.237 OA
ATOM     87  O   UNL A   1      42.633  19.207  25.086  1.00  0.00    -0.744 OA
ENDBRANCH  83  84
ENDBRANCH  51  76
BRANCH  63  88
ATOM     88  C   UNL A   1      49.299  27.222  25.778  1.00  0.00     0.058 A 
ATOM     89  C   UNL A   1      49.514  27.383  24.401  1.00  0.00     0.135 A 
ATOM     90  C   UNL A   1      50.372  26.765  26.561  1.00  0.00     0.135 A 
ATOM     91  F   UNL A   1      48.520  27.810  23.607  1.00  0.00    -0.206 F 
ATOM     92  C   UNL A   1      50.750  27.111  23.823  1.00  0.00     0.059 A 
ATOM     93  C   UNL A   1      51.622  26.509  26.008  1.00  0.00     0.059 A 
ATOM     94  F   UNL A   1      50.221  26.603  27.885  1.00  0.00    -0.206 F 
ATOM     95  C   UNL A   1      51.802  26.686  24.637  1.00  0.00     0.060 A 
BRANCH  95  96
ATOM     96  S   UNL A   1      53.421  26.416  23.883  1.00  0.00     0.124 S 
ATOM     97  O   UNL A   1      54.051  27.719  24.058  1.00  0.00    -0.237 OA
ATOM     98  O   UNL A   1      53.966  25.333  24.697  1.00  0.00    -0.237 OA
ATOM     99  O   UNL A   1      53.099  26.056  22.504  1.00  0.00    -0.744 OA
ENDBRANCH  95  96
ENDBRANCH  63  88
ENDBRANCH  37  38
ENDBRANCH  30  32
ENDBRANCH  29  30
ENDBRANCH  28  29
ENDBRANCH  27  28
ENDBRANCH  26  27
ENDBRANCH   1  26
TORSDOF 21
ENDMDL
MODEL 2
REMARK VINA RESULT:     -10.7      6.141     12.048
REMARK SMILES Cc1cc2c(c(C)c1Br)C=C(C(=O)OCCOCCOCCOC(=O)c1ccc(-c3c4nc(c(-c5c(F)cc(S(=O)(=O)[O-])cc5F)c5ccc([nH]5)c(-c5c(F)cc(S(=O)(=O)[O-])cc5F)c5nc(c(-c6c(F)cc(S(=O)(=O)[O-])cc6F)c6ccc3[nH]6)C=C5)C=C4)cc1)[C@@H](C(F)(F)F)O2
REMARK SMILES IDX 19 1 18 2 17 3 16 4 15 5 14 6 12 7 13 8 11 9 1 10 2 11 3 12
REMARK SMILES IDX 8 13 4 14 6 15 9 16 5 17 97 18 7 19 10 20 92 21 93 22 94 23
REMARK SMILES IDX 95 24 96 25 20 26 21 27 22 28 23 29 24 30 25 31 26 32 27 33
REMARK SMILES IDX 91 34 28 35 90 36 29 37 30 38 31 39 84 40 32 41 89 42 83 43
REMARK SMILES IDX 85 44 33 45 88 46 82 47 81 48 34 50 68 51 47 52 67 53 48 54
REMARK SMILES IDX 51 55 66 56 86 57 49 58 50 59 65 61 87 62 52 63 35 64 36 65
REMARK SMILES IDX 45 66 37 67 38 68 44 69 46 70 39 71 40 72 41 73 42 74 43 75
REMARK SMILES IDX 69 76 70 77 79 78 71 79 72 80 78 81 80 82 73 83 74 84 75 85
REMARK SMILES IDX 76 86 77 87 53 88 54 89 63 90 55 91 56 92 62 93 64 94 57 95
REMARK SMILES IDX 58 96 59 97 60 98 61 99
REMARK H PARENT 85 49 51 60
REMARK Flexibility Score: inf
ROOT
ATOM      1  C   UNL A   1      40.170  20.643  26.191  1.00  0.00     0.188 C 
ENDROOT
BRANCH   1   2
ATOM      2  C   UNL A   1      39.102  21.753  26.094  1.00  0.00     0.188 C 
BRANCH   2   3
ATOM      3  O   UNL A   1      38.107  21.647  25.104  1.00  0.00    -0.376 OA
BRANCH   3   4
ATOM      4  C   UNL A   1      36.748  21.405  25.415  1.00  0.00     0.202 C 
BRANCH   4   5
ATOM      5  C   UNL A   1      35.537  22.085  24.760  1.00  0.00     0.261 C 
BRANCH   5   6
ATOM      6  O   UNL A   1      35.243  23.420  25.170  1.00  0.00    -0.460 OA
BRANCH   6   7
ATOM      7  C   UNL A   1      34.048  23.580  25.788  1.00  0.00     0.338 C 
ATOM      8  O   UNL A   1      33.635  22.962  26.756  1.00  0.00    -0.246 OA
BRANCH   7   9
ATOM      9  C   UNL A   1      33.335  24.717  25.177  1.00  0.00     0.087 C 
ATOM     10  C   UNL A   1      29.951  30.062  23.869  1.00  0.00     0.046 C 
ATOM     11  C   UNL A   1      30.985  29.074  24.340  1.00  0.00    -0.033 A 
ATOM     12  C   UNL A   1      31.051  27.836  23.691  1.00  0.00     0.051 A 
ATOM     13  C   UNL A   1      31.833  29.311  25.443  1.00  0.00     0.024 A 
ATOM     14  C   UNL A   1      31.894  26.829  24.152  1.00  0.00     0.128 A 
ATOM     15  C   UNL A   1      32.739  28.317  25.891  1.00  0.00    -0.026 A 
ATOM     16  Br  UNL A   1      31.690  30.985  26.361  1.00  0.00    -0.050 Br
ATOM     17  C   UNL A   1      32.710  27.043  25.267  1.00  0.00     0.021 A 
ATOM     18  O   UNL A   1      31.835  25.663  23.440  1.00  0.00    -0.475 OA
ATOM     19  C   UNL A   1      33.708  28.564  27.027  1.00  0.00     0.046 C 
ATOM     20  C   UNL A   1      33.456  25.900  25.792  1.00  0.00     0.027 C 
ATOM     21  C   UNL A   1      32.532  24.493  23.931  1.00  0.00     0.316 C 
BRANCH  21  22
ATOM     22  C   UNL A   1      31.514  23.353  24.080  1.00  0.00     0.430 C 
ATOM     23  F   UNL A   1      30.893  23.405  25.285  1.00  0.00    -0.167 F 
ATOM     24  F   UNL A   1      30.537  23.423  23.145  1.00  0.00    -0.167 F 
ATOM     25  F   UNL A   1      32.088  22.134  23.975  1.00  0.00    -0.167 F 
ENDBRANCH  21  22
ENDBRANCH   7   9
ENDBRANCH   6   7
ENDBRANCH   5   6
ENDBRANCH   4   5
ENDBRANCH   3   4
ENDBRANCH   2   3
ENDBRANCH   1   2
BRANCH   1  26
ATOM     26  O   UNL A   1      41.538  20.940  25.971  1.00  0.00    -0.376 OA
BRANCH  26  27
ATOM     27  C   UNL A   1      42.077  22.133  26.529  1.00  0.00     0.202 C 
BRANCH  27  28
ATOM     28  C   UNL A   1      42.235  23.384  25.655  1.00  0.00     0.261 C 
BRANCH  28  29
ATOM     29  O   UNL A   1      41.433  24.498  26.078  1.00  0.00    -0.460 OA
BRANCH  29  30
ATOM     30  C   UNL A   1      42.000  25.718  25.897  1.00  0.00     0.338 C 
ATOM     31  O   UNL A   1      42.344  26.222  24.843  1.00  0.00    -0.246 OA
BRANCH  30  32
ATOM     32  C   UNL A   1      41.961  26.467  27.167  1.00  0.00     0.060 A 
ATOM     33  C   UNL A   1      41.195  25.943  28.217  1.00  0.00     0.016 A 
ATOM     34  C   UNL A   1      42.629  27.685  27.313  1.00  0.00     0.016 A 
ATOM     35  C   UNL A   1      41.077  26.645  29.414  1.00  0.00     0.010 A 
ATOM     36  C   UNL A   1      42.484  28.404  28.504  1.00  0.00     0.010 A 
ATOM     37  C   UNL A   1      41.688  27.900  29.548  1.00  0.00    -0.014 A 
BRANCH  37  38
ATOM     38  C   UNL A   1      41.319  28.757  30.700  1.00  0.00     0.031 A 
ATOM     39  C   UNL A   1      42.134  28.646  31.960  1.00  0.00     0.074 A 
ATOM     40  C   UNL A   1      40.320  29.654  30.612  1.00  0.00     0.049 A 
ATOM     41  N   UNL A   1      42.019  29.308  33.081  1.00  0.00    -0.248 NA
ATOM     42  C   UNL A   1      43.231  27.664  31.948  1.00  0.00     0.031 C 
ATOM     43  C   UNL A   1      39.494  29.888  29.430  1.00  0.00     0.029 A 
ATOM     44  N   UNL A   1      39.837  30.540  31.542  1.00  0.00    -0.354 N 
ATOM     45  C   UNL A   1      43.039  28.839  33.899  1.00  0.00     0.074 A 
ATOM     46  C   UNL A   1      43.738  27.808  33.163  1.00  0.00     0.031 C 
ATOM     47  C   UNL A   1      38.602  30.855  29.708  1.00  0.00     0.029 A 
ATOM     48  C   UNL A   1      38.778  31.291  31.093  1.00  0.00     0.049 A 
ATOM     49  H   UNL A   1      40.215  30.629  32.448  1.00  0.00     0.167 HD
ATOM     50  C   UNL A   1      43.373  29.241  35.147  1.00  0.00     0.037 A 
ATOM     51  C   UNL A   1      38.031  32.213  31.734  1.00  0.00     0.037 A 
ATOM     52  C   UNL A   1      42.666  30.249  35.887  1.00  0.00     0.049 A 
ATOM     53  C   UNL A   1      38.348  32.559  33.168  1.00  0.00     0.074 A 
ATOM     54  C   UNL A   1      42.927  30.722  37.160  1.00  0.00     0.029 A 
ATOM     55  N   UNL A   1      41.549  30.931  35.426  1.00  0.00    -0.354 N 
ATOM     56  N   UNL A   1      39.328  32.124  33.923  1.00  0.00    -0.248 NA
ATOM     57  C   UNL A   1      37.453  33.514  33.839  1.00  0.00     0.031 C 
ATOM     58  C   UNL A   1      41.939  31.656  37.488  1.00  0.00     0.029 A 
ATOM     59  C   UNL A   1      41.090  31.797  36.401  1.00  0.00     0.049 A 
ATOM     60  H   UNL A   1      41.144  30.815  34.536  1.00  0.00     0.167 HD
ATOM     61  C   UNL A   1      39.179  32.765  35.150  1.00  0.00     0.074 A 
ATOM     62  C   UNL A   1      38.021  33.626  35.034  1.00  0.00     0.031 C 
ATOM     63  C   UNL A   1      39.934  32.651  36.271  1.00  0.00     0.037 A 
BRANCH  50  64
ATOM     64  C   UNL A   1      44.553  28.576  35.795  1.00  0.00     0.058 A 
ATOM     65  C   UNL A   1      44.400  27.420  36.577  1.00  0.00     0.135 A 
ATOM     66  C   UNL A   1      45.849  29.077  35.607  1.00  0.00     0.135 A 
ATOM     67  F   UNL A   1      43.178  26.914  36.806  1.00  0.00    -0.206 F 
ATOM     68  C   UNL A   1      45.493  26.792  37.164  1.00  0.00     0.059 A 
ATOM     69  C   UNL A   1      46.960  28.452  36.167  1.00  0.00     0.059 A 
ATOM     70  F   UNL A   1      46.048  30.184  34.874  1.00  0.00    -0.206 F 
ATOM     71  C   UNL A   1      46.769  27.315  36.952  1.00  0.00     0.060 A 
BRANCH  71  72
ATOM     72  S   UNL A   1      48.177  26.483  37.717  1.00  0.00     0.124 S 
ATOM     73  O   UNL A   1      49.258  26.841  36.803  1.00  0.00    -0.237 OA
ATOM     74  O   UNL A   1      48.228  27.106  39.035  1.00  0.00    -0.237 OA
ATOM     75  O   UNL A   1      47.789  25.075  37.705  1.00  0.00    -0.744 OA
ENDBRANCH  71  72
ENDBRANCH  50  64
BRANCH  51  76
ATOM     76  C   UNL A   1      36.900  32.876  31.030  1.00  0.00     0.058 A 
ATOM     77  C   UNL A   1      37.130  33.871  30.071  1.00  0.00     0.135 A 
ATOM     78  C   UNL A   1      35.568  32.528  31.304  1.00  0.00     0.135 A 
ATOM     79  F   UNL A   1      38.386  34.249  29.784  1.00  0.00    -0.206 F 
ATOM     80  C   UNL A   1      36.082  34.504  29.410  1.00  0.00     0.059 A 
ATOM     81  C   UNL A   1      34.503  33.130  30.643  1.00  0.00     0.059 A 
ATOM     82  F   UNL A   1      35.294  31.578  32.212  1.00  0.00    -0.206 F 
ATOM     83  C   UNL A   1      34.770  34.122  29.701  1.00  0.00     0.060 A 
BRANCH  83  84
ATOM     84  S   UNL A   1      33.420  34.916  28.800  1.00  0.00     0.124 S 
ATOM     85  O   UNL A   1      34.045  36.162  28.371  1.00  0.00    -0.237 OA
ATOM     86  O   UNL A   1      33.144  33.944  27.747  1.00  0.00    -0.237 OA
ATOM     87  O   UNL A   1      32.375  35.049  29.811  1.00  0.00    -0.744 OA
ENDBRANCH  83  84
ENDBRANCH  51  76
BRANCH  63  88
ATOM     88  C   UNL A   1      39.549  33.470  37.471  1.00  0.00     0.058 A 
ATOM     89  C   UNL A   1      38.666  32.971  38.441  1.00  0.00     0.135 A 
ATOM     90  C   UNL A   1      40.156  34.714  37.713  1.00  0.00     0.135 A 
ATOM     91  F   UNL A   1      38.054  31.792  38.255  1.00  0.00    -0.206 F 
ATOM     92  C   UNL A   1      38.402  33.675  39.612  1.00  0.00     0.059 A 
ATOM     93  C   UNL A   1      39.925  35.423  38.887  1.00  0.00     0.059 A 
ATOM     94  F   UNL A   1      41.016  35.230  36.820  1.00  0.00    -0.206 F 
ATOM     95  C   UNL A   1      39.046  34.895  39.832  1.00  0.00     0.060 A 
BRANCH  95  96
ATOM     96  S   UNL A   1      38.755  35.755  41.393  1.00  0.00     0.124 S 
ATOM     97  O   UNL A   1      39.836  35.235  42.224  1.00  0.00    -0.237 OA
ATOM     98  O   UNL A   1      38.873  37.156  41.002  1.00  0.00    -0.237 OA
ATOM     99  O   UNL A   1      37.411  35.327  41.773  1.00  0.00    -0.744 OA
ENDBRANCH  95  96
ENDBRANCH  63  88
ENDBRANCH  37  38
ENDBRANCH  30  32
ENDBRANCH  29  30
ENDBRANCH  28  29
ENDBRANCH  27  28
ENDBRANCH  26  27
ENDBRANCH   1  26
TORSDOF 21
ENDMDL
MODEL 3
REMARK VINA RESULT:     -10.6      6.053     11.819
REMARK SMILES Cc1cc2c(c(C)c1Br)C=C(C(=O)OCCOCCOCCOC(=O)c1ccc(-c3c4nc(c(-c5c(F)cc(S(=O)(=O)[O-])cc5F)c5ccc([nH]5)c(-c5c(F)cc(S(=O)(=O)[O-])cc5F)c5nc(c(-c6c(F)cc(S(=O)(=O)[O-])cc6F)c6ccc3[nH]6)C=C5)C=C4)cc1)[C@@H](C(F)(F)F)O2
REMARK SMILES IDX 19 1 18 2 17 3 16 4 15 5 14 6 12 7 13 8 11 9 1 10 2 11 3 12
REMARK SMILES IDX 8 13 4 14 6 15 9 16 5 17 97 18 7 19 10 20 92 21 93 22 94 23
REMARK SMILES IDX 95 24 96 25 20 26 21 27 22 28 23 29 24 30 25 31 26 32 27 33
REMARK SMILES IDX 91 34 28 35 90 36 29 37 30 38 31 39 84 40 32 41 89 42 83 43
REMARK SMILES IDX 85 44 33 45 88 46 82 47 81 48 34 50 68 51 47 52 67 53 48 54
REMARK SMILES IDX 51 55 66 56 86 57 49 58 50 59 65 61 87 62 52 63 35 64 36 65
REMARK SMILES IDX 45 66 37 67 38 68 44 69 46 70 39 71 40 72 41 73 42 74 43 75
REMARK SMILES IDX 69 76 70 77 79 78 71 79 72 80 78 81 80 82 73 83 74 84 75 85
REMARK SMILES IDX 76 86 77 87 53 88 54 89 63 90 55 91 56 92 62 93 64 94 57 95
REMARK SMILES IDX 58 96 59 97 60 98 61 99
REMARK H PARENT 85 49 51 60
REMARK Flexibility Score: inf
ROOT
ATOM      1  C   UNL A   1      41.414  20.575  26.222  1.00  0.00     0.188 C 
ENDROOT
BRANCH   1   2
ATOM      2  C   UNL A   1      40.063  21.144  26.708  1.00  0.00     0.188 C 
BRANCH   2   3
ATOM      3  O   UNL A   1      39.300  21.923  25.817  1.00  0.00    -0.376 OA
BRANCH   3   4
ATOM      4  C   UNL A   1      38.068  21.476  25.284  1.00  0.00     0.202 C 
BRANCH   4   5
ATOM      5  C   UNL A   1      37.035  22.345  24.548  1.00  0.00     0.261 C 
BRANCH   5   6
ATOM      6  O   UNL A   1      36.630  23.553  25.189  1.00  0.00    -0.460 OA
BRANCH   6   7
ATOM      7  C   UNL A   1      35.388  23.528  25.728  1.00  0.00     0.338 C 
ATOM      8  O   UNL A   1      35.017  22.865  26.684  1.00  0.00    -0.246 OA
BRANCH   7   9
ATOM      9  C   UNL A   1      34.544  24.526  25.047  1.00  0.00     0.087 C 
ATOM     10  C   UNL A   1      30.409  29.209  23.400  1.00  0.00     0.046 C 
ATOM     11  C   UNL A   1      31.555  28.414  23.967  1.00  0.00    -0.033 A 
ATOM     12  C   UNL A   1      31.889  27.208  23.339  1.00  0.00     0.051 A 
ATOM     13  C   UNL A   1      32.253  28.790  25.135  1.00  0.00     0.024 A 
ATOM     14  C   UNL A   1      32.851  26.360  23.881  1.00  0.00     0.128 A 
ATOM     15  C   UNL A   1      33.276  27.966  25.668  1.00  0.00    -0.026 A 
ATOM     16  Br  UNL A   1      31.746  30.410  26.018  1.00  0.00    -0.050 Br
ATOM     17  C   UNL A   1      33.521  26.709  25.058  1.00  0.00     0.021 A 
ATOM     18  O   UNL A   1      33.055  25.205  23.180  1.00  0.00    -0.475 OA
ATOM     19  C   UNL A   1      34.088  28.373  26.879  1.00  0.00     0.046 C 
ATOM     20  C   UNL A   1      34.406  25.710  25.656  1.00  0.00     0.027 C 
ATOM     21  C   UNL A   1      33.900  24.171  23.741  1.00  0.00     0.316 C 
BRANCH  21  22
ATOM     22  C   UNL A   1      33.086  22.871  23.816  1.00  0.00     0.430 C 
ATOM     23  F   UNL A   1      33.875  21.786  23.614  1.00  0.00    -0.167 F 
ATOM     24  F   UNL A   1      32.512  22.703  25.031  1.00  0.00    -0.167 F 
ATOM     25  F   UNL A   1      32.100  22.829  22.894  1.00  0.00    -0.167 F 
ENDBRANCH  21  22
ENDBRANCH   7   9
ENDBRANCH   6   7
ENDBRANCH   5   6
ENDBRANCH   4   5
ENDBRANCH   3   4
ENDBRANCH   2   3
ENDBRANCH   1   2
BRANCH   1  26
ATOM     26  O   UNL A   1      42.264  21.350  25.394  1.00  0.00    -0.376 OA
BRANCH  26  27
ATOM     27  C   UNL A   1      42.971  22.441  25.971  1.00  0.00     0.202 C 
BRANCH  27  28
ATOM     28  C   UNL A   1      43.218  23.714  25.151  1.00  0.00     0.261 C 
BRANCH  28  29
ATOM     29  O   UNL A   1      42.584  24.886  25.684  1.00  0.00    -0.460 OA
BRANCH  29  30
ATOM     30  C   UNL A   1      43.423  25.910  25.984  1.00  0.00     0.338 C 
ATOM     31  O   UNL A   1      44.415  26.257  25.367  1.00  0.00    -0.246 OA
BRANCH  30  32
ATOM     32  C   UNL A   1      42.847  26.706  27.085  1.00  0.00     0.060 A 
ATOM     33  C   UNL A   1      43.231  28.049  27.196  1.00  0.00     0.016 A 
ATOM     34  C   UNL A   1      41.980  26.134  28.018  1.00  0.00     0.016 A 
ATOM     35  C   UNL A   1      42.763  28.824  28.255  1.00  0.00     0.010 A 
ATOM     36  C   UNL A   1      41.535  26.904  29.098  1.00  0.00     0.010 A 
ATOM     37  C   UNL A   1      41.945  28.242  29.235  1.00  0.00    -0.014 A 
BRANCH  37  38
ATOM     38  C   UNL A   1      41.697  28.985  30.493  1.00  0.00     0.031 A 
ATOM     39  C   UNL A   1      40.543  29.950  30.535  1.00  0.00     0.074 A 
ATOM     40  C   UNL A   1      42.442  28.769  31.592  1.00  0.00     0.049 A 
ATOM     41  N   UNL A   1      40.116  30.687  31.525  1.00  0.00    -0.248 NA
ATOM     42  C   UNL A   1      39.761  30.092  29.295  1.00  0.00     0.031 C 
ATOM     43  C   UNL A   1      43.553  27.823  31.688  1.00  0.00     0.029 A 
ATOM     44  N   UNL A   1      42.368  29.331  32.841  1.00  0.00    -0.354 N 
ATOM     45  C   UNL A   1      39.006  31.364  31.037  1.00  0.00     0.074 A 
ATOM     46  C   UNL A   1      38.848  30.983  29.651  1.00  0.00     0.031 C 
ATOM     47  C   UNL A   1      44.059  27.874  32.933  1.00  0.00     0.029 A 
ATOM     48  C   UNL A   1      43.325  28.870  33.714  1.00  0.00     0.049 A 
ATOM     49  H   UNL A   1      41.692  30.002  33.090  1.00  0.00     0.167 HD
ATOM     50  C   UNL A   1      38.182  32.217  31.690  1.00  0.00     0.037 A 
ATOM     51  C   UNL A   1      43.584  29.224  34.989  1.00  0.00     0.037 A 
ATOM     52  C   UNL A   1      38.351  32.613  33.060  1.00  0.00     0.049 A 
ATOM     53  C   UNL A   1      42.724  30.268  35.658  1.00  0.00     0.074 A 
ATOM     54  C   UNL A   1      37.570  33.476  33.808  1.00  0.00     0.029 A 
ATOM     55  N   UNL A   1      39.380  32.185  33.886  1.00  0.00    -0.354 N 
ATOM     56  N   UNL A   1      41.664  30.885  35.193  1.00  0.00    -0.248 NA
ATOM     57  C   UNL A   1      43.099  30.670  37.022  1.00  0.00     0.031 C 
ATOM     58  C   UNL A   1      38.154  33.606  35.071  1.00  0.00     0.029 A 
ATOM     59  C   UNL A   1      39.273  32.789  35.125  1.00  0.00     0.049 A 
ATOM     60  H   UNL A   1      40.082  31.544  33.628  1.00  0.00     0.167 HD
ATOM     61  C   UNL A   1      41.236  31.732  36.211  1.00  0.00     0.074 A 
ATOM     62  C   UNL A   1      42.144  31.542  37.322  1.00  0.00     0.031 C 
ATOM     63  C   UNL A   1      40.185  32.590  36.225  1.00  0.00     0.037 A 
BRANCH  50  64
ATOM     64  C   UNL A   1      37.027  32.789  30.919  1.00  0.00     0.058 A 
ATOM     65  C   UNL A   1      35.735  32.253  31.034  1.00  0.00     0.135 A 
ATOM     66  C   UNL A   1      37.206  33.901  30.083  1.00  0.00     0.135 A 
ATOM     67  F   UNL A   1      35.517  31.174  31.804  1.00  0.00    -0.206 F 
ATOM     68  C   UNL A   1      34.661  32.791  30.335  1.00  0.00     0.059 A 
ATOM     69  C   UNL A   1      36.141  34.470  29.391  1.00  0.00     0.059 A 
ATOM     70  F   UNL A   1      38.423  34.446  29.932  1.00  0.00    -0.206 F 
ATOM     71  C   UNL A   1      34.874  33.901  29.516  1.00  0.00     0.060 A 
BRANCH  71  72
ATOM     72  S   UNL A   1      33.466  34.590  28.620  1.00  0.00     0.124 S 
ATOM     73  O   UNL A   1      33.129  33.493  27.719  1.00  0.00    -0.237 OA
ATOM     74  O   UNL A   1      32.511  34.846  29.693  1.00  0.00    -0.237 OA
ATOM     75  O   UNL A   1      34.019  35.779  27.979  1.00  0.00    -0.744 OA
ENDBRANCH  71  72
ENDBRANCH  50  64
BRANCH  51  76
ATOM     76  C   UNL A   1      44.713  28.593  35.722  1.00  0.00     0.058 A 
ATOM     77  C   UNL A   1      44.511  27.464  36.527  1.00  0.00     0.135 A 
ATOM     78  C   UNL A   1      46.016  29.109  35.635  1.00  0.00     0.135 A 
ATOM     79  F   UNL A   1      43.281  26.942  36.654  1.00  0.00    -0.206 F 
ATOM     80  C   UNL A   1      45.558  26.868  37.224  1.00  0.00     0.059 A 
ATOM     81  C   UNL A   1      47.083  28.520  36.306  1.00  0.00     0.059 A 
ATOM     82  F   UNL A   1      46.263  30.188  34.876  1.00  0.00    -0.206 F 
ATOM     83  C   UNL A   1      46.843  27.402  37.103  1.00  0.00     0.060 A 
BRANCH  83  84
ATOM     84  S   UNL A   1      48.201  26.589  37.973  1.00  0.00     0.124 S 
ATOM     85  O   UNL A   1      49.357  27.312  37.456  1.00  0.00    -0.237 OA
ATOM     86  O   UNL A   1      47.862  26.842  39.370  1.00  0.00    -0.237 OA
ATOM     87  O   UNL A   1      48.085  25.196  37.549  1.00  0.00    -0.744 OA
ENDBRANCH  83  84
ENDBRANCH  51  76
BRANCH  63  88
ATOM     88  C   UNL A   1      39.943  33.394  37.470  1.00  0.00     0.058 A 
ATOM     89  C   UNL A   1      40.670  34.565  37.735  1.00  0.00     0.135 A 
ATOM     90  C   UNL A   1      38.899  33.057  38.348  1.00  0.00     0.135 A 
ATOM     91  F   UNL A   1      41.682  34.928  36.932  1.00  0.00    -0.206 F 
ATOM     92  C   UNL A   1      40.366  35.377  38.823  1.00  0.00     0.059 A 
ATOM     93  C   UNL A   1      38.563  33.867  39.428  1.00  0.00     0.059 A 
ATOM     94  F   UNL A   1      38.167  31.952  38.134  1.00  0.00    -0.206 F 
ATOM     95  C   UNL A   1      39.302  35.026  39.657  1.00  0.00     0.060 A 
BRANCH  95  96
ATOM     96  S   UNL A   1      38.871  36.134  41.016  1.00  0.00     0.124 S 
ATOM     97  O   UNL A   1      37.767  35.417  41.644  1.00  0.00    -0.237 OA
ATOM     98  O   UNL A   1      40.112  36.184  41.783  1.00  0.00    -0.237 OA
ATOM     99  O   UNL A   1      38.507  37.377  40.341  1.00  0.00    -0.744 OA
ENDBRANCH  95  96
ENDBRANCH  63  88
ENDBRANCH  37  38
ENDBRANCH  30  32
ENDBRANCH  29  30
ENDBRANCH  28  29
ENDBRANCH  27  28
ENDBRANCH  26  27
ENDBRANCH   1  26
TORSDOF 21
ENDMDL
