MODEL 1
REMARK VINA RESULT:     -10.5      0.000      0.000
REMARK SMILES Cc1cc(Cl)ccc1-c1ccc(C(=O)OCCOCCOCCOC(=O)c2ccc(-c3c4nc(c(-c5c(F)cc(S(=O)(=O)[O-])cc5F)c5ccc([nH]5)c(-c5c(F)cc(S(=O)(=O)[O-])cc5F)c5nc(c(-c6c(F)cc(S(=O)(=O)[O-])cc6F)c6ccc3[nH]6)C=C5)C=C4)cc2)c(Cl)c1
REMARK SMILES IDX 20 1 19 2 18 3 17 4 16 5 15 6 13 7 14 8 12 9 9 10 10 11
REMARK SMILES IDX 95 12 11 13 93 14 94 15 8 16 1 17 2 18 3 19 4 20 7 21 5 22
REMARK SMILES IDX 6 23 21 24 22 25 23 26 24 27 25 28 26 29 27 30 28 31 92 32
REMARK SMILES IDX 29 33 91 34 30 35 31 36 32 37 85 38 33 39 90 40 84 41 86 42
REMARK SMILES IDX 34 43 89 44 83 45 82 46 35 48 69 49 48 50 68 51 49 52 52 53
REMARK SMILES IDX 67 54 87 55 50 56 51 57 66 59 88 60 53 61 36 62 37 63 46 64
REMARK SMILES IDX 38 65 39 66 45 67 47 68 40 69 41 70 42 71 43 72 44 73 70 74
REMARK SMILES IDX 71 75 80 76 72 77 73 78 79 79 81 80 74 81 75 82 76 83 77 84
REMARK SMILES IDX 78 85 54 86 55 87 64 88 56 89 57 90 63 91 65 92 58 93 59 94
REMARK SMILES IDX 60 95 61 96 62 97
REMARK H PARENT 86 47 52 58
REMARK Flexibility Score: inf
ROOT
ATOM      1  C   UNL A   1      31.518  30.896  26.260  1.00  0.00     0.188 C 
ENDROOT
BRANCH   1   2
ATOM      2  C   UNL A   1      31.514  30.013  24.993  1.00  0.00     0.188 C 
BRANCH   2   3
ATOM      3  O   UNL A   1      30.376  30.061  24.163  1.00  0.00    -0.376 OA
BRANCH   3   4
ATOM      4  C   UNL A   1      30.337  29.330  22.947  1.00  0.00     0.202 C 
BRANCH   4   5
ATOM      5  C   UNL A   1      29.770  27.909  22.783  1.00  0.00     0.261 C 
BRANCH   5   6
ATOM      6  O   UNL A   1      30.659  26.829  23.080  1.00  0.00    -0.460 OA
BRANCH   6   7
ATOM      7  C   UNL A   1      30.280  26.023  24.102  1.00  0.00     0.339 C 
ATOM      8  O   UNL A   1      29.261  26.116  24.766  1.00  0.00    -0.246 OA
BRANCH   7   9
ATOM      9  C   UNL A   1      31.174  24.852  24.200  1.00  0.00     0.078 A 
ATOM     10  C   UNL A   1      32.683  22.469  24.261  1.00  0.00    -0.017 A 
ATOM     11  C   UNL A   1      32.065  22.887  23.075  1.00  0.00     0.010 A 
ATOM     12  C   UNL A   1      32.591  23.304  25.393  1.00  0.00     0.030 A 
ATOM     13  C   UNL A   1      31.313  24.065  23.046  1.00  0.00     0.018 A 
ATOM     14  C   UNL A   1      31.834  24.484  25.372  1.00  0.00     0.056 A 
ATOM     15  Cl  UNL A   1      31.698  25.368  26.848  1.00  0.00    -0.083 Cl
BRANCH  10  16
ATOM     16  C   UNL A   1      33.249  21.112  24.387  1.00  0.00    -0.015 A 
ATOM     17  C   UNL A   1      35.668  21.863  24.849  1.00  0.00     0.045 C 
ATOM     18  C   UNL A   1      34.604  20.818  24.647  1.00  0.00    -0.042 A 
ATOM     19  C   UNL A   1      35.015  19.468  24.716  1.00  0.00     0.024 A 
ATOM     20  C   UNL A   1      34.105  18.428  24.534  1.00  0.00     0.041 A 
ATOM     21  C   UNL A   1      32.354  20.034  24.201  1.00  0.00     0.010 A 
ATOM     22  Cl  UNL A   1      34.630  16.793  24.631  1.00  0.00    -0.084 Cl
ATOM     23  C   UNL A   1      32.772  18.706  24.275  1.00  0.00     0.021 A 
ENDBRANCH  10  16
ENDBRANCH   7   9
ENDBRANCH   6   7
ENDBRANCH   5   6
ENDBRANCH   4   5
ENDBRANCH   3   4
ENDBRANCH   2   3
ENDBRANCH   1   2
BRANCH   1  24
ATOM     24  O   UNL A   1      32.539  30.768  27.228  1.00  0.00    -0.376 OA
BRANCH  24  25
ATOM     25  C   UNL A   1      33.499  31.800  27.383  1.00  0.00     0.202 C 
BRANCH  25  26
ATOM     26  C   UNL A   1      34.351  31.985  28.652  1.00  0.00     0.261 C 
BRANCH  26  27
ATOM     27  O   UNL A   1      35.294  30.952  28.956  1.00  0.00    -0.460 OA
BRANCH  27  28
ATOM     28  C   UNL A   1      36.126  31.212  29.993  1.00  0.00     0.338 C 
ATOM     29  O   UNL A   1      35.851  31.782  31.041  1.00  0.00    -0.246 OA
BRANCH  28  30
ATOM     30  C   UNL A   1      37.412  30.539  29.752  1.00  0.00     0.060 A 
ATOM     31  C   UNL A   1      38.230  30.211  30.844  1.00  0.00     0.016 A 
ATOM     32  C   UNL A   1      37.820  30.258  28.449  1.00  0.00     0.016 A 
ATOM     33  C   UNL A   1      39.464  29.598  30.634  1.00  0.00     0.010 A 
ATOM     34  C   UNL A   1      39.067  29.670  28.239  1.00  0.00     0.010 A 
ATOM     35  C   UNL A   1      39.903  29.354  29.327  1.00  0.00    -0.014 A 
BRANCH  35  36
ATOM     36  C   UNL A   1      41.294  28.918  29.067  1.00  0.00     0.031 A 
ATOM     37  C   UNL A   1      42.382  29.954  29.084  1.00  0.00     0.074 A 
ATOM     38  C   UNL A   1      41.578  27.636  28.781  1.00  0.00     0.049 A 
ATOM     39  N   UNL A   1      43.637  29.846  28.736  1.00  0.00    -0.248 NA
ATOM     40  C   UNL A   1      41.996  31.297  29.547  1.00  0.00     0.031 C 
ATOM     41  C   UNL A   1      40.614  26.538  28.773  1.00  0.00     0.029 A 
ATOM     42  N   UNL A   1      42.762  27.050  28.409  1.00  0.00    -0.354 N 
ATOM     43  C   UNL A   1      44.189  31.107  28.925  1.00  0.00     0.074 A 
ATOM     44  C   UNL A   1      43.124  31.970  29.389  1.00  0.00     0.031 C 
ATOM     45  C   UNL A   1      41.238  25.414  28.379  1.00  0.00     0.029 A 
ATOM     46  C   UNL A   1      42.633  25.725  28.067  1.00  0.00     0.049 A 
ATOM     47  H   UNL A   1      43.620  27.531  28.390  1.00  0.00     0.167 HD
ATOM     48  C   UNL A   1      45.469  31.506  28.732  1.00  0.00     0.037 A 
ATOM     49  C   UNL A   1      43.527  24.874  27.522  1.00  0.00     0.037 A 
ATOM     50  C   UNL A   1      46.515  30.642  28.250  1.00  0.00     0.049 A 
ATOM     51  C   UNL A   1      44.928  25.357  27.238  1.00  0.00     0.074 A 
ATOM     52  C   UNL A   1      47.844  30.946  28.018  1.00  0.00     0.029 A 
ATOM     53  N   UNL A   1      46.346  29.306  27.914  1.00  0.00    -0.354 N 
ATOM     54  N   UNL A   1      45.446  26.547  27.430  1.00  0.00    -0.248 NA
ATOM     55  C   UNL A   1      45.867  24.381  26.667  1.00  0.00     0.031 C 
ATOM     56  C   UNL A   1      48.466  29.810  27.491  1.00  0.00     0.029 A 
ATOM     57  C   UNL A   1      47.543  28.777  27.457  1.00  0.00     0.049 A 
ATOM     58  H   UNL A   1      45.501  28.807  27.988  1.00  0.00     0.167 HD
ATOM     59  C   UNL A   1      46.777  26.454  27.035  1.00  0.00     0.074 A 
ATOM     60  C   UNL A   1      46.986  25.089  26.599  1.00  0.00     0.031 C 
ATOM     61  C   UNL A   1      47.741  27.410  27.037  1.00  0.00     0.037 A 
BRANCH  48  62
ATOM     62  C   UNL A   1      45.794  32.948  29.013  1.00  0.00     0.058 A 
ATOM     63  C   UNL A   1      46.244  33.373  30.274  1.00  0.00     0.135 A 
ATOM     64  C   UNL A   1      45.664  33.918  28.006  1.00  0.00     0.135 A 
ATOM     65  F   UNL A   1      46.369  32.492  31.280  1.00  0.00    -0.206 F 
ATOM     66  C   UNL A   1      46.519  34.710  30.536  1.00  0.00     0.059 A 
ATOM     67  C   UNL A   1      45.965  35.258  28.237  1.00  0.00     0.059 A 
ATOM     68  F   UNL A   1      45.235  33.570  26.782  1.00  0.00    -0.206 F 
ATOM     69  C   UNL A   1      46.374  35.646  29.511  1.00  0.00     0.060 A 
BRANCH  69  70
ATOM     70  S   UNL A   1      46.724  37.379  29.872  1.00  0.00     0.124 S 
ATOM     71  O   UNL A   1      46.250  38.032  28.655  1.00  0.00    -0.237 OA
ATOM     72  O   UNL A   1      45.926  37.615  31.070  1.00  0.00    -0.237 OA
ATOM     73  O   UNL A   1      48.171  37.402  30.071  1.00  0.00    -0.744 OA
ENDBRANCH  69  70
ENDBRANCH  48  62
BRANCH  49  74
ATOM     74  C   UNL A   1      43.116  23.484  27.187  1.00  0.00     0.058 A 
ATOM     75  C   UNL A   1      42.781  23.122  25.874  1.00  0.00     0.135 A 
ATOM     76  C   UNL A   1      43.058  22.486  28.173  1.00  0.00     0.135 A 
ATOM     77  F   UNL A   1      42.806  24.043  24.898  1.00  0.00    -0.206 F 
ATOM     78  C   UNL A   1      42.396  21.824  25.550  1.00  0.00     0.059 A 
ATOM     79  C   UNL A   1      42.705  21.174  27.869  1.00  0.00     0.059 A 
ATOM     80  F   UNL A   1      43.377  22.777  29.444  1.00  0.00    -0.206 F 
ATOM     81  C   UNL A   1      42.367  20.855  26.555  1.00  0.00     0.060 A 
BRANCH  81  82
ATOM     82  S   UNL A   1      41.926  19.162  26.110  1.00  0.00     0.124 S 
ATOM     83  O   UNL A   1      42.302  18.434  27.317  1.00  0.00    -0.237 OA
ATOM     84  O   UNL A   1      40.495  19.278  25.854  1.00  0.00    -0.237 OA
ATOM     85  O   UNL A   1      42.747  18.899  24.933  1.00  0.00    -0.744 OA
ENDBRANCH  81  82
ENDBRANCH  49  74
BRANCH  61  86
ATOM     86  C   UNL A   1      49.128  27.010  26.607  1.00  0.00     0.058 A 
ATOM     87  C   UNL A   1      50.080  26.524  27.517  1.00  0.00     0.135 A 
ATOM     88  C   UNL A   1      49.485  27.052  25.249  1.00  0.00     0.135 A 
ATOM     89  F   UNL A   1      49.795  26.466  28.827  1.00  0.00    -0.206 F 
ATOM     90  C   UNL A   1      51.342  26.113  27.099  1.00  0.00     0.059 A 
ATOM     91  C   UNL A   1      50.730  26.617  24.804  1.00  0.00     0.059 A 
ATOM     92  F   UNL A   1      48.610  27.498  24.333  1.00  0.00    -0.206 F 
ATOM     93  C   UNL A   1      51.657  26.160  25.738  1.00  0.00     0.060 A 
BRANCH  93  94
ATOM     94  S   UNL A   1      53.283  25.586  25.205  1.00  0.00     0.124 S 
ATOM     95  O   UNL A   1      54.163  26.295  26.127  1.00  0.00    -0.237 OA
ATOM     96  O   UNL A   1      53.185  24.144  25.405  1.00  0.00    -0.237 OA
ATOM     97  O   UNL A   1      53.356  26.015  23.811  1.00  0.00    -0.744 OA
ENDBRANCH  93  94
ENDBRANCH  61  86
ENDBRANCH  35  36
ENDBRANCH  28  30
ENDBRANCH  27  28
ENDBRANCH  26  27
ENDBRANCH  25  26
ENDBRANCH  24  25
ENDBRANCH   1  24
TORSDOF 21
ENDMDL
MODEL 2
REMARK VINA RESULT:     -10.0      1.077      2.116
REMARK SMILES Cc1cc(Cl)ccc1-c1ccc(C(=O)OCCOCCOCCOC(=O)c2ccc(-c3c4nc(c(-c5c(F)cc(S(=O)(=O)[O-])cc5F)c5ccc([nH]5)c(-c5c(F)cc(S(=O)(=O)[O-])cc5F)c5nc(c(-c6c(F)cc(S(=O)(=O)[O-])cc6F)c6ccc3[nH]6)C=C5)C=C4)cc2)c(Cl)c1
REMARK SMILES IDX 20 1 19 2 18 3 17 4 16 5 15 6 13 7 14 8 12 9 9 10 10 11
REMARK SMILES IDX 95 12 11 13 93 14 94 15 8 16 1 17 2 18 3 19 4 20 7 21 5 22
REMARK SMILES IDX 6 23 21 24 22 25 23 26 24 27 25 28 26 29 27 30 28 31 92 32
REMARK SMILES IDX 29 33 91 34 30 35 31 36 32 37 85 38 33 39 90 40 84 41 86 42
REMARK SMILES IDX 34 43 89 44 83 45 82 46 35 48 69 49 48 50 68 51 49 52 52 53
REMARK SMILES IDX 67 54 87 55 50 56 51 57 66 59 88 60 53 61 36 62 37 63 46 64
REMARK SMILES IDX 38 65 39 66 45 67 47 68 40 69 41 70 42 71 43 72 44 73 70 74
REMARK SMILES IDX 71 75 80 76 72 77 73 78 79 79 81 80 74 81 75 82 76 83 77 84
REMARK SMILES IDX 78 85 54 86 55 87 64 88 56 89 57 90 63 91 65 92 58 93 59 94
REMARK SMILES IDX 60 95 61 96 62 97
REMARK H PARENT 86 47 52 58
REMARK Flexibility Score: inf
ROOT
ATOM      1  C   UNL A   1      33.052  30.262  27.001  1.00  0.00     0.188 C 
ENDROOT
BRANCH   1   2
ATOM      2  C   UNL A   1      31.863  30.909  26.257  1.00  0.00     0.188 C 
BRANCH   2   3
ATOM      3  O   UNL A   1      31.143  30.108  25.348  1.00  0.00    -0.376 OA
BRANCH   3   4
ATOM      4  C   UNL A   1      31.477  28.741  25.166  1.00  0.00     0.202 C 
BRANCH   4   5
ATOM      5  C   UNL A   1      32.333  28.182  24.016  1.00  0.00     0.261 C 
BRANCH   5   6
ATOM      6  O   UNL A   1      31.625  27.627  22.904  1.00  0.00    -0.460 OA
BRANCH   6   7
ATOM      7  C   UNL A   1      30.615  26.778  23.218  1.00  0.00     0.339 C 
ATOM      8  O   UNL A   1      29.420  26.986  23.089  1.00  0.00    -0.246 OA
BRANCH   7   9
ATOM      9  C   UNL A   1      31.145  25.444  23.561  1.00  0.00     0.078 A 
ATOM     10  C   UNL A   1      32.084  22.814  23.963  1.00  0.00    -0.017 A 
ATOM     11  C   UNL A   1      32.433  23.522  22.805  1.00  0.00     0.010 A 
ATOM     12  C   UNL A   1      31.320  23.474  24.945  1.00  0.00     0.030 A 
ATOM     13  C   UNL A   1      31.964  24.824  22.604  1.00  0.00     0.018 A 
ATOM     14  C   UNL A   1      30.842  24.777  24.748  1.00  0.00     0.056 A 
ATOM     15  Cl  UNL A   1      29.819  25.443  25.968  1.00  0.00    -0.083 Cl
BRANCH  10  16
ATOM     16  C   UNL A   1      32.339  21.365  24.074  1.00  0.00    -0.015 A 
ATOM     17  C   UNL A   1      31.785  20.798  21.624  1.00  0.00     0.045 C 
ATOM     18  C   UNL A   1      32.201  20.433  23.024  1.00  0.00    -0.042 A 
ATOM     19  C   UNL A   1      32.452  19.066  23.279  1.00  0.00     0.024 A 
ATOM     20  C   UNL A   1      32.835  18.628  24.545  1.00  0.00     0.041 A 
ATOM     21  C   UNL A   1      32.721  20.885  25.347  1.00  0.00     0.010 A 
ATOM     22  Cl  UNL A   1      33.142  16.959  24.826  1.00  0.00    -0.084 Cl
ATOM     23  C   UNL A   1      32.970  19.535  25.585  1.00  0.00     0.021 A 
ENDBRANCH  10  16
ENDBRANCH   7   9
ENDBRANCH   6   7
ENDBRANCH   5   6
ENDBRANCH   4   5
ENDBRANCH   3   4
ENDBRANCH   2   3
ENDBRANCH   1   2
BRANCH   1  24
ATOM     24  O   UNL A   1      34.228  30.999  27.267  1.00  0.00    -0.376 OA
BRANCH  24  25
ATOM     25  C   UNL A   1      34.209  32.031  28.238  1.00  0.00     0.202 C 
BRANCH  25  26
ATOM     26  C   UNL A   1      35.087  32.023  29.503  1.00  0.00     0.261 C 
BRANCH  26  27
ATOM     27  O   UNL A   1      35.822  30.825  29.775  1.00  0.00    -0.460 OA
BRANCH  27  28
ATOM     28  C   UNL A   1      36.630  30.873  30.861  1.00  0.00     0.338 C 
ATOM     29  O   UNL A   1      36.294  30.977  32.033  1.00  0.00    -0.246 OA
BRANCH  28  30
ATOM     30  C   UNL A   1      38.013  30.601  30.438  1.00  0.00     0.060 A 
ATOM     31  C   UNL A   1      38.294  30.448  29.072  1.00  0.00     0.016 A 
ATOM     32  C   UNL A   1      39.022  30.470  31.391  1.00  0.00     0.016 A 
ATOM     33  C   UNL A   1      39.593  30.162  28.653  1.00  0.00     0.010 A 
ATOM     34  C   UNL A   1      40.315  30.156  30.972  1.00  0.00     0.010 A 
ATOM     35  C   UNL A   1      40.604  29.983  29.605  1.00  0.00    -0.014 A 
BRANCH  35  36
ATOM     36  C   UNL A   1      41.931  29.458  29.208  1.00  0.00     0.031 A 
ATOM     37  C   UNL A   1      43.072  30.427  29.076  1.00  0.00     0.074 A 
ATOM     38  C   UNL A   1      42.107  28.155  28.930  1.00  0.00     0.049 A 
ATOM     39  N   UNL A   1      44.272  30.235  28.597  1.00  0.00    -0.248 NA
ATOM     40  C   UNL A   1      42.816  31.801  29.538  1.00  0.00     0.031 C 
ATOM     41  C   UNL A   1      41.088  27.117  29.060  1.00  0.00     0.029 A 
ATOM     42  N   UNL A   1      43.208  27.490  28.450  1.00  0.00    -0.354 N 
ATOM     43  C   UNL A   1      44.913  31.466  28.686  1.00  0.00     0.074 A 
ATOM     44  C   UNL A   1      43.957  32.402  29.238  1.00  0.00     0.031 C 
ATOM     45  C   UNL A   1      41.599  25.949  28.634  1.00  0.00     0.029 A 
ATOM     46  C   UNL A   1      42.966  26.168  28.163  1.00  0.00     0.049 A 
ATOM     47  H   UNL A   1      44.085  27.918  28.323  1.00  0.00     0.167 HD
ATOM     48  C   UNL A   1      46.184  31.782  28.344  1.00  0.00     0.037 A 
ATOM     49  C   UNL A   1      43.745  25.252  27.549  1.00  0.00     0.037 A 
ATOM     50  C   UNL A   1      47.119  30.846  27.776  1.00  0.00     0.049 A 
ATOM     51  C   UNL A   1      45.130  25.643  27.101  1.00  0.00     0.074 A 
ATOM     52  C   UNL A   1      48.430  31.064  27.393  1.00  0.00     0.029 A 
ATOM     53  N   UNL A   1      46.839  29.515  27.500  1.00  0.00    -0.354 N 
ATOM     54  N   UNL A   1      45.734  26.805  27.199  1.00  0.00    -0.248 NA
ATOM     55  C   UNL A   1      45.943  24.600  26.460  1.00  0.00     0.031 C 
ATOM     56  C   UNL A   1      48.924  29.881  26.835  1.00  0.00     0.029 A 
ATOM     57  C   UNL A   1      47.945  28.905  26.932  1.00  0.00     0.049 A 
ATOM     58  H   UNL A   1      45.979  29.070  27.681  1.00  0.00     0.167 HD
ATOM     59  C   UNL A   1      47.006  26.623  26.664  1.00  0.00     0.074 A 
ATOM     60  C   UNL A   1      47.087  25.238  26.249  1.00  0.00     0.031 C 
ATOM     61  C   UNL A   1      48.017  27.519  26.533  1.00  0.00     0.037 A 
BRANCH  48  62
ATOM     62  C   UNL A   1      46.620  33.208  28.545  1.00  0.00     0.058 A 
ATOM     63  C   UNL A   1      46.468  34.177  27.540  1.00  0.00     0.135 A 
ATOM     64  C   UNL A   1      47.187  33.615  29.763  1.00  0.00     0.135 A 
ATOM     65  F   UNL A   1      45.949  33.840  26.348  1.00  0.00    -0.206 F 
ATOM     66  C   UNL A   1      46.896  35.487  27.722  1.00  0.00     0.059 A 
ATOM     67  C   UNL A   1      47.593  34.929  29.979  1.00  0.00     0.059 A 
ATOM     68  F   UNL A   1      47.360  32.731  30.759  1.00  0.00    -0.206 F 
ATOM     69  C   UNL A   1      47.459  35.854  28.945  1.00  0.00     0.060 A 
BRANCH  69  70
ATOM     70  S   UNL A   1      48.019  37.556  29.159  1.00  0.00     0.124 S 
ATOM     71  O   UNL A   1      48.305  37.590  30.591  1.00  0.00    -0.237 OA
ATOM     72  O   UNL A   1      49.182  37.614  28.280  1.00  0.00    -0.237 OA
ATOM     73  O   UNL A   1      46.871  38.350  28.731  1.00  0.00    -0.744 OA
ENDBRANCH  69  70
ENDBRANCH  48  62
BRANCH  49  74
ATOM     74  C   UNL A   1      43.220  23.882  27.302  1.00  0.00     0.058 A 
ATOM     75  C   UNL A   1      43.080  22.958  28.348  1.00  0.00     0.135 A 
ATOM     76  C   UNL A   1      42.840  23.471  26.014  1.00  0.00     0.135 A 
ATOM     77  F   UNL A   1      43.442  23.297  29.595  1.00  0.00    -0.206 F 
ATOM     78  C   UNL A   1      42.590  21.674  28.127  1.00  0.00     0.059 A 
ATOM     79  C   UNL A   1      42.320  22.203  25.772  1.00  0.00     0.059 A 
ATOM     80  F   UNL A   1      42.947  24.319  24.979  1.00  0.00    -0.206 F 
ATOM     81  C   UNL A   1      42.206  21.309  26.835  1.00  0.00     0.060 A 
BRANCH  81  82
ATOM     82  S   UNL A   1      41.514  19.661  26.572  1.00  0.00     0.124 S 
ATOM     83  O   UNL A   1      42.447  18.828  27.322  1.00  0.00    -0.237 OA
ATOM     84  O   UNL A   1      40.179  19.799  27.144  1.00  0.00    -0.237 OA
ATOM     85  O   UNL A   1      41.555  19.507  25.122  1.00  0.00    -0.744 OA
ENDBRANCH  81  82
ENDBRANCH  49  74
BRANCH  61  86
ATOM     86  C   UNL A   1      49.323  27.026  25.967  1.00  0.00     0.058 A 
ATOM     87  C   UNL A   1      49.662  27.197  24.615  1.00  0.00     0.135 A 
ATOM     88  C   UNL A   1      50.278  26.433  26.810  1.00  0.00     0.135 A 
ATOM     89  F   UNL A   1      48.786  27.752  23.764  1.00  0.00    -0.206 F 
ATOM     90  C   UNL A   1      50.892  26.778  24.116  1.00  0.00     0.059 A 
ATOM     91  C   UNL A   1      51.525  26.036  26.339  1.00  0.00     0.059 A 
ATOM     92  F   UNL A   1      50.011  26.255  28.114  1.00  0.00    -0.206 F 
ATOM     93  C   UNL A   1      51.819  26.202  24.987  1.00  0.00     0.060 A 
BRANCH  93  94
ATOM     94  S   UNL A   1      53.426  25.701  24.335  1.00  0.00     0.124 S 
ATOM     95  O   UNL A   1      53.258  25.959  22.909  1.00  0.00    -0.237 OA
ATOM     96  O   UNL A   1      54.340  26.597  25.037  1.00  0.00    -0.237 OA
ATOM     97  O   UNL A   1      53.524  24.294  24.711  1.00  0.00    -0.744 OA
ENDBRANCH  93  94
ENDBRANCH  61  86
ENDBRANCH  35  36
ENDBRANCH  28  30
ENDBRANCH  27  28
ENDBRANCH  26  27
ENDBRANCH  25  26
ENDBRANCH  24  25
ENDBRANCH   1  24
TORSDOF 21
ENDMDL
MODEL 3
REMARK VINA RESULT:      -9.9      5.078     10.257
REMARK SMILES Cc1cc(Cl)ccc1-c1ccc(C(=O)OCCOCCOCCOC(=O)c2ccc(-c3c4nc(c(-c5c(F)cc(S(=O)(=O)[O-])cc5F)c5ccc([nH]5)c(-c5c(F)cc(S(=O)(=O)[O-])cc5F)c5nc(c(-c6c(F)cc(S(=O)(=O)[O-])cc6F)c6ccc3[nH]6)C=C5)C=C4)cc2)c(Cl)c1
REMARK SMILES IDX 20 1 19 2 18 3 17 4 16 5 15 6 13 7 14 8 12 9 9 10 10 11
REMARK SMILES IDX 95 12 11 13 93 14 94 15 8 16 1 17 2 18 3 19 4 20 7 21 5 22
REMARK SMILES IDX 6 23 21 24 22 25 23 26 24 27 25 28 26 29 27 30 28 31 92 32
REMARK SMILES IDX 29 33 91 34 30 35 31 36 32 37 85 38 33 39 90 40 84 41 86 42
REMARK SMILES IDX 34 43 89 44 83 45 82 46 35 48 69 49 48 50 68 51 49 52 52 53
REMARK SMILES IDX 67 54 87 55 50 56 51 57 66 59 88 60 53 61 36 62 37 63 46 64
REMARK SMILES IDX 38 65 39 66 45 67 47 68 40 69 41 70 42 71 43 72 44 73 70 74
REMARK SMILES IDX 71 75 80 76 72 77 73 78 79 79 81 80 74 81 75 82 76 83 77 84
REMARK SMILES IDX 78 85 54 86 55 87 64 88 56 89 57 90 63 91 65 92 58 93 59 94
REMARK SMILES IDX 60 95 61 96 62 97
REMARK H PARENT 86 47 52 58
REMARK Flexibility Score: inf
ROOT
ATOM      1  C   UNL A   1      37.215  34.283  32.154  1.00  0.00     0.188 C 
ENDROOT
BRANCH   1   2
ATOM      2  C   UNL A   1      38.639  34.648  31.681  1.00  0.00     0.188 C 
BRANCH   2   3
ATOM      3  O   UNL A   1      39.014  34.273  30.375  1.00  0.00    -0.376 OA
BRANCH   3   4
ATOM      4  C   UNL A   1      39.639  35.205  29.507  1.00  0.00     0.202 C 
BRANCH   4   5
ATOM      5  C   UNL A   1      41.151  35.293  29.238  1.00  0.00     0.261 C 
BRANCH   5   6
ATOM      6  O   UNL A   1      41.649  36.561  28.803  1.00  0.00    -0.460 OA
BRANCH   6   7
ATOM      7  C   UNL A   1      42.215  36.575  27.570  1.00  0.00     0.339 C 
ATOM      8  O   UNL A   1      42.190  35.678  26.745  1.00  0.00    -0.246 OA
BRANCH   7   9
ATOM      9  C   UNL A   1      42.717  37.924  27.244  1.00  0.00     0.078 A 
ATOM     10  C   UNL A   1      43.453  40.532  26.457  1.00  0.00    -0.017 A 
ATOM     11  C   UNL A   1      42.148  40.264  26.890  1.00  0.00     0.010 A 
ATOM     12  C   UNL A   1      44.398  39.487  26.496  1.00  0.00     0.030 A 
ATOM     13  C   UNL A   1      41.781  38.971  27.275  1.00  0.00     0.018 A 
ATOM     14  C   UNL A   1      44.036  38.187  26.877  1.00  0.00     0.056 A 
ATOM     15  Cl  UNL A   1      45.248  36.962  26.776  1.00  0.00    -0.083 Cl
BRANCH  10  16
ATOM     16  C   UNL A   1      43.789  41.808  25.799  1.00  0.00    -0.015 A 
ATOM     17  C   UNL A   1      45.358  42.670  27.650  1.00  0.00     0.045 C 
ATOM     18  C   UNL A   1      44.648  42.795  26.329  1.00  0.00    -0.042 A 
ATOM     19  C   UNL A   1      44.860  43.987  25.601  1.00  0.00     0.024 A 
ATOM     20  C   UNL A   1      44.240  44.199  24.370  1.00  0.00     0.041 A 
ATOM     21  C   UNL A   1      43.171  42.060  24.552  1.00  0.00     0.010 A 
ATOM     22  Cl  UNL A   1      44.523  45.656  23.500  1.00  0.00    -0.084 Cl
ATOM     23  C   UNL A   1      43.393  43.238  23.842  1.00  0.00     0.021 A 
ENDBRANCH  10  16
ENDBRANCH   7   9
ENDBRANCH   6   7
ENDBRANCH   5   6
ENDBRANCH   4   5
ENDBRANCH   3   4
ENDBRANCH   2   3
ENDBRANCH   1   2
BRANCH   1  24
ATOM     24  O   UNL A   1      36.083  34.658  31.397  1.00  0.00    -0.376 OA
BRANCH  24  25
ATOM     25  C   UNL A   1      35.091  33.693  31.085  1.00  0.00     0.202 C 
BRANCH  25  26
ATOM     26  C   UNL A   1      35.020  32.953  29.738  1.00  0.00     0.261 C 
BRANCH  26  27
ATOM     27  O   UNL A   1      34.610  31.583  29.771  1.00  0.00    -0.460 OA
BRANCH  27  28
ATOM     28  C   UNL A   1      34.852  30.875  28.642  1.00  0.00     0.338 C 
ATOM     29  O   UNL A   1      34.165  30.835  27.629  1.00  0.00    -0.246 OA
BRANCH  28  30
ATOM     30  C   UNL A   1      36.191  30.273  28.734  1.00  0.00     0.060 A 
ATOM     31  C   UNL A   1      36.642  29.790  29.972  1.00  0.00     0.016 A 
ATOM     32  C   UNL A   1      37.009  30.213  27.607  1.00  0.00     0.016 A 
ATOM     33  C   UNL A   1      37.918  29.241  30.086  1.00  0.00     0.010 A 
ATOM     34  C   UNL A   1      38.296  29.689  27.729  1.00  0.00     0.010 A 
ATOM     35  C   UNL A   1      38.764  29.218  28.971  1.00  0.00    -0.014 A 
BRANCH  35  36
ATOM     36  C   UNL A   1      40.193  28.854  29.114  1.00  0.00     0.031 A 
ATOM     37  C   UNL A   1      41.167  29.929  29.504  1.00  0.00     0.074 A 
ATOM     38  C   UNL A   1      40.620  27.606  28.862  1.00  0.00     0.049 A 
ATOM     39  N   UNL A   1      42.472  29.893  29.539  1.00  0.00    -0.248 NA
ATOM     40  C   UNL A   1      40.586  31.224  29.897  1.00  0.00     0.031 C 
ATOM     41  C   UNL A   1      39.765  26.473  28.514  1.00  0.00     0.029 A 
ATOM     42  N   UNL A   1      41.892  27.091  28.831  1.00  0.00    -0.354 N 
ATOM     43  C   UNL A   1      42.872  31.161  29.945  1.00  0.00     0.074 A 
ATOM     44  C   UNL A   1      41.671  31.950  30.114  1.00  0.00     0.031 C 
ATOM     45  C   UNL A   1      40.540  25.402  28.269  1.00  0.00     0.029 A 
ATOM     46  C   UNL A   1      41.945  25.787  28.400  1.00  0.00     0.049 A 
ATOM     47  H   UNL A   1      42.690  27.606  29.090  1.00  0.00     0.167 HD
ATOM     48  C   UNL A   1      44.127  31.621  30.161  1.00  0.00     0.037 A 
ATOM     49  C   UNL A   1      43.006  25.008  28.105  1.00  0.00     0.037 A 
ATOM     50  C   UNL A   1      45.316  30.832  29.969  1.00  0.00     0.049 A 
ATOM     51  C   UNL A   1      44.398  25.563  28.274  1.00  0.00     0.074 A 
ATOM     52  C   UNL A   1      46.635  31.202  30.158  1.00  0.00     0.029 A 
ATOM     53  N   UNL A   1      45.330  29.514  29.533  1.00  0.00    -0.354 N 
ATOM     54  N   UNL A   1      44.769  26.759  28.669  1.00  0.00    -0.248 NA
ATOM     55  C   UNL A   1      45.518  24.663  27.960  1.00  0.00     0.031 C 
ATOM     56  C   UNL A   1      47.448  30.128  29.784  1.00  0.00     0.029 A 
ATOM     57  C   UNL A   1      46.636  29.064  29.427  1.00  0.00     0.049 A 
ATOM     58  H   UNL A   1      44.530  28.979  29.328  1.00  0.00     0.167 HD
ATOM     59  C   UNL A   1      46.161  26.744  28.682  1.00  0.00     0.074 A 
ATOM     60  C   UNL A   1      46.566  25.419  28.262  1.00  0.00     0.031 C 
ATOM     61  C   UNL A   1      47.025  27.735  29.018  1.00  0.00     0.037 A 
BRANCH  48  62
ATOM     62  C   UNL A   1      44.273  33.055  30.597  1.00  0.00     0.058 A 
ATOM     63  C   UNL A   1      44.603  34.074  29.688  1.00  0.00     0.135 A 
ATOM     64  C   UNL A   1      44.070  33.416  31.938  1.00  0.00     0.135 A 
ATOM     65  F   UNL A   1      44.827  33.783  28.397  1.00  0.00    -0.206 F 
ATOM     66  C   UNL A   1      44.762  35.392  30.100  1.00  0.00     0.059 A 
ATOM     67  C   UNL A   1      44.192  34.735  32.367  1.00  0.00     0.059 A 
ATOM     68  F   UNL A   1      43.756  32.483  32.851  1.00  0.00    -0.206 F 
ATOM     69  C   UNL A   1      44.556  35.713  31.443  1.00  0.00     0.060 A 
BRANCH  69  70
ATOM     70  S   UNL A   1      44.777  37.427  31.962  1.00  0.00     0.124 S 
ATOM     71  O   UNL A   1      43.713  38.096  31.219  1.00  0.00    -0.237 OA
ATOM     72  O   UNL A   1      44.584  37.342  33.406  1.00  0.00    -0.237 OA
ATOM     73  O   UNL A   1      46.135  37.742  31.531  1.00  0.00    -0.744 OA
ENDBRANCH  69  70
ENDBRANCH  48  62
BRANCH  49  74
ATOM     74  C   UNL A   1      42.791  23.627  27.595  1.00  0.00     0.058 A 
ATOM     75  C   UNL A   1      42.701  23.366  26.220  1.00  0.00     0.135 A 
ATOM     76  C   UNL A   1      42.680  22.538  28.473  1.00  0.00     0.135 A 
ATOM     77  F   UNL A   1      42.787  24.375  25.339  1.00  0.00    -0.206 F 
ATOM     78  C   UNL A   1      42.501  22.078  25.733  1.00  0.00     0.059 A 
ATOM     79  C   UNL A   1      42.509  21.236  28.010  1.00  0.00     0.059 A 
ATOM     80  F   UNL A   1      42.767  22.731  29.799  1.00  0.00    -0.206 F 
ATOM     81  C   UNL A   1      42.413  21.018  26.637  1.00  0.00     0.060 A 
BRANCH  81  82
ATOM     82  S   UNL A   1      42.215  19.344  25.990  1.00  0.00     0.124 S 
ATOM     83  O   UNL A   1      40.797  19.326  25.649  1.00  0.00    -0.237 OA
ATOM     84  O   UNL A   1      43.142  19.342  24.864  1.00  0.00    -0.237 OA
ATOM     85  O   UNL A   1      42.604  18.500  27.115  1.00  0.00    -0.744 OA
ENDBRANCH  81  82
ENDBRANCH  49  74
BRANCH  61  86
ATOM     86  C   UNL A   1      48.498  27.418  29.000  1.00  0.00     0.058 A 
ATOM     87  C   UNL A   1      49.260  27.477  27.822  1.00  0.00     0.135 A 
ATOM     88  C   UNL A   1      49.168  27.114  30.197  1.00  0.00     0.135 A 
ATOM     89  F   UNL A   1      48.671  27.757  26.650  1.00  0.00    -0.206 F 
ATOM     90  C   UNL A   1      50.629  27.227  27.829  1.00  0.00     0.059 A 
ATOM     91  C   UNL A   1      50.542  26.892  30.232  1.00  0.00     0.059 A 
ATOM     92  F   UNL A   1      48.491  27.055  31.355  1.00  0.00    -0.206 F 
ATOM     93  C   UNL A   1      51.262  26.939  29.041  1.00  0.00     0.060 A 
BRANCH  93  94
ATOM     94  S   UNL A   1      53.045  26.658  29.041  1.00  0.00     0.124 S 
ATOM     95  O   UNL A   1      53.226  25.911  30.282  1.00  0.00    -0.237 OA
ATOM     96  O   UNL A   1      53.241  25.898  27.811  1.00  0.00    -0.237 OA
ATOM     97  O   UNL A   1      53.604  28.006  29.033  1.00  0.00    -0.744 OA
ENDBRANCH  93  94
ENDBRANCH  61  86
ENDBRANCH  35  36
ENDBRANCH  28  30
ENDBRANCH  27  28
ENDBRANCH  26  27
ENDBRANCH  25  26
ENDBRANCH  24  25
ENDBRANCH   1  24
TORSDOF 21
ENDMDL
