MODEL 1
REMARK VINA RESULT:     -10.0      0.000      0.000
REMARK SMILES Cc1ccccc1N(CCC(=O)OCCOCCOCCOC(=O)c1ccc(-c2c3nc(c(-c4c(F)cc(S(=O)(=O)[O-])cc4F)c4ccc([nH]4)c(-c4c(F)cc(S(=O)(=O)[O-])cc4F)c4nc(c(-c5c(F)cc(S(=O)(=O)[O-])cc5F)c5ccc2[nH]5)C=C4)C=C3)cc1)[C@@H](C)[C@@H](C)O
REMARK SMILES IDX 17 1 16 2 15 3 14 4 13 5 11 6 12 7 10 8 9 9 8 10 7 11 1 12
REMARK SMILES IDX 2 13 3 14 4 15 6 16 5 17 91 18 92 19 93 20 94 21 95 22 18 24
REMARK SMILES IDX 19 25 20 26 21 27 22 28 23 29 24 30 25 31 26 32 90 33 27 34
REMARK SMILES IDX 89 35 28 36 29 37 30 38 83 39 31 40 88 41 82 42 84 43 32 44
REMARK SMILES IDX 87 45 81 46 80 47 33 49 67 50 46 51 66 52 47 53 50 54 65 55
REMARK SMILES IDX 85 56 48 57 49 58 64 60 86 61 51 62 34 63 35 64 44 65 36 66
REMARK SMILES IDX 37 67 43 68 45 69 38 70 39 71 40 72 41 73 42 74 68 75 69 76
REMARK SMILES IDX 78 77 70 78 71 79 77 80 79 81 72 82 73 83 74 84 75 85 76 86
REMARK SMILES IDX 52 87 53 88 62 89 54 90 55 91 61 92 63 93 56 94 57 95 58 96
REMARK SMILES IDX 59 97 60 98
REMARK H PARENT 95 23 84 48 50 59
REMARK Flexibility Score: inf
ROOT
ATOM      1  C   UNL A   1      31.559  28.832  24.368  1.00  0.00     0.188 C 
ENDROOT
BRANCH   1   2
ATOM      2  O   UNL A   1      30.383  28.128  23.959  1.00  0.00    -0.376 OA
BRANCH   2   3
ATOM      3  C   UNL A   1      30.395  26.710  23.848  1.00  0.00     0.202 C 
BRANCH   3   4
ATOM      4  C   UNL A   1      31.723  26.191  23.222  1.00  0.00     0.261 C 
BRANCH   4   5
ATOM      5  O   UNL A   1      31.650  24.980  22.423  1.00  0.00    -0.463 OA
BRANCH   5   6
ATOM      6  C   UNL A   1      32.715  24.668  21.636  1.00  0.00     0.307 C 
ATOM      7  O   UNL A   1      33.177  25.449  20.809  1.00  0.00    -0.252 OA
BRANCH   6   8
ATOM      8  C   UNL A   1      33.165  23.190  21.820  1.00  0.00     0.144 C 
BRANCH   8   9
ATOM      9  C   UNL A   1      32.713  21.973  22.640  1.00  0.00     0.128 C 
BRANCH   9  10
ATOM     10  N   UNL A   1      33.098  21.809  24.050  1.00  0.00    -0.365 N 
BRANCH  10  11
ATOM     11  C   UNL A   1      32.746  22.804  24.965  1.00  0.00     0.040 A 
ATOM     12  C   UNL A   1      34.967  24.170  24.930  1.00  0.00     0.046 C 
ATOM     13  C   UNL A   1      33.554  23.895  25.358  1.00  0.00    -0.028 A 
ATOM     14  C   UNL A   1      33.014  24.934  26.164  1.00  0.00     0.005 A 
ATOM     15  C   UNL A   1      31.719  24.897  26.660  1.00  0.00     0.000 A 
ATOM     16  C   UNL A   1      31.444  22.788  25.551  1.00  0.00     0.026 A 
ATOM     17  C   UNL A   1      30.935  23.802  26.372  1.00  0.00     0.002 A 
ENDBRANCH  10  11
BRANCH  10  18
ATOM     18  C   UNL A   1      33.665  20.501  24.358  1.00  0.00     0.107 C 
ATOM     19  C   UNL A   1      34.925  20.576  25.228  1.00  0.00     0.034 C 
BRANCH  18  20
ATOM     20  C   UNL A   1      32.766  19.252  24.203  1.00  0.00     0.133 C 
ATOM     21  C   UNL A   1      33.597  17.983  23.918  1.00  0.00     0.040 C 
BRANCH  20  22
ATOM     22  O   UNL A   1      32.089  18.997  25.453  1.00  0.00    -0.391 OA
ATOM     23  H   UNL A   1      32.714  18.612  26.087  1.00  0.00     0.211 HD
ENDBRANCH  20  22
ENDBRANCH  18  20
ENDBRANCH  10  18
ENDBRANCH   9  10
ENDBRANCH   8   9
ENDBRANCH   6   8
ENDBRANCH   5   6
ENDBRANCH   4   5
ENDBRANCH   3   4
ENDBRANCH   2   3
ENDBRANCH   1   2
BRANCH   1  24
ATOM     24  C   UNL A   1      31.477  30.046  25.322  1.00  0.00     0.188 C 
BRANCH  24  25
ATOM     25  O   UNL A   1      32.110  29.814  26.576  1.00  0.00    -0.376 OA
BRANCH  25  26
ATOM     26  C   UNL A   1      33.209  28.898  26.584  1.00  0.00     0.202 C 
BRANCH  26  27
ATOM     27  C   UNL A   1      34.562  29.473  27.105  1.00  0.00     0.261 C 
BRANCH  27  28
ATOM     28  O   UNL A   1      34.383  30.729  27.823  1.00  0.00    -0.460 OA
BRANCH  28  29
ATOM     29  C   UNL A   1      35.460  31.607  27.898  1.00  0.00     0.338 C 
ATOM     30  O   UNL A   1      35.414  32.744  27.476  1.00  0.00    -0.246 OA
BRANCH  29  31
ATOM     31  C   UNL A   1      36.474  31.054  28.866  1.00  0.00     0.060 A 
ATOM     32  C   UNL A   1      36.315  30.477  30.137  1.00  0.00     0.016 A 
ATOM     33  C   UNL A   1      37.740  31.043  28.376  1.00  0.00     0.016 A 
ATOM     34  C   UNL A   1      37.400  29.752  30.790  1.00  0.00     0.010 A 
ATOM     35  C   UNL A   1      38.724  30.303  28.966  1.00  0.00     0.010 A 
ATOM     36  C   UNL A   1      38.637  29.595  30.162  1.00  0.00    -0.014 A 
BRANCH  36  37
ATOM     37  C   UNL A   1      39.954  28.900  30.457  1.00  0.00     0.031 A 
ATOM     38  C   UNL A   1      40.470  27.550  29.964  1.00  0.00     0.074 A 
ATOM     39  C   UNL A   1      40.932  29.816  30.737  1.00  0.00     0.049 A 
ATOM     40  N   UNL A   1      41.701  27.168  30.139  1.00  0.00    -0.248 NA
ATOM     41  C   UNL A   1      39.754  26.529  29.190  1.00  0.00     0.031 C 
ATOM     42  C   UNL A   1      42.383  29.787  30.567  1.00  0.00     0.029 A 
ATOM     43  N   UNL A   1      40.738  31.128  31.212  1.00  0.00    -0.354 N 
ATOM     44  C   UNL A   1      42.028  26.181  29.226  1.00  0.00     0.074 A 
ATOM     45  C   UNL A   1      40.748  25.743  28.733  1.00  0.00     0.031 C 
ATOM     46  C   UNL A   1      42.933  30.813  31.245  1.00  0.00     0.029 A 
ATOM     47  C   UNL A   1      41.856  31.445  31.984  1.00  0.00     0.049 A 
ATOM     48  H   UNL A   1      39.963  31.708  31.033  1.00  0.00     0.167 HD
ATOM     49  C   UNL A   1      43.350  25.936  28.939  1.00  0.00     0.037 A 
ATOM     50  C   UNL A   1      41.658  31.455  33.334  1.00  0.00     0.037 A 
ATOM     51  C   UNL A   1      44.218  26.613  29.910  1.00  0.00     0.049 A 
ATOM     52  C   UNL A   1      42.388  30.293  33.966  1.00  0.00     0.074 A 
ATOM     53  C   UNL A   1      45.176  27.609  29.859  1.00  0.00     0.029 A 
ATOM     54  N   UNL A   1      43.977  26.385  31.262  1.00  0.00    -0.354 N 
ATOM     55  N   UNL A   1      42.868  29.304  33.258  1.00  0.00    -0.248 NA
ATOM     56  C   UNL A   1      42.758  30.163  35.368  1.00  0.00     0.031 C 
ATOM     57  C   UNL A   1      45.331  28.120  31.190  1.00  0.00     0.029 A 
ATOM     58  C   UNL A   1      44.519  27.384  32.044  1.00  0.00     0.049 A 
ATOM     59  H   UNL A   1      43.482  25.609  31.615  1.00  0.00     0.167 HD
ATOM     60  C   UNL A   1      43.613  28.469  34.018  1.00  0.00     0.074 A 
ATOM     61  C   UNL A   1      43.490  29.028  35.353  1.00  0.00     0.031 C 
ATOM     62  C   UNL A   1      44.250  27.388  33.483  1.00  0.00     0.037 A 
BRANCH  49  63
ATOM     63  C   UNL A   1      43.921  25.172  27.736  1.00  0.00     0.058 A 
ATOM     64  C   UNL A   1      44.873  24.132  27.905  1.00  0.00     0.135 A 
ATOM     65  C   UNL A   1      43.661  25.492  26.386  1.00  0.00     0.135 A 
ATOM     66  F   UNL A   1      45.253  23.735  29.130  1.00  0.00    -0.206 F 
ATOM     67  C   UNL A   1      45.496  23.465  26.834  1.00  0.00     0.059 A 
ATOM     68  C   UNL A   1      44.239  24.811  25.300  1.00  0.00     0.059 A 
ATOM     69  F   UNL A   1      42.876  26.525  26.055  1.00  0.00    -0.206 F 
ATOM     70  C   UNL A   1      45.169  23.807  25.529  1.00  0.00     0.060 A 
BRANCH  70  71
ATOM     71  S   UNL A   1      45.968  22.950  24.148  1.00  0.00     0.124 S 
ATOM     72  O   UNL A   1      46.466  21.737  24.790  1.00  0.00    -0.237 OA
ATOM     73  O   UNL A   1      44.867  22.762  23.209  1.00  0.00    -0.237 OA
ATOM     74  O   UNL A   1      46.997  23.891  23.712  1.00  0.00    -0.744 OA
ENDBRANCH  70  71
ENDBRANCH  49  63
BRANCH  50  75
ATOM     75  C   UNL A   1      40.343  32.139  33.640  1.00  0.00     0.058 A 
ATOM     76  C   UNL A   1      39.308  31.261  34.052  1.00  0.00     0.135 A 
ATOM     77  C   UNL A   1      40.248  33.465  34.118  1.00  0.00     0.135 A 
ATOM     78  F   UNL A   1      39.342  29.973  33.666  1.00  0.00    -0.206 F 
ATOM     79  C   UNL A   1      38.349  31.611  35.004  1.00  0.00     0.059 A 
ATOM     80  C   UNL A   1      39.274  33.844  35.066  1.00  0.00     0.059 A 
ATOM     81  F   UNL A   1      41.190  34.366  33.797  1.00  0.00    -0.206 F 
ATOM     82  C   UNL A   1      38.376  32.889  35.552  1.00  0.00     0.060 A 
BRANCH  82  83
ATOM     83  S   UNL A   1      37.312  33.209  36.989  1.00  0.00     0.124 S 
ATOM     84  O   UNL A   1      37.959  34.369  37.595  1.00  0.00    -0.237 OA
ATOM     85  O   UNL A   1      36.020  33.479  36.357  1.00  0.00    -0.237 OA
ATOM     86  O   UNL A   1      37.394  31.973  37.757  1.00  0.00    -0.744 OA
ENDBRANCH  82  83
ENDBRANCH  50  75
BRANCH  62  87
ATOM     87  C   UNL A   1      44.628  26.182  34.288  1.00  0.00     0.058 A 
ATOM     88  C   UNL A   1      43.678  25.236  34.708  1.00  0.00     0.135 A 
ATOM     89  C   UNL A   1      45.986  25.816  34.436  1.00  0.00     0.135 A 
ATOM     90  F   UNL A   1      42.364  25.434  34.522  1.00  0.00    -0.206 F 
ATOM     91  C   UNL A   1      44.045  24.026  35.285  1.00  0.00     0.059 A 
ATOM     92  C   UNL A   1      46.373  24.587  34.954  1.00  0.00     0.059 A 
ATOM     93  F   UNL A   1      46.974  26.637  34.045  1.00  0.00    -0.206 F 
ATOM     94  C   UNL A   1      45.394  23.710  35.404  1.00  0.00     0.060 A 
BRANCH  94  95
ATOM     95  S   UNL A   1      45.875  22.138  36.132  1.00  0.00     0.124 S 
ATOM     96  O   UNL A   1      45.572  22.374  37.540  1.00  0.00    -0.237 OA
ATOM     97  O   UNL A   1      45.003  21.182  35.454  1.00  0.00    -0.237 OA
ATOM     98  O   UNL A   1      47.290  22.035  35.794  1.00  0.00    -0.744 OA
ENDBRANCH  94  95
ENDBRANCH  62  87
ENDBRANCH  36  37
ENDBRANCH  29  31
ENDBRANCH  28  29
ENDBRANCH  27  28
ENDBRANCH  26  27
ENDBRANCH  25  26
ENDBRANCH  24  25
ENDBRANCH   1  24
TORSDOF 26
ENDMDL
MODEL 2
REMARK VINA RESULT:      -9.5      1.873      2.836
REMARK SMILES Cc1ccccc1N(CCC(=O)OCCOCCOCCOC(=O)c1ccc(-c2c3nc(c(-c4c(F)cc(S(=O)(=O)[O-])cc4F)c4ccc([nH]4)c(-c4c(F)cc(S(=O)(=O)[O-])cc4F)c4nc(c(-c5c(F)cc(S(=O)(=O)[O-])cc5F)c5ccc2[nH]5)C=C4)C=C3)cc1)[C@@H](C)[C@@H](C)O
REMARK SMILES IDX 17 1 16 2 15 3 14 4 13 5 11 6 12 7 10 8 9 9 8 10 7 11 1 12
REMARK SMILES IDX 2 13 3 14 4 15 6 16 5 17 91 18 92 19 93 20 94 21 95 22 18 24
REMARK SMILES IDX 19 25 20 26 21 27 22 28 23 29 24 30 25 31 26 32 90 33 27 34
REMARK SMILES IDX 89 35 28 36 29 37 30 38 83 39 31 40 88 41 82 42 84 43 32 44
REMARK SMILES IDX 87 45 81 46 80 47 33 49 67 50 46 51 66 52 47 53 50 54 65 55
REMARK SMILES IDX 85 56 48 57 49 58 64 60 86 61 51 62 34 63 35 64 44 65 36 66
REMARK SMILES IDX 37 67 43 68 45 69 38 70 39 71 40 72 41 73 42 74 68 75 69 76
REMARK SMILES IDX 78 77 70 78 71 79 77 80 79 81 72 82 73 83 74 84 75 85 76 86
REMARK SMILES IDX 52 87 53 88 62 89 54 90 55 91 61 92 63 93 56 94 57 95 58 96
REMARK SMILES IDX 59 97 60 98
REMARK H PARENT 95 23 84 48 50 59
REMARK Flexibility Score: inf
ROOT
ATOM      1  C   UNL A   1      32.681  27.706  23.407  1.00  0.00     0.188 C 
ENDROOT
BRANCH   1   2
ATOM      2  O   UNL A   1      31.430  27.692  22.713  1.00  0.00    -0.376 OA
BRANCH   2   3
ATOM      3  C   UNL A   1      31.149  26.677  21.758  1.00  0.00     0.202 C 
BRANCH   3   4
ATOM      4  C   UNL A   1      32.277  25.605  21.705  1.00  0.00     0.261 C 
BRANCH   4   5
ATOM      5  O   UNL A   1      32.083  24.401  22.496  1.00  0.00    -0.463 OA
BRANCH   5   6
ATOM      6  C   UNL A   1      33.033  23.429  22.423  1.00  0.00     0.307 C 
ATOM      7  O   UNL A   1      32.870  22.392  21.787  1.00  0.00    -0.252 OA
BRANCH   6   8
ATOM      8  C   UNL A   1      34.253  23.736  23.338  1.00  0.00     0.144 C 
BRANCH   8   9
ATOM      9  C   UNL A   1      35.625  23.108  23.629  1.00  0.00     0.128 C 
BRANCH   9  10
ATOM     10  N   UNL A   1      35.890  22.386  24.881  1.00  0.00    -0.365 N 
BRANCH  10  11
ATOM     11  C   UNL A   1      37.118  22.574  25.521  1.00  0.00     0.040 A 
ATOM     12  C   UNL A   1      38.158  20.226  25.065  1.00  0.00     0.046 C 
ATOM     13  C   UNL A   1      38.169  21.632  25.595  1.00  0.00    -0.028 A 
ATOM     14  C   UNL A   1      39.433  22.008  26.124  1.00  0.00     0.005 A 
ATOM     15  C   UNL A   1      39.675  23.266  26.654  1.00  0.00     0.000 A 
ATOM     16  C   UNL A   1      37.403  23.831  26.134  1.00  0.00     0.026 A 
ATOM     17  C   UNL A   1      38.644  24.177  26.683  1.00  0.00     0.002 A 
ENDBRANCH  10  11
BRANCH  10  18
ATOM     18  C   UNL A   1      34.730  21.675  25.408  1.00  0.00     0.107 C 
ATOM     19  C   UNL A   1      34.596  20.247  24.867  1.00  0.00     0.034 C 
BRANCH  18  20
ATOM     20  C   UNL A   1      34.073  22.197  26.707  1.00  0.00     0.133 C 
ATOM     21  C   UNL A   1      32.572  22.498  26.507  1.00  0.00     0.040 C 
BRANCH  20  22
ATOM     22  O   UNL A   1      34.127  21.164  27.716  1.00  0.00    -0.391 OA
ATOM     23  H   UNL A   1      33.935  20.305  27.309  1.00  0.00     0.211 HD
ENDBRANCH  20  22
ENDBRANCH  18  20
ENDBRANCH  10  18
ENDBRANCH   9  10
ENDBRANCH   8   9
ENDBRANCH   6   8
ENDBRANCH   5   6
ENDBRANCH   4   5
ENDBRANCH   3   4
ENDBRANCH   2   3
ENDBRANCH   1   2
BRANCH   1  24
ATOM     24  C   UNL A   1      33.301  29.028  23.916  1.00  0.00     0.188 C 
BRANCH  24  25
ATOM     25  O   UNL A   1      33.079  29.250  25.305  1.00  0.00    -0.376 OA
BRANCH  25  26
ATOM     26  C   UNL A   1      34.217  29.141  26.166  1.00  0.00     0.202 C 
BRANCH  26  27
ATOM     27  C   UNL A   1      33.957  29.465  27.670  1.00  0.00     0.261 C 
BRANCH  27  28
ATOM     28  O   UNL A   1      33.636  30.871  27.880  1.00  0.00    -0.460 OA
BRANCH  28  29
ATOM     29  C   UNL A   1      34.685  31.781  27.974  1.00  0.00     0.338 C 
ATOM     30  O   UNL A   1      34.617  32.911  27.536  1.00  0.00    -0.246 OA
BRANCH  29  31
ATOM     31  C   UNL A   1      35.688  31.269  28.975  1.00  0.00     0.060 A 
ATOM     32  C   UNL A   1      35.511  30.574  30.183  1.00  0.00     0.016 A 
ATOM     33  C   UNL A   1      36.976  31.445  28.588  1.00  0.00     0.016 A 
ATOM     34  C   UNL A   1      36.627  29.927  30.865  1.00  0.00     0.010 A 
ATOM     35  C   UNL A   1      38.000  30.776  29.198  1.00  0.00     0.010 A 
ATOM     36  C   UNL A   1      37.914  29.965  30.327  1.00  0.00    -0.014 A 
BRANCH  36  37
ATOM     37  C   UNL A   1      39.281  29.404  30.674  1.00  0.00     0.031 A 
ATOM     38  C   UNL A   1      39.937  28.101  30.223  1.00  0.00     0.074 A 
ATOM     39  C   UNL A   1      40.160  30.414  30.963  1.00  0.00     0.049 A 
ATOM     40  N   UNL A   1      41.193  27.841  30.441  1.00  0.00    -0.248 NA
ATOM     41  C   UNL A   1      39.345  27.003  29.450  1.00  0.00     0.031 C 
ATOM     42  C   UNL A   1      41.612  30.520  30.835  1.00  0.00     0.029 A 
ATOM     43  N   UNL A   1      39.829  31.709  31.405  1.00  0.00    -0.354 N 
ATOM     44  C   UNL A   1      41.639  26.873  29.558  1.00  0.00     0.074 A 
ATOM     45  C   UNL A   1      40.423  26.307  29.038  1.00  0.00     0.031 C 
ATOM     46  C   UNL A   1      42.041  31.605  31.507  1.00  0.00     0.029 A 
ATOM     47  C   UNL A   1      40.887  32.145  32.202  1.00  0.00     0.049 A 
ATOM     48  H   UNL A   1      39.008  32.210  31.193  1.00  0.00     0.167 HD
ATOM     49  C   UNL A   1      42.987  26.750  29.313  1.00  0.00     0.037 A 
ATOM     50  C   UNL A   1      40.649  32.160  33.545  1.00  0.00     0.037 A 
ATOM     51  C   UNL A   1      43.757  27.523  30.295  1.00  0.00     0.049 A 
ATOM     52  C   UNL A   1      41.466  31.083  34.221  1.00  0.00     0.074 A 
ATOM     53  C   UNL A   1      44.618  28.605  30.251  1.00  0.00     0.029 A 
ATOM     54  N   UNL A   1      43.498  27.297  31.644  1.00  0.00    -0.354 N 
ATOM     55  N   UNL A   1      42.058  30.132  33.547  1.00  0.00    -0.248 NA
ATOM     56  C   UNL A   1      41.804  31.014  35.636  1.00  0.00     0.031 C 
ATOM     57  C   UNL A   1      44.683  29.151  31.575  1.00  0.00     0.029 A 
ATOM     58  C   UNL A   1      43.919  28.357  32.420  1.00  0.00     0.049 A 
ATOM     59  H   UNL A   1      43.068  26.484  31.998  1.00  0.00     0.167 HD
ATOM     60  C   UNL A   1      42.856  29.385  34.345  1.00  0.00     0.074 A 
ATOM     61  C   UNL A   1      42.640  29.954  35.664  1.00  0.00     0.031 C 
ATOM     62  C   UNL A   1      43.608  28.361  33.850  1.00  0.00     0.037 A 
BRANCH  49  63
ATOM     63  C   UNL A   1      43.664  26.023  28.143  1.00  0.00     0.058 A 
ATOM     64  C   UNL A   1      43.784  24.608  28.122  1.00  0.00     0.135 A 
ATOM     65  C   UNL A   1      44.316  26.666  27.070  1.00  0.00     0.135 A 
ATOM     66  F   UNL A   1      43.246  23.854  29.093  1.00  0.00    -0.206 F 
ATOM     67  C   UNL A   1      44.475  23.900  27.121  1.00  0.00     0.059 A 
ATOM     68  C   UNL A   1      44.977  25.978  26.037  1.00  0.00     0.059 A 
ATOM     69  F   UNL A   1      44.398  28.001  27.004  1.00  0.00    -0.206 F 
ATOM     70  C   UNL A   1      45.067  24.593  26.075  1.00  0.00     0.060 A 
BRANCH  70  71
ATOM     71  S   UNL A   1      45.957  23.685  24.785  1.00  0.00     0.124 S 
ATOM     72  O   UNL A   1      46.902  24.688  24.304  1.00  0.00    -0.237 OA
ATOM     73  O   UNL A   1      46.540  22.570  25.524  1.00  0.00    -0.237 OA
ATOM     74  O   UNL A   1      44.906  23.316  23.840  1.00  0.00    -0.744 OA
ENDBRANCH  70  71
ENDBRANCH  49  63
BRANCH  50  75
ATOM     75  C   UNL A   1      39.266  32.721  33.799  1.00  0.00     0.058 A 
ATOM     76  C   UNL A   1      39.063  34.029  33.289  1.00  0.00     0.135 A 
ATOM     77  C   UNL A   1      38.109  31.919  33.908  1.00  0.00     0.135 A 
ATOM     78  F   UNL A   1      40.118  34.846  33.125  1.00  0.00    -0.206 F 
ATOM     79  C   UNL A   1      37.843  34.457  32.762  1.00  0.00     0.059 A 
ATOM     80  C   UNL A   1      36.862  32.341  33.398  1.00  0.00     0.059 A 
ATOM     81  F   UNL A   1      38.202  30.660  34.363  1.00  0.00    -0.206 F 
ATOM     82  C   UNL A   1      36.761  33.583  32.766  1.00  0.00     0.060 A 
BRANCH  82  83
ATOM     83  S   UNL A   1      35.292  34.063  31.812  1.00  0.00     0.124 S 
ATOM     84  O   UNL A   1      34.359  32.983  32.125  1.00  0.00    -0.237 OA
ATOM     85  O   UNL A   1      34.957  35.361  32.398  1.00  0.00    -0.237 OA
ATOM     86  O   UNL A   1      35.773  34.096  30.436  1.00  0.00    -0.744 OA
ENDBRANCH  82  83
ENDBRANCH  50  75
BRANCH  62  87
ATOM     87  C   UNL A   1      44.074  27.210  34.691  1.00  0.00     0.058 A 
ATOM     88  C   UNL A   1      43.255  26.100  34.957  1.00  0.00     0.135 A 
ATOM     89  C   UNL A   1      45.439  27.080  35.033  1.00  0.00     0.135 A 
ATOM     90  F   UNL A   1      41.967  26.074  34.582  1.00  0.00    -0.206 F 
ATOM     91  C   UNL A   1      43.743  24.952  35.570  1.00  0.00     0.059 A 
ATOM     92  C   UNL A   1      45.959  25.919  35.591  1.00  0.00     0.059 A 
ATOM     93  F   UNL A   1      46.313  28.073  34.800  1.00  0.00    -0.206 F 
ATOM     94  C   UNL A   1      45.096  24.870  35.883  1.00  0.00     0.060 A 
BRANCH  94  95
ATOM     95  S   UNL A   1      45.737  23.380  36.658  1.00  0.00     0.124 S 
ATOM     96  O   UNL A   1      45.218  23.521  38.014  1.00  0.00    -0.237 OA
ATOM     97  O   UNL A   1      45.137  22.312  35.863  1.00  0.00    -0.237 OA
ATOM     98  O   UNL A   1      47.181  23.526  36.512  1.00  0.00    -0.744 OA
ENDBRANCH  94  95
ENDBRANCH  62  87
ENDBRANCH  36  37
ENDBRANCH  29  31
ENDBRANCH  28  29
ENDBRANCH  27  28
ENDBRANCH  26  27
ENDBRANCH  25  26
ENDBRANCH  24  25
ENDBRANCH   1  24
TORSDOF 26
ENDMDL
MODEL 3
REMARK VINA RESULT:      -9.5      1.531      1.951
REMARK SMILES Cc1ccccc1N(CCC(=O)OCCOCCOCCOC(=O)c1ccc(-c2c3nc(c(-c4c(F)cc(S(=O)(=O)[O-])cc4F)c4ccc([nH]4)c(-c4c(F)cc(S(=O)(=O)[O-])cc4F)c4nc(c(-c5c(F)cc(S(=O)(=O)[O-])cc5F)c5ccc2[nH]5)C=C4)C=C3)cc1)[C@@H](C)[C@@H](C)O
REMARK SMILES IDX 17 1 16 2 15 3 14 4 13 5 11 6 12 7 10 8 9 9 8 10 7 11 1 12
REMARK SMILES IDX 2 13 3 14 4 15 6 16 5 17 91 18 92 19 93 20 94 21 95 22 18 24
REMARK SMILES IDX 19 25 20 26 21 27 22 28 23 29 24 30 25 31 26 32 90 33 27 34
REMARK SMILES IDX 89 35 28 36 29 37 30 38 83 39 31 40 88 41 82 42 84 43 32 44
REMARK SMILES IDX 87 45 81 46 80 47 33 49 67 50 46 51 66 52 47 53 50 54 65 55
REMARK SMILES IDX 85 56 48 57 49 58 64 60 86 61 51 62 34 63 35 64 44 65 36 66
REMARK SMILES IDX 37 67 43 68 45 69 38 70 39 71 40 72 41 73 42 74 68 75 69 76
REMARK SMILES IDX 78 77 70 78 71 79 77 80 79 81 72 82 73 83 74 84 75 85 76 86
REMARK SMILES IDX 52 87 53 88 62 89 54 90 55 91 61 92 63 93 56 94 57 95 58 96
REMARK SMILES IDX 59 97 60 98
REMARK H PARENT 95 23 84 48 50 59
REMARK Flexibility Score: inf
ROOT
ATOM      1  C   UNL A   1      31.399  28.389  23.880  1.00  0.00     0.188 C 
ENDROOT
BRANCH   1   2
ATOM      2  O   UNL A   1      30.169  27.785  23.472  1.00  0.00    -0.376 OA
BRANCH   2   3
ATOM      3  C   UNL A   1      30.093  26.381  23.259  1.00  0.00     0.202 C 
BRANCH   3   4
ATOM      4  C   UNL A   1      31.181  25.889  22.260  1.00  0.00     0.261 C 
BRANCH   4   5
ATOM      5  O   UNL A   1      31.741  24.568  22.488  1.00  0.00    -0.463 OA
BRANCH   5   6
ATOM      6  C   UNL A   1      32.924  24.263  21.889  1.00  0.00     0.307 C 
ATOM      7  O   UNL A   1      33.251  24.724  20.799  1.00  0.00    -0.252 OA
BRANCH   6   8
ATOM      8  C   UNL A   1      33.717  23.181  22.677  1.00  0.00     0.144 C 
BRANCH   8   9
ATOM      9  C   UNL A   1      33.388  21.990  23.589  1.00  0.00     0.128 C 
BRANCH   9  10
ATOM     10  N   UNL A   1      33.322  22.135  25.051  1.00  0.00    -0.365 N 
BRANCH  10  11
ATOM     11  C   UNL A   1      32.454  23.084  25.595  1.00  0.00     0.040 A 
ATOM     12  C   UNL A   1      34.110  25.094  25.731  1.00  0.00     0.046 C 
ATOM     13  C   UNL A   1      32.771  24.431  25.885  1.00  0.00    -0.028 A 
ATOM     14  C   UNL A   1      31.751  25.340  26.274  1.00  0.00     0.005 A 
ATOM     15  C   UNL A   1      30.434  24.949  26.460  1.00  0.00     0.000 A 
ATOM     16  C   UNL A   1      31.099  22.723  25.861  1.00  0.00     0.026 A 
ATOM     17  C   UNL A   1      30.109  23.624  26.277  1.00  0.00     0.002 A 
ENDBRANCH  10  11
BRANCH  10  18
ATOM     18  C   UNL A   1      34.067  21.113  25.778  1.00  0.00     0.107 C 
ATOM     19  C   UNL A   1      34.708  21.635  27.069  1.00  0.00     0.034 C 
BRANCH  18  20
ATOM     20  C   UNL A   1      33.773  19.627  25.471  1.00  0.00     0.133 C 
ATOM     21  C   UNL A   1      32.521  19.464  24.584  1.00  0.00     0.040 C 
BRANCH  20  22
ATOM     22  O   UNL A   1      34.864  19.075  24.703  1.00  0.00    -0.391 OA
ATOM     23  H   UNL A   1      35.668  19.593  24.865  1.00  0.00     0.211 HD
ENDBRANCH  20  22
ENDBRANCH  18  20
ENDBRANCH  10  18
ENDBRANCH   9  10
ENDBRANCH   8   9
ENDBRANCH   6   8
ENDBRANCH   5   6
ENDBRANCH   4   5
ENDBRANCH   3   4
ENDBRANCH   2   3
ENDBRANCH   1   2
BRANCH   1  24
ATOM     24  C   UNL A   1      31.414  29.692  24.714  1.00  0.00     0.188 C 
BRANCH  24  25
ATOM     25  O   UNL A   1      31.912  29.503  26.035  1.00  0.00    -0.376 OA
BRANCH  25  26
ATOM     26  C   UNL A   1      33.125  28.755  26.167  1.00  0.00     0.202 C 
BRANCH  26  27
ATOM     27  C   UNL A   1      34.310  29.509  26.846  1.00  0.00     0.261 C 
BRANCH  27  28
ATOM     28  O   UNL A   1      33.869  30.716  27.534  1.00  0.00    -0.460 OA
BRANCH  28  29
ATOM     29  C   UNL A   1      34.816  31.692  27.828  1.00  0.00     0.338 C 
ATOM     30  O   UNL A   1      34.662  32.864  27.552  1.00  0.00    -0.246 OA
BRANCH  29  31
ATOM     31  C   UNL A   1      35.808  31.129  28.814  1.00  0.00     0.060 A 
ATOM     32  C   UNL A   1      35.616  30.374  29.984  1.00  0.00     0.016 A 
ATOM     33  C   UNL A   1      37.101  31.322  28.451  1.00  0.00     0.016 A 
ATOM     34  C   UNL A   1      36.724  29.692  30.644  1.00  0.00     0.010 A 
ATOM     35  C   UNL A   1      38.116  30.620  29.038  1.00  0.00     0.010 A 
ATOM     36  C   UNL A   1      38.017  29.755  30.123  1.00  0.00    -0.014 A 
BRANCH  36  37
ATOM     37  C   UNL A   1      39.380  29.175  30.456  1.00  0.00     0.031 A 
ATOM     38  C   UNL A   1      40.017  27.868  29.991  1.00  0.00     0.074 A 
ATOM     39  C   UNL A   1      40.272  30.172  30.748  1.00  0.00     0.049 A 
ATOM     40  N   UNL A   1      41.272  27.591  30.199  1.00  0.00    -0.248 NA
ATOM     41  C   UNL A   1      39.408  26.783  29.213  1.00  0.00     0.031 C 
ATOM     42  C   UNL A   1      41.724  30.261  30.612  1.00  0.00     0.029 A 
ATOM     43  N   UNL A   1      39.959  31.467  31.203  1.00  0.00    -0.354 N 
ATOM     44  C   UNL A   1      41.700  26.625  29.305  1.00  0.00     0.074 A 
ATOM     45  C   UNL A   1      40.474  26.078  28.788  1.00  0.00     0.031 C 
ATOM     46  C   UNL A   1      42.171  31.336  31.290  1.00  0.00     0.029 A 
ATOM     47  C   UNL A   1      41.028  31.884  31.997  1.00  0.00     0.049 A 
ATOM     48  H   UNL A   1      39.143  31.979  31.000  1.00  0.00     0.167 HD
ATOM     49  C   UNL A   1      43.045  26.489  29.050  1.00  0.00     0.037 A 
ATOM     50  C   UNL A   1      40.799  31.890  33.341  1.00  0.00     0.037 A 
ATOM     51  C   UNL A   1      43.831  27.245  30.034  1.00  0.00     0.049 A 
ATOM     52  C   UNL A   1      41.607  30.798  34.003  1.00  0.00     0.074 A 
ATOM     53  C   UNL A   1      44.704  28.316  29.993  1.00  0.00     0.029 A 
ATOM     54  N   UNL A   1      43.577  27.010  31.383  1.00  0.00    -0.354 N 
ATOM     55  N   UNL A   1      42.183  29.846  33.318  1.00  0.00    -0.248 NA
ATOM     56  C   UNL A   1      41.953  30.713  35.416  1.00  0.00     0.031 C 
ATOM     57  C   UNL A   1      44.784  28.850  31.321  1.00  0.00     0.029 A 
ATOM     58  C   UNL A   1      44.016  28.058  32.165  1.00  0.00     0.049 A 
ATOM     59  H   UNL A   1      43.140  26.199  31.732  1.00  0.00     0.167 HD
ATOM     60  C   UNL A   1      42.977  29.083  34.105  1.00  0.00     0.074 A 
ATOM     61  C   UNL A   1      42.777  29.643  35.430  1.00  0.00     0.031 C 
ATOM     62  C   UNL A   1      43.714  28.054  33.597  1.00  0.00     0.037 A 
BRANCH  49  63
ATOM     63  C   UNL A   1      43.706  25.763  27.870  1.00  0.00     0.058 A 
ATOM     64  C   UNL A   1      43.762  24.345  27.811  1.00  0.00     0.135 A 
ATOM     65  C   UNL A   1      44.403  26.405  26.824  1.00  0.00     0.135 A 
ATOM     66  F   UNL A   1      43.175  23.591  28.753  1.00  0.00    -0.206 F 
ATOM     67  C   UNL A   1      44.435  23.634  26.801  1.00  0.00     0.059 A 
ATOM     68  C   UNL A   1      45.048  25.715  25.782  1.00  0.00     0.059 A 
ATOM     69  F   UNL A   1      44.546  27.736  26.797  1.00  0.00    -0.206 F 
ATOM     70  C   UNL A   1      45.074  24.328  25.782  1.00  0.00     0.060 A 
BRANCH  70  71
ATOM     71  S   UNL A   1      45.941  23.415  24.480  1.00  0.00     0.124 S 
ATOM     72  O   UNL A   1      46.526  22.305  25.225  1.00  0.00    -0.237 OA
ATOM     73  O   UNL A   1      44.862  23.064  23.563  1.00  0.00    -0.237 OA
ATOM     74  O   UNL A   1      46.898  24.389  23.961  1.00  0.00    -0.744 OA
ENDBRANCH  70  71
ENDBRANCH  49  63
BRANCH  50  75
ATOM     75  C   UNL A   1      39.424  32.465  33.610  1.00  0.00     0.058 A 
ATOM     76  C   UNL A   1      39.256  33.806  33.177  1.00  0.00     0.135 A 
ATOM     77  C   UNL A   1      38.248  31.684  33.653  1.00  0.00     0.135 A 
ATOM     78  F   UNL A   1      40.332  34.607  33.077  1.00  0.00    -0.206 F 
ATOM     79  C   UNL A   1      38.054  34.292  32.659  1.00  0.00     0.059 A 
ATOM     80  C   UNL A   1      37.019  32.164  33.152  1.00  0.00     0.059 A 
ATOM     81  F   UNL A   1      38.307  30.398  34.032  1.00  0.00    -0.206 F 
ATOM     82  C   UNL A   1      36.954  33.444  32.594  1.00  0.00     0.060 A 
BRANCH  82  83
ATOM     83  S   UNL A   1      35.511  34.012  31.650  1.00  0.00     0.124 S 
ATOM     84  O   UNL A   1      34.572  32.908  31.834  1.00  0.00    -0.237 OA
ATOM     85  O   UNL A   1      35.157  35.249  32.347  1.00  0.00    -0.237 OA
ATOM     86  O   UNL A   1      36.029  34.175  30.297  1.00  0.00    -0.744 OA
ENDBRANCH  82  83
ENDBRANCH  50  75
BRANCH  62  87
ATOM     87  C   UNL A   1      44.171  26.891  34.425  1.00  0.00     0.058 A 
ATOM     88  C   UNL A   1      43.289  25.883  34.849  1.00  0.00     0.135 A 
ATOM     89  C   UNL A   1      45.550  26.629  34.592  1.00  0.00     0.135 A 
ATOM     90  F   UNL A   1      41.966  25.980  34.646  1.00  0.00    -0.206 F 
ATOM     91  C   UNL A   1      43.738  24.712  35.448  1.00  0.00     0.059 A 
ATOM     92  C   UNL A   1      46.022  25.441  35.133  1.00  0.00     0.059 A 
ATOM     93  F   UNL A   1      46.479  27.516  34.198  1.00  0.00    -0.206 F 
ATOM     94  C   UNL A   1      45.106  24.499  35.586  1.00  0.00     0.060 A 
BRANCH  94  95
ATOM     95  S   UNL A   1      45.693  22.978  36.343  1.00  0.00     0.124 S 
ATOM     96  O   UNL A   1      47.119  23.044  36.040  1.00  0.00    -0.237 OA
ATOM     97  O   UNL A   1      45.340  23.154  37.749  1.00  0.00    -0.237 OA
ATOM     98  O   UNL A   1      44.941  21.946  35.640  1.00  0.00    -0.744 OA
ENDBRANCH  94  95
ENDBRANCH  62  87
ENDBRANCH  36  37
ENDBRANCH  29  31
ENDBRANCH  28  29
ENDBRANCH  27  28
ENDBRANCH  26  27
ENDBRANCH  25  26
ENDBRANCH  24  25
ENDBRANCH   1  24
TORSDOF 26
ENDMDL
