MODEL 1
REMARK VINA RESULT:      -7.5      0.000      0.000
REMARK SMILES O=C(CCCN1C(=O)C(=O)/C(=C(/[O-])c2ccc(Cl)cc2)[C@@H]1c1ccccc1[N+](=O)[O-])OCCOCCOCCOC(=O)c1ccc(-c2c3nc(c(-c4c(F)cc(S(=O)(=O)[O-])cc4F)c4ccc([nH]4)c(-c4c(F)cc(S(=O)(=O)[O-])cc4F)c4nc(c(-c5c(F)cc(S(=O)(=O)[O-])cc5F)c5ccc2[nH]5)C=C4)C=C3)cc1
REMARK SMILES IDX 35 1 34 2 33 3 32 4 31 5 2 6 1 7 3 8 4 9 5 10 6 11 7 12
REMARK SMILES IDX 21 13 8 14 9 15 11 16 10 17 12 18 13 19 22 20 23 21 27 22
REMARK SMILES IDX 24 23 26 24 25 25 28 26 29 27 30 28 14 29 15 30 20 31 16 32
REMARK SMILES IDX 19 33 17 34 18 35 36 36 37 37 38 38 39 39 40 40 41 41 42 42
REMARK SMILES IDX 43 43 44 44 108 45 45 46 107 47 46 48 47 49 48 50 101 51
REMARK SMILES IDX 49 52 106 53 100 54 102 55 50 56 105 57 99 58 98 59 51 61
REMARK SMILES IDX 85 62 64 63 84 64 65 65 68 66 83 67 103 68 66 69 67 70 82 72
REMARK SMILES IDX 104 73 69 74 52 75 53 76 62 77 54 78 55 79 61 80 63 81 56 82
REMARK SMILES IDX 57 83 58 84 59 85 60 86 86 87 87 88 96 89 88 90 89 91 95 92
REMARK SMILES IDX 97 93 90 94 91 95 92 96 93 97 94 98 70 99 71 100 80 101
REMARK SMILES IDX 72 102 73 103 79 104 81 105 74 106 75 107 76 108 77 109
REMARK SMILES IDX 78 110
REMARK H PARENT 102 60 68 71
REMARK Flexibility Score: inf
ROOT
ATOM      1  C   UNL A   1      43.253  34.509  32.317  1.00  0.00     0.188 C 
ENDROOT
BRANCH   1   2
ATOM      2  O   UNL A   1      42.849  34.926  33.613  1.00  0.00    -0.376 OA
BRANCH   2   3
ATOM      3  C   UNL A   1      41.660  34.374  34.142  1.00  0.00     0.202 C 
BRANCH   3   4
ATOM      4  C   UNL A   1      41.395  32.895  33.902  1.00  0.00     0.261 C 
BRANCH   4   5
ATOM      5  O   UNL A   1      40.257  32.295  34.502  1.00  0.00    -0.463 OA
BRANCH   5   6
ATOM      6  C   UNL A   1      40.366  31.181  35.258  1.00  0.00     0.305 C 
ATOM      7  O   UNL A   1      40.668  31.280  36.444  1.00  0.00    -0.252 OA
BRANCH   6   8
ATOM      8  C   UNL A   1      40.177  29.848  34.568  1.00  0.00     0.124 C 
BRANCH   8   9
ATOM      9  C   UNL A   1      41.302  28.795  34.546  1.00  0.00     0.033 C 
BRANCH   9  10
ATOM     10  C   UNL A   1      42.265  28.364  35.730  1.00  0.00     0.121 C 
BRANCH  10  11
ATOM     11  N   UNL A   1      43.120  27.190  35.558  1.00  0.00    -0.324 N 
ATOM     12  C   UNL A   1      43.034  26.276  36.596  1.00  0.00     0.295 C 
ATOM     13  C   UNL A   1      43.713  26.596  34.285  1.00  0.00     0.157 C 
ATOM     14  O   UNL A   1      42.332  26.306  37.581  1.00  0.00    -0.265 OA
ATOM     15  C   UNL A   1      44.004  25.171  36.321  1.00  0.00     0.248 C 
ATOM     16  C   UNL A   1      44.348  25.194  34.872  1.00  0.00     0.025 C 
ATOM     17  O   UNL A   1      44.402  24.450  37.206  1.00  0.00    -0.283 OA
ATOM     18  C   UNL A   1      44.957  24.086  34.354  1.00  0.00    -0.092 C 
ATOM     19  O   UNL A   1      45.018  23.889  32.988  1.00  0.00    -0.872 OA
BRANCH  13  20
ATOM     20  C   UNL A   1      44.723  27.420  33.371  1.00  0.00     0.057 A 
ATOM     21  C   UNL A   1      45.616  28.256  34.077  1.00  0.00     0.013 A 
ATOM     22  C   UNL A   1      44.966  27.523  31.977  1.00  0.00     0.275 A 
ATOM     23  C   UNL A   1      46.316  29.346  33.530  1.00  0.00     0.001 A 
ATOM     24  C   UNL A   1      45.643  28.637  31.391  1.00  0.00     0.086 A 
ATOM     25  C   UNL A   1      46.256  29.593  32.178  1.00  0.00     0.007 A 
BRANCH  22  26
ATOM     26  N   UNL A   1      44.873  26.429  31.020  1.00  0.00     0.063 N 
ATOM     27  O   UNL A   1      43.742  25.970  30.804  1.00  0.00    -0.258 OA
ATOM     28  O   UNL A   1      45.909  25.974  30.553  1.00  0.00    -0.258 OA
ENDBRANCH  22  26
ENDBRANCH  13  20
BRANCH  18  29
ATOM     29  C   UNL A   1      45.646  22.949  35.075  1.00  0.00    -0.033 A 
ATOM     30  C   UNL A   1      45.201  21.622  35.069  1.00  0.00     0.009 A 
ATOM     31  C   UNL A   1      46.847  23.213  35.775  1.00  0.00     0.009 A 
ATOM     32  C   UNL A   1      45.825  20.637  35.858  1.00  0.00     0.021 A 
ATOM     33  C   UNL A   1      47.484  22.230  36.552  1.00  0.00     0.021 A 
ATOM     34  C   UNL A   1      46.950  20.950  36.614  1.00  0.00     0.041 A 
ATOM     35  Cl  UNL A   1      47.677  19.759  37.619  1.00  0.00    -0.084 Cl
ENDBRANCH  18  29
ENDBRANCH  10  11
ENDBRANCH   9  10
ENDBRANCH   8   9
ENDBRANCH   6   8
ENDBRANCH   5   6
ENDBRANCH   4   5
ENDBRANCH   3   4
ENDBRANCH   2   3
ENDBRANCH   1   2
BRANCH   1  36
ATOM     36  C   UNL A   1      42.266  34.761  31.169  1.00  0.00     0.188 C 
BRANCH  36  37
ATOM     37  O   UNL A   1      42.855  35.409  30.044  1.00  0.00    -0.376 OA
BRANCH  37  38
ATOM     38  C   UNL A   1      43.496  36.642  30.334  1.00  0.00     0.202 C 
BRANCH  38  39
ATOM     39  C   UNL A   1      44.407  37.187  29.223  1.00  0.00     0.261 C 
BRANCH  39  40
ATOM     40  O   UNL A   1      45.786  37.379  29.548  1.00  0.00    -0.460 OA
BRANCH  40  41
ATOM     41  C   UNL A   1      46.703  36.986  28.643  1.00  0.00     0.338 C 
ATOM     42  O   UNL A   1      47.539  37.694  28.111  1.00  0.00    -0.246 OA
BRANCH  41  43
ATOM     43  C   UNL A   1      46.666  35.509  28.582  1.00  0.00     0.060 A 
ATOM     44  C   UNL A   1      46.359  34.923  27.351  1.00  0.00     0.016 A 
ATOM     45  C   UNL A   1      46.965  34.708  29.691  1.00  0.00     0.016 A 
ATOM     46  C   UNL A   1      46.371  33.538  27.214  1.00  0.00     0.010 A 
ATOM     47  C   UNL A   1      46.914  33.312  29.569  1.00  0.00     0.010 A 
ATOM     48  C   UNL A   1      46.601  32.725  28.331  1.00  0.00    -0.014 A 
BRANCH  48  49
ATOM     49  C   UNL A   1      46.246  31.290  28.212  1.00  0.00     0.031 A 
ATOM     50  C   UNL A   1      44.813  30.911  28.469  1.00  0.00     0.074 A 
ATOM     51  C   UNL A   1      47.130  30.374  27.776  1.00  0.00     0.049 A 
ATOM     52  N   UNL A   1      44.220  29.755  28.332  1.00  0.00    -0.248 NA
ATOM     53  C   UNL A   1      43.922  31.994  28.926  1.00  0.00     0.031 C 
ATOM     54  C   UNL A   1      48.530  30.636  27.446  1.00  0.00     0.029 A 
ATOM     55  N   UNL A   1      46.970  29.034  27.522  1.00  0.00    -0.354 N 
ATOM     56  C   UNL A   1      42.886  29.977  28.658  1.00  0.00     0.074 A 
ATOM     57  C   UNL A   1      42.762  31.367  29.038  1.00  0.00     0.031 C 
ATOM     58  C   UNL A   1      49.106  29.487  27.046  1.00  0.00     0.029 A 
ATOM     59  C   UNL A   1      48.122  28.407  27.105  1.00  0.00     0.049 A 
ATOM     60  H   UNL A   1      46.111  28.565  27.628  1.00  0.00     0.167 HD
ATOM     61  C   UNL A   1      41.854  29.104  28.629  1.00  0.00     0.037 A 
ATOM     62  C   UNL A   1      48.349  27.109  26.819  1.00  0.00     0.037 A 
ATOM     63  C   UNL A   1      41.990  27.714  28.279  1.00  0.00     0.049 A 
ATOM     64  C   UNL A   1      47.195  26.132  26.887  1.00  0.00     0.074 A 
ATOM     65  C   UNL A   1      41.012  26.738  28.241  1.00  0.00     0.029 A 
ATOM     66  N   UNL A   1      43.183  27.103  27.919  1.00  0.00    -0.354 N 
ATOM     67  N   UNL A   1      45.934  26.359  27.172  1.00  0.00    -0.248 NA
ATOM     68  C   UNL A   1      47.495  24.726  26.582  1.00  0.00     0.031 C 
ATOM     69  C   UNL A   1      41.622  25.523  27.911  1.00  0.00     0.029 A 
ATOM     70  C   UNL A   1      42.969  25.756  27.680  1.00  0.00     0.049 A 
ATOM     71  H   UNL A   1      44.051  27.559  27.845  1.00  0.00     0.167 HD
ATOM     72  C   UNL A   1      45.289  25.130  27.056  1.00  0.00     0.074 A 
ATOM     73  C   UNL A   1      46.293  24.172  26.647  1.00  0.00     0.031 C 
ATOM     74  C   UNL A   1      43.985  24.818  27.272  1.00  0.00     0.037 A 
BRANCH  61  75
ATOM     75  C   UNL A   1      40.493  29.619  29.005  1.00  0.00     0.058 A 
ATOM     76  C   UNL A   1      39.477  29.781  28.050  1.00  0.00     0.135 A 
ATOM     77  C   UNL A   1      40.185  29.906  30.344  1.00  0.00     0.135 A 
ATOM     78  F   UNL A   1      39.725  29.549  26.750  1.00  0.00    -0.206 F 
ATOM     79  C   UNL A   1      38.204  30.214  28.409  1.00  0.00     0.059 A 
ATOM     80  C   UNL A   1      38.911  30.315  30.729  1.00  0.00     0.059 A 
ATOM     81  F   UNL A   1      41.124  29.782  31.295  1.00  0.00    -0.206 F 
ATOM     82  C   UNL A   1      37.929  30.469  29.753  1.00  0.00     0.060 A 
BRANCH  82  83
ATOM     83  S   UNL A   1      36.259  30.982  30.206  1.00  0.00     0.124 S 
ATOM     84  O   UNL A   1      36.171  30.514  31.586  1.00  0.00    -0.237 OA
ATOM     85  O   UNL A   1      36.323  32.430  30.032  1.00  0.00    -0.237 OA
ATOM     86  O   UNL A   1      35.412  30.275  29.251  1.00  0.00    -0.744 OA
ENDBRANCH  82  83
ENDBRANCH  61  75
BRANCH  62  87
ATOM     87  C   UNL A   1      49.721  26.634  26.475  1.00  0.00     0.058 A 
ATOM     88  C   UNL A   1      50.143  26.492  25.144  1.00  0.00     0.135 A 
ATOM     89  C   UNL A   1      50.624  26.258  27.483  1.00  0.00     0.135 A 
ATOM     90  F   UNL A   1      49.316  26.820  24.139  1.00  0.00    -0.206 F 
ATOM     91  C   UNL A   1      51.391  25.961  24.824  1.00  0.00     0.059 A 
ATOM     92  C   UNL A   1      51.889  25.758  27.190  1.00  0.00     0.059 A 
ATOM     93  F   UNL A   1      50.278  26.376  28.775  1.00  0.00    -0.206 F 
ATOM     94  C   UNL A   1      52.256  25.596  25.855  1.00  0.00     0.060 A 
BRANCH  94  95
ATOM     95  S   UNL A   1      53.876  24.915  25.432  1.00  0.00     0.124 S 
ATOM     96  O   UNL A   1      54.470  24.728  26.750  1.00  0.00    -0.237 OA
ATOM     97  O   UNL A   1      53.519  23.696  24.715  1.00  0.00    -0.237 OA
ATOM     98  O   UNL A   1      54.478  25.962  24.612  1.00  0.00    -0.744 OA
ENDBRANCH  94  95
ENDBRANCH  62  87
BRANCH  74  99
ATOM     99  C   UNL A   1      43.568  23.389  27.037  1.00  0.00     0.058 A 
ATOM    100  C   UNL A   1      43.400  22.483  28.096  1.00  0.00     0.135 A 
ATOM    101  C   UNL A   1      43.308  22.928  25.735  1.00  0.00     0.135 A 
ATOM    102  F   UNL A   1      43.630  22.869  29.360  1.00  0.00    -0.206 F 
ATOM    103  C   UNL A   1      43.039  21.158  27.869  1.00  0.00     0.059 A 
ATOM    104  C   UNL A   1      42.910  21.617  25.489  1.00  0.00     0.059 A 
ATOM    105  F   UNL A   1      43.433  23.755  24.686  1.00  0.00    -0.206 F 
ATOM    106  C   UNL A   1      42.799  20.734  26.561  1.00  0.00     0.060 A 
BRANCH 106 107
ATOM    107  S   UNL A   1      42.335  19.012  26.282  1.00  0.00     0.124 S 
ATOM    108  O   UNL A   1      42.354  18.478  27.640  1.00  0.00    -0.237 OA
ATOM    109  O   UNL A   1      41.017  19.139  25.669  1.00  0.00    -0.237 OA
ATOM    110  O   UNL A   1      43.385  18.515  25.398  1.00  0.00    -0.744 OA
ENDBRANCH 106 107
ENDBRANCH  74  99
ENDBRANCH  48  49
ENDBRANCH  41  43
ENDBRANCH  40  41
ENDBRANCH  39  40
ENDBRANCH  38  39
ENDBRANCH  37  38
ENDBRANCH  36  37
ENDBRANCH   1  36
TORSDOF 26
ENDMDL
MODEL 2
REMARK VINA RESULT:      -6.7      2.391      7.839
REMARK SMILES O=C(CCCN1C(=O)C(=O)/C(=C(/[O-])c2ccc(Cl)cc2)[C@@H]1c1ccccc1[N+](=O)[O-])OCCOCCOCCOC(=O)c1ccc(-c2c3nc(c(-c4c(F)cc(S(=O)(=O)[O-])cc4F)c4ccc([nH]4)c(-c4c(F)cc(S(=O)(=O)[O-])cc4F)c4nc(c(-c5c(F)cc(S(=O)(=O)[O-])cc5F)c5ccc2[nH]5)C=C4)C=C3)cc1
REMARK SMILES IDX 35 1 34 2 33 3 32 4 31 5 2 6 1 7 3 8 4 9 5 10 6 11 7 12
REMARK SMILES IDX 21 13 8 14 9 15 11 16 10 17 12 18 13 19 22 20 23 21 27 22
REMARK SMILES IDX 24 23 26 24 25 25 28 26 29 27 30 28 14 29 15 30 20 31 16 32
REMARK SMILES IDX 19 33 17 34 18 35 36 36 37 37 38 38 39 39 40 40 41 41 42 42
REMARK SMILES IDX 43 43 44 44 108 45 45 46 107 47 46 48 47 49 48 50 101 51
REMARK SMILES IDX 49 52 106 53 100 54 102 55 50 56 105 57 99 58 98 59 51 61
REMARK SMILES IDX 85 62 64 63 84 64 65 65 68 66 83 67 103 68 66 69 67 70 82 72
REMARK SMILES IDX 104 73 69 74 52 75 53 76 62 77 54 78 55 79 61 80 63 81 56 82
REMARK SMILES IDX 57 83 58 84 59 85 60 86 86 87 87 88 96 89 88 90 89 91 95 92
REMARK SMILES IDX 97 93 90 94 91 95 92 96 93 97 94 98 70 99 71 100 80 101
REMARK SMILES IDX 72 102 73 103 79 104 81 105 74 106 75 107 76 108 77 109
REMARK SMILES IDX 78 110
REMARK H PARENT 102 60 68 71
REMARK Flexibility Score: inf
ROOT
ATOM      1  C   UNL A   1      41.469  34.858  34.863  1.00  0.00     0.188 C 
ENDROOT
BRANCH   1   2
ATOM      2  O   UNL A   1      42.327  33.746  35.078  1.00  0.00    -0.376 OA
BRANCH   2   3
ATOM      3  C   UNL A   1      43.371  33.530  34.151  1.00  0.00     0.202 C 
BRANCH   3   4
ATOM      4  C   UNL A   1      44.402  32.460  34.478  1.00  0.00     0.261 C 
BRANCH   4   5
ATOM      5  O   UNL A   1      43.969  31.120  34.654  1.00  0.00    -0.463 OA
BRANCH   5   6
ATOM      6  C   UNL A   1      44.428  30.123  33.867  1.00  0.00     0.305 C 
ATOM      7  O   UNL A   1      43.945  29.959  32.750  1.00  0.00    -0.252 OA
BRANCH   6   8
ATOM      8  C   UNL A   1      45.480  29.203  34.447  1.00  0.00     0.124 C 
BRANCH   8   9
ATOM      9  C   UNL A   1      45.422  28.752  35.920  1.00  0.00     0.033 C 
BRANCH   9  10
ATOM     10  C   UNL A   1      44.888  27.377  36.504  1.00  0.00     0.121 C 
BRANCH  10  11
ATOM     11  N   UNL A   1      45.655  26.156  36.256  1.00  0.00    -0.324 N 
ATOM     12  C   UNL A   1      46.292  25.656  37.381  1.00  0.00     0.295 C 
ATOM     13  C   UNL A   1      45.512  25.126  35.141  1.00  0.00     0.157 C 
ATOM     14  O   UNL A   1      46.264  26.068  38.518  1.00  0.00    -0.265 OA
ATOM     15  C   UNL A   1      47.086  24.457  36.969  1.00  0.00     0.248 C 
ATOM     16  C   UNL A   1      46.555  23.964  35.666  1.00  0.00     0.025 C 
ATOM     17  O   UNL A   1      48.006  24.052  37.639  1.00  0.00    -0.283 OA
ATOM     18  C   UNL A   1      46.919  22.707  35.278  1.00  0.00    -0.092 C 
ATOM     19  O   UNL A   1      46.233  22.055  34.271  1.00  0.00    -0.872 OA
BRANCH  13  20
ATOM     20  C   UNL A   1      45.713  25.518  33.612  1.00  0.00     0.057 A 
ATOM     21  C   UNL A   1      44.530  25.877  32.930  1.00  0.00     0.013 A 
ATOM     22  C   UNL A   1      46.824  25.609  32.732  1.00  0.00     0.275 A 
ATOM     23  C   UNL A   1      44.365  25.883  31.533  1.00  0.00     0.001 A 
ATOM     24  C   UNL A   1      46.687  25.582  31.309  1.00  0.00     0.086 A 
ATOM     25  C   UNL A   1      45.443  25.644  30.712  1.00  0.00     0.007 A 
BRANCH  22  26
ATOM     26  N   UNL A   1      48.160  26.056  33.101  1.00  0.00     0.063 N 
ATOM     27  O   UNL A   1      49.110  25.510  32.522  1.00  0.00    -0.258 OA
ATOM     28  O   UNL A   1      48.273  26.869  34.008  1.00  0.00    -0.258 OA
ENDBRANCH  22  26
ENDBRANCH  13  20
BRANCH  18  29
ATOM     29  C   UNL A   1      48.043  21.834  35.790  1.00  0.00    -0.033 A 
ATOM     30  C   UNL A   1      49.377  21.938  35.379  1.00  0.00     0.009 A 
ATOM     31  C   UNL A   1      47.758  20.866  36.781  1.00  0.00     0.009 A 
ATOM     32  C   UNL A   1      50.349  21.016  35.809  1.00  0.00     0.021 A 
ATOM     33  C   UNL A   1      48.728  19.951  37.226  1.00  0.00     0.021 A 
ATOM     34  C   UNL A   1      50.016  20.013  36.713  1.00  0.00     0.041 A 
ATOM     35  Cl  UNL A   1      51.193  18.854  37.194  1.00  0.00    -0.084 Cl
ENDBRANCH  18  29
ENDBRANCH  10  11
ENDBRANCH   9  10
ENDBRANCH   8   9
ENDBRANCH   6   8
ENDBRANCH   5   6
ENDBRANCH   4   5
ENDBRANCH   3   4
ENDBRANCH   2   3
ENDBRANCH   1   2
BRANCH   1  36
ATOM     36  C   UNL A   1      40.626  34.844  33.581  1.00  0.00     0.188 C 
BRANCH  36  37
ATOM     37  O   UNL A   1      39.254  34.528  33.806  1.00  0.00    -0.376 OA
BRANCH  37  38
ATOM     38  C   UNL A   1      38.910  33.170  33.577  1.00  0.00     0.202 C 
BRANCH  38  39
ATOM     39  C   UNL A   1      37.799  32.938  32.541  1.00  0.00     0.261 C 
BRANCH  39  40
ATOM     40  O   UNL A   1      37.139  31.670  32.566  1.00  0.00    -0.460 OA
BRANCH  40  41
ATOM     41  C   UNL A   1      36.835  31.099  31.386  1.00  0.00     0.338 C 
ATOM     42  O   UNL A   1      35.757  31.144  30.820  1.00  0.00    -0.246 OA
BRANCH  41  43
ATOM     43  C   UNL A   1      38.095  30.606  30.790  1.00  0.00     0.060 A 
ATOM     44  C   UNL A   1      38.993  29.948  31.636  1.00  0.00     0.016 A 
ATOM     45  C   UNL A   1      38.381  30.743  29.427  1.00  0.00     0.016 A 
ATOM     46  C   UNL A   1      40.167  29.404  31.123  1.00  0.00     0.010 A 
ATOM     47  C   UNL A   1      39.594  30.251  28.922  1.00  0.00     0.010 A 
ATOM     48  C   UNL A   1      40.496  29.594  29.775  1.00  0.00    -0.014 A 
BRANCH  48  49
ATOM     49  C   UNL A   1      41.897  29.322  29.373  1.00  0.00     0.031 A 
ATOM     50  C   UNL A   1      42.215  27.936  28.878  1.00  0.00     0.074 A 
ATOM     51  C   UNL A   1      42.826  30.294  29.332  1.00  0.00     0.049 A 
ATOM     52  N   UNL A   1      43.324  27.467  28.371  1.00  0.00    -0.248 NA
ATOM     53  C   UNL A   1      41.121  26.950  28.949  1.00  0.00     0.031 C 
ATOM     54  C   UNL A   1      42.618  31.684  29.737  1.00  0.00     0.029 A 
ATOM     55  N   UNL A   1      44.134  30.259  28.914  1.00  0.00    -0.354 N 
ATOM     56  C   UNL A   1      43.054  26.145  28.038  1.00  0.00     0.074 A 
ATOM     57  C   UNL A   1      41.690  25.872  28.436  1.00  0.00     0.031 C 
ATOM     58  C   UNL A   1      43.766  32.366  29.559  1.00  0.00     0.029 A 
ATOM     59  C   UNL A   1      44.791  31.461  29.043  1.00  0.00     0.049 A 
ATOM     60  H   UNL A   1      44.561  29.449  28.554  1.00  0.00     0.167 HD
ATOM     61  C   UNL A   1      43.864  25.242  27.441  1.00  0.00     0.037 A 
ATOM     62  C   UNL A   1      46.075  31.780  28.785  1.00  0.00     0.037 A 
ATOM     63  C   UNL A   1      45.230  25.512  27.075  1.00  0.00     0.049 A 
ATOM     64  C   UNL A   1      46.990  30.723  28.205  1.00  0.00     0.074 A 
ATOM     65  C   UNL A   1      46.146  24.659  26.487  1.00  0.00     0.029 A 
ATOM     66  N   UNL A   1      45.878  26.722  27.276  1.00  0.00    -0.354 N 
ATOM     67  N   UNL A   1      46.716  29.483  27.872  1.00  0.00    -0.248 NA
ATOM     68  C   UNL A   1      48.385  31.114  27.956  1.00  0.00     0.031 C 
ATOM     69  C   UNL A   1      47.366  25.337  26.382  1.00  0.00     0.029 A 
ATOM     70  C   UNL A   1      47.191  26.631  26.844  1.00  0.00     0.049 A 
ATOM     71  H   UNL A   1      45.466  27.525  27.667  1.00  0.00     0.167 HD
ATOM     72  C   UNL A   1      47.896  28.957  27.351  1.00  0.00     0.074 A 
ATOM     73  C   UNL A   1      48.876  30.022  27.388  1.00  0.00     0.031 C 
ATOM     74  C   UNL A   1      48.151  27.706  26.889  1.00  0.00     0.037 A 
BRANCH  61  75
ATOM     75  C   UNL A   1      43.304  23.875  27.165  1.00  0.00     0.058 A 
ATOM     76  C   UNL A   1      43.256  22.884  28.159  1.00  0.00     0.135 A 
ATOM     77  C   UNL A   1      42.763  23.567  25.907  1.00  0.00     0.135 A 
ATOM     78  F   UNL A   1      43.786  23.114  29.371  1.00  0.00    -0.206 F 
ATOM     79  C   UNL A   1      42.694  21.635  27.914  1.00  0.00     0.059 A 
ATOM     80  C   UNL A   1      42.173  22.333  25.647  1.00  0.00     0.059 A 
ATOM     81  F   UNL A   1      42.797  24.473  24.917  1.00  0.00    -0.206 F 
ATOM     82  C   UNL A   1      42.147  21.373  26.657  1.00  0.00     0.060 A 
BRANCH  82  83
ATOM     83  S   UNL A   1      41.379  19.765  26.373  1.00  0.00     0.124 S 
ATOM     84  O   UNL A   1      42.223  19.219  25.314  1.00  0.00    -0.237 OA
ATOM     85  O   UNL A   1      41.507  19.125  27.678  1.00  0.00    -0.237 OA
ATOM     86  O   UNL A   1      40.016  20.102  25.974  1.00  0.00    -0.744 OA
ENDBRANCH  82  83
ENDBRANCH  61  75
BRANCH  62  87
ATOM     87  C   UNL A   1      46.599  33.142  29.097  1.00  0.00     0.058 A 
ATOM     88  C   UNL A   1      47.082  33.475  30.372  1.00  0.00     0.135 A 
ATOM     89  C   UNL A   1      46.572  34.160  28.130  1.00  0.00     0.135 A 
ATOM     90  F   UNL A   1      47.116  32.546  31.340  1.00  0.00    -0.206 F 
ATOM     91  C   UNL A   1      47.484  34.771  30.688  1.00  0.00     0.059 A 
ATOM     92  C   UNL A   1      47.000  35.454  28.411  1.00  0.00     0.059 A 
ATOM     93  F   UNL A   1      46.123  33.901  26.891  1.00  0.00    -0.206 F 
ATOM     94  C   UNL A   1      47.437  35.755  29.700  1.00  0.00     0.060 A 
BRANCH  94  95
ATOM     95  S   UNL A   1      47.967  37.432  30.114  1.00  0.00     0.124 S 
ATOM     96  O   UNL A   1      49.316  37.199  30.615  1.00  0.00    -0.237 OA
ATOM     97  O   UNL A   1      47.872  38.111  28.827  1.00  0.00    -0.237 OA
ATOM     98  O   UNL A   1      46.989  37.856  31.112  1.00  0.00    -0.744 OA
ENDBRANCH  94  95
ENDBRANCH  62  87
BRANCH  74  99
ATOM     99  C   UNL A   1      49.534  27.435  26.356  1.00  0.00     0.058 A 
ATOM    100  C   UNL A   1      49.829  27.515  24.985  1.00  0.00     0.135 A 
ATOM    101  C   UNL A   1      50.584  27.115  27.232  1.00  0.00     0.135 A 
ATOM    102  F   UNL A   1      48.865  27.820  24.103  1.00  0.00    -0.206 F 
ATOM    103  C   UNL A   1      51.103  27.239  24.498  1.00  0.00     0.059 A 
ATOM    104  C   UNL A   1      51.875  26.871  26.771  1.00  0.00     0.059 A 
ATOM    105  F   UNL A   1      50.366  27.043  28.555  1.00  0.00    -0.206 F 
ATOM    106  C   UNL A   1      52.119  26.915  25.399  1.00  0.00     0.060 A 
BRANCH 106 107
ATOM    107  S   UNL A   1      53.765  26.556  24.753  1.00  0.00     0.124 S 
ATOM    108  O   UNL A   1      54.417  25.966  25.918  1.00  0.00    -0.237 OA
ATOM    109  O   UNL A   1      53.478  25.638  23.656  1.00  0.00    -0.237 OA
ATOM    110  O   UNL A   1      54.267  27.866  24.351  1.00  0.00    -0.744 OA
ENDBRANCH 106 107
ENDBRANCH  74  99
ENDBRANCH  48  49
ENDBRANCH  41  43
ENDBRANCH  40  41
ENDBRANCH  39  40
ENDBRANCH  38  39
ENDBRANCH  37  38
ENDBRANCH  36  37
ENDBRANCH   1  36
TORSDOF 26
ENDMDL
MODEL 3
REMARK VINA RESULT:      -6.4      5.075     12.561
REMARK SMILES O=C(CCCN1C(=O)C(=O)/C(=C(/[O-])c2ccc(Cl)cc2)[C@@H]1c1ccccc1[N+](=O)[O-])OCCOCCOCCOC(=O)c1ccc(-c2c3nc(c(-c4c(F)cc(S(=O)(=O)[O-])cc4F)c4ccc([nH]4)c(-c4c(F)cc(S(=O)(=O)[O-])cc4F)c4nc(c(-c5c(F)cc(S(=O)(=O)[O-])cc5F)c5ccc2[nH]5)C=C4)C=C3)cc1
REMARK SMILES IDX 35 1 34 2 33 3 32 4 31 5 2 6 1 7 3 8 4 9 5 10 6 11 7 12
REMARK SMILES IDX 21 13 8 14 9 15 11 16 10 17 12 18 13 19 22 20 23 21 27 22
REMARK SMILES IDX 24 23 26 24 25 25 28 26 29 27 30 28 14 29 15 30 20 31 16 32
REMARK SMILES IDX 19 33 17 34 18 35 36 36 37 37 38 38 39 39 40 40 41 41 42 42
REMARK SMILES IDX 43 43 44 44 108 45 45 46 107 47 46 48 47 49 48 50 101 51
REMARK SMILES IDX 49 52 106 53 100 54 102 55 50 56 105 57 99 58 98 59 51 61
REMARK SMILES IDX 85 62 64 63 84 64 65 65 68 66 83 67 103 68 66 69 67 70 82 72
REMARK SMILES IDX 104 73 69 74 52 75 53 76 62 77 54 78 55 79 61 80 63 81 56 82
REMARK SMILES IDX 57 83 58 84 59 85 60 86 86 87 87 88 96 89 88 90 89 91 95 92
REMARK SMILES IDX 97 93 90 94 91 95 92 96 93 97 94 98 70 99 71 100 80 101
REMARK SMILES IDX 72 102 73 103 79 104 81 105 74 106 75 107 76 108 77 109
REMARK SMILES IDX 78 110
REMARK H PARENT 102 60 68 71
REMARK Flexibility Score: inf
ROOT
ATOM      1  C   UNL A   1      44.480  24.395  25.372  1.00  0.00     0.188 C 
ENDROOT
BRANCH   1   2
ATOM      2  O   UNL A   1      43.732  23.629  26.305  1.00  0.00    -0.376 OA
BRANCH   2   3
ATOM      3  C   UNL A   1      42.948  22.565  25.807  1.00  0.00     0.202 C 
BRANCH   3   4
ATOM      4  C   UNL A   1      42.215  21.689  26.813  1.00  0.00     0.261 C 
BRANCH   4   5
ATOM      5  O   UNL A   1      41.203  22.271  27.621  1.00  0.00    -0.463 OA
BRANCH   5   6
ATOM      6  C   UNL A   1      40.070  22.767  27.079  1.00  0.00     0.305 C 
ATOM      7  O   UNL A   1      39.506  22.149  26.180  1.00  0.00    -0.252 OA
BRANCH   6   8
ATOM      8  C   UNL A   1      39.592  24.116  27.571  1.00  0.00     0.124 C 
BRANCH   8   9
ATOM      9  C   UNL A   1      40.580  25.276  27.803  1.00  0.00     0.033 C 
BRANCH   9  10
ATOM     10  C   UNL A   1      40.275  26.723  28.375  1.00  0.00     0.121 C 
BRANCH  10  11
ATOM     11  N   UNL A   1      41.350  27.717  28.400  1.00  0.00    -0.324 N 
ATOM     12  C   UNL A   1      41.541  28.366  27.190  1.00  0.00     0.295 C 
ATOM     13  C   UNL A   1      41.960  28.461  29.582  1.00  0.00     0.157 C 
ATOM     14  O   UNL A   1      40.925  28.246  26.156  1.00  0.00    -0.265 OA
ATOM     15  C   UNL A   1      42.704  29.294  27.342  1.00  0.00     0.248 C 
ATOM     16  C   UNL A   1      42.926  29.539  28.796  1.00  0.00     0.025 C 
ATOM     17  O   UNL A   1      43.313  29.701  26.381  1.00  0.00    -0.283 OA
ATOM     18  C   UNL A   1      43.719  30.596  29.139  1.00  0.00    -0.092 C 
ATOM     19  O   UNL A   1      43.719  31.087  30.431  1.00  0.00    -0.872 OA
BRANCH  13  20
ATOM     20  C   UNL A   1      42.697  27.689  30.763  1.00  0.00     0.057 A 
ATOM     21  C   UNL A   1      42.232  28.003  32.059  1.00  0.00     0.013 A 
ATOM     22  C   UNL A   1      43.734  26.724  30.843  1.00  0.00     0.275 A 
ATOM     23  C   UNL A   1      42.939  27.779  33.254  1.00  0.00     0.001 A 
ATOM     24  C   UNL A   1      44.492  26.501  32.035  1.00  0.00     0.086 A 
ATOM     25  C   UNL A   1      44.132  27.094  33.230  1.00  0.00     0.007 A 
BRANCH  22  26
ATOM     26  N   UNL A   1      43.956  25.641  29.895  1.00  0.00     0.063 N 
ATOM     27  O   UNL A   1      44.115  24.507  30.371  1.00  0.00    -0.258 OA
ATOM     28  O   UNL A   1      44.058  25.918  28.708  1.00  0.00    -0.258 OA
ENDBRANCH  22  26
ENDBRANCH  13  20
BRANCH  18  29
ATOM     29  C   UNL A   1      44.690  31.381  28.285  1.00  0.00    -0.033 A 
ATOM     30  C   UNL A   1      45.996  30.973  27.992  1.00  0.00     0.009 A 
ATOM     31  C   UNL A   1      44.257  32.594  27.700  1.00  0.00     0.009 A 
ATOM     32  C   UNL A   1      46.884  31.809  27.289  1.00  0.00     0.021 A 
ATOM     33  C   UNL A   1      45.134  33.427  26.982  1.00  0.00     0.021 A 
ATOM     34  C   UNL A   1      46.456  33.042  26.806  1.00  0.00     0.041 A 
ATOM     35  Cl  UNL A   1      47.558  34.085  25.996  1.00  0.00    -0.084 Cl
ENDBRANCH  18  29
ENDBRANCH  10  11
ENDBRANCH   9  10
ENDBRANCH   8   9
ENDBRANCH   6   8
ENDBRANCH   5   6
ENDBRANCH   4   5
ENDBRANCH   3   4
ENDBRANCH   2   3
ENDBRANCH   1   2
BRANCH   1  36
ATOM     36  C   UNL A   1      44.220  25.907  25.350  1.00  0.00     0.188 C 
BRANCH  36  37
ATOM     37  O   UNL A   1      45.227  26.648  24.665  1.00  0.00    -0.376 OA
BRANCH  37  38
ATOM     38  C   UNL A   1      45.776  27.730  25.401  1.00  0.00     0.202 C 
BRANCH  38  39
ATOM     39  C   UNL A   1      47.143  28.233  24.911  1.00  0.00     0.261 C 
BRANCH  39  40
ATOM     40  O   UNL A   1      48.027  28.779  25.893  1.00  0.00    -0.460 OA
BRANCH  40  41
ATOM     41  C   UNL A   1      48.998  27.980  26.374  1.00  0.00     0.338 C 
ATOM     42  O   UNL A   1      49.959  27.562  25.754  1.00  0.00    -0.246 OA
BRANCH  41  43
ATOM     43  C   UNL A   1      48.818  27.889  27.838  1.00  0.00     0.060 A 
ATOM     44  C   UNL A   1      47.678  27.230  28.307  1.00  0.00     0.016 A 
ATOM     45  C   UNL A   1      49.760  28.397  28.740  1.00  0.00     0.016 A 
ATOM     46  C   UNL A   1      47.484  27.055  29.674  1.00  0.00     0.010 A 
ATOM     47  C   UNL A   1      49.533  28.278  30.118  1.00  0.00     0.010 A 
ATOM     48  C   UNL A   1      48.383  27.619  30.587  1.00  0.00    -0.014 A 
BRANCH  48  49
ATOM     49  C   UNL A   1      47.945  27.719  32.000  1.00  0.00     0.031 A 
ATOM     50  C   UNL A   1      48.344  26.602  32.926  1.00  0.00     0.074 A 
ATOM     51  C   UNL A   1      47.323  28.813  32.475  1.00  0.00     0.049 A 
ATOM     52  N   UNL A   1      48.183  26.493  34.218  1.00  0.00    -0.248 NA
ATOM     53  C   UNL A   1      49.038  25.457  32.308  1.00  0.00     0.031 C 
ATOM     54  C   UNL A   1      46.934  29.979  31.683  1.00  0.00     0.029 A 
ATOM     55  N   UNL A   1      46.920  29.125  33.751  1.00  0.00    -0.354 N 
ATOM     56  C   UNL A   1      48.778  25.287  34.570  1.00  0.00     0.074 A 
ATOM     57  C   UNL A   1      49.268  24.679  33.353  1.00  0.00     0.031 C 
ATOM     58  C   UNL A   1      46.335  30.875  32.490  1.00  0.00     0.029 A 
ATOM     59  C   UNL A   1      46.285  30.342  33.850  1.00  0.00     0.049 A 
ATOM     60  H   UNL A   1      47.073  28.534  34.522  1.00  0.00     0.167 HD
ATOM     61  C   UNL A   1      48.916  24.741  35.799  1.00  0.00     0.037 A 
ATOM     62  C   UNL A   1      45.720  30.941  34.918  1.00  0.00     0.037 A 
ATOM     63  C   UNL A   1      48.398  25.337  37.003  1.00  0.00     0.049 A 
ATOM     64  C   UNL A   1      45.804  30.263  36.267  1.00  0.00     0.074 A 
ATOM     65  C   UNL A   1      48.462  24.854  38.297  1.00  0.00     0.029 A 
ATOM     66  N   UNL A   1      47.708  26.540  37.056  1.00  0.00    -0.354 N 
ATOM     67  N   UNL A   1      46.391  29.134  36.592  1.00  0.00    -0.248 NA
ATOM     68  C   UNL A   1      45.160  30.947  37.398  1.00  0.00     0.031 C 
ATOM     69  C   UNL A   1      47.763  25.739  39.126  1.00  0.00     0.029 A 
ATOM     70  C   UNL A   1      47.321  26.804  38.359  1.00  0.00     0.049 A 
ATOM     71  H   UNL A   1      47.523  27.119  36.282  1.00  0.00     0.167 HD
ATOM     72  C   UNL A   1      46.207  28.988  37.964  1.00  0.00     0.074 A 
ATOM     73  C   UNL A   1      45.480  30.157  38.412  1.00  0.00     0.031 C 
ATOM     74  C   UNL A   1      46.598  27.977  38.783  1.00  0.00     0.037 A 
BRANCH  61  75
ATOM     75  C   UNL A   1      49.635  23.425  35.903  1.00  0.00     0.058 A 
ATOM     76  C   UNL A   1      48.981  22.207  35.663  1.00  0.00     0.135 A 
ATOM     77  C   UNL A   1      51.007  23.385  36.196  1.00  0.00     0.135 A 
ATOM     78  F   UNL A   1      47.663  22.184  35.408  1.00  0.00    -0.206 F 
ATOM     79  C   UNL A   1      49.661  20.994  35.714  1.00  0.00     0.059 A 
ATOM     80  C   UNL A   1      51.714  22.186  36.226  1.00  0.00     0.059 A 
ATOM     81  F   UNL A   1      51.678  24.520  36.447  1.00  0.00    -0.206 F 
ATOM     82  C   UNL A   1      51.029  20.995  35.986  1.00  0.00     0.060 A 
BRANCH  82  83
ATOM     83  S   UNL A   1      51.905  19.417  36.000  1.00  0.00     0.124 S 
ATOM     84  O   UNL A   1      51.548  18.893  37.315  1.00  0.00    -0.237 OA
ATOM     85  O   UNL A   1      51.312  18.725  34.860  1.00  0.00    -0.237 OA
ATOM     86  O   UNL A   1      53.304  19.800  35.839  1.00  0.00    -0.744 OA
ENDBRANCH  82  83
ENDBRANCH  61  75
BRANCH  62  87
ATOM     87  C   UNL A   1      44.992  32.235  34.767  1.00  0.00     0.058 A 
ATOM     88  C   UNL A   1      43.668  32.290  34.304  1.00  0.00     0.135 A 
ATOM     89  C   UNL A   1      45.634  33.455  35.036  1.00  0.00     0.135 A 
ATOM     90  F   UNL A   1      43.010  31.157  34.016  1.00  0.00    -0.206 F 
ATOM     91  C   UNL A   1      43.022  33.504  34.077  1.00  0.00     0.059 A 
ATOM     92  C   UNL A   1      44.999  34.679  34.850  1.00  0.00     0.059 A 
ATOM     93  F   UNL A   1      46.900  33.465  35.485  1.00  0.00    -0.206 F 
ATOM     94  C   UNL A   1      43.697  34.693  34.351  1.00  0.00     0.060 A 
BRANCH  94  95
ATOM     95  S   UNL A   1      42.850  36.263  34.061  1.00  0.00     0.124 S 
ATOM     96  O   UNL A   1      42.712  36.258  32.609  1.00  0.00    -0.237 OA
ATOM     97  O   UNL A   1      41.616  36.091  34.820  1.00  0.00    -0.237 OA
ATOM     98  O   UNL A   1      43.777  37.251  34.602  1.00  0.00    -0.744 OA
ENDBRANCH  94  95
ENDBRANCH  62  87
BRANCH  74  99
ATOM     99  C   UNL A   1      46.276  28.111  40.250  1.00  0.00     0.058 A 
ATOM    100  C   UNL A   1      45.197  27.431  40.836  1.00  0.00     0.135 A 
ATOM    101  C   UNL A   1      47.074  28.912  41.084  1.00  0.00     0.135 A 
ATOM    102  F   UNL A   1      44.403  26.650  40.087  1.00  0.00    -0.206 F 
ATOM    103  C   UNL A   1      44.890  27.579  42.185  1.00  0.00     0.059 A 
ATOM    104  C   UNL A   1      46.808  29.045  42.443  1.00  0.00     0.059 A 
ATOM    105  F   UNL A   1      48.131  29.570  40.582  1.00  0.00    -0.206 F 
ATOM    106  C   UNL A   1      45.701  28.391  42.980  1.00  0.00     0.060 A 
BRANCH 106 107
ATOM    107  S   UNL A   1      45.289  28.577  44.728  1.00  0.00     0.124 S 
ATOM    108  O   UNL A   1      45.905  27.385  45.303  1.00  0.00    -0.237 OA
ATOM    109  O   UNL A   1      45.925  29.845  45.066  1.00  0.00    -0.237 OA
ATOM    110  O   UNL A   1      43.829  28.592  44.735  1.00  0.00    -0.744 OA
ENDBRANCH 106 107
ENDBRANCH  74  99
ENDBRANCH  48  49
ENDBRANCH  41  43
ENDBRANCH  40  41
ENDBRANCH  39  40
ENDBRANCH  38  39
ENDBRANCH  37  38
ENDBRANCH  36  37
ENDBRANCH   1  36
TORSDOF 26
ENDMDL
