MODEL 1
REMARK VINA RESULT:     -11.0      0.000      0.000
REMARK SMILES Cc1c(Cl)cc2c(c1C)O[C@H](C(F)(F)F)C(C(=O)OCCOCCOCCOC(=O)c1ccc(-c3c4nc(c(-c5c(F)cc(S(=O)(=O)[O-])cc5F)c5ccc([nH]5)c(-c5c(F)cc(S(=O)(=O)[O-])cc5F)c5nc(c(-c6c(F)cc(S(=O)(=O)[O-])cc6F)c6ccc3[nH]6)C=C5)C=C4)cc1)=C2
REMARK SMILES IDX 24 1 23 2 22 3 21 4 20 5 19 6 17 7 18 8 16 9 1 10 2 11 3 12
REMARK SMILES IDX 8 13 4 14 5 15 7 16 9 17 6 18 10 19 97 20 11 21 12 22 13 23
REMARK SMILES IDX 14 24 15 25 25 26 26 27 27 28 28 29 29 30 30 31 31 32 32 33
REMARK SMILES IDX 96 34 33 35 95 36 34 37 35 38 36 39 89 40 37 41 94 42 88 43
REMARK SMILES IDX 90 44 38 45 93 46 87 47 86 48 39 50 73 51 52 52 72 53 53 54
REMARK SMILES IDX 56 55 71 56 91 57 54 58 55 59 70 61 92 62 57 63 40 64 41 65
REMARK SMILES IDX 50 66 42 67 43 68 49 69 51 70 44 71 45 72 46 73 47 74 48 75
REMARK SMILES IDX 74 76 75 77 84 78 76 79 77 80 83 81 85 82 78 83 79 84 80 85
REMARK SMILES IDX 81 86 82 87 58 88 59 89 68 90 60 91 61 92 67 93 69 94 62 95
REMARK SMILES IDX 63 96 64 97 65 98 66 99
REMARK H PARENT 90 49 56 60
REMARK Flexibility Score: inf
ROOT
ATOM      1  C   UNL A   1      36.611  20.583  25.319  1.00  0.00     0.188 C 
ENDROOT
BRANCH   1   2
ATOM      2  C   UNL A   1      35.142  20.402  24.879  1.00  0.00     0.188 C 
BRANCH   2   3
ATOM      3  O   UNL A   1      34.076  20.760  25.735  1.00  0.00    -0.376 OA
BRANCH   3   4
ATOM      4  C   UNL A   1      34.303  21.464  26.945  1.00  0.00     0.202 C 
BRANCH   4   5
ATOM      5  C   UNL A   1      34.511  22.980  26.987  1.00  0.00     0.261 C 
BRANCH   5   6
ATOM      6  O   UNL A   1      33.557  23.732  26.231  1.00  0.00    -0.460 OA
BRANCH   6   7
ATOM      7  C   UNL A   1      34.058  24.330  25.125  1.00  0.00     0.338 C 
ATOM      8  O   UNL A   1      34.788  23.826  24.286  1.00  0.00    -0.246 OA
BRANCH   7   9
ATOM      9  C   UNL A   1      33.507  25.690  25.002  1.00  0.00     0.087 C 
ATOM     10  C   UNL A   1      31.270  31.673  26.199  1.00  0.00     0.046 C 
ATOM     11  C   UNL A   1      32.066  30.405  26.013  1.00  0.00    -0.026 A 
ATOM     12  C   UNL A   1      33.210  30.138  26.790  1.00  0.00     0.045 A 
ATOM     13  C   UNL A   1      31.634  29.426  25.080  1.00  0.00    -0.004 A 
ATOM     14  Cl  UNL A   1      33.841  31.267  27.937  1.00  0.00    -0.084 Cl
ATOM     15  C   UNL A   1      33.880  28.916  26.687  1.00  0.00     0.032 A 
ATOM     16  C   UNL A   1      32.332  28.204  24.979  1.00  0.00     0.131 A 
ATOM     17  C   UNL A   1      30.431  29.632  24.191  1.00  0.00     0.049 C 
ATOM     18  C   UNL A   1      33.424  27.936  25.806  1.00  0.00     0.019 A 
ATOM     19  O   UNL A   1      31.876  27.311  24.045  1.00  0.00    -0.475 OA
ATOM     20  C   UNL A   1      34.029  26.617  25.814  1.00  0.00     0.027 C 
ATOM     21  C   UNL A   1      32.401  25.957  24.024  1.00  0.00     0.316 C 
BRANCH  21  22
ATOM     22  C   UNL A   1      31.221  24.986  24.178  1.00  0.00     0.430 C 
ATOM     23  F   UNL A   1      31.467  23.813  23.543  1.00  0.00    -0.167 F 
ATOM     24  F   UNL A   1      30.989  24.675  25.476  1.00  0.00    -0.167 F 
ATOM     25  F   UNL A   1      30.074  25.488  23.669  1.00  0.00    -0.167 F 
ENDBRANCH  21  22
ENDBRANCH   7   9
ENDBRANCH   6   7
ENDBRANCH   5   6
ENDBRANCH   4   5
ENDBRANCH   3   4
ENDBRANCH   2   3
ENDBRANCH   1   2
BRANCH   1  26
ATOM     26  O   UNL A   1      37.384  21.677  24.864  1.00  0.00    -0.376 OA
BRANCH  26  27
ATOM     27  C   UNL A   1      38.048  22.502  25.809  1.00  0.00     0.202 C 
BRANCH  27  28
ATOM     28  C   UNL A   1      39.536  22.312  26.122  1.00  0.00     0.261 C 
BRANCH  28  29
ATOM     29  O   UNL A   1      40.002  23.051  27.258  1.00  0.00    -0.460 OA
BRANCH  29  30
ATOM     30  C   UNL A   1      40.948  23.984  26.983  1.00  0.00     0.338 C 
ATOM     31  O   UNL A   1      41.795  23.942  26.108  1.00  0.00    -0.246 OA
BRANCH  30  32
ATOM     32  C   UNL A   1      40.692  25.188  27.794  1.00  0.00     0.060 A 
ATOM     33  C   UNL A   1      41.714  26.139  27.908  1.00  0.00     0.016 A 
ATOM     34  C   UNL A   1      39.482  25.357  28.469  1.00  0.00     0.016 A 
ATOM     35  C   UNL A   1      41.537  27.258  28.718  1.00  0.00     0.010 A 
ATOM     36  C   UNL A   1      39.316  26.465  29.304  1.00  0.00     0.010 A 
ATOM     37  C   UNL A   1      40.353  27.404  29.452  1.00  0.00    -0.014 A 
BRANCH  37  38
ATOM     38  C   UNL A   1      40.274  28.436  30.511  1.00  0.00     0.031 A 
ATOM     39  C   UNL A   1      41.210  28.331  31.683  1.00  0.00     0.074 A 
ATOM     40  C   UNL A   1      39.408  29.461  30.421  1.00  0.00     0.049 A 
ATOM     41  N   UNL A   1      41.300  29.091  32.743  1.00  0.00    -0.248 NA
ATOM     42  C   UNL A   1      42.176  27.220  31.653  1.00  0.00     0.031 C 
ATOM     43  C   UNL A   1      38.488  29.697  29.309  1.00  0.00     0.029 A 
ATOM     44  N   UNL A   1      39.160  30.495  31.288  1.00  0.00    -0.354 N 
ATOM     45  C   UNL A   1      42.336  28.559  33.500  1.00  0.00     0.074 A 
ATOM     46  C   UNL A   1      42.823  27.393  32.796  1.00  0.00     0.031 C 
ATOM     47  C   UNL A   1      37.771  30.805  29.566  1.00  0.00     0.029 A 
ATOM     48  C   UNL A   1      38.159  31.338  30.872  1.00  0.00     0.049 A 
ATOM     49  H   UNL A   1      39.655  30.621  32.131  1.00  0.00     0.167 HD
ATOM     50  C   UNL A   1      42.843  29.008  34.671  1.00  0.00     0.037 A 
ATOM     51  C   UNL A   1      37.607  32.404  31.486  1.00  0.00     0.037 A 
ATOM     52  C   UNL A   1      42.344  30.158  35.377  1.00  0.00     0.049 A 
ATOM     53  C   UNL A   1      38.121  32.827  32.838  1.00  0.00     0.074 A 
ATOM     54  C   UNL A   1      42.781  30.684  36.580  1.00  0.00     0.029 A 
ATOM     55  N   UNL A   1      41.292  30.955  34.950  1.00  0.00    -0.354 N 
ATOM     56  N   UNL A   1      39.100  32.314  33.547  1.00  0.00    -0.248 NA
ATOM     57  C   UNL A   1      37.454  33.971  33.478  1.00  0.00     0.031 C 
ATOM     58  C   UNL A   1      41.965  31.774  36.901  1.00  0.00     0.029 A 
ATOM     59  C   UNL A   1      41.052  31.956  35.875  1.00  0.00     0.049 A 
ATOM     60  H   UNL A   1      40.791  30.827  34.112  1.00  0.00     0.167 HD
ATOM     61  C   UNL A   1      39.183  33.089  34.701  1.00  0.00     0.074 A 
ATOM     62  C   UNL A   1      38.159  34.108  34.594  1.00  0.00     0.031 C 
ATOM     63  C   UNL A   1      40.032  32.968  35.752  1.00  0.00     0.037 A 
BRANCH  50  64
ATOM     64  C   UNL A   1      43.988  28.244  35.270  1.00  0.00     0.058 A 
ATOM     65  C   UNL A   1      43.781  27.270  36.259  1.00  0.00     0.135 A 
ATOM     66  C   UNL A   1      45.303  28.462  34.828  1.00  0.00     0.135 A 
ATOM     67  F   UNL A   1      42.546  27.040  36.733  1.00  0.00    -0.206 F 
ATOM     68  C   UNL A   1      44.840  26.547  36.799  1.00  0.00     0.059 A 
ATOM     69  C   UNL A   1      46.373  27.734  35.337  1.00  0.00     0.059 A 
ATOM     70  F   UNL A   1      45.555  29.389  33.890  1.00  0.00    -0.206 F 
ATOM     71  C   UNL A   1      46.132  26.786  36.330  1.00  0.00     0.060 A 
BRANCH  71  72
ATOM     72  S   UNL A   1      47.492  25.829  37.033  1.00  0.00     0.124 S 
ATOM     73  O   UNL A   1      48.466  26.877  37.323  1.00  0.00    -0.237 OA
ATOM     74  O   UNL A   1      46.866  25.207  38.196  1.00  0.00    -0.237 OA
ATOM     75  O   UNL A   1      47.858  24.914  35.957  1.00  0.00    -0.744 OA
ENDBRANCH  71  72
ENDBRANCH  50  64
BRANCH  51  76
ATOM     76  C   UNL A   1      36.501  33.150  30.828  1.00  0.00     0.058 A 
ATOM     77  C   UNL A   1      35.175  33.000  31.258  1.00  0.00     0.135 A 
ATOM     78  C   UNL A   1      36.747  34.028  29.762  1.00  0.00     0.135 A 
ATOM     79  F   UNL A   1      34.887  32.160  32.264  1.00  0.00    -0.206 F 
ATOM     80  C   UNL A   1      34.130  33.690  30.652  1.00  0.00     0.059 A 
ATOM     81  C   UNL A   1      35.722  34.747  29.154  1.00  0.00     0.059 A 
ATOM     82  F   UNL A   1      37.999  34.210  29.315  1.00  0.00    -0.206 F 
ATOM     83  C   UNL A   1      34.415  34.566  29.603  1.00  0.00     0.060 A 
BRANCH  83  84
ATOM     84  S   UNL A   1      33.056  35.498  28.862  1.00  0.00     0.124 S 
ATOM     85  O   UNL A   1      32.428  34.485  28.021  1.00  0.00    -0.237 OA
ATOM     86  O   UNL A   1      32.297  35.914  30.037  1.00  0.00    -0.237 OA
ATOM     87  O   UNL A   1      33.737  36.575  28.150  1.00  0.00    -0.744 OA
ENDBRANCH  83  84
ENDBRANCH  51  76
BRANCH  63  88
ATOM     88  C   UNL A   1      39.917  33.972  36.865  1.00  0.00     0.058 A 
ATOM     89  C   UNL A   1      40.435  35.270  36.742  1.00  0.00     0.135 A 
ATOM     90  C   UNL A   1      39.205  33.658  38.034  1.00  0.00     0.135 A 
ATOM     91  F   UNL A   1      41.128  35.620  35.648  1.00  0.00    -0.206 F 
ATOM     92  C   UNL A   1      40.261  36.219  37.746  1.00  0.00     0.059 A 
ATOM     93  C   UNL A   1      38.997  34.599  39.039  1.00  0.00     0.059 A 
ATOM     94  F   UNL A   1      38.678  32.433  38.198  1.00  0.00    -0.206 F 
ATOM     95  C   UNL A   1      39.535  35.875  38.888  1.00  0.00     0.060 A 
BRANCH  95  96
ATOM     96  S   UNL A   1      39.274  37.134  40.156  1.00  0.00     0.124 S 
ATOM     97  O   UNL A   1      38.616  38.190  39.393  1.00  0.00    -0.237 OA
ATOM     98  O   UNL A   1      38.434  36.433  41.123  1.00  0.00    -0.237 OA
ATOM     99  O   UNL A   1      40.625  37.440  40.616  1.00  0.00    -0.744 OA
ENDBRANCH  95  96
ENDBRANCH  63  88
ENDBRANCH  37  38
ENDBRANCH  30  32
ENDBRANCH  29  30
ENDBRANCH  28  29
ENDBRANCH  27  28
ENDBRANCH  26  27
ENDBRANCH   1  26
TORSDOF 21
ENDMDL
MODEL 2
REMARK VINA RESULT:     -10.3      1.587      2.192
REMARK SMILES Cc1c(Cl)cc2c(c1C)O[C@H](C(F)(F)F)C(C(=O)OCCOCCOCCOC(=O)c1ccc(-c3c4nc(c(-c5c(F)cc(S(=O)(=O)[O-])cc5F)c5ccc([nH]5)c(-c5c(F)cc(S(=O)(=O)[O-])cc5F)c5nc(c(-c6c(F)cc(S(=O)(=O)[O-])cc6F)c6ccc3[nH]6)C=C5)C=C4)cc1)=C2
REMARK SMILES IDX 24 1 23 2 22 3 21 4 20 5 19 6 17 7 18 8 16 9 1 10 2 11 3 12
REMARK SMILES IDX 8 13 4 14 5 15 7 16 9 17 6 18 10 19 97 20 11 21 12 22 13 23
REMARK SMILES IDX 14 24 15 25 25 26 26 27 27 28 28 29 29 30 30 31 31 32 32 33
REMARK SMILES IDX 96 34 33 35 95 36 34 37 35 38 36 39 89 40 37 41 94 42 88 43
REMARK SMILES IDX 90 44 38 45 93 46 87 47 86 48 39 50 73 51 52 52 72 53 53 54
REMARK SMILES IDX 56 55 71 56 91 57 54 58 55 59 70 61 92 62 57 63 40 64 41 65
REMARK SMILES IDX 50 66 42 67 43 68 49 69 51 70 44 71 45 72 46 73 47 74 48 75
REMARK SMILES IDX 74 76 75 77 84 78 76 79 77 80 83 81 85 82 78 83 79 84 80 85
REMARK SMILES IDX 81 86 82 87 58 88 59 89 68 90 60 91 61 92 67 93 69 94 62 95
REMARK SMILES IDX 63 96 64 97 65 98 66 99
REMARK H PARENT 90 49 56 60
REMARK Flexibility Score: inf
ROOT
ATOM      1  C   UNL A   1      35.848  21.131  25.508  1.00  0.00     0.188 C 
ENDROOT
BRANCH   1   2
ATOM      2  C   UNL A   1      34.530  21.231  26.307  1.00  0.00     0.188 C 
BRANCH   2   3
ATOM      3  O   UNL A   1      33.662  22.334  26.142  1.00  0.00    -0.376 OA
BRANCH   3   4
ATOM      4  C   UNL A   1      32.749  22.404  25.060  1.00  0.00     0.202 C 
BRANCH   4   5
ATOM      5  C   UNL A   1      33.048  23.192  23.782  1.00  0.00     0.261 C 
BRANCH   5   6
ATOM      6  O   UNL A   1      32.043  24.145  23.423  1.00  0.00    -0.460 OA
BRANCH   6   7
ATOM      7  C   UNL A   1      32.503  25.215  22.733  1.00  0.00     0.338 C 
ATOM      8  O   UNL A   1      33.257  25.200  21.774  1.00  0.00    -0.246 OA
BRANCH   7   9
ATOM      9  C   UNL A   1      31.870  26.444  23.241  1.00  0.00     0.087 C 
ATOM     10  C   UNL A   1      29.163  32.326  23.793  1.00  0.00     0.046 C 
ATOM     11  C   UNL A   1      29.527  30.890  23.508  1.00  0.00    -0.026 A 
ATOM     12  C   UNL A   1      29.038  30.224  22.367  1.00  0.00     0.045 A 
ATOM     13  C   UNL A   1      30.424  30.201  24.366  1.00  0.00    -0.004 A 
ATOM     14  Cl  UNL A   1      27.922  30.955  21.268  1.00  0.00    -0.084 Cl
ATOM     15  C   UNL A   1      29.464  28.930  22.053  1.00  0.00     0.032 A 
ATOM     16  C   UNL A   1      30.831  28.890  24.040  1.00  0.00     0.131 A 
ATOM     17  C   UNL A   1      30.984  30.827  25.620  1.00  0.00     0.049 C 
ATOM     18  C   UNL A   1      30.384  28.275  22.870  1.00  0.00     0.019 A 
ATOM     19  O   UNL A   1      31.681  28.274  24.920  1.00  0.00    -0.475 OA
ATOM     20  C   UNL A   1      30.936  26.997  22.458  1.00  0.00     0.027 C 
ATOM     21  C   UNL A   1      32.310  27.017  24.557  1.00  0.00     0.316 C 
BRANCH  21  22
ATOM     22  C   UNL A   1      33.832  27.201  24.647  1.00  0.00     0.430 C 
ATOM     23  F   UNL A   1      34.313  27.836  23.550  1.00  0.00    -0.167 F 
ATOM     24  F   UNL A   1      34.188  27.957  25.712  1.00  0.00    -0.167 F 
ATOM     25  F   UNL A   1      34.486  26.022  24.749  1.00  0.00    -0.167 F 
ENDBRANCH  21  22
ENDBRANCH   7   9
ENDBRANCH   6   7
ENDBRANCH   5   6
ENDBRANCH   4   5
ENDBRANCH   3   4
ENDBRANCH   2   3
ENDBRANCH   1   2
BRANCH   1  26
ATOM     26  O   UNL A   1      36.489  22.286  25.003  1.00  0.00    -0.376 OA
BRANCH  26  27
ATOM     27  C   UNL A   1      37.809  22.593  25.426  1.00  0.00     0.202 C 
BRANCH  27  28
ATOM     28  C   UNL A   1      38.156  23.963  26.017  1.00  0.00     0.261 C 
BRANCH  28  29
ATOM     29  O   UNL A   1      39.368  23.989  26.782  1.00  0.00    -0.460 OA
BRANCH  29  30
ATOM     30  C   UNL A   1      40.205  25.016  26.491  1.00  0.00     0.338 C 
ATOM     31  O   UNL A   1      40.666  25.306  25.400  1.00  0.00    -0.246 OA
BRANCH  30  32
ATOM     32  C   UNL A   1      40.345  25.879  27.676  1.00  0.00     0.060 A 
ATOM     33  C   UNL A   1      39.354  25.813  28.664  1.00  0.00     0.016 A 
ATOM     34  C   UNL A   1      41.410  26.774  27.793  1.00  0.00     0.016 A 
ATOM     35  C   UNL A   1      39.414  26.659  29.768  1.00  0.00     0.010 A 
ATOM     36  C   UNL A   1      41.453  27.643  28.886  1.00  0.00     0.010 A 
ATOM     37  C   UNL A   1      40.441  27.607  29.863  1.00  0.00    -0.014 A 
BRANCH  37  38
ATOM     38  C   UNL A   1      40.355  28.678  30.882  1.00  0.00     0.031 A 
ATOM     39  C   UNL A   1      41.294  28.627  32.054  1.00  0.00     0.074 A 
ATOM     40  C   UNL A   1      39.478  29.689  30.755  1.00  0.00     0.049 A 
ATOM     41  N   UNL A   1      41.379  29.428  33.084  1.00  0.00    -0.248 NA
ATOM     42  C   UNL A   1      42.272  27.525  32.064  1.00  0.00     0.031 C 
ATOM     43  C   UNL A   1      38.554  29.873  29.637  1.00  0.00     0.029 A 
ATOM     44  N   UNL A   1      39.222  30.754  31.583  1.00  0.00    -0.354 N 
ATOM     45  C   UNL A   1      42.423  28.936  33.858  1.00  0.00     0.074 A 
ATOM     46  C   UNL A   1      42.920  27.748  33.198  1.00  0.00     0.031 C 
ATOM     47  C   UNL A   1      37.826  30.984  29.854  1.00  0.00     0.029 A 
ATOM     48  C   UNL A   1      38.211  31.570  31.137  1.00  0.00     0.049 A 
ATOM     49  H   UNL A   1      39.718  30.916  32.419  1.00  0.00     0.167 HD
ATOM     50  C   UNL A   1      42.929  29.435  35.009  1.00  0.00     0.037 A 
ATOM     51  C   UNL A   1      37.651  32.654  31.712  1.00  0.00     0.037 A 
ATOM     52  C   UNL A   1      42.419  30.605  35.672  1.00  0.00     0.049 A 
ATOM     53  C   UNL A   1      38.164  33.133  33.045  1.00  0.00     0.074 A 
ATOM     54  C   UNL A   1      42.855  31.182  36.853  1.00  0.00     0.029 A 
ATOM     55  N   UNL A   1      41.358  31.375  35.218  1.00  0.00    -0.354 N 
ATOM     56  N   UNL A   1      39.150  32.658  33.770  1.00  0.00    -0.248 NA
ATOM     57  C   UNL A   1      37.487  34.294  33.643  1.00  0.00     0.031 C 
ATOM     58  C   UNL A   1      42.029  32.274  37.134  1.00  0.00     0.029 A 
ATOM     59  C   UNL A   1      41.111  32.408  36.104  1.00  0.00     0.049 A 
ATOM     60  H   UNL A   1      40.857  31.210  34.387  1.00  0.00     0.167 HD
ATOM     61  C   UNL A   1      39.227  33.477  34.894  1.00  0.00     0.074 A 
ATOM     62  C   UNL A   1      38.193  34.480  34.751  1.00  0.00     0.031 C 
ATOM     63  C   UNL A   1      40.080  33.405  35.946  1.00  0.00     0.037 A 
BRANCH  50  64
ATOM     64  C   UNL A   1      44.083  28.705  35.634  1.00  0.00     0.058 A 
ATOM     65  C   UNL A   1      43.880  27.636  36.521  1.00  0.00     0.135 A 
ATOM     66  C   UNL A   1      45.405  29.054  35.317  1.00  0.00     0.135 A 
ATOM     67  F   UNL A   1      42.636  27.279  36.876  1.00  0.00    -0.206 F 
ATOM     68  C   UNL A   1      44.949  26.948  37.084  1.00  0.00     0.059 A 
ATOM     69  C   UNL A   1      46.489  28.364  35.850  1.00  0.00     0.059 A 
ATOM     70  F   UNL A   1      45.653  30.074  34.481  1.00  0.00    -0.206 F 
ATOM     71  C   UNL A   1      46.250  27.318  36.741  1.00  0.00     0.060 A 
BRANCH  71  72
ATOM     72  S   UNL A   1      47.625  26.403  37.470  1.00  0.00     0.124 S 
ATOM     73  O   UNL A   1      48.196  25.751  36.296  1.00  0.00    -0.237 OA
ATOM     74  O   UNL A   1      48.430  27.470  38.057  1.00  0.00    -0.237 OA
ATOM     75  O   UNL A   1      46.974  25.514  38.427  1.00  0.00    -0.744 OA
ENDBRANCH  71  72
ENDBRANCH  50  64
BRANCH  51  76
ATOM     76  C   UNL A   1      36.536  33.362  31.029  1.00  0.00     0.058 A 
ATOM     77  C   UNL A   1      35.215  33.240  31.486  1.00  0.00     0.135 A 
ATOM     78  C   UNL A   1      36.766  34.178  29.911  1.00  0.00     0.135 A 
ATOM     79  F   UNL A   1      34.942  32.459  32.543  1.00  0.00    -0.206 F 
ATOM     80  C   UNL A   1      34.162  33.896  30.858  1.00  0.00     0.059 A 
ATOM     81  C   UNL A   1      35.733  34.862  29.278  1.00  0.00     0.059 A 
ATOM     82  F   UNL A   1      38.012  34.332  29.436  1.00  0.00    -0.206 F 
ATOM     83  C   UNL A   1      34.433  34.710  29.757  1.00  0.00     0.060 A 
BRANCH  83  84
ATOM     84  S   UNL A   1      33.064  35.600  28.984  1.00  0.00     0.124 S 
ATOM     85  O   UNL A   1      32.416  34.540  28.220  1.00  0.00    -0.237 OA
ATOM     86  O   UNL A   1      32.328  36.094  30.144  1.00  0.00    -0.237 OA
ATOM     87  O   UNL A   1      33.735  36.628  28.192  1.00  0.00    -0.744 OA
ENDBRANCH  83  84
ENDBRANCH  51  76
BRANCH  63  88
ATOM     88  C   UNL A   1      39.958  34.449  37.020  1.00  0.00     0.058 A 
ATOM     89  C   UNL A   1      40.660  35.662  36.951  1.00  0.00     0.135 A 
ATOM     90  C   UNL A   1      39.062  34.270  38.087  1.00  0.00     0.135 A 
ATOM     91  F   UNL A   1      41.532  35.882  35.955  1.00  0.00    -0.206 F 
ATOM     92  C   UNL A   1      40.487  36.657  37.909  1.00  0.00     0.059 A 
ATOM     93  C   UNL A   1      38.855  35.261  39.043  1.00  0.00     0.059 A 
ATOM     94  F   UNL A   1      38.357  33.132  38.195  1.00  0.00    -0.206 F 
ATOM     95  C   UNL A   1      39.577  36.449  38.948  1.00  0.00     0.060 A 
BRANCH  95  96
ATOM     96  S   UNL A   1      39.325  37.771  40.153  1.00  0.00     0.124 S 
ATOM     97  O   UNL A   1      39.119  37.013  41.383  1.00  0.00    -0.237 OA
ATOM     98  O   UNL A   1      40.579  38.512  40.069  1.00  0.00    -0.237 OA
ATOM     99  O   UNL A   1      38.153  38.476  39.645  1.00  0.00    -0.744 OA
ENDBRANCH  95  96
ENDBRANCH  63  88
ENDBRANCH  37  38
ENDBRANCH  30  32
ENDBRANCH  29  30
ENDBRANCH  28  29
ENDBRANCH  27  28
ENDBRANCH  26  27
ENDBRANCH   1  26
TORSDOF 21
ENDMDL
MODEL 3
REMARK VINA RESULT:     -10.2      2.653      8.379
REMARK SMILES Cc1c(Cl)cc2c(c1C)O[C@H](C(F)(F)F)C(C(=O)OCCOCCOCCOC(=O)c1ccc(-c3c4nc(c(-c5c(F)cc(S(=O)(=O)[O-])cc5F)c5ccc([nH]5)c(-c5c(F)cc(S(=O)(=O)[O-])cc5F)c5nc(c(-c6c(F)cc(S(=O)(=O)[O-])cc6F)c6ccc3[nH]6)C=C5)C=C4)cc1)=C2
REMARK SMILES IDX 24 1 23 2 22 3 21 4 20 5 19 6 17 7 18 8 16 9 1 10 2 11 3 12
REMARK SMILES IDX 8 13 4 14 5 15 7 16 9 17 6 18 10 19 97 20 11 21 12 22 13 23
REMARK SMILES IDX 14 24 15 25 25 26 26 27 27 28 28 29 29 30 30 31 31 32 32 33
REMARK SMILES IDX 96 34 33 35 95 36 34 37 35 38 36 39 89 40 37 41 94 42 88 43
REMARK SMILES IDX 90 44 38 45 93 46 87 47 86 48 39 50 73 51 52 52 72 53 53 54
REMARK SMILES IDX 56 55 71 56 91 57 54 58 55 59 70 61 92 62 57 63 40 64 41 65
REMARK SMILES IDX 50 66 42 67 43 68 49 69 51 70 44 71 45 72 46 73 47 74 48 75
REMARK SMILES IDX 74 76 75 77 84 78 76 79 77 80 83 81 85 82 78 83 79 84 80 85
REMARK SMILES IDX 81 86 82 87 58 88 59 89 68 90 60 91 61 92 67 93 69 94 62 95
REMARK SMILES IDX 63 96 64 97 65 98 66 99
REMARK H PARENT 90 49 56 60
REMARK Flexibility Score: inf
ROOT
ATOM      1  C   UNL A   1      34.793  20.328  24.910  1.00  0.00     0.188 C 
ENDROOT
BRANCH   1   2
ATOM      2  C   UNL A   1      33.548  20.509  25.805  1.00  0.00     0.188 C 
BRANCH   2   3
ATOM      3  O   UNL A   1      33.678  20.813  27.179  1.00  0.00    -0.376 OA
BRANCH   3   4
ATOM      4  C   UNL A   1      33.641  22.149  27.650  1.00  0.00     0.202 C 
BRANCH   4   5
ATOM      5  C   UNL A   1      33.890  23.350  26.734  1.00  0.00     0.261 C 
BRANCH   5   6
ATOM      6  O   UNL A   1      32.717  23.869  26.102  1.00  0.00    -0.460 OA
BRANCH   6   7
ATOM      7  C   UNL A   1      32.914  24.343  24.849  1.00  0.00     0.338 C 
ATOM      8  O   UNL A   1      33.230  23.698  23.863  1.00  0.00    -0.246 OA
BRANCH   7   9
ATOM      9  C   UNL A   1      32.585  25.778  24.803  1.00  0.00     0.087 C 
ATOM     10  C   UNL A   1      31.382  31.979  26.328  1.00  0.00     0.046 C 
ATOM     11  C   UNL A   1      31.957  30.611  26.059  1.00  0.00    -0.026 A 
ATOM     12  C   UNL A   1      33.069  30.130  26.776  1.00  0.00     0.045 A 
ATOM     13  C   UNL A   1      31.340  29.756  25.107  1.00  0.00    -0.004 A 
ATOM     14  Cl  UNL A   1      33.914  31.091  27.939  1.00  0.00    -0.084 Cl
ATOM     15  C   UNL A   1      33.530  28.823  26.596  1.00  0.00     0.032 A 
ATOM     16  C   UNL A   1      31.829  28.444  24.929  1.00  0.00     0.131 A 
ATOM     17  C   UNL A   1      30.156  30.191  24.278  1.00  0.00     0.049 C 
ATOM     18  C   UNL A   1      32.892  27.969  25.698  1.00  0.00     0.019 A 
ATOM     19  O   UNL A   1      31.202  27.679  23.980  1.00  0.00    -0.475 OA
ATOM     20  C   UNL A   1      33.277  26.571  25.628  1.00  0.00     0.027 C 
ATOM     21  C   UNL A   1      31.502  26.262  23.883  1.00  0.00     0.316 C 
BRANCH  21  22
ATOM     22  C   UNL A   1      30.188  25.484  24.050  1.00  0.00     0.430 C 
ATOM     23  F   UNL A   1      29.968  25.168  25.350  1.00  0.00    -0.167 F 
ATOM     24  F   UNL A   1      29.116  26.209  23.648  1.00  0.00    -0.167 F 
ATOM     25  F   UNL A   1      30.183  24.329  23.347  1.00  0.00    -0.167 F 
ENDBRANCH  21  22
ENDBRANCH   7   9
ENDBRANCH   6   7
ENDBRANCH   5   6
ENDBRANCH   4   5
ENDBRANCH   3   4
ENDBRANCH   2   3
ENDBRANCH   1   2
BRANCH   1  26
ATOM     26  O   UNL A   1      35.370  21.424  24.225  1.00  0.00    -0.376 OA
BRANCH  26  27
ATOM     27  C   UNL A   1      36.743  21.723  24.420  1.00  0.00     0.202 C 
BRANCH  27  28
ATOM     28  C   UNL A   1      37.260  22.245  25.764  1.00  0.00     0.261 C 
BRANCH  28  29
ATOM     29  O   UNL A   1      38.050  23.437  25.674  1.00  0.00    -0.460 OA
BRANCH  29  30
ATOM     30  C   UNL A   1      39.259  23.369  26.285  1.00  0.00     0.338 C 
ATOM     31  O   UNL A   1      40.112  22.509  26.141  1.00  0.00    -0.246 OA
BRANCH  30  32
ATOM     32  C   UNL A   1      39.494  24.613  27.037  1.00  0.00     0.060 A 
ATOM     33  C   UNL A   1      40.312  25.593  26.457  1.00  0.00     0.016 A 
ATOM     34  C   UNL A   1      38.956  24.797  28.312  1.00  0.00     0.016 A 
ATOM     35  C   UNL A   1      40.613  26.755  27.163  1.00  0.00     0.010 A 
ATOM     36  C   UNL A   1      39.283  25.950  29.030  1.00  0.00     0.010 A 
ATOM     37  C   UNL A   1      40.133  26.919  28.468  1.00  0.00    -0.014 A 
BRANCH  37  38
ATOM     38  C   UNL A   1      40.670  28.013  29.311  1.00  0.00     0.031 A 
ATOM     39  C   UNL A   1      39.815  29.229  29.533  1.00  0.00     0.074 A 
ATOM     40  C   UNL A   1      41.881  27.917  29.887  1.00  0.00     0.049 A 
ATOM     41  N   UNL A   1      40.085  30.322  30.198  1.00  0.00    -0.248 NA
ATOM     42  C   UNL A   1      38.473  29.208  28.927  1.00  0.00     0.031 C 
ATOM     43  C   UNL A   1      42.778  26.766  29.786  1.00  0.00     0.029 A 
ATOM     44  N   UNL A   1      42.566  28.810  30.673  1.00  0.00    -0.354 N 
ATOM     45  C   UNL A   1      38.947  31.113  30.100  1.00  0.00     0.074 A 
ATOM     46  C   UNL A   1      37.995  30.390  29.284  1.00  0.00     0.031 C 
ATOM     47  C   UNL A   1      43.900  27.028  30.480  1.00  0.00     0.029 A 
ATOM     48  C   UNL A   1      43.813  28.374  31.048  1.00  0.00     0.049 A 
ATOM     49  H   UNL A   1      42.197  29.683  30.942  1.00  0.00     0.167 HD
ATOM     50  C   UNL A   1      38.712  32.327  30.649  1.00  0.00     0.037 A 
ATOM     51  C   UNL A   1      44.779  28.998  31.752  1.00  0.00     0.037 A 
ATOM     52  C   UNL A   1      39.668  33.050  31.445  1.00  0.00     0.049 A 
ATOM     53  C   UNL A   1      44.533  30.393  32.269  1.00  0.00     0.074 A 
ATOM     54  C   UNL A   1      39.530  34.295  32.033  1.00  0.00     0.029 A 
ATOM     55  N   UNL A   1      40.942  32.598  31.757  1.00  0.00    -0.354 N 
ATOM     56  N   UNL A   1      43.453  31.133  32.167  1.00  0.00    -0.248 NA
ATOM     57  C   UNL A   1      45.636  31.041  32.994  1.00  0.00     0.031 C 
ATOM     58  C   UNL A   1      40.736  34.614  32.665  1.00  0.00     0.029 A 
ATOM     59  C   UNL A   1      41.607  33.548  32.513  1.00  0.00     0.049 A 
ATOM     60  H   UNL A   1      41.316  31.730  31.483  1.00  0.00     0.167 HD
ATOM     61  C   UNL A   1      43.739  32.320  32.836  1.00  0.00     0.074 A 
ATOM     62  C   UNL A   1      45.090  32.198  33.344  1.00  0.00     0.031 C 
ATOM     63  C   UNL A   1      42.952  33.410  33.017  1.00  0.00     0.037 A 
BRANCH  50  64
ATOM     64  C   UNL A   1      37.373  32.957  30.394  1.00  0.00     0.058 A 
ATOM     65  C   UNL A   1      36.316  32.826  31.309  1.00  0.00     0.135 A 
ATOM     66  C   UNL A   1      37.154  33.727  29.242  1.00  0.00     0.135 A 
ATOM     67  F   UNL A   1      36.467  32.079  32.414  1.00  0.00    -0.206 F 
ATOM     68  C   UNL A   1      35.082  33.426  31.082  1.00  0.00     0.059 A 
ATOM     69  C   UNL A   1      35.935  34.356  29.007  1.00  0.00     0.059 A 
ATOM     70  F   UNL A   1      38.129  33.876  28.332  1.00  0.00    -0.206 F 
ATOM     71  C   UNL A   1      34.902  34.191  29.929  1.00  0.00     0.060 A 
BRANCH  71  72
ATOM     72  S   UNL A   1      33.298  34.973  29.658  1.00  0.00     0.124 S 
ATOM     73  O   UNL A   1      33.694  36.258  29.087  1.00  0.00    -0.237 OA
ATOM     74  O   UNL A   1      32.650  34.044  28.738  1.00  0.00    -0.237 OA
ATOM     75  O   UNL A   1      32.718  35.035  30.996  1.00  0.00    -0.744 OA
ENDBRANCH  71  72
ENDBRANCH  50  64
BRANCH  51  76
ATOM     76  C   UNL A   1      46.072  28.311  32.009  1.00  0.00     0.058 A 
ATOM     77  C   UNL A   1      46.263  27.542  33.166  1.00  0.00     0.135 A 
ATOM     78  C   UNL A   1      47.141  28.406  31.104  1.00  0.00     0.135 A 
ATOM     79  F   UNL A   1      45.277  27.433  34.069  1.00  0.00    -0.206 F 
ATOM     80  C   UNL A   1      47.467  26.894  33.420  1.00  0.00     0.059 A 
ATOM     81  C   UNL A   1      48.347  27.749  31.325  1.00  0.00     0.059 A 
ATOM     82  F   UNL A   1      47.008  29.127  29.979  1.00  0.00    -0.206 F 
ATOM     83  C   UNL A   1      48.503  27.000  32.490  1.00  0.00     0.060 A 
BRANCH  83  84
ATOM     84  S   UNL A   1      50.042  26.108  32.805  1.00  0.00     0.124 S 
ATOM     85  O   UNL A   1      51.040  27.128  32.502  1.00  0.00    -0.237 OA
ATOM     86  O   UNL A   1      49.902  25.749  34.213  1.00  0.00    -0.237 OA
ATOM     87  O   UNL A   1      49.980  24.989  31.870  1.00  0.00    -0.744 OA
ENDBRANCH  83  84
ENDBRANCH  51  76
BRANCH  63  88
ATOM     88  C   UNL A   1      43.511  34.554  33.815  1.00  0.00     0.058 A 
ATOM     89  C   UNL A   1      44.037  35.697  33.194  1.00  0.00     0.135 A 
ATOM     90  C   UNL A   1      43.440  34.544  35.218  1.00  0.00     0.135 A 
ATOM     91  F   UNL A   1      44.132  35.756  31.857  1.00  0.00    -0.206 F 
ATOM     92  C   UNL A   1      44.485  36.786  33.936  1.00  0.00     0.059 A 
ATOM     93  C   UNL A   1      43.859  35.632  35.979  1.00  0.00     0.059 A 
ATOM     94  F   UNL A   1      42.934  33.480  35.862  1.00  0.00    -0.206 F 
ATOM     95  C   UNL A   1      44.386  36.746  35.329  1.00  0.00     0.060 A 
BRANCH  95  96
ATOM     96  S   UNL A   1      44.922  38.188  36.275  1.00  0.00     0.124 S 
ATOM     97  O   UNL A   1      45.058  39.194  35.227  1.00  0.00    -0.237 OA
ATOM     98  O   UNL A   1      43.811  38.384  37.201  1.00  0.00    -0.237 OA
ATOM     99  O   UNL A   1      46.171  37.748  36.888  1.00  0.00    -0.744 OA
ENDBRANCH  95  96
ENDBRANCH  63  88
ENDBRANCH  37  38
ENDBRANCH  30  32
ENDBRANCH  29  30
ENDBRANCH  28  29
ENDBRANCH  27  28
ENDBRANCH  26  27
ENDBRANCH   1  26
TORSDOF 21
ENDMDL
