MODEL 1
REMARK VINA RESULT:      -9.3      0.000      0.000
REMARK SMILES O=C(CCC(=O)N1CCC(c2nnc3ccccn23)CC1)OCCOCCOCCOC(=O)c1ccc(-c2c3nc(c(-c4c(F)cc(S(=O)(=O)[O-])cc4F)c4ccc([nH]4)c(-c4c(F)cc(S(=O)(=O)[O-])cc4F)c4nc(c(-c5c(F)cc(S(=O)(=O)[O-])cc5F)c5ccc2[nH]5)C=C4)C=C3)cc1
REMARK SMILES IDX 26 1 25 2 24 3 23 4 22 5 2 6 1 7 3 8 4 9 5 10 6 11 7 12 8 13
REMARK SMILES IDX 21 14 9 15 20 16 10 17 11 18 12 19 19 20 13 21 14 22 18 23
REMARK SMILES IDX 15 24 17 25 16 26 27 27 28 28 29 29 30 30 31 31 32 32 33 33
REMARK SMILES IDX 34 34 35 35 99 36 36 37 98 38 37 39 38 40 39 41 92 42 40 43
REMARK SMILES IDX 97 44 91 45 93 46 41 47 96 48 90 49 89 50 42 52 76 53 55 54
REMARK SMILES IDX 75 55 56 56 59 57 74 58 94 59 57 60 58 61 73 63 95 64 60 65
REMARK SMILES IDX 43 66 44 67 53 68 45 69 46 70 52 71 54 72 47 73 48 74 49 75
REMARK SMILES IDX 50 76 51 77 77 78 78 79 87 80 79 81 80 82 86 83 88 84 81 85
REMARK SMILES IDX 82 86 83 87 84 88 85 89 61 90 62 91 71 92 63 93 64 94 70 95
REMARK SMILES IDX 72 96 65 97 66 98 67 99 68 100 69 101
REMARK H PARENT 93 51 59 62
REMARK Flexibility Score: inf
ROOT
ATOM      1  C   UNL A   1      40.238  23.365  26.637  1.00  0.00     0.188 C 
ENDROOT
BRANCH   1   2
ATOM      2  O   UNL A   1      39.146  22.489  26.901  1.00  0.00    -0.376 OA
BRANCH   2   3
ATOM      3  C   UNL A   1      38.443  21.919  25.807  1.00  0.00     0.202 C 
BRANCH   3   4
ATOM      4  C   UNL A   1      37.397  22.797  25.126  1.00  0.00     0.261 C 
BRANCH   4   5
ATOM      5  O   UNL A   1      36.146  22.109  24.933  1.00  0.00    -0.463 OA
BRANCH   5   6
ATOM      6  C   UNL A   1      35.963  20.772  24.904  1.00  0.00     0.306 C 
ATOM      7  O   UNL A   1      36.927  20.009  24.969  1.00  0.00    -0.252 OA
BRANCH   6   8
ATOM      8  C   UNL A   1      34.572  20.241  24.928  1.00  0.00     0.132 C 
BRANCH   8   9
ATOM      9  C   UNL A   1      33.672  21.276  25.573  1.00  0.00     0.112 C 
BRANCH   9  10
ATOM     10  C   UNL A   1      32.658  21.857  24.607  1.00  0.00     0.223 C 
ATOM     11  O   UNL A   1      32.418  21.236  23.566  1.00  0.00    -0.275 OA
ATOM     12  N   UNL A   1      32.024  23.057  24.899  1.00  0.00    -0.343 N 
ATOM     13  C   UNL A   1      30.853  23.416  24.112  1.00  0.00     0.120 C 
ATOM     14  C   UNL A   1      32.384  24.040  25.933  1.00  0.00     0.120 C 
ATOM     15  C   UNL A   1      31.024  24.773  23.456  1.00  0.00     0.033 C 
ATOM     16  C   UNL A   1      32.558  25.451  25.338  1.00  0.00     0.033 C 
ATOM     17  C   UNL A   1      31.334  25.854  24.504  1.00  0.00     0.062 C 
BRANCH  17  18
ATOM     18  C   UNL A   1      31.484  27.173  23.805  1.00  0.00     0.140 A 
ATOM     19  N   UNL A   1      32.597  27.744  23.384  1.00  0.00    -0.134 NA
ATOM     20  N   UNL A   1      30.406  27.920  23.369  1.00  0.00    -0.286 N 
ATOM     21  N   UNL A   1      32.263  28.854  22.636  1.00  0.00    -0.130 NA
ATOM     22  C   UNL A   1      30.954  28.941  22.608  1.00  0.00     0.160 A 
ATOM     23  C   UNL A   1      29.033  27.751  23.548  1.00  0.00     0.095 A 
ATOM     24  C   UNL A   1      30.052  29.832  21.960  1.00  0.00     0.050 A 
ATOM     25  C   UNL A   1      28.183  28.599  22.946  1.00  0.00     0.019 A 
ATOM     26  C   UNL A   1      28.723  29.667  22.119  1.00  0.00     0.005 A 
ENDBRANCH  17  18
ENDBRANCH   9  10
ENDBRANCH   8   9
ENDBRANCH   6   8
ENDBRANCH   5   6
ENDBRANCH   4   5
ENDBRANCH   3   4
ENDBRANCH   2   3
ENDBRANCH   1   2
BRANCH   1  27
ATOM     27  C   UNL A   1      41.441  23.465  27.607  1.00  0.00     0.188 C 
BRANCH  27  28
ATOM     28  O   UNL A   1      42.723  23.355  27.004  1.00  0.00    -0.376 OA
BRANCH  28  29
ATOM     29  C   UNL A   1      42.732  23.457  25.582  1.00  0.00     0.202 C 
BRANCH  29  30
ATOM     30  C   UNL A   1      43.579  24.623  25.053  1.00  0.00     0.261 C 
BRANCH  30  31
ATOM     31  O   UNL A   1      43.779  25.693  25.993  1.00  0.00    -0.460 OA
BRANCH  31  32
ATOM     32  C   UNL A   1      42.830  26.655  26.039  1.00  0.00     0.338 C 
ATOM     33  O   UNL A   1      41.867  26.761  25.299  1.00  0.00    -0.246 OA
BRANCH  32  34
ATOM     34  C   UNL A   1      43.019  27.430  27.289  1.00  0.00     0.060 A 
ATOM     35  C   UNL A   1      42.481  26.914  28.477  1.00  0.00     0.016 A 
ATOM     36  C   UNL A   1      43.790  28.600  27.320  1.00  0.00     0.016 A 
ATOM     37  C   UNL A   1      42.662  27.595  29.683  1.00  0.00     0.010 A 
ATOM     38  C   UNL A   1      43.955  29.293  28.525  1.00  0.00     0.010 A 
ATOM     39  C   UNL A   1      43.343  28.821  29.699  1.00  0.00    -0.014 A 
BRANCH  39  40
ATOM     40  C   UNL A   1      43.082  29.756  30.824  1.00  0.00     0.031 A 
ATOM     41  C   UNL A   1      41.778  30.514  30.774  1.00  0.00     0.074 A 
ATOM     42  C   UNL A   1      43.914  29.909  31.869  1.00  0.00     0.049 A 
ATOM     43  N   UNL A   1      41.252  31.333  31.645  1.00  0.00    -0.248 NA
ATOM     44  C   UNL A   1      40.953  30.311  29.567  1.00  0.00     0.031 C 
ATOM     45  C   UNL A   1      45.195  29.230  32.050  1.00  0.00     0.029 A 
ATOM     46  N   UNL A   1      43.792  30.699  32.988  1.00  0.00    -0.354 N 
ATOM     47  C   UNL A   1      40.037  31.731  31.097  1.00  0.00     0.074 A 
ATOM     48  C   UNL A   1      39.921  31.102  29.803  1.00  0.00     0.031 C 
ATOM     49  C   UNL A   1      45.741  29.631  33.215  1.00  0.00     0.029 A 
ATOM     50  C   UNL A   1      44.853  30.602  33.857  1.00  0.00     0.049 A 
ATOM     51  H   UNL A   1      43.015  31.280  33.152  1.00  0.00     0.167 HD
ATOM     52  C   UNL A   1      39.090  32.536  31.627  1.00  0.00     0.037 A 
ATOM     53  C   UNL A   1      45.072  31.224  35.035  1.00  0.00     0.037 A 
ATOM     54  C   UNL A   1      39.207  33.181  32.904  1.00  0.00     0.049 A 
ATOM     55  C   UNL A   1      44.023  32.162  35.585  1.00  0.00     0.074 A 
ATOM     56  C   UNL A   1      38.302  34.014  33.534  1.00  0.00     0.029 A 
ATOM     57  N   UNL A   1      40.307  33.071  33.741  1.00  0.00    -0.354 N 
ATOM     58  N   UNL A   1      42.857  32.491  35.081  1.00  0.00    -0.248 NA
ATOM     59  C   UNL A   1      44.316  32.805  36.876  1.00  0.00     0.031 C 
ATOM     60  C   UNL A   1      38.874  34.445  34.736  1.00  0.00     0.029 A 
ATOM     61  C   UNL A   1      40.111  33.836  34.878  1.00  0.00     0.049 A 
ATOM     62  H   UNL A   1      41.107  32.529  33.555  1.00  0.00     0.167 HD
ATOM     63  C   UNL A   1      42.259  33.337  36.013  1.00  0.00     0.074 A 
ATOM     64  C   UNL A   1      43.194  33.473  37.110  1.00  0.00     0.031 C 
ATOM     65  C   UNL A   1      41.044  33.940  35.970  1.00  0.00     0.037 A 
BRANCH  52  66
ATOM     66  C   UNL A   1      37.863  32.782  30.797  1.00  0.00     0.058 A 
ATOM     67  C   UNL A   1      37.858  33.713  29.745  1.00  0.00     0.135 A 
ATOM     68  C   UNL A   1      36.672  32.091  31.069  1.00  0.00     0.135 A 
ATOM     69  F   UNL A   1      38.962  34.423  29.464  1.00  0.00    -0.206 F 
ATOM     70  C   UNL A   1      36.706  33.970  29.009  1.00  0.00     0.059 A 
ATOM     71  C   UNL A   1      35.516  32.313  30.329  1.00  0.00     0.059 A 
ATOM     72  F   UNL A   1      36.622  31.201  32.071  1.00  0.00    -0.206 F 
ATOM     73  C   UNL A   1      35.539  33.267  29.312  1.00  0.00     0.060 A 
BRANCH  73  74
ATOM     74  S   UNL A   1      34.050  33.611  28.352  1.00  0.00     0.124 S 
ATOM     75  O   UNL A   1      34.555  34.558  27.362  1.00  0.00    -0.237 OA
ATOM     76  O   UNL A   1      33.694  32.292  27.841  1.00  0.00    -0.237 OA
ATOM     77  O   UNL A   1      33.130  34.167  29.340  1.00  0.00    -0.744 OA
ENDBRANCH  73  74
ENDBRANCH  52  66
BRANCH  53  78
ATOM     78  C   UNL A   1      46.325  30.970  35.802  1.00  0.00     0.058 A 
ATOM     79  C   UNL A   1      47.467  31.763  35.612  1.00  0.00     0.135 A 
ATOM     80  C   UNL A   1      46.416  29.908  36.714  1.00  0.00     0.135 A 
ATOM     81  F   UNL A   1      47.439  32.781  34.738  1.00  0.00    -0.206 F 
ATOM     82  C   UNL A   1      48.659  31.503  36.284  1.00  0.00     0.059 A 
ATOM     83  C   UNL A   1      47.589  29.642  37.416  1.00  0.00     0.059 A 
ATOM     84  F   UNL A   1      45.353  29.119  36.937  1.00  0.00    -0.206 F 
ATOM     85  C   UNL A   1      48.709  30.439  37.185  1.00  0.00     0.060 A 
BRANCH  85  86
ATOM     86  S   UNL A   1      50.248  30.135  38.083  1.00  0.00     0.124 S 
ATOM     87  O   UNL A   1      51.033  29.413  37.088  1.00  0.00    -0.237 OA
ATOM     88  O   UNL A   1      50.698  31.489  38.390  1.00  0.00    -0.237 OA
ATOM     89  O   UNL A   1      49.814  29.351  39.235  1.00  0.00    -0.744 OA
ENDBRANCH  85  86
ENDBRANCH  53  78
BRANCH  65  90
ATOM     90  C   UNL A   1      40.619  34.747  37.167  1.00  0.00     0.058 A 
ATOM     91  C   UNL A   1      40.920  36.111  37.292  1.00  0.00     0.135 A 
ATOM     92  C   UNL A   1      39.851  34.149  38.181  1.00  0.00     0.135 A 
ATOM     93  F   UNL A   1      41.648  36.732  36.352  1.00  0.00    -0.206 F 
ATOM     94  C   UNL A   1      40.501  36.848  38.397  1.00  0.00     0.059 A 
ATOM     95  C   UNL A   1      39.398  34.873  39.280  1.00  0.00     0.059 A 
ATOM     96  F   UNL A   1      39.519  32.851  38.103  1.00  0.00    -0.206 F 
ATOM     97  C   UNL A   1      39.744  36.219  39.387  1.00  0.00     0.060 A 
BRANCH  97  98
ATOM     98  S   UNL A   1      39.195  37.185  40.810  1.00  0.00     0.124 S 
ATOM     99  O   UNL A   1      38.339  38.182  40.175  1.00  0.00    -0.237 OA
ATOM    100  O   UNL A   1      38.509  36.187  41.624  1.00  0.00    -0.237 OA
ATOM    101  O   UNL A   1      40.441  37.695  41.375  1.00  0.00    -0.744 OA
ENDBRANCH  97  98
ENDBRANCH  65  90
ENDBRANCH  39  40
ENDBRANCH  32  34
ENDBRANCH  31  32
ENDBRANCH  30  31
ENDBRANCH  29  30
ENDBRANCH  28  29
ENDBRANCH  27  28
ENDBRANCH   1  27
TORSDOF 23
ENDMDL
MODEL 2
REMARK VINA RESULT:      -9.3      5.943     13.722
REMARK SMILES O=C(CCC(=O)N1CCC(c2nnc3ccccn23)CC1)OCCOCCOCCOC(=O)c1ccc(-c2c3nc(c(-c4c(F)cc(S(=O)(=O)[O-])cc4F)c4ccc([nH]4)c(-c4c(F)cc(S(=O)(=O)[O-])cc4F)c4nc(c(-c5c(F)cc(S(=O)(=O)[O-])cc5F)c5ccc2[nH]5)C=C4)C=C3)cc1
REMARK SMILES IDX 26 1 25 2 24 3 23 4 22 5 2 6 1 7 3 8 4 9 5 10 6 11 7 12 8 13
REMARK SMILES IDX 21 14 9 15 20 16 10 17 11 18 12 19 19 20 13 21 14 22 18 23
REMARK SMILES IDX 15 24 17 25 16 26 27 27 28 28 29 29 30 30 31 31 32 32 33 33
REMARK SMILES IDX 34 34 35 35 99 36 36 37 98 38 37 39 38 40 39 41 92 42 40 43
REMARK SMILES IDX 97 44 91 45 93 46 41 47 96 48 90 49 89 50 42 52 76 53 55 54
REMARK SMILES IDX 75 55 56 56 59 57 74 58 94 59 57 60 58 61 73 63 95 64 60 65
REMARK SMILES IDX 43 66 44 67 53 68 45 69 46 70 52 71 54 72 47 73 48 74 49 75
REMARK SMILES IDX 50 76 51 77 77 78 78 79 87 80 79 81 80 82 86 83 88 84 81 85
REMARK SMILES IDX 82 86 83 87 84 88 85 89 61 90 62 91 71 92 63 93 64 94 70 95
REMARK SMILES IDX 72 96 65 97 66 98 67 99 68 100 69 101
REMARK H PARENT 93 51 59 62
REMARK Flexibility Score: inf
ROOT
ATOM      1  C   UNL A   1      49.523  26.167  30.223  1.00  0.00     0.188 C 
ENDROOT
BRANCH   1   2
ATOM      2  O   UNL A   1      50.574  25.342  30.717  1.00  0.00    -0.376 OA
BRANCH   2   3
ATOM      3  C   UNL A   1      50.304  24.458  31.795  1.00  0.00     0.202 C 
BRANCH   3   4
ATOM      4  C   UNL A   1      51.498  23.737  32.414  1.00  0.00     0.261 C 
BRANCH   4   5
ATOM      5  O   UNL A   1      51.222  22.348  32.680  1.00  0.00    -0.463 OA
BRANCH   5   6
ATOM      6  C   UNL A   1      51.275  21.737  33.881  1.00  0.00     0.306 C 
ATOM      7  O   UNL A   1      51.605  22.365  34.887  1.00  0.00    -0.252 OA
BRANCH   6   8
ATOM      8  C   UNL A   1      50.797  20.330  33.988  1.00  0.00     0.132 C 
BRANCH   8   9
ATOM      9  C   UNL A   1      49.550  20.309  34.850  1.00  0.00     0.112 C 
BRANCH   9  10
ATOM     10  C   UNL A   1      49.817  19.820  36.259  1.00  0.00     0.223 C 
ATOM     11  O   UNL A   1      50.870  19.213  36.480  1.00  0.00    -0.275 OA
ATOM     12  N   UNL A   1      48.893  20.059  37.268  1.00  0.00    -0.343 N 
ATOM     13  C   UNL A   1      49.320  19.852  38.644  1.00  0.00     0.120 C 
ATOM     14  C   UNL A   1      47.500  20.512  37.127  1.00  0.00     0.120 C 
ATOM     15  C   UNL A   1      48.413  18.871  39.362  1.00  0.00     0.033 C 
ATOM     16  C   UNL A   1      46.520  19.566  37.849  1.00  0.00     0.033 C 
ATOM     17  C   UNL A   1      46.949  19.334  39.305  1.00  0.00     0.062 C 
BRANCH  17  18
ATOM     18  C   UNL A   1      46.099  18.336  40.035  1.00  0.00     0.140 A 
ATOM     19  N   UNL A   1      46.011  17.037  39.821  1.00  0.00    -0.134 NA
ATOM     20  N   UNL A   1      45.378  18.651  41.171  1.00  0.00    -0.286 N 
ATOM     21  N   UNL A   1      45.261  16.476  40.833  1.00  0.00    -0.130 NA
ATOM     22  C   UNL A   1      44.906  17.439  41.651  1.00  0.00     0.160 A 
ATOM     23  C   UNL A   1      45.151  19.869  41.812  1.00  0.00     0.095 A 
ATOM     24  C   UNL A   1      44.183  17.456  42.877  1.00  0.00     0.050 A 
ATOM     25  C   UNL A   1      44.459  19.886  42.963  1.00  0.00     0.019 A 
ATOM     26  C   UNL A   1      43.970  18.629  43.510  1.00  0.00     0.005 A 
ENDBRANCH  17  18
ENDBRANCH   9  10
ENDBRANCH   8   9
ENDBRANCH   6   8
ENDBRANCH   5   6
ENDBRANCH   4   5
ENDBRANCH   3   4
ENDBRANCH   2   3
ENDBRANCH   1   2
BRANCH   1  27
ATOM     27  C   UNL A   1      48.074  26.025  30.749  1.00  0.00     0.188 C 
BRANCH  27  28
ATOM     28  O   UNL A   1      47.058  26.061  29.757  1.00  0.00    -0.376 OA
BRANCH  28  29
ATOM     29  C   UNL A   1      47.353  25.339  28.563  1.00  0.00     0.202 C 
BRANCH  29  30
ATOM     30  C   UNL A   1      46.182  24.490  28.049  1.00  0.00     0.261 C 
BRANCH  30  31
ATOM     31  O   UNL A   1      45.489  25.047  26.918  1.00  0.00    -0.460 OA
BRANCH  31  32
ATOM     32  C   UNL A   1      44.182  24.731  26.782  1.00  0.00     0.338 C 
ATOM     33  O   UNL A   1      43.728  23.732  26.252  1.00  0.00    -0.246 OA
BRANCH  32  34
ATOM     34  C   UNL A   1      43.390  25.685  27.596  1.00  0.00     0.060 A 
ATOM     35  C   UNL A   1      43.723  27.046  27.533  1.00  0.00     0.016 A 
ATOM     36  C   UNL A   1      42.276  25.270  28.338  1.00  0.00     0.016 A 
ATOM     37  C   UNL A   1      42.983  27.983  28.258  1.00  0.00     0.010 A 
ATOM     38  C   UNL A   1      41.547  26.206  29.081  1.00  0.00     0.010 A 
ATOM     39  C   UNL A   1      41.934  27.558  29.086  1.00  0.00    -0.014 A 
BRANCH  39  40
ATOM     40  C   UNL A   1      41.521  28.440  30.208  1.00  0.00     0.031 A 
ATOM     41  C   UNL A   1      42.359  28.365  31.461  1.00  0.00     0.074 A 
ATOM     42  C   UNL A   1      40.495  29.305  30.131  1.00  0.00     0.049 A 
ATOM     43  N   UNL A   1      42.284  29.065  32.561  1.00  0.00    -0.248 NA
ATOM     44  C   UNL A   1      43.435  27.356  31.465  1.00  0.00     0.031 C 
ATOM     45  C   UNL A   1      39.616  29.490  28.978  1.00  0.00     0.029 A 
ATOM     46  N   UNL A   1      40.022  30.201  31.061  1.00  0.00    -0.354 N 
ATOM     47  C   UNL A   1      43.304  28.589  33.377  1.00  0.00     0.074 A 
ATOM     48  C   UNL A   1      43.957  27.514  32.669  1.00  0.00     0.031 C 
ATOM     49  C   UNL A   1      38.710  30.445  29.269  1.00  0.00     0.029 A 
ATOM     50  C   UNL A   1      38.939  30.931  30.630  1.00  0.00     0.049 A 
ATOM     51  H   UNL A   1      40.424  30.311  31.952  1.00  0.00     0.167 HD
ATOM     52  C   UNL A   1      43.679  29.015  34.604  1.00  0.00     0.037 A 
ATOM     53  C   UNL A   1      38.224  31.883  31.266  1.00  0.00     0.037 A 
ATOM     54  C   UNL A   1      43.023  30.070  35.322  1.00  0.00     0.049 A 
ATOM     55  C   UNL A   1      38.628  32.309  32.659  1.00  0.00     0.074 A 
ATOM     56  C   UNL A   1      43.327  30.581  36.570  1.00  0.00     0.029 A 
ATOM     57  N   UNL A   1      41.918  30.768  34.858  1.00  0.00    -0.354 N 
ATOM     58  N   UNL A   1      39.626  31.886  33.399  1.00  0.00    -0.248 NA
ATOM     59  C   UNL A   1      37.815  33.357  33.297  1.00  0.00     0.031 C 
ATOM     60  C   UNL A   1      42.378  31.560  36.881  1.00  0.00     0.029 A 
ATOM     61  C   UNL A   1      41.517  31.695  35.804  1.00  0.00     0.049 A 
ATOM     62  H   UNL A   1      41.485  30.624  33.987  1.00  0.00     0.167 HD
ATOM     63  C   UNL A   1      39.589  32.647  34.566  1.00  0.00     0.074 A 
ATOM     64  C   UNL A   1      38.468  33.553  34.435  1.00  0.00     0.031 C 
ATOM     65  C   UNL A   1      40.412  32.606  35.645  1.00  0.00     0.037 A 
BRANCH  52  66
ATOM     66  C   UNL A   1      44.837  28.308  35.246  1.00  0.00     0.058 A 
ATOM     67  C   UNL A   1      46.160  28.748  35.071  1.00  0.00     0.135 A 
ATOM     68  C   UNL A   1      44.624  27.165  36.032  1.00  0.00     0.135 A 
ATOM     69  F   UNL A   1      46.422  29.817  34.302  1.00  0.00    -0.206 F 
ATOM     70  C   UNL A   1      47.233  28.061  35.630  1.00  0.00     0.059 A 
ATOM     71  C   UNL A   1      45.679  26.480  36.623  1.00  0.00     0.059 A 
ATOM     72  F   UNL A   1      43.380  26.698  36.220  1.00  0.00    -0.206 F 
ATOM     73  C   UNL A   1      46.981  26.926  36.402  1.00  0.00     0.060 A 
BRANCH  73  74
ATOM     74  S   UNL A   1      48.382  26.043  37.120  1.00  0.00     0.124 S 
ATOM     75  O   UNL A   1      48.209  26.330  38.541  1.00  0.00    -0.237 OA
ATOM     76  O   UNL A   1      48.123  24.664  36.718  1.00  0.00    -0.237 OA
ATOM     77  O   UNL A   1      49.539  26.670  36.488  1.00  0.00    -0.744 OA
ENDBRANCH  73  74
ENDBRANCH  52  66
BRANCH  53  78
ATOM     78  C   UNL A   1      37.061  32.530  30.594  1.00  0.00     0.058 A 
ATOM     79  C   UNL A   1      37.235  33.635  29.746  1.00  0.00     0.135 A 
ATOM     80  C   UNL A   1      35.751  32.080  30.815  1.00  0.00     0.135 A 
ATOM     81  F   UNL A   1      38.466  34.117  29.516  1.00  0.00    -0.206 F 
ATOM     82  C   UNL A   1      36.151  34.281  29.155  1.00  0.00     0.059 A 
ATOM     83  C   UNL A   1      34.654  32.694  30.216  1.00  0.00     0.059 A 
ATOM     84  F   UNL A   1      35.528  31.025  31.614  1.00  0.00    -0.206 F 
ATOM     85  C   UNL A   1      34.864  33.801  29.396  1.00  0.00     0.060 A 
BRANCH  85  86
ATOM     86  S   UNL A   1      33.468  34.621  28.591  1.00  0.00     0.124 S 
ATOM     87  O   UNL A   1      33.013  33.588  27.666  1.00  0.00    -0.237 OA
ATOM     88  O   UNL A   1      32.585  34.902  29.719  1.00  0.00    -0.237 OA
ATOM     89  O   UNL A   1      34.079  35.795  27.976  1.00  0.00    -0.744 OA
ENDBRANCH  85  86
ENDBRANCH  53  78
BRANCH  65  90
ATOM     90  C   UNL A   1      40.181  33.610  36.741  1.00  0.00     0.058 A 
ATOM     91  C   UNL A   1      40.857  34.839  36.783  1.00  0.00     0.135 A 
ATOM     92  C   UNL A   1      39.222  33.355  37.737  1.00  0.00     0.135 A 
ATOM     93  F   UNL A   1      41.779  35.134  35.855  1.00  0.00    -0.206 F 
ATOM     94  C   UNL A   1      40.615  35.766  37.793  1.00  0.00     0.059 A 
ATOM     95  C   UNL A   1      38.945  34.279  38.740  1.00  0.00     0.059 A 
ATOM     96  F   UNL A   1      38.533  32.203  37.735  1.00  0.00    -0.206 F 
ATOM     97  C   UNL A   1      39.660  35.475  38.769  1.00  0.00     0.060 A 
BRANCH  97  98
ATOM     98  S   UNL A   1      39.345  36.689  40.068  1.00  0.00     0.124 S 
ATOM     99  O   UNL A   1      40.693  36.943  40.565  1.00  0.00    -0.237 OA
ATOM    100  O   UNL A   1      38.724  37.785  39.331  1.00  0.00    -0.237 OA
ATOM    101  O   UNL A   1      38.459  35.981  40.987  1.00  0.00    -0.744 OA
ENDBRANCH  97  98
ENDBRANCH  65  90
ENDBRANCH  39  40
ENDBRANCH  32  34
ENDBRANCH  31  32
ENDBRANCH  30  31
ENDBRANCH  29  30
ENDBRANCH  28  29
ENDBRANCH  27  28
ENDBRANCH   1  27
TORSDOF 23
ENDMDL
MODEL 3
REMARK VINA RESULT:      -9.2      6.422     10.711
REMARK SMILES O=C(CCC(=O)N1CCC(c2nnc3ccccn23)CC1)OCCOCCOCCOC(=O)c1ccc(-c2c3nc(c(-c4c(F)cc(S(=O)(=O)[O-])cc4F)c4ccc([nH]4)c(-c4c(F)cc(S(=O)(=O)[O-])cc4F)c4nc(c(-c5c(F)cc(S(=O)(=O)[O-])cc5F)c5ccc2[nH]5)C=C4)C=C3)cc1
REMARK SMILES IDX 26 1 25 2 24 3 23 4 22 5 2 6 1 7 3 8 4 9 5 10 6 11 7 12 8 13
REMARK SMILES IDX 21 14 9 15 20 16 10 17 11 18 12 19 19 20 13 21 14 22 18 23
REMARK SMILES IDX 15 24 17 25 16 26 27 27 28 28 29 29 30 30 31 31 32 32 33 33
REMARK SMILES IDX 34 34 35 35 99 36 36 37 98 38 37 39 38 40 39 41 92 42 40 43
REMARK SMILES IDX 97 44 91 45 93 46 41 47 96 48 90 49 89 50 42 52 76 53 55 54
REMARK SMILES IDX 75 55 56 56 59 57 74 58 94 59 57 60 58 61 73 63 95 64 60 65
REMARK SMILES IDX 43 66 44 67 53 68 45 69 46 70 52 71 54 72 47 73 48 74 49 75
REMARK SMILES IDX 50 76 51 77 77 78 78 79 87 80 79 81 80 82 86 83 88 84 81 85
REMARK SMILES IDX 82 86 83 87 84 88 85 89 61 90 62 91 71 92 63 93 64 94 70 95
REMARK SMILES IDX 72 96 65 97 66 98 67 99 68 100 69 101
REMARK H PARENT 93 51 59 62
REMARK Flexibility Score: inf
ROOT
ATOM      1  C   UNL A   1      40.606  30.587  35.364  1.00  0.00     0.188 C 
ENDROOT
BRANCH   1   2
ATOM      2  O   UNL A   1      39.317  30.051  35.647  1.00  0.00    -0.376 OA
BRANCH   2   3
ATOM      3  C   UNL A   1      38.200  30.927  35.675  1.00  0.00     0.202 C 
BRANCH   3   4
ATOM      4  C   UNL A   1      38.448  32.347  36.178  1.00  0.00     0.261 C 
BRANCH   4   5
ATOM      5  O   UNL A   1      37.743  33.334  35.400  1.00  0.00    -0.463 OA
BRANCH   5   6
ATOM      6  C   UNL A   1      38.290  34.207  34.530  1.00  0.00     0.306 C 
ATOM      7  O   UNL A   1      38.814  35.245  34.932  1.00  0.00    -0.252 OA
BRANCH   6   8
ATOM      8  C   UNL A   1      38.367  33.827  33.091  1.00  0.00     0.132 C 
BRANCH   8   9
ATOM      9  C   UNL A   1      37.546  34.815  32.286  1.00  0.00     0.112 C 
BRANCH   9  10
ATOM     10  C   UNL A   1      36.194  34.262  31.881  1.00  0.00     0.223 C 
ATOM     11  O   UNL A   1      35.349  34.073  32.762  1.00  0.00    -0.275 OA
ATOM     12  N   UNL A   1      35.927  33.981  30.547  1.00  0.00    -0.343 N 
ATOM     13  C   UNL A   1      34.541  33.750  30.166  1.00  0.00     0.120 C 
ATOM     14  C   UNL A   1      36.885  33.888  29.434  1.00  0.00     0.120 C 
ATOM     15  C   UNL A   1      34.372  32.404  29.488  1.00  0.00     0.033 C 
ATOM     16  C   UNL A   1      36.758  32.546  28.687  1.00  0.00     0.033 C 
ATOM     17  C   UNL A   1      35.304  32.281  28.272  1.00  0.00     0.062 C 
BRANCH  17  18
ATOM     18  C   UNL A   1      35.091  30.940  27.634  1.00  0.00     0.140 A 
ATOM     19  N   UNL A   1      35.915  29.909  27.623  1.00  0.00    -0.134 NA
ATOM     20  N   UNL A   1      33.886  30.554  27.078  1.00  0.00    -0.286 N 
ATOM     21  N   UNL A   1      35.250  28.823  27.091  1.00  0.00    -0.130 NA
ATOM     22  C   UNL A   1      34.031  29.206  26.791  1.00  0.00     0.160 A 
ATOM     23  C   UNL A   1      32.705  31.262  26.854  1.00  0.00     0.095 A 
ATOM     24  C   UNL A   1      32.897  28.520  26.271  1.00  0.00     0.050 A 
ATOM     25  C   UNL A   1      31.638  30.617  26.353  1.00  0.00     0.019 A 
ATOM     26  C   UNL A   1      31.747  29.195  26.064  1.00  0.00     0.005 A 
ENDBRANCH  17  18
ENDBRANCH   9  10
ENDBRANCH   8   9
ENDBRANCH   6   8
ENDBRANCH   5   6
ENDBRANCH   4   5
ENDBRANCH   3   4
ENDBRANCH   2   3
ENDBRANCH   1   2
BRANCH   1  27
ATOM     27  C   UNL A   1      41.410  30.133  34.120  1.00  0.00     0.188 C 
BRANCH  27  28
ATOM     28  O   UNL A   1      41.898  28.800  34.162  1.00  0.00    -0.376 OA
BRANCH  28  29
ATOM     29  C   UNL A   1      41.250  27.892  33.272  1.00  0.00     0.202 C 
BRANCH  29  30
ATOM     30  C   UNL A   1      40.502  28.583  32.123  1.00  0.00     0.261 C 
BRANCH  30  31
ATOM     31  O   UNL A   1      41.243  28.670  30.893  1.00  0.00    -0.460 OA
BRANCH  31  32
ATOM     32  C   UNL A   1      40.678  29.373  29.886  1.00  0.00     0.338 C 
ATOM     33  O   UNL A   1      39.828  28.974  29.109  1.00  0.00    -0.246 OA
BRANCH  32  34
ATOM     34  C   UNL A   1      41.089  30.791  30.026  1.00  0.00     0.060 A 
ATOM     35  C   UNL A   1      42.457  31.094  29.963  1.00  0.00     0.016 A 
ATOM     36  C   UNL A   1      40.147  31.823  30.125  1.00  0.00     0.016 A 
ATOM     37  C   UNL A   1      42.886  32.420  30.058  1.00  0.00     0.010 A 
ATOM     38  C   UNL A   1      40.578  33.150  30.241  1.00  0.00     0.010 A 
ATOM     39  C   UNL A   1      41.952  33.446  30.264  1.00  0.00    -0.014 A 
BRANCH  39  40
ATOM     40  C   UNL A   1      42.425  34.716  30.872  1.00  0.00     0.031 A 
ATOM     41  C   UNL A   1      42.474  34.758  32.380  1.00  0.00     0.074 A 
ATOM     42  C   UNL A   1      42.839  35.773  30.151  1.00  0.00     0.049 A 
ATOM     43  N   UNL A   1      42.911  35.696  33.177  1.00  0.00    -0.248 NA
ATOM     44  C   UNL A   1      41.959  33.567  33.082  1.00  0.00     0.031 C 
ATOM     45  C   UNL A   1      42.858  35.860  28.693  1.00  0.00     0.029 A 
ATOM     46  N   UNL A   1      43.331  36.988  30.567  1.00  0.00    -0.354 N 
ATOM     47  C   UNL A   1      42.733  35.205  34.465  1.00  0.00     0.074 A 
ATOM     48  C   UNL A   1      42.110  33.908  34.350  1.00  0.00     0.031 C 
ATOM     49  C   UNL A   1      43.341  37.066  28.334  1.00  0.00     0.029 A 
ATOM     50  C   UNL A   1      43.656  37.839  29.536  1.00  0.00     0.049 A 
ATOM     51  H   UNL A   1      43.442  37.225  31.515  1.00  0.00     0.167 HD
ATOM     52  C   UNL A   1      43.070  35.772  35.645  1.00  0.00     0.037 A 
ATOM     53  C   UNL A   1      44.155  39.092  29.569  1.00  0.00     0.037 A 
ATOM     54  C   UNL A   1      43.671  37.069  35.769  1.00  0.00     0.049 A 
ATOM     55  C   UNL A   1      44.477  39.730  30.901  1.00  0.00     0.074 A 
ATOM     56  C   UNL A   1      44.055  37.733  36.918  1.00  0.00     0.029 A 
ATOM     57  N   UNL A   1      43.965  37.904  34.702  1.00  0.00    -0.354 N 
ATOM     58  N   UNL A   1      44.351  39.234  32.110  1.00  0.00    -0.248 NA
ATOM     59  C   UNL A   1      45.025  41.095  30.872  1.00  0.00     0.031 C 
ATOM     60  C   UNL A   1      44.542  38.992  36.549  1.00  0.00     0.029 A 
ATOM     61  C   UNL A   1      44.510  39.088  35.167  1.00  0.00     0.049 A 
ATOM     62  H   UNL A   1      43.808  37.687  33.755  1.00  0.00     0.167 HD
ATOM     63  C   UNL A   1      44.847  40.205  32.978  1.00  0.00     0.074 A 
ATOM     64  C   UNL A   1      45.272  41.318  32.156  1.00  0.00     0.031 C 
ATOM     65  C   UNL A   1      44.949  40.175  34.331  1.00  0.00     0.037 A 
BRANCH  52  66
ATOM     66  C   UNL A   1      42.760  34.991  36.889  1.00  0.00     0.058 A 
ATOM     67  C   UNL A   1      43.651  34.033  37.401  1.00  0.00     0.135 A 
ATOM     68  C   UNL A   1      41.548  35.191  37.569  1.00  0.00     0.135 A 
ATOM     69  F   UNL A   1      44.810  33.782  36.770  1.00  0.00    -0.206 F 
ATOM     70  C   UNL A   1      43.338  33.280  38.527  1.00  0.00     0.059 A 
ATOM     71  C   UNL A   1      41.228  34.468  38.713  1.00  0.00     0.059 A 
ATOM     72  F   UNL A   1      40.658  36.085  37.114  1.00  0.00    -0.206 F 
ATOM     73  C   UNL A   1      42.122  33.503  39.174  1.00  0.00     0.060 A 
BRANCH  73  74
ATOM     74  S   UNL A   1      41.727  32.517  40.634  1.00  0.00     0.124 S 
ATOM     75  O   UNL A   1      41.947  33.484  41.706  1.00  0.00    -0.237 OA
ATOM     76  O   UNL A   1      40.337  32.145  40.394  1.00  0.00    -0.237 OA
ATOM     77  O   UNL A   1      42.686  31.419  40.571  1.00  0.00    -0.744 OA
ENDBRANCH  73  74
ENDBRANCH  52  66
BRANCH  53  78
ATOM     78  C   UNL A   1      44.413  39.837  28.303  1.00  0.00     0.058 A 
ATOM     79  C   UNL A   1      43.446  40.692  27.754  1.00  0.00     0.135 A 
ATOM     80  C   UNL A   1      45.617  39.680  27.599  1.00  0.00     0.135 A 
ATOM     81  F   UNL A   1      42.270  40.863  28.377  1.00  0.00    -0.206 F 
ATOM     82  C   UNL A   1      43.654  41.351  26.544  1.00  0.00     0.059 A 
ATOM     83  C   UNL A   1      45.858  40.347  26.401  1.00  0.00     0.059 A 
ATOM     84  F   UNL A   1      46.578  38.876  28.082  1.00  0.00    -0.206 F 
ATOM     85  C   UNL A   1      44.866  41.172  25.876  1.00  0.00     0.060 A 
BRANCH  85  86
ATOM     86  S   UNL A   1      45.143  42.064  24.329  1.00  0.00     0.124 S 
ATOM     87  O   UNL A   1      45.611  43.358  24.814  1.00  0.00    -0.237 OA
ATOM     88  O   UNL A   1      46.143  41.231  23.668  1.00  0.00    -0.237 OA
ATOM     89  O   UNL A   1      43.825  42.065  23.701  1.00  0.00    -0.744 OA
ENDBRANCH  85  86
ENDBRANCH  53  78
BRANCH  65  90
ATOM     90  C   UNL A   1      45.606  41.347  35.009  1.00  0.00     0.058 A 
ATOM     91  C   UNL A   1      44.874  42.462  35.447  1.00  0.00     0.135 A 
ATOM     92  C   UNL A   1      46.986  41.325  35.272  1.00  0.00     0.135 A 
ATOM     93  F   UNL A   1      43.553  42.533  35.225  1.00  0.00    -0.206 F 
ATOM     94  C   UNL A   1      45.494  43.529  36.092  1.00  0.00     0.059 A 
ATOM     95  C   UNL A   1      47.621  42.368  35.940  1.00  0.00     0.059 A 
ATOM     96  F   UNL A   1      47.731  40.275  34.891  1.00  0.00    -0.206 F 
ATOM     97  C   UNL A   1      46.868  43.473  36.330  1.00  0.00     0.060 A 
BRANCH  97  98
ATOM     98  S   UNL A   1      47.661  44.856  37.178  1.00  0.00     0.124 S 
ATOM     99  O   UNL A   1      47.740  44.355  38.547  1.00  0.00    -0.237 OA
ATOM    100  O   UNL A   1      48.933  44.973  36.471  1.00  0.00    -0.237 OA
ATOM    101  O   UNL A   1      46.732  45.962  36.967  1.00  0.00    -0.744 OA
ENDBRANCH  97  98
ENDBRANCH  65  90
ENDBRANCH  39  40
ENDBRANCH  32  34
ENDBRANCH  31  32
ENDBRANCH  30  31
ENDBRANCH  29  30
ENDBRANCH  28  29
ENDBRANCH  27  28
ENDBRANCH   1  27
TORSDOF 23
ENDMDL
