MODEL 1
REMARK VINA RESULT:     -11.1      0.000      0.000
REMARK SMILES C[C@]12C[C@@H](O)[C@@H]3[C@@H](CCC4=CC(=O)CC[C@]43C)[C@H]1CC[C@]2(O)C(=O)COC(=O)CCC(=O)OCCOCCOCCOC(=O)c1ccc(-c2c3nc(c(-c4c(F)cc(S(=O)(=O)[O-])cc4F)c4ccc([nH]4)c(-c4c(F)cc(S(=O)(=O)[O-])cc4F)c4nc(c(-c5c(F)cc(S(=O)(=O)[O-])cc5F)c5ccc2[nH]5)C=C4)C=C3)cc1
REMARK SMILES IDX 35 1 34 2 33 3 31 4 32 5 30 6 29 7 27 8 28 9 26 10 25 11
REMARK SMILES IDX 23 12 24 13 21 14 17 15 16 16 15 17 10 18 6 19 14 20 11 21
REMARK SMILES IDX 9 22 7 23 4 24 12 25 8 26 18 27 3 28 13 29 2 30 19 31 1 32
REMARK SMILES IDX 20 33 5 34 22 36 36 38 37 39 38 40 39 41 40 42 41 43 42 44
REMARK SMILES IDX 43 45 44 46 45 47 46 48 110 49 47 50 109 51 48 52 49 53
REMARK SMILES IDX 50 54 103 55 51 56 108 57 102 58 104 59 52 60 107 61 101 62
REMARK SMILES IDX 100 63 53 65 87 66 66 67 86 68 67 69 70 70 85 71 105 72
REMARK SMILES IDX 68 73 69 74 84 76 106 77 71 78 54 79 55 80 64 81 56 82 57 83
REMARK SMILES IDX 63 84 65 85 58 86 59 87 60 88 61 89 62 90 88 91 89 92 98 93
REMARK SMILES IDX 90 94 91 95 97 96 99 97 92 98 93 99 94 100 95 101 96 102
REMARK SMILES IDX 72 103 73 104 82 105 74 106 75 107 81 108 83 109 76 110
REMARK SMILES IDX 77 111 78 112 79 113 80 114
REMARK H PARENT 5 35 22 37 104 64 70 75
REMARK Flexibility Score: inf
ROOT
ATOM      1  C   UNL A   1      44.345  20.082  25.038  1.00  0.00     0.202 C 
ENDROOT
BRANCH   1   2
ATOM      2  C   UNL A   1      43.423  18.890  25.311  1.00  0.00     0.261 C 
BRANCH   2   3
ATOM      3  O   UNL A   1      42.010  19.210  25.410  1.00  0.00    -0.463 OA
BRANCH   3   4
ATOM      4  C   UNL A   1      41.623  19.966  26.463  1.00  0.00     0.306 C 
ATOM      5  O   UNL A   1      41.844  19.640  27.627  1.00  0.00    -0.252 OA
BRANCH   4   6
ATOM      6  C   UNL A   1      40.853  21.260  26.181  1.00  0.00     0.134 C 
BRANCH   6   7
ATOM      7  C   UNL A   1      39.348  21.488  26.033  1.00  0.00     0.134 C 
BRANCH   7   8
ATOM      8  C   UNL A   1      38.467  20.441  25.405  1.00  0.00     0.306 C 
ATOM      9  O   UNL A   1      38.837  19.294  25.196  1.00  0.00    -0.252 OA
BRANCH   8  10
ATOM     10  O   UNL A   1      37.215  20.901  25.184  1.00  0.00    -0.458 OA
BRANCH  10  11
ATOM     11  C   UNL A   1      36.233  19.911  24.918  1.00  0.00     0.311 C 
BRANCH  11  12
ATOM     12  C   UNL A   1      34.874  20.563  24.889  1.00  0.00     0.202 C 
ATOM     13  O   UNL A   1      33.846  19.889  24.721  1.00  0.00    -0.293 OA
BRANCH  12  14
ATOM     14  C   UNL A   1      34.717  22.062  25.159  1.00  0.00     0.132 C 
ATOM     15  C   UNL A   1      31.688  26.860  21.696  1.00  0.00     0.016 C 
ATOM     16  C   UNL A   1      32.030  26.452  23.159  1.00  0.00    -0.005 C 
ATOM     17  C   UNL A   1      32.089  27.804  23.949  1.00  0.00     0.020 C 
ATOM     18  C   UNL A   1      30.944  25.670  23.904  1.00  0.00    -0.060 C 
ATOM     19  C   UNL A   1      33.373  25.636  23.183  1.00  0.00     0.031 C 
ATOM     20  C   UNL A   1      30.685  28.319  24.369  1.00  0.00     0.081 C 
ATOM     21  C   UNL A   1      29.656  26.007  23.698  1.00  0.00     0.047 C 
ATOM     22  C   UNL A   1      31.315  25.306  25.335  1.00  0.00     0.032 C 
ATOM     23  C   UNL A   1      33.802  25.266  24.629  1.00  0.00    -0.000 C 
ATOM     24  C   UNL A   1      33.532  24.390  22.219  1.00  0.00     0.119 C 
ATOM     25  C   UNL A   1      29.510  27.508  23.816  1.00  0.00     0.155 C 
ATOM     26  C   UNL A   1      32.655  24.611  25.398  1.00  0.00     0.009 C 
ATOM     27  C   UNL A   1      35.085  24.421  24.535  1.00  0.00     0.002 C 
ATOM     28  C   UNL A   1      33.772  23.015  22.877  1.00  0.00     0.042 C 
ATOM     29  O   UNL A   1      28.450  28.032  23.482  1.00  0.00    -0.295 OA
ATOM     30  C   UNL A   1      34.912  23.013  23.908  1.00  0.00     0.009 C 
ATOM     31  C   UNL A   1      35.813  24.161  25.845  1.00  0.00     0.008 C 
ATOM     32  C   UNL A   1      36.227  22.697  23.152  1.00  0.00     0.015 C 
ATOM     33  C   UNL A   1      35.457  22.746  26.313  1.00  0.00     0.044 C 
BRANCH  24  34
ATOM     34  O   UNL A   1      32.450  24.218  21.316  1.00  0.00    -0.393 OA
ATOM     35  H   UNL A   1      32.250  23.273  21.228  1.00  0.00     0.210 HD
ENDBRANCH  24  34
BRANCH  14  36
ATOM     36  O   UNL A   1      33.347  21.963  25.625  1.00  0.00    -0.381 OA
ATOM     37  H   UNL A   1      32.761  21.785  24.872  1.00  0.00     0.212 HD
ENDBRANCH  14  36
ENDBRANCH  12  14
ENDBRANCH  11  12
ENDBRANCH  10  11
ENDBRANCH   8  10
ENDBRANCH   7   8
ENDBRANCH   6   7
ENDBRANCH   4   6
ENDBRANCH   3   4
ENDBRANCH   2   3
ENDBRANCH   1   2
BRANCH   1  38
ATOM     38  O   UNL A   1      45.681  19.792  24.667  1.00  0.00    -0.376 OA
BRANCH  38  39
ATOM     39  C   UNL A   1      46.562  20.887  24.478  1.00  0.00     0.188 C 
BRANCH  39  40
ATOM     40  C   UNL A   1      46.086  22.279  24.925  1.00  0.00     0.188 C 
BRANCH  40  41
ATOM     41  O   UNL A   1      46.443  22.659  26.242  1.00  0.00    -0.376 OA
BRANCH  41  42
ATOM     42  C   UNL A   1      45.817  23.846  26.705  1.00  0.00     0.202 C 
BRANCH  42  43
ATOM     43  C   UNL A   1      45.152  24.657  25.587  1.00  0.00     0.261 C 
BRANCH  43  44
ATOM     44  O   UNL A   1      44.311  25.743  26.027  1.00  0.00    -0.460 OA
BRANCH  44  45
ATOM     45  C   UNL A   1      42.995  25.496  26.235  1.00  0.00     0.338 C 
ATOM     46  O   UNL A   1      42.336  24.602  25.730  1.00  0.00    -0.246 OA
BRANCH  45  47
ATOM     47  C   UNL A   1      42.575  26.303  27.413  1.00  0.00     0.060 A 
ATOM     48  C   UNL A   1      43.090  27.601  27.577  1.00  0.00     0.016 A 
ATOM     49  C   UNL A   1      41.585  25.834  28.280  1.00  0.00     0.016 A 
ATOM     50  C   UNL A   1      42.618  28.424  28.607  1.00  0.00     0.010 A 
ATOM     51  C   UNL A   1      41.136  26.646  29.325  1.00  0.00     0.010 A 
ATOM     52  C   UNL A   1      41.662  27.938  29.508  1.00  0.00    -0.014 A 
BRANCH  52  53
ATOM     53  C   UNL A   1      41.355  28.674  30.763  1.00  0.00     0.031 A 
ATOM     54  C   UNL A   1      40.214  29.656  30.733  1.00  0.00     0.074 A 
ATOM     55  C   UNL A   1      42.076  28.513  31.888  1.00  0.00     0.049 A 
ATOM     56  N   UNL A   1      39.821  30.503  31.646  1.00  0.00    -0.248 NA
ATOM     57  C   UNL A   1      39.413  29.687  29.497  1.00  0.00     0.031 C 
ATOM     58  C   UNL A   1      43.181  27.573  32.063  1.00  0.00     0.029 A 
ATOM     59  N   UNL A   1      41.994  29.162  33.097  1.00  0.00    -0.354 N 
ATOM     60  C   UNL A   1      38.739  31.177  31.094  1.00  0.00     0.074 A 
ATOM     61  C   UNL A   1      38.549  30.656  29.758  1.00  0.00     0.031 C 
ATOM     62  C   UNL A   1      43.691  27.723  33.300  1.00  0.00     0.029 A 
ATOM     63  C   UNL A   1      42.975  28.796  33.991  1.00  0.00     0.049 A 
ATOM     64  H   UNL A   1      41.298  29.826  33.305  1.00  0.00     0.167 HD
ATOM     65  C   UNL A   1      37.969  32.141  31.649  1.00  0.00     0.037 A 
ATOM     66  C   UNL A   1      43.280  29.294  35.208  1.00  0.00     0.037 A 
ATOM     67  C   UNL A   1      38.160  32.663  32.975  1.00  0.00     0.049 A 
ATOM     68  C   UNL A   1      42.452  30.424  35.778  1.00  0.00     0.074 A 
ATOM     69  C   UNL A   1      37.415  33.624  33.636  1.00  0.00     0.029 A 
ATOM     70  N   UNL A   1      39.172  32.278  33.841  1.00  0.00    -0.354 N 
ATOM     71  N   UNL A   1      41.410  31.031  35.258  1.00  0.00    -0.248 NA
ATOM     72  C   UNL A   1      42.844  30.940  37.099  1.00  0.00     0.031 C 
ATOM     73  C   UNL A   1      38.010  33.863  34.876  1.00  0.00     0.029 A 
ATOM     74  C   UNL A   1      39.090  33.007  35.016  1.00  0.00     0.049 A 
ATOM     75  H   UNL A   1      39.850  31.590  33.649  1.00  0.00     0.167 HD
ATOM     76  C   UNL A   1      41.008  31.976  36.199  1.00  0.00     0.074 A 
ATOM     77  C   UNL A   1      41.907  31.852  37.325  1.00  0.00     0.031 C 
ATOM     78  C   UNL A   1      39.987  32.867  36.137  1.00  0.00     0.037 A 
BRANCH  65  79
ATOM     79  C   UNL A   1      36.862  32.721  30.812  1.00  0.00     0.058 A 
ATOM     80  C   UNL A   1      35.538  32.269  30.923  1.00  0.00     0.135 A 
ATOM     81  C   UNL A   1      37.124  33.777  29.925  1.00  0.00     0.135 A 
ATOM     82  F   UNL A   1      35.238  31.245  31.738  1.00  0.00    -0.206 F 
ATOM     83  C   UNL A   1      34.513  32.838  30.175  1.00  0.00     0.059 A 
ATOM     84  C   UNL A   1      36.110  34.379  29.187  1.00  0.00     0.059 A 
ATOM     85  F   UNL A   1      38.374  34.240  29.774  1.00  0.00    -0.206 F 
ATOM     86  C   UNL A   1      34.808  33.897  29.314  1.00  0.00     0.060 A 
BRANCH  86  87
ATOM     87  S   UNL A   1      33.459  34.642  28.374  1.00  0.00     0.124 S 
ATOM     88  O   UNL A   1      34.187  35.529  27.473  1.00  0.00    -0.237 OA
ATOM     89  O   UNL A   1      32.835  33.479  27.752  1.00  0.00    -0.237 OA
ATOM     90  O   UNL A   1      32.658  35.308  29.398  1.00  0.00    -0.744 OA
ENDBRANCH  86  87
ENDBRANCH  65  79
BRANCH  66  91
ATOM     91  C   UNL A   1      44.443  28.761  35.974  1.00  0.00     0.058 A 
ATOM     92  C   UNL A   1      44.331  27.605  36.761  1.00  0.00     0.135 A 
ATOM     93  C   UNL A   1      45.682  29.422  35.966  1.00  0.00     0.135 A 
ATOM     94  F   UNL A   1      43.163  26.945  36.820  1.00  0.00    -0.206 F 
ATOM     95  C   UNL A   1      45.394  27.134  37.526  1.00  0.00     0.059 A 
ATOM     96  C   UNL A   1      46.769  28.954  36.699  1.00  0.00     0.059 A 
ATOM     97  F   UNL A   1      45.848  30.533  35.231  1.00  0.00    -0.206 F 
ATOM     98  C   UNL A   1      46.611  27.816  37.487  1.00  0.00     0.060 A 
BRANCH  98  99
ATOM     99  S   UNL A   1      47.994  27.178  38.459  1.00  0.00     0.124 S 
ATOM    100  O   UNL A   1      48.342  28.337  39.272  1.00  0.00    -0.237 OA
ATOM    101  O   UNL A   1      47.379  26.061  39.169  1.00  0.00    -0.237 OA
ATOM    102  O   UNL A   1      48.972  26.802  37.443  1.00  0.00    -0.744 OA
ENDBRANCH  98  99
ENDBRANCH  66  91
BRANCH  78 103
ATOM    103  C   UNL A   1      39.757  33.759  37.329  1.00  0.00     0.058 A 
ATOM    104  C   UNL A   1      38.904  33.386  38.380  1.00  0.00     0.135 A 
ATOM    105  C   UNL A   1      40.450  34.975  37.451  1.00  0.00     0.135 A 
ATOM    106  F   UNL A   1      38.215  32.236  38.315  1.00  0.00    -0.206 F 
ATOM    107  C   UNL A   1      38.725  34.199  39.495  1.00  0.00     0.059 A 
ATOM    108  C   UNL A   1      40.310  35.789  38.571  1.00  0.00     0.059 A 
ATOM    109  F   UNL A   1      41.290  35.375  36.483  1.00  0.00    -0.206 F 
ATOM    110  C   UNL A   1      39.436  35.398  39.584  1.00  0.00     0.060 A 
BRANCH 110 111
ATOM    111  S   UNL A   1      39.219  36.427  41.052  1.00  0.00     0.124 S 
ATOM    112  O   UNL A   1      40.581  36.494  41.568  1.00  0.00    -0.237 OA
ATOM    113  O   UNL A   1      38.692  37.667  40.488  1.00  0.00    -0.237 OA
ATOM    114  O   UNL A   1      38.275  35.666  41.864  1.00  0.00    -0.744 OA
ENDBRANCH 110 111
ENDBRANCH  78 103
ENDBRANCH  52  53
ENDBRANCH  45  47
ENDBRANCH  44  45
ENDBRANCH  43  44
ENDBRANCH  42  43
ENDBRANCH  41  42
ENDBRANCH  40  41
ENDBRANCH  39  40
ENDBRANCH  38  39
ENDBRANCH   1  38
TORSDOF 28
ENDMDL
MODEL 2
REMARK VINA RESULT:     -10.3      5.443     13.299
REMARK SMILES C[C@]12C[C@@H](O)[C@@H]3[C@@H](CCC4=CC(=O)CC[C@]43C)[C@H]1CC[C@]2(O)C(=O)COC(=O)CCC(=O)OCCOCCOCCOC(=O)c1ccc(-c2c3nc(c(-c4c(F)cc(S(=O)(=O)[O-])cc4F)c4ccc([nH]4)c(-c4c(F)cc(S(=O)(=O)[O-])cc4F)c4nc(c(-c5c(F)cc(S(=O)(=O)[O-])cc5F)c5ccc2[nH]5)C=C4)C=C3)cc1
REMARK SMILES IDX 35 1 34 2 33 3 31 4 32 5 30 6 29 7 27 8 28 9 26 10 25 11
REMARK SMILES IDX 23 12 24 13 21 14 17 15 16 16 15 17 10 18 6 19 14 20 11 21
REMARK SMILES IDX 9 22 7 23 4 24 12 25 8 26 18 27 3 28 13 29 2 30 19 31 1 32
REMARK SMILES IDX 20 33 5 34 22 36 36 38 37 39 38 40 39 41 40 42 41 43 42 44
REMARK SMILES IDX 43 45 44 46 45 47 46 48 110 49 47 50 109 51 48 52 49 53
REMARK SMILES IDX 50 54 103 55 51 56 108 57 102 58 104 59 52 60 107 61 101 62
REMARK SMILES IDX 100 63 53 65 87 66 66 67 86 68 67 69 70 70 85 71 105 72
REMARK SMILES IDX 68 73 69 74 84 76 106 77 71 78 54 79 55 80 64 81 56 82 57 83
REMARK SMILES IDX 63 84 65 85 58 86 59 87 60 88 61 89 62 90 88 91 89 92 98 93
REMARK SMILES IDX 90 94 91 95 97 96 99 97 92 98 93 99 94 100 95 101 96 102
REMARK SMILES IDX 72 103 73 104 82 105 74 106 75 107 81 108 83 109 76 110
REMARK SMILES IDX 77 111 78 112 79 113 80 114
REMARK H PARENT 5 35 22 37 104 64 70 75
REMARK Flexibility Score: inf
ROOT
ATOM      1  C   UNL A   1      33.584  34.091  28.637  1.00  0.00     0.202 C 
ENDROOT
BRANCH   1   2
ATOM      2  C   UNL A   1      35.008  34.654  28.644  1.00  0.00     0.261 C 
BRANCH   2   3
ATOM      3  O   UNL A   1      36.063  33.671  28.466  1.00  0.00    -0.463 OA
BRANCH   3   4
ATOM      4  C   UNL A   1      36.776  33.328  29.563  1.00  0.00     0.306 C 
ATOM      5  O   UNL A   1      36.432  33.642  30.699  1.00  0.00    -0.252 OA
BRANCH   4   6
ATOM      6  C   UNL A   1      38.076  32.543  29.364  1.00  0.00     0.134 C 
BRANCH   6   7
ATOM      7  C   UNL A   1      38.330  31.036  29.448  1.00  0.00     0.134 C 
BRANCH   7   8
ATOM      8  C   UNL A   1      39.689  30.501  29.815  1.00  0.00     0.306 C 
ATOM      9  O   UNL A   1      40.732  30.989  29.405  1.00  0.00    -0.252 OA
BRANCH   8  10
ATOM     10  O   UNL A   1      39.608  29.487  30.705  1.00  0.00    -0.458 OA
BRANCH  10  11
ATOM     11  C   UNL A   1      40.401  28.346  30.412  1.00  0.00     0.311 C 
BRANCH  11  12
ATOM     12  C   UNL A   1      39.697  27.515  29.370  1.00  0.00     0.202 C 
ATOM     13  O   UNL A   1      38.458  27.497  29.297  1.00  0.00    -0.293 OA
BRANCH  12  14
ATOM     14  C   UNL A   1      40.492  26.741  28.315  1.00  0.00     0.132 C 
ATOM     15  C   UNL A   1      46.712  27.469  26.086  1.00  0.00     0.016 C 
ATOM     16  C   UNL A   1      45.633  26.374  26.332  1.00  0.00    -0.005 C 
ATOM     17  C   UNL A   1      45.973  25.238  25.308  1.00  0.00     0.020 C 
ATOM     18  C   UNL A   1      45.712  25.652  27.680  1.00  0.00    -0.060 C 
ATOM     19  C   UNL A   1      44.199  26.992  26.151  1.00  0.00     0.031 C 
ATOM     20  C   UNL A   1      47.108  24.300  25.804  1.00  0.00     0.081 C 
ATOM     21  C   UNL A   1      46.928  25.370  28.186  1.00  0.00     0.047 C 
ATOM     22  C   UNL A   1      44.647  24.581  27.871  1.00  0.00     0.032 C 
ATOM     23  C   UNL A   1      43.082  25.925  26.313  1.00  0.00    -0.000 C 
ATOM     24  C   UNL A   1      43.826  28.312  26.942  1.00  0.00     0.119 C 
ATOM     25  C   UNL A   1      47.779  24.735  27.109  1.00  0.00     0.155 C 
ATOM     26  C   UNL A   1      43.264  25.122  27.601  1.00  0.00     0.009 C 
ATOM     27  C   UNL A   1      41.726  26.641  26.181  1.00  0.00     0.002 C 
ATOM     28  C   UNL A   1      42.647  28.230  27.935  1.00  0.00     0.042 C 
ATOM     29  O   UNL A   1      48.979  24.572  27.317  1.00  0.00    -0.295 OA
ATOM     30  C   UNL A   1      41.373  27.617  27.333  1.00  0.00     0.009 C 
ATOM     31  C   UNL A   1      40.504  25.745  26.060  1.00  0.00     0.008 C 
ATOM     32  C   UNL A   1      40.550  28.769  26.705  1.00  0.00     0.015 C 
ATOM     33  C   UNL A   1      39.824  25.682  27.432  1.00  0.00     0.044 C 
BRANCH  24  34
ATOM     34  O   UNL A   1      44.912  28.882  27.656  1.00  0.00    -0.393 OA
ATOM     35  H   UNL A   1      45.337  29.562  27.110  1.00  0.00     0.210 HD
ENDBRANCH  24  34
BRANCH  14  36
ATOM     36  O   UNL A   1      41.258  25.970  29.276  1.00  0.00    -0.381 OA
ATOM     37  H   UNL A   1      40.733  25.211  29.575  1.00  0.00     0.212 HD
ENDBRANCH  14  36
ENDBRANCH  12  14
ENDBRANCH  11  12
ENDBRANCH  10  11
ENDBRANCH   8  10
ENDBRANCH   7   8
ENDBRANCH   6   7
ENDBRANCH   4   6
ENDBRANCH   3   4
ENDBRANCH   2   3
ENDBRANCH   1   2
BRANCH   1  38
ATOM     38  O   UNL A   1      32.627  34.752  29.445  1.00  0.00    -0.376 OA
BRANCH  38  39
ATOM     39  C   UNL A   1      32.977  36.021  29.972  1.00  0.00     0.188 C 
BRANCH  39  40
ATOM     40  C   UNL A   1      32.887  36.219  31.494  1.00  0.00     0.188 C 
BRANCH  40  41
ATOM     41  O   UNL A   1      34.081  35.989  32.218  1.00  0.00    -0.376 OA
BRANCH  41  42
ATOM     42  C   UNL A   1      34.117  34.759  32.927  1.00  0.00     0.202 C 
BRANCH  42  43
ATOM     43  C   UNL A   1      34.974  34.817  34.197  1.00  0.00     0.261 C 
BRANCH  43  44
ATOM     44  O   UNL A   1      35.325  33.539  34.765  1.00  0.00    -0.460 OA
BRANCH  44  45
ATOM     45  C   UNL A   1      36.367  33.481  35.630  1.00  0.00     0.338 C 
ATOM     46  O   UNL A   1      36.297  33.437  36.847  1.00  0.00    -0.246 OA
BRANCH  45  47
ATOM     47  C   UNL A   1      37.585  33.168  34.834  1.00  0.00     0.060 A 
ATOM     48  C   UNL A   1      38.842  33.589  35.304  1.00  0.00     0.016 A 
ATOM     49  C   UNL A   1      37.504  32.356  33.700  1.00  0.00     0.016 A 
ATOM     50  C   UNL A   1      40.011  33.202  34.639  1.00  0.00     0.010 A 
ATOM     51  C   UNL A   1      38.671  31.994  33.021  1.00  0.00     0.010 A 
ATOM     52  C   UNL A   1      39.930  32.430  33.473  1.00  0.00    -0.014 A 
BRANCH  52  53
ATOM     53  C   UNL A   1      41.117  32.245  32.598  1.00  0.00     0.031 A 
ATOM     54  C   UNL A   1      41.942  31.000  32.797  1.00  0.00     0.074 A 
ATOM     55  C   UNL A   1      41.483  33.155  31.677  1.00  0.00     0.049 A 
ATOM     56  N   UNL A   1      43.081  30.661  32.254  1.00  0.00    -0.248 NA
ATOM     57  C   UNL A   1      41.408  30.009  33.747  1.00  0.00     0.031 C 
ATOM     58  C   UNL A   1      40.757  34.383  31.359  1.00  0.00     0.029 A 
ATOM     59  N   UNL A   1      42.583  33.194  30.852  1.00  0.00    -0.354 N 
ATOM     60  C   UNL A   1      43.407  29.427  32.803  1.00  0.00     0.074 A 
ATOM     61  C   UNL A   1      42.357  29.086  33.738  1.00  0.00     0.031 C 
ATOM     62  C   UNL A   1      41.443  35.067  30.424  1.00  0.00     0.029 A 
ATOM     63  C   UNL A   1      42.677  34.346  30.106  1.00  0.00     0.049 A 
ATOM     64  H   UNL A   1      43.242  32.465  30.800  1.00  0.00     0.167 HD
ATOM     65  C   UNL A   1      44.482  28.645  32.551  1.00  0.00     0.037 A 
ATOM     66  C   UNL A   1      43.659  34.783  29.290  1.00  0.00     0.037 A 
ATOM     67  C   UNL A   1      45.528  28.986  31.625  1.00  0.00     0.049 A 
ATOM     68  C   UNL A   1      44.888  33.926  29.081  1.00  0.00     0.074 A 
ATOM     69  C   UNL A   1      46.646  28.246  31.282  1.00  0.00     0.029 A 
ATOM     70  N   UNL A   1      45.594  30.167  30.902  1.00  0.00    -0.354 N 
ATOM     71  N   UNL A   1      45.169  32.746  29.581  1.00  0.00    -0.248 NA
ATOM     72  C   UNL A   1      45.935  34.464  28.198  1.00  0.00     0.031 C 
ATOM     73  C   UNL A   1      47.418  29.004  30.397  1.00  0.00     0.029 A 
ATOM     74  C   UNL A   1      46.750  30.190  30.140  1.00  0.00     0.049 A 
ATOM     75  H   UNL A   1      44.920  30.884  30.927  1.00  0.00     0.167 HD
ATOM     76  C   UNL A   1      46.407  32.390  29.052  1.00  0.00     0.074 A 
ATOM     77  C   UNL A   1      46.815  33.471  28.182  1.00  0.00     0.031 C 
ATOM     78  C   UNL A   1      47.142  31.270  29.268  1.00  0.00     0.037 A 
BRANCH  65  79
ATOM     79  C   UNL A   1      44.600  27.352  33.309  1.00  0.00     0.058 A 
ATOM     80  C   UNL A   1      44.214  26.127  32.744  1.00  0.00     0.135 A 
ATOM     81  C   UNL A   1      45.154  27.336  34.599  1.00  0.00     0.135 A 
ATOM     82  F   UNL A   1      43.655  26.089  31.523  1.00  0.00    -0.206 F 
ATOM     83  C   UNL A   1      44.364  24.930  33.437  1.00  0.00     0.059 A 
ATOM     84  C   UNL A   1      45.339  26.148  35.298  1.00  0.00     0.059 A 
ATOM     85  F   UNL A   1      45.530  28.481  35.188  1.00  0.00    -0.206 F 
ATOM     86  C   UNL A   1      44.934  24.951  34.712  1.00  0.00     0.060 A 
BRANCH  86  87
ATOM     87  S   UNL A   1      45.148  23.384  35.582  1.00  0.00     0.124 S 
ATOM     88  O   UNL A   1      46.276  22.802  34.861  1.00  0.00    -0.237 OA
ATOM     89  O   UNL A   1      45.426  23.823  36.946  1.00  0.00    -0.237 OA
ATOM     90  O   UNL A   1      43.867  22.710  35.391  1.00  0.00    -0.744 OA
ENDBRANCH  86  87
ENDBRANCH  65  79
BRANCH  66  91
ATOM     91  C   UNL A   1      43.556  36.114  28.626  1.00  0.00     0.058 A 
ATOM     92  C   UNL A   1      44.054  37.275  29.236  1.00  0.00     0.135 A 
ATOM     93  C   UNL A   1      42.919  36.257  27.382  1.00  0.00     0.135 A 
ATOM     94  F   UNL A   1      44.654  37.198  30.434  1.00  0.00    -0.206 F 
ATOM     95  C   UNL A   1      43.908  38.530  28.651  1.00  0.00     0.059 A 
ATOM     96  C   UNL A   1      42.788  37.497  26.762  1.00  0.00     0.059 A 
ATOM     97  F   UNL A   1      42.424  35.181  26.751  1.00  0.00    -0.206 F 
ATOM     98  C   UNL A   1      43.274  38.630  27.412  1.00  0.00     0.060 A 
BRANCH  98  99
ATOM     99  S   UNL A   1      43.118  40.259  26.646  1.00  0.00     0.124 S 
ATOM    100  O   UNL A   1      44.208  40.236  25.678  1.00  0.00    -0.237 OA
ATOM    101  O   UNL A   1      41.769  40.208  26.090  1.00  0.00    -0.237 OA
ATOM    102  O   UNL A   1      43.291  41.175  27.769  1.00  0.00    -0.744 OA
ENDBRANCH  98  99
ENDBRANCH  66  91
BRANCH  78 103
ATOM    103  C   UNL A   1      48.446  31.131  28.528  1.00  0.00     0.058 A 
ATOM    104  C   UNL A   1      49.683  31.333  29.160  1.00  0.00     0.135 A 
ATOM    105  C   UNL A   1      48.460  30.727  27.182  1.00  0.00     0.135 A 
ATOM    106  F   UNL A   1      49.729  31.723  30.445  1.00  0.00    -0.206 F 
ATOM    107  C   UNL A   1      50.885  31.167  28.480  1.00  0.00     0.059 A 
ATOM    108  C   UNL A   1      49.651  30.525  26.490  1.00  0.00     0.059 A 
ATOM    109  F   UNL A   1      47.307  30.505  26.530  1.00  0.00    -0.206 F 
ATOM    110  C   UNL A   1      50.860  30.759  27.144  1.00  0.00     0.060 A 
BRANCH 110 111
ATOM    111  S   UNL A   1      52.427  30.516  26.282  1.00  0.00     0.124 S 
ATOM    112  O   UNL A   1      52.835  29.205  26.777  1.00  0.00    -0.237 OA
ATOM    113  O   UNL A   1      52.023  30.567  24.880  1.00  0.00    -0.237 OA
ATOM    114  O   UNL A   1      53.242  31.639  26.734  1.00  0.00    -0.744 OA
ENDBRANCH 110 111
ENDBRANCH  78 103
ENDBRANCH  52  53
ENDBRANCH  45  47
ENDBRANCH  44  45
ENDBRANCH  43  44
ENDBRANCH  42  43
ENDBRANCH  41  42
ENDBRANCH  40  41
ENDBRANCH  39  40
ENDBRANCH  38  39
ENDBRANCH   1  38
TORSDOF 28
ENDMDL
MODEL 3
REMARK VINA RESULT:     -10.3      4.441     11.094
REMARK SMILES C[C@]12C[C@@H](O)[C@@H]3[C@@H](CCC4=CC(=O)CC[C@]43C)[C@H]1CC[C@]2(O)C(=O)COC(=O)CCC(=O)OCCOCCOCCOC(=O)c1ccc(-c2c3nc(c(-c4c(F)cc(S(=O)(=O)[O-])cc4F)c4ccc([nH]4)c(-c4c(F)cc(S(=O)(=O)[O-])cc4F)c4nc(c(-c5c(F)cc(S(=O)(=O)[O-])cc5F)c5ccc2[nH]5)C=C4)C=C3)cc1
REMARK SMILES IDX 35 1 34 2 33 3 31 4 32 5 30 6 29 7 27 8 28 9 26 10 25 11
REMARK SMILES IDX 23 12 24 13 21 14 17 15 16 16 15 17 10 18 6 19 14 20 11 21
REMARK SMILES IDX 9 22 7 23 4 24 12 25 8 26 18 27 3 28 13 29 2 30 19 31 1 32
REMARK SMILES IDX 20 33 5 34 22 36 36 38 37 39 38 40 39 41 40 42 41 43 42 44
REMARK SMILES IDX 43 45 44 46 45 47 46 48 110 49 47 50 109 51 48 52 49 53
REMARK SMILES IDX 50 54 103 55 51 56 108 57 102 58 104 59 52 60 107 61 101 62
REMARK SMILES IDX 100 63 53 65 87 66 66 67 86 68 67 69 70 70 85 71 105 72
REMARK SMILES IDX 68 73 69 74 84 76 106 77 71 78 54 79 55 80 64 81 56 82 57 83
REMARK SMILES IDX 63 84 65 85 58 86 59 87 60 88 61 89 62 90 88 91 89 92 98 93
REMARK SMILES IDX 90 94 91 95 97 96 99 97 92 98 93 99 94 100 95 101 96 102
REMARK SMILES IDX 72 103 73 104 82 105 74 106 75 107 81 108 83 109 76 110
REMARK SMILES IDX 77 111 78 112 79 113 80 114
REMARK H PARENT 5 35 22 37 104 64 70 75
REMARK Flexibility Score: inf
ROOT
ATOM      1  C   UNL A   1      34.535  34.102  29.626  1.00  0.00     0.202 C 
ENDROOT
BRANCH   1   2
ATOM      2  C   UNL A   1      36.021  33.855  29.905  1.00  0.00     0.261 C 
BRANCH   2   3
ATOM      3  O   UNL A   1      36.799  33.409  28.762  1.00  0.00    -0.463 OA
BRANCH   3   4
ATOM      4  C   UNL A   1      37.247  32.133  28.783  1.00  0.00     0.306 C 
ATOM      5  O   UNL A   1      38.345  31.826  29.240  1.00  0.00    -0.252 OA
BRANCH   4   6
ATOM      6  C   UNL A   1      36.353  31.043  28.183  1.00  0.00     0.134 C 
BRANCH   6   7
ATOM      7  C   UNL A   1      34.865  31.086  27.830  1.00  0.00     0.134 C 
BRANCH   7   8
ATOM      8  C   UNL A   1      34.167  29.870  27.281  1.00  0.00     0.306 C 
ATOM      9  O   UNL A   1      34.705  28.776  27.187  1.00  0.00    -0.252 OA
BRANCH   8  10
ATOM     10  O   UNL A   1      32.870  30.120  26.992  1.00  0.00    -0.458 OA
BRANCH  10  11
ATOM     11  C   UNL A   1      32.069  28.980  26.722  1.00  0.00     0.311 C 
BRANCH  11  12
ATOM     12  C   UNL A   1      31.460  29.123  25.350  1.00  0.00     0.202 C 
ATOM     13  O   UNL A   1      31.087  30.229  24.929  1.00  0.00    -0.293 OA
BRANCH  12  14
ATOM     14  C   UNL A   1      31.369  27.923  24.403  1.00  0.00     0.132 C 
ATOM     15  C   UNL A   1      34.778  22.220  24.189  1.00  0.00     0.016 C 
ATOM     16  C   UNL A   1      33.369  22.803  23.871  1.00  0.00    -0.005 C 
ATOM     17  C   UNL A   1      32.796  21.877  22.745  1.00  0.00     0.020 C 
ATOM     18  C   UNL A   1      32.326  22.671  24.984  1.00  0.00    -0.060 C 
ATOM     19  C   UNL A   1      33.502  24.313  23.453  1.00  0.00     0.031 C 
ATOM     20  C   UNL A   1      32.180  20.564  23.301  1.00  0.00     0.081 C 
ATOM     21  C   UNL A   1      32.316  21.545  25.723  1.00  0.00     0.047 C 
ATOM     22  C   UNL A   1      30.961  23.242  24.624  1.00  0.00     0.032 C 
ATOM     23  C   UNL A   1      32.134  24.927  23.052  1.00  0.00    -0.000 C 
ATOM     24  C   UNL A   1      34.302  25.303  24.396  1.00  0.00     0.119 C 
ATOM     25  C   UNL A   1      32.375  20.346  24.803  1.00  0.00     0.155 C 
ATOM     26  C   UNL A   1      31.072  24.661  24.119  1.00  0.00     0.009 C 
ATOM     27  C   UNL A   1      32.364  26.413  22.724  1.00  0.00     0.002 C 
ATOM     28  C   UNL A   1      33.525  26.501  24.982  1.00  0.00     0.042 C 
ATOM     29  O   UNL A   1      32.560  19.232  25.287  1.00  0.00    -0.295 OA
ATOM     30  C   UNL A   1      32.750  27.310  23.929  1.00  0.00     0.009 C 
ATOM     31  C   UNL A   1      31.202  27.143  22.070  1.00  0.00     0.008 C 
ATOM     32  C   UNL A   1      33.701  28.404  23.385  1.00  0.00     0.015 C 
ATOM     33  C   UNL A   1      30.487  27.961  23.151  1.00  0.00     0.044 C 
BRANCH  24  34
ATOM     34  O   UNL A   1      34.941  24.665  25.491  1.00  0.00    -0.393 OA
ATOM     35  H   UNL A   1      34.282  24.452  26.170  1.00  0.00     0.210 HD
ENDBRANCH  24  34
BRANCH  14  36
ATOM     36  O   UNL A   1      30.632  27.086  25.331  1.00  0.00    -0.381 OA
ATOM     37  H   UNL A   1      29.966  27.621  25.790  1.00  0.00     0.212 HD
ENDBRANCH  14  36
ENDBRANCH  12  14
ENDBRANCH  11  12
ENDBRANCH  10  11
ENDBRANCH   8  10
ENDBRANCH   7   8
ENDBRANCH   6   7
ENDBRANCH   4   6
ENDBRANCH   3   4
ENDBRANCH   2   3
ENDBRANCH   1   2
BRANCH   1  38
ATOM     38  O   UNL A   1      33.677  34.197  30.748  1.00  0.00    -0.376 OA
BRANCH  38  39
ATOM     39  C   UNL A   1      33.664  35.421  31.463  1.00  0.00     0.188 C 
BRANCH  39  40
ATOM     40  C   UNL A   1      33.924  35.374  32.978  1.00  0.00     0.188 C 
BRANCH  40  41
ATOM     41  O   UNL A   1      35.202  35.814  33.399  1.00  0.00    -0.376 OA
BRANCH  41  42
ATOM     42  C   UNL A   1      36.185  34.792  33.476  1.00  0.00     0.202 C 
BRANCH  42  43
ATOM     43  C   UNL A   1      36.060  33.926  34.735  1.00  0.00     0.261 C 
BRANCH  43  44
ATOM     44  O   UNL A   1      36.523  32.568  34.599  1.00  0.00    -0.460 OA
BRANCH  44  45
ATOM     45  C   UNL A   1      37.515  32.139  35.417  1.00  0.00     0.338 C 
ATOM     46  O   UNL A   1      37.429  31.936  36.617  1.00  0.00    -0.246 OA
BRANCH  45  47
ATOM     47  C   UNL A   1      38.629  31.666  34.550  1.00  0.00     0.060 A 
ATOM     48  C   UNL A   1      39.586  30.783  35.080  1.00  0.00     0.016 A 
ATOM     49  C   UNL A   1      38.658  31.987  33.191  1.00  0.00     0.016 A 
ATOM     50  C   UNL A   1      40.571  30.228  34.254  1.00  0.00     0.010 A 
ATOM     51  C   UNL A   1      39.658  31.455  32.374  1.00  0.00     0.010 A 
ATOM     52  C   UNL A   1      40.633  30.589  32.901  1.00  0.00    -0.014 A 
BRANCH  52  53
ATOM     53  C   UNL A   1      41.819  30.244  32.075  1.00  0.00     0.031 A 
ATOM     54  C   UNL A   1      41.653  29.174  31.028  1.00  0.00     0.074 A 
ATOM     55  C   UNL A   1      43.019  30.826  32.258  1.00  0.00     0.049 A 
ATOM     56  N   UNL A   1      42.551  28.609  30.266  1.00  0.00    -0.248 NA
ATOM     57  C   UNL A   1      40.284  28.670  30.823  1.00  0.00     0.031 C 
ATOM     58  C   UNL A   1      43.309  31.897  33.210  1.00  0.00     0.029 A 
ATOM     59  N   UNL A   1      44.230  30.577  31.658  1.00  0.00    -0.354 N 
ATOM     60  C   UNL A   1      41.861  27.676  29.500  1.00  0.00     0.074 A 
ATOM     61  C   UNL A   1      40.474  27.735  29.905  1.00  0.00     0.031 C 
ATOM     62  C   UNL A   1      44.620  32.195  33.147  1.00  0.00     0.029 A 
ATOM     63  C   UNL A   1      45.271  31.311  32.178  1.00  0.00     0.049 A 
ATOM     64  H   UNL A   1      44.343  29.931  30.922  1.00  0.00     0.167 HD
ATOM     65  C   UNL A   1      42.338  26.846  28.544  1.00  0.00     0.037 A 
ATOM     66  C   UNL A   1      46.596  31.251  31.929  1.00  0.00     0.037 A 
ATOM     67  C   UNL A   1      43.719  26.785  28.145  1.00  0.00     0.049 A 
ATOM     68  C   UNL A   1      47.116  30.263  30.910  1.00  0.00     0.074 A 
ATOM     69  C   UNL A   1      44.295  25.993  27.167  1.00  0.00     0.029 A 
ATOM     70  N   UNL A   1      44.742  27.533  28.707  1.00  0.00    -0.354 N 
ATOM     71  N   UNL A   1      46.449  29.408  30.169  1.00  0.00    -0.248 NA
ATOM     72  C   UNL A   1      48.572  30.228  30.695  1.00  0.00     0.031 C 
ATOM     73  C   UNL A   1      45.673  26.219  27.177  1.00  0.00     0.029 A 
ATOM     74  C   UNL A   1      45.950  27.197  28.119  1.00  0.00     0.049 A 
ATOM     75  H   UNL A   1      44.627  28.202  29.420  1.00  0.00     0.167 HD
ATOM     76  C   UNL A   1      47.399  28.758  29.385  1.00  0.00     0.074 A 
ATOM     77  C   UNL A   1      48.684  29.327  29.727  1.00  0.00     0.031 C 
ATOM     78  C   UNL A   1      47.224  27.778  28.463  1.00  0.00     0.037 A 
BRANCH  65  79
ATOM     79  C   UNL A   1      41.365  25.913  27.880  1.00  0.00     0.058 A 
ATOM     80  C   UNL A   1      41.232  24.575  28.283  1.00  0.00     0.135 A 
ATOM     81  C   UNL A   1      40.520  26.379  26.860  1.00  0.00     0.135 A 
ATOM     82  F   UNL A   1      42.033  24.072  29.236  1.00  0.00    -0.206 F 
ATOM     83  C   UNL A   1      40.302  23.729  27.690  1.00  0.00     0.059 A 
ATOM     84  C   UNL A   1      39.563  25.558  26.273  1.00  0.00     0.059 A 
ATOM     85  F   UNL A   1      40.613  27.647  26.431  1.00  0.00    -0.206 F 
ATOM     86  C   UNL A   1      39.467  24.231  26.690  1.00  0.00     0.060 A 
BRANCH  86  87
ATOM     87  S   UNL A   1      38.245  23.126  25.954  1.00  0.00     0.124 S 
ATOM     88  O   UNL A   1      38.992  21.874  25.878  1.00  0.00    -0.237 OA
ATOM     89  O   UNL A   1      37.165  23.160  26.935  1.00  0.00    -0.237 OA
ATOM     90  O   UNL A   1      37.944  23.755  24.672  1.00  0.00    -0.744 OA
ENDBRANCH  86  87
ENDBRANCH  65  79
BRANCH  66  91
ATOM     91  C   UNL A   1      47.547  32.126  32.674  1.00  0.00     0.058 A 
ATOM     92  C   UNL A   1      48.163  31.692  33.857  1.00  0.00     0.135 A 
ATOM     93  C   UNL A   1      47.827  33.431  32.237  1.00  0.00     0.135 A 
ATOM     94  F   UNL A   1      47.915  30.460  34.329  1.00  0.00    -0.206 F 
ATOM     95  C   UNL A   1      49.005  32.523  34.591  1.00  0.00     0.059 A 
ATOM     96  C   UNL A   1      48.689  34.270  32.938  1.00  0.00     0.059 A 
ATOM     97  F   UNL A   1      47.266  33.899  31.112  1.00  0.00    -0.206 F 
ATOM     98  C   UNL A   1      49.263  33.811  34.122  1.00  0.00     0.060 A 
BRANCH  98  99
ATOM     99  S   UNL A   1      50.383  34.870  35.065  1.00  0.00     0.124 S 
ATOM    100  O   UNL A   1      50.731  35.884  34.077  1.00  0.00    -0.237 OA
ATOM    101  O   UNL A   1      49.530  35.315  36.163  1.00  0.00    -0.237 OA
ATOM    102  O   UNL A   1      51.461  33.963  35.446  1.00  0.00    -0.744 OA
ENDBRANCH  98  99
ENDBRANCH  66  91
BRANCH  78 103
ATOM    103  C   UNL A   1      48.440  27.277  27.729  1.00  0.00     0.058 A 
ATOM    104  C   UNL A   1      48.889  27.876  26.541  1.00  0.00     0.135 A 
ATOM    105  C   UNL A   1      49.203  26.221  28.256  1.00  0.00     0.135 A 
ATOM    106  F   UNL A   1      48.197  28.886  25.991  1.00  0.00    -0.206 F 
ATOM    107  C   UNL A   1      50.034  27.430  25.889  1.00  0.00     0.059 A 
ATOM    108  C   UNL A   1      50.368  25.779  27.637  1.00  0.00     0.059 A 
ATOM    109  F   UNL A   1      48.829  25.620  29.397  1.00  0.00    -0.206 F 
ATOM    110  C   UNL A   1      50.771  26.382  26.446  1.00  0.00     0.060 A 
BRANCH 110 111
ATOM    111  S   UNL A   1      52.272  25.835  25.607  1.00  0.00     0.124 S 
ATOM    112  O   UNL A   1      52.191  24.388  25.772  1.00  0.00    -0.237 OA
ATOM    113  O   UNL A   1      52.068  26.331  24.249  1.00  0.00    -0.237 OA
ATOM    114  O   UNL A   1      53.339  26.494  26.353  1.00  0.00    -0.744 OA
ENDBRANCH 110 111
ENDBRANCH  78 103
ENDBRANCH  52  53
ENDBRANCH  45  47
ENDBRANCH  44  45
ENDBRANCH  43  44
ENDBRANCH  42  43
ENDBRANCH  41  42
ENDBRANCH  40  41
ENDBRANCH  39  40
ENDBRANCH  38  39
ENDBRANCH   1  38
TORSDOF 28
ENDMDL
