MODEL 1
REMARK VINA RESULT:     -10.0      0.000      0.000
REMARK SMILES Cc1cc(S(=O)(=O)N[C@@H](CO)C(=O)OCCOCCOCCOC(=O)c2ccc(-c3c4nc(c(-c5c(F)cc(S(=O)(=O)[O-])cc5F)c5ccc([nH]5)c(-c5c(F)cc(S(=O)(=O)[O-])cc5F)c5nc(c(-c6c(F)cc(S(=O)(=O)[O-])cc6F)c6ccc3[nH]6)C=C5)C=C4)cc2)ccc1OC(C)C
REMARK SMILES IDX 18 1 17 2 16 3 15 4 14 5 12 6 13 7 9 8 8 9 5 11 6 12 7 13
REMARK SMILES IDX 4 14 1 15 2 16 3 17 94 18 93 19 92 20 95 21 96 22 97 23
REMARK SMILES IDX 98 24 10 25 11 26 19 28 20 29 21 30 22 31 23 32 24 33 25 34
REMARK SMILES IDX 26 35 27 36 91 37 28 38 90 39 29 40 30 41 31 42 84 43 32 44
REMARK SMILES IDX 89 45 83 46 85 47 33 48 88 49 82 50 81 51 34 53 68 54 47 55
REMARK SMILES IDX 67 56 48 57 51 58 66 59 86 60 49 61 50 62 65 64 87 65 52 66
REMARK SMILES IDX 35 67 36 68 45 69 37 70 38 71 44 72 46 73 39 74 40 75 41 76
REMARK SMILES IDX 42 77 43 78 69 79 70 80 79 81 71 82 72 83 78 84 80 85 73 86
REMARK SMILES IDX 74 87 75 88 76 89 77 90 53 91 54 92 63 93 55 94 56 95 62 96
REMARK SMILES IDX 64 97 57 98 58 99 59 100 60 101 61 102
REMARK H PARENT 8 10 11 27 85 52 51 63
REMARK Flexibility Score: inf
ROOT
ATOM      1  C   UNL A   1      32.517  26.145  25.473  1.00  0.00     0.188 C 
ENDROOT
BRANCH   1   2
ATOM      2  O   UNL A   1      32.311  25.051  24.559  1.00  0.00    -0.376 OA
BRANCH   2   3
ATOM      3  C   UNL A   1      33.165  24.706  23.452  1.00  0.00     0.202 C 
BRANCH   3   4
ATOM      4  C   UNL A   1      34.694  23.927  23.348  1.00  0.00     0.261 C 
BRANCH   4   5
ATOM      5  O   UNL A   1      36.254  23.946  24.314  1.00  0.00    -0.462 OA
BRANCH   5   6
ATOM      6  C   UNL A   1      36.817  23.599  25.645  1.00  0.00     0.326 C 
ATOM      7  O   UNL A   1      36.202  23.393  26.706  1.00  0.00    -0.250 OA
BRANCH   6   8
ATOM      8  C   UNL A   1      38.231  23.214  25.919  1.00  0.00     0.205 C 
BRANCH   8   9
ATOM      9  N   UNL A   1      38.907  23.631  27.127  1.00  0.00    -0.194 NA
ATOM     10  H   UNL A   1      38.276  24.267  27.613  1.00  0.00     0.142 HD
BRANCH   9  11
ATOM     11  S   UNL A   1      40.384  24.396  27.037  1.00  0.00     0.241 S 
ATOM     12  O   UNL A   1      40.781  24.658  28.399  1.00  0.00    -0.207 OA
ATOM     13  O   UNL A   1      40.184  25.489  26.100  1.00  0.00    -0.207 OA
BRANCH  11  14
ATOM     14  C   UNL A   1      41.649  23.351  26.318  1.00  0.00     0.083 A 
ATOM     15  C   UNL A   1      42.298  19.686  26.909  1.00  0.00     0.048 C 
ATOM     16  C   UNL A   1      42.568  21.037  26.316  1.00  0.00    -0.008 A 
ATOM     17  C   UNL A   1      41.583  21.998  26.677  1.00  0.00     0.029 A 
ATOM     18  C   UNL A   1      43.636  21.454  25.513  1.00  0.00     0.122 A 
ATOM     19  C   UNL A   1      43.673  22.817  25.125  1.00  0.00     0.048 A 
ATOM     20  C   UNL A   1      42.710  23.767  25.530  1.00  0.00     0.025 A 
BRANCH  18  21
ATOM     21  O   UNL A   1      44.709  20.779  25.008  1.00  0.00    -0.491 OA
BRANCH  21  22
ATOM     22  C   UNL A   1      44.793  19.407  24.635  1.00  0.00     0.167 C 
ATOM     23  C   UNL A   1      44.917  19.187  23.124  1.00  0.00     0.052 C 
ATOM     24  C   UNL A   1      45.713  18.588  25.542  1.00  0.00     0.052 C 
ENDBRANCH  21  22
ENDBRANCH  18  21
ENDBRANCH  11  14
ENDBRANCH   9  11
ENDBRANCH   8   9
BRANCH   8  25
ATOM     25  C   UNL A   1      38.461  21.776  25.385  1.00  0.00     0.188 C 
BRANCH  25  26
ATOM     26  O   UNL A   1      38.202  20.796  26.380  1.00  0.00    -0.394 OA
ATOM     27  H   UNL A   1      38.198  19.916  25.973  1.00  0.00     0.210 HD
ENDBRANCH  25  26
ENDBRANCH   8  25
ENDBRANCH   6   8
ENDBRANCH   5   6
ENDBRANCH   4   5
ENDBRANCH   3   4
ENDBRANCH   2   3
ENDBRANCH   1   2
BRANCH   1  28
ATOM     28  C   UNL A   1      31.543  27.301  25.543  1.00  0.00     0.188 C 
BRANCH  28  29
ATOM     29  O   UNL A   1      31.038  27.385  26.856  1.00  0.00    -0.376 OA
BRANCH  29  30
ATOM     30  C   UNL A   1      31.735  28.217  27.744  1.00  0.00     0.202 C 
BRANCH  30  31
ATOM     31  C   UNL A   1      31.959  29.618  27.166  1.00  0.00     0.261 C 
BRANCH  31  32
ATOM     32  O   UNL A   1      33.191  30.241  27.623  1.00  0.00    -0.460 OA
BRANCH  32  33
ATOM     33  C   UNL A   1      34.414  29.681  27.278  1.00  0.00     0.338 C 
ATOM     34  O   UNL A   1      34.562  29.033  26.258  1.00  0.00    -0.246 OA
BRANCH  33  35
ATOM     35  C   UNL A   1      35.524  30.223  28.135  1.00  0.00     0.060 A 
ATOM     36  C   UNL A   1      36.084  31.509  28.246  1.00  0.00     0.016 A 
ATOM     37  C   UNL A   1      36.163  29.276  28.835  1.00  0.00     0.016 A 
ATOM     38  C   UNL A   1      37.439  31.767  28.796  1.00  0.00     0.010 A 
ATOM     39  C   UNL A   1      37.498  29.524  29.108  1.00  0.00     0.010 A 
ATOM     40  C   UNL A   1      38.312  30.734  29.144  1.00  0.00    -0.014 A 
BRANCH  40  41
ATOM     41  C   UNL A   1      40.058  30.874  29.565  1.00  0.00     0.031 A 
ATOM     42  C   UNL A   1      41.505  29.874  29.074  1.00  0.00     0.074 A 
ATOM     43  C   UNL A   1      40.418  31.788  30.488  1.00  0.00     0.049 A 
ATOM     44  N   UNL A   1      42.381  29.322  29.897  1.00  0.00    -0.248 NA
ATOM     45  C   UNL A   1      41.819  29.228  27.705  1.00  0.00     0.031 C 
ATOM     46  C   UNL A   1      41.771  32.201  30.844  1.00  0.00     0.029 A 
ATOM     47  N   UNL A   1      39.600  32.556  31.315  1.00  0.00    -0.354 N 
ATOM     48  C   UNL A   1      43.186  28.423  29.140  1.00  0.00     0.074 A 
ATOM     49  C   UNL A   1      42.516  28.145  27.944  1.00  0.00     0.031 C 
ATOM     50  C   UNL A   1      41.710  32.916  31.981  1.00  0.00     0.029 A 
ATOM     51  C   UNL A   1      40.341  32.839  32.470  1.00  0.00     0.049 A 
ATOM     52  H   UNL A   1      38.678  32.844  31.125  1.00  0.00     0.167 HD
ATOM     53  C   UNL A   1      44.522  28.202  29.294  1.00  0.00     0.037 A 
ATOM     54  C   UNL A   1      39.920  32.297  33.649  1.00  0.00     0.037 A 
ATOM     55  C   UNL A   1      44.960  28.976  30.419  1.00  0.00     0.049 A 
ATOM     56  C   UNL A   1      40.874  31.223  34.141  1.00  0.00     0.074 A 
ATOM     57  C   UNL A   1      45.269  30.313  30.581  1.00  0.00     0.029 A 
ATOM     58  N   UNL A   1      44.552  28.512  31.638  1.00  0.00    -0.354 N 
ATOM     59  N   UNL A   1      41.980  30.880  33.528  1.00  0.00    -0.248 NA
ATOM     60  C   UNL A   1      40.648  30.435  35.350  1.00  0.00     0.031 C 
ATOM     61  C   UNL A   1      44.850  30.675  31.905  1.00  0.00     0.029 A 
ATOM     62  C   UNL A   1      44.350  29.544  32.531  1.00  0.00     0.049 A 
ATOM     63  H   UNL A   1      44.419  27.561  31.853  1.00  0.00     0.167 HD
ATOM     64  C   UNL A   1      42.561  29.836  34.183  1.00  0.00     0.074 A 
ATOM     65  C   UNL A   1      41.702  29.601  35.330  1.00  0.00     0.031 C 
ATOM     66  C   UNL A   1      43.690  29.193  33.774  1.00  0.00     0.037 A 
BRANCH  53  67
ATOM     67  C   UNL A   1      45.401  27.551  28.216  1.00  0.00     0.058 A 
ATOM     68  C   UNL A   1      46.327  28.329  27.501  1.00  0.00     0.135 A 
ATOM     69  C   UNL A   1      45.347  26.192  27.797  1.00  0.00     0.135 A 
ATOM     70  F   UNL A   1      46.545  29.610  27.835  1.00  0.00    -0.206 F 
ATOM     71  C   UNL A   1      47.065  27.836  26.414  1.00  0.00     0.059 A 
ATOM     72  C   UNL A   1      45.997  25.700  26.653  1.00  0.00     0.059 A 
ATOM     73  F   UNL A   1      44.676  25.270  28.505  1.00  0.00    -0.206 F 
ATOM     74  C   UNL A   1      46.870  26.531  25.973  1.00  0.00     0.060 A 
BRANCH  74  75
ATOM     75  S   UNL A   1      47.806  25.934  24.545  1.00  0.00     0.124 S 
ATOM     76  O   UNL A   1      47.542  26.963  23.544  1.00  0.00    -0.237 OA
ATOM     77  O   UNL A   1      49.166  25.898  25.072  1.00  0.00    -0.237 OA
ATOM     78  O   UNL A   1      47.210  24.632  24.260  1.00  0.00    -0.744 OA
ENDBRANCH  74  75
ENDBRANCH  53  67
BRANCH  54  79
ATOM     79  C   UNL A   1      38.423  32.367  33.792  1.00  0.00     0.058 A 
ATOM     80  C   UNL A   1      37.873  33.605  34.212  1.00  0.00     0.135 A 
ATOM     81  C   UNL A   1      37.534  31.468  33.188  1.00  0.00     0.135 A 
ATOM     82  F   UNL A   1      38.652  34.510  34.827  1.00  0.00    -0.206 F 
ATOM     83  C   UNL A   1      36.578  34.001  33.885  1.00  0.00     0.059 A 
ATOM     84  C   UNL A   1      36.209  31.832  32.884  1.00  0.00     0.059 A 
ATOM     85  F   UNL A   1      37.968  30.279  32.746  1.00  0.00    -0.206 F 
ATOM     86  C   UNL A   1      35.769  33.128  33.170  1.00  0.00     0.060 A 
BRANCH  86  87
ATOM     87  S   UNL A   1      34.232  33.796  32.475  1.00  0.00     0.124 S 
ATOM     88  O   UNL A   1      34.375  35.225  32.719  1.00  0.00    -0.237 OA
ATOM     89  O   UNL A   1      34.341  33.376  31.077  1.00  0.00    -0.237 OA
ATOM     90  O   UNL A   1      33.198  33.126  33.254  1.00  0.00    -0.744 OA
ENDBRANCH  86  87
ENDBRANCH  54  79
BRANCH  66  91
ATOM     91  C   UNL A   1      44.272  28.103  34.605  1.00  0.00     0.058 A 
ATOM     92  C   UNL A   1      43.737  26.814  34.518  1.00  0.00     0.135 A 
ATOM     93  C   UNL A   1      45.249  28.339  35.592  1.00  0.00     0.135 A 
ATOM     94  F   UNL A   1      42.791  26.530  33.609  1.00  0.00    -0.206 F 
ATOM     95  C   UNL A   1      44.168  25.798  35.357  1.00  0.00     0.059 A 
ATOM     96  C   UNL A   1      45.641  27.359  36.487  1.00  0.00     0.059 A 
ATOM     97  F   UNL A   1      45.847  29.536  35.708  1.00  0.00    -0.206 F 
ATOM     98  C   UNL A   1      45.116  26.082  36.340  1.00  0.00     0.060 A 
BRANCH  98  99
ATOM     99  S   UNL A   1      45.681  24.764  37.424  1.00  0.00     0.124 S 
ATOM    100  O   UNL A   1      44.874  23.626  36.993  1.00  0.00    -0.237 OA
ATOM    101  O   UNL A   1      47.097  24.704  37.077  1.00  0.00    -0.237 OA
ATOM    102  O   UNL A   1      45.374  25.273  38.757  1.00  0.00    -0.744 OA
ENDBRANCH  98  99
ENDBRANCH  66  91
ENDBRANCH  40  41
ENDBRANCH  33  35
ENDBRANCH  32  33
ENDBRANCH  31  32
ENDBRANCH  30  31
ENDBRANCH  29  30
ENDBRANCH  28  29
ENDBRANCH   1  28
TORSDOF 27
ENDMDL
MODEL 2
REMARK VINA RESULT:      -9.0      1.660      2.703
REMARK SMILES Cc1cc(S(=O)(=O)N[C@@H](CO)C(=O)OCCOCCOCCOC(=O)c2ccc(-c3c4nc(c(-c5c(F)cc(S(=O)(=O)[O-])cc5F)c5ccc([nH]5)c(-c5c(F)cc(S(=O)(=O)[O-])cc5F)c5nc(c(-c6c(F)cc(S(=O)(=O)[O-])cc6F)c6ccc3[nH]6)C=C5)C=C4)cc2)ccc1OC(C)C
REMARK SMILES IDX 18 1 17 2 16 3 15 4 14 5 12 6 13 7 9 8 8 9 5 11 6 12 7 13
REMARK SMILES IDX 4 14 1 15 2 16 3 17 94 18 93 19 92 20 95 21 96 22 97 23
REMARK SMILES IDX 98 24 10 25 11 26 19 28 20 29 21 30 22 31 23 32 24 33 25 34
REMARK SMILES IDX 26 35 27 36 91 37 28 38 90 39 29 40 30 41 31 42 84 43 32 44
REMARK SMILES IDX 89 45 83 46 85 47 33 48 88 49 82 50 81 51 34 53 68 54 47 55
REMARK SMILES IDX 67 56 48 57 51 58 66 59 86 60 49 61 50 62 65 64 87 65 52 66
REMARK SMILES IDX 35 67 36 68 45 69 37 70 38 71 44 72 46 73 39 74 40 75 41 76
REMARK SMILES IDX 42 77 43 78 69 79 70 80 79 81 71 82 72 83 78 84 80 85 73 86
REMARK SMILES IDX 74 87 75 88 76 89 77 90 53 91 54 92 63 93 55 94 56 95 62 96
REMARK SMILES IDX 64 97 57 98 58 99 59 100 60 101 61 102
REMARK H PARENT 8 10 11 27 85 52 51 63
REMARK Flexibility Score: inf
ROOT
ATOM      1  C   UNL A   1      33.906  25.940  24.939  1.00  0.00     0.188 C 
ENDROOT
BRANCH   1   2
ATOM      2  O   UNL A   1      33.849  25.101  23.770  1.00  0.00    -0.376 OA
BRANCH   2   3
ATOM      3  C   UNL A   1      34.655  23.933  23.530  1.00  0.00     0.202 C 
BRANCH   3   4
ATOM      4  C   UNL A   1      34.712  22.377  24.260  1.00  0.00     0.261 C 
BRANCH   4   5
ATOM      5  O   UNL A   1      35.950  21.404  25.202  1.00  0.00    -0.462 OA
BRANCH   5   6
ATOM      6  C   UNL A   1      37.391  21.039  25.221  1.00  0.00     0.326 C 
ATOM      7  O   UNL A   1      37.956  20.120  24.602  1.00  0.00    -0.250 OA
BRANCH   6   8
ATOM      8  C   UNL A   1      38.486  21.851  25.825  1.00  0.00     0.205 C 
BRANCH   8   9
ATOM      9  N   UNL A   1      39.877  21.558  25.562  1.00  0.00    -0.194 NA
ATOM     10  H   UNL A   1      39.904  20.650  25.097  1.00  0.00     0.142 HD
BRANCH   9  11
ATOM     11  S   UNL A   1      40.969  21.487  26.818  1.00  0.00     0.241 S 
ATOM     12  O   UNL A   1      41.564  20.174  26.756  1.00  0.00    -0.207 OA
ATOM     13  O   UNL A   1      40.219  21.905  27.990  1.00  0.00    -0.207 OA
BRANCH  11  14
ATOM     14  C   UNL A   1      42.300  22.671  26.631  1.00  0.00     0.083 A 
ATOM     15  C   UNL A   1      44.921  22.865  23.930  1.00  0.00     0.048 C 
ATOM     16  C   UNL A   1      44.243  23.285  25.201  1.00  0.00    -0.008 A 
ATOM     17  C   UNL A   1      43.069  22.528  25.468  1.00  0.00     0.029 A 
ATOM     18  C   UNL A   1      44.625  24.263  26.126  1.00  0.00     0.122 A 
ATOM     19  C   UNL A   1      43.818  24.424  27.282  1.00  0.00     0.048 A 
ATOM     20  C   UNL A   1      42.680  23.634  27.552  1.00  0.00     0.025 A 
BRANCH  18  21
ATOM     21  O   UNL A   1      45.675  25.134  26.146  1.00  0.00    -0.491 OA
BRANCH  21  22
ATOM     22  C   UNL A   1      46.052  26.084  25.154  1.00  0.00     0.167 C 
ATOM     23  C   UNL A   1      45.969  27.537  25.629  1.00  0.00     0.052 C 
ATOM     24  C   UNL A   1      47.297  25.673  24.365  1.00  0.00     0.052 C 
ENDBRANCH  21  22
ENDBRANCH  18  21
ENDBRANCH  11  14
ENDBRANCH   9  11
ENDBRANCH   8   9
BRANCH   8  25
ATOM     25  C   UNL A   1      38.026  23.331  25.883  1.00  0.00     0.188 C 
BRANCH  25  26
ATOM     26  O   UNL A   1      38.126  23.863  27.196  1.00  0.00    -0.394 OA
ATOM     27  H   UNL A   1      38.133  23.136  27.839  1.00  0.00     0.210 HD
ENDBRANCH  25  26
ENDBRANCH   8  25
ENDBRANCH   6   8
ENDBRANCH   5   6
ENDBRANCH   4   5
ENDBRANCH   3   4
ENDBRANCH   2   3
ENDBRANCH   1   2
BRANCH   1  28
ATOM     28  C   UNL A   1      33.232  27.295  24.967  1.00  0.00     0.188 C 
BRANCH  28  29
ATOM     29  O   UNL A   1      32.316  27.319  26.037  1.00  0.00    -0.376 OA
BRANCH  29  30
ATOM     30  C   UNL A   1      32.731  27.980  27.203  1.00  0.00     0.202 C 
BRANCH  30  31
ATOM     31  C   UNL A   1      32.878  29.490  26.989  1.00  0.00     0.261 C 
BRANCH  31  32
ATOM     32  O   UNL A   1      33.990  30.072  27.721  1.00  0.00    -0.460 OA
BRANCH  32  33
ATOM     33  C   UNL A   1      35.281  29.618  27.484  1.00  0.00     0.338 C 
ATOM     34  O   UNL A   1      35.573  28.995  26.480  1.00  0.00    -0.246 OA
BRANCH  33  35
ATOM     35  C   UNL A   1      36.263  30.239  28.439  1.00  0.00     0.060 A 
ATOM     36  C   UNL A   1      36.758  31.551  28.558  1.00  0.00     0.016 A 
ATOM     37  C   UNL A   1      36.850  29.349  29.250  1.00  0.00     0.016 A 
ATOM     38  C   UNL A   1      38.028  31.887  29.249  1.00  0.00     0.010 A 
ATOM     39  C   UNL A   1      38.133  29.663  29.665  1.00  0.00     0.010 A 
ATOM     40  C   UNL A   1      38.892  30.906  29.741  1.00  0.00    -0.014 A 
BRANCH  40  41
ATOM     41  C   UNL A   1      40.570  31.135  30.354  1.00  0.00     0.031 A 
ATOM     42  C   UNL A   1      42.091  30.152  30.117  1.00  0.00     0.074 A 
ATOM     43  C   UNL A   1      40.793  32.125  31.241  1.00  0.00     0.049 A 
ATOM     44  N   UNL A   1      42.874  29.691  31.078  1.00  0.00    -0.248 NA
ATOM     45  C   UNL A   1      42.584  29.420  28.848  1.00  0.00     0.031 C 
ATOM     46  C   UNL A   1      42.082  32.609  31.724  1.00  0.00     0.029 A 
ATOM     47  N   UNL A   1      39.862  32.923  31.905  1.00  0.00    -0.354 N 
ATOM     48  C   UNL A   1      43.787  28.768  30.493  1.00  0.00     0.074 A 
ATOM     49  C   UNL A   1      43.274  28.381  29.250  1.00  0.00     0.031 C 
ATOM     50  C   UNL A   1      41.866  33.402  32.787  1.00  0.00     0.029 A 
ATOM     51  C   UNL A   1      40.450  33.314  33.115  1.00  0.00     0.049 A 
ATOM     52  H   UNL A   1      38.962  33.165  31.585  1.00  0.00     0.167 HD
ATOM     53  C   UNL A   1      45.099  28.603  30.821  1.00  0.00     0.037 A 
ATOM     54  C   UNL A   1      39.903  32.845  34.273  1.00  0.00     0.037 A 
ATOM     55  C   UNL A   1      45.379  29.472  31.927  1.00  0.00     0.049 A 
ATOM     56  C   UNL A   1      40.817  31.843  34.955  1.00  0.00     0.074 A 
ATOM     57  C   UNL A   1      45.633  30.827  32.023  1.00  0.00     0.029 A 
ATOM     58  N   UNL A   1      44.838  29.084  33.121  1.00  0.00    -0.354 N 
ATOM     59  N   UNL A   1      41.997  31.493  34.507  1.00  0.00    -0.248 NA
ATOM     60  C   UNL A   1      40.467  31.137  36.185  1.00  0.00     0.031 C 
ATOM     61  C   UNL A   1      45.047  31.269  33.256  1.00  0.00     0.029 A 
ATOM     62  C   UNL A   1      44.503  30.171  33.903  1.00  0.00     0.049 A 
ATOM     63  H   UNL A   1      44.704  28.147  33.390  1.00  0.00     0.167 HD
ATOM     64  C   UNL A   1      42.521  30.521  35.303  1.00  0.00     0.074 A 
ATOM     65  C   UNL A   1      41.536  30.340  36.354  1.00  0.00     0.031 C 
ATOM     66  C   UNL A   1      43.706  29.888  35.081  1.00  0.00     0.037 A 
BRANCH  53  67
ATOM     67  C   UNL A   1      46.118  27.907  29.907  1.00  0.00     0.058 A 
ATOM     68  C   UNL A   1      46.247  26.508  29.935  1.00  0.00     0.135 A 
ATOM     69  C   UNL A   1      47.033  28.550  29.026  1.00  0.00     0.135 A 
ATOM     70  F   UNL A   1      45.402  25.759  30.658  1.00  0.00    -0.206 F 
ATOM     71  C   UNL A   1      47.244  25.816  29.231  1.00  0.00     0.059 A 
ATOM     72  C   UNL A   1      48.100  27.895  28.391  1.00  0.00     0.059 A 
ATOM     73  F   UNL A   1      46.909  29.852  28.722  1.00  0.00    -0.206 F 
ATOM     74  C   UNL A   1      48.189  26.517  28.488  1.00  0.00     0.060 A 
BRANCH  74  75
ATOM     75  S   UNL A   1      49.486  25.602  27.623  1.00  0.00     0.124 S 
ATOM     76  O   UNL A   1      49.771  26.466  26.480  1.00  0.00    -0.237 OA
ATOM     77  O   UNL A   1      50.531  25.530  28.638  1.00  0.00    -0.237 OA
ATOM     78  O   UNL A   1      48.850  24.331  27.288  1.00  0.00    -0.744 OA
ENDBRANCH  74  75
ENDBRANCH  53  67
BRANCH  54  79
ATOM     79  C   UNL A   1      38.398  32.874  34.231  1.00  0.00     0.058 A 
ATOM     80  C   UNL A   1      37.772  34.123  34.471  1.00  0.00     0.135 A 
ATOM     81  C   UNL A   1      37.611  31.897  33.609  1.00  0.00     0.135 A 
ATOM     82  F   UNL A   1      38.448  35.105  35.090  1.00  0.00    -0.206 F 
ATOM     83  C   UNL A   1      36.516  34.445  33.960  1.00  0.00     0.059 A 
ATOM     84  C   UNL A   1      36.324  32.187  33.120  1.00  0.00     0.059 A 
ATOM     85  F   UNL A   1      38.125  30.690  33.330  1.00  0.00    -0.206 F 
ATOM     86  C   UNL A   1      35.821  33.485  33.235  1.00  0.00     0.060 A 
BRANCH  86  87
ATOM     87  S   UNL A   1      34.364  34.037  32.306  1.00  0.00     0.124 S 
ATOM     88  O   UNL A   1      34.644  33.543  30.964  1.00  0.00    -0.237 OA
ATOM     89  O   UNL A   1      33.287  33.351  33.023  1.00  0.00    -0.237 OA
ATOM     90  O   UNL A   1      34.400  35.486  32.463  1.00  0.00    -0.744 OA
ENDBRANCH  86  87
ENDBRANCH  54  79
BRANCH  66  91
ATOM     91  C   UNL A   1      44.211  28.881  36.056  1.00  0.00     0.058 A 
ATOM     92  C   UNL A   1      45.170  29.261  37.000  1.00  0.00     0.135 A 
ATOM     93  C   UNL A   1      43.874  27.516  35.981  1.00  0.00     0.135 A 
ATOM     94  F   UNL A   1      45.544  30.546  37.109  1.00  0.00    -0.206 F 
ATOM     95  C   UNL A   1      45.752  28.332  37.848  1.00  0.00     0.059 A 
ATOM     96  C   UNL A   1      44.496  26.561  36.767  1.00  0.00     0.059 A 
ATOM     97  F   UNL A   1      42.927  27.077  35.135  1.00  0.00    -0.206 F 
ATOM     98  C   UNL A   1      45.412  26.986  37.719  1.00  0.00     0.060 A 
BRANCH  98  99
ATOM     99  S   UNL A   1      46.162  25.781  38.823  1.00  0.00     0.124 S 
ATOM    100  O   UNL A   1      46.536  24.702  37.914  1.00  0.00    -0.237 OA
ATOM    101  O   UNL A   1      47.268  26.556  39.375  1.00  0.00    -0.237 OA
ATOM    102  O   UNL A   1      45.083  25.463  39.753  1.00  0.00    -0.744 OA
ENDBRANCH  98  99
ENDBRANCH  66  91
ENDBRANCH  40  41
ENDBRANCH  33  35
ENDBRANCH  32  33
ENDBRANCH  31  32
ENDBRANCH  30  31
ENDBRANCH  29  30
ENDBRANCH  28  29
ENDBRANCH   1  28
TORSDOF 27
ENDMDL
MODEL 3
REMARK VINA RESULT:      -8.8      3.351      6.960
REMARK SMILES Cc1cc(S(=O)(=O)N[C@@H](CO)C(=O)OCCOCCOCCOC(=O)c2ccc(-c3c4nc(c(-c5c(F)cc(S(=O)(=O)[O-])cc5F)c5ccc([nH]5)c(-c5c(F)cc(S(=O)(=O)[O-])cc5F)c5nc(c(-c6c(F)cc(S(=O)(=O)[O-])cc6F)c6ccc3[nH]6)C=C5)C=C4)cc2)ccc1OC(C)C
REMARK SMILES IDX 18 1 17 2 16 3 15 4 14 5 12 6 13 7 9 8 8 9 5 11 6 12 7 13
REMARK SMILES IDX 4 14 1 15 2 16 3 17 94 18 93 19 92 20 95 21 96 22 97 23
REMARK SMILES IDX 98 24 10 25 11 26 19 28 20 29 21 30 22 31 23 32 24 33 25 34
REMARK SMILES IDX 26 35 27 36 91 37 28 38 90 39 29 40 30 41 31 42 84 43 32 44
REMARK SMILES IDX 89 45 83 46 85 47 33 48 88 49 82 50 81 51 34 53 68 54 47 55
REMARK SMILES IDX 67 56 48 57 51 58 66 59 86 60 49 61 50 62 65 64 87 65 52 66
REMARK SMILES IDX 35 67 36 68 45 69 37 70 38 71 44 72 46 73 39 74 40 75 41 76
REMARK SMILES IDX 42 77 43 78 69 79 70 80 79 81 71 82 72 83 78 84 80 85 73 86
REMARK SMILES IDX 74 87 75 88 76 89 77 90 53 91 54 92 63 93 55 94 56 95 62 96
REMARK SMILES IDX 64 97 57 98 58 99 59 100 60 101 61 102
REMARK H PARENT 8 10 11 27 85 52 51 63
REMARK Flexibility Score: inf
ROOT
ATOM      1  C   UNL A   1      33.039  36.552  31.113  1.00  0.00     0.188 C 
ENDROOT
BRANCH   1   2
ATOM      2  O   UNL A   1      33.040  35.291  30.418  1.00  0.00    -0.376 OA
BRANCH   2   3
ATOM      3  C   UNL A   1      33.100  35.116  28.990  1.00  0.00     0.202 C 
BRANCH   3   4
ATOM      4  C   UNL A   1      33.475  33.770  27.988  1.00  0.00     0.261 C 
BRANCH   4   5
ATOM      5  O   UNL A   1      32.802  32.080  27.740  1.00  0.00    -0.462 OA
BRANCH   5   6
ATOM      6  C   UNL A   1      32.312  31.153  26.686  1.00  0.00     0.326 C 
ATOM      7  O   UNL A   1      31.357  31.316  25.907  1.00  0.00    -0.250 OA
BRANCH   6   8
ATOM      8  C   UNL A   1      33.016  29.928  26.210  1.00  0.00     0.205 C 
BRANCH   8   9
ATOM      9  N   UNL A   1      33.233  29.681  24.802  1.00  0.00    -0.194 NA
ATOM     10  H   UNL A   1      33.030  30.554  24.315  1.00  0.00     0.142 HD
BRANCH   9  11
ATOM     11  S   UNL A   1      32.375  28.485  24.021  1.00  0.00     0.241 S 
ATOM     12  O   UNL A   1      32.605  28.685  22.611  1.00  0.00    -0.207 OA
ATOM     13  O   UNL A   1      31.033  28.566  24.572  1.00  0.00    -0.207 OA
BRANCH  11  14
ATOM     14  C   UNL A   1      32.978  26.845  24.419  1.00  0.00     0.083 A 
ATOM     15  C   UNL A   1      33.289  23.838  22.169  1.00  0.00     0.048 C 
ATOM     16  C   UNL A   1      33.378  24.578  23.471  1.00  0.00    -0.008 A 
ATOM     17  C   UNL A   1      33.048  25.956  23.338  1.00  0.00     0.029 A 
ATOM     18  C   UNL A   1      33.699  24.095  24.745  1.00  0.00     0.122 A 
ATOM     19  C   UNL A   1      33.660  25.013  25.825  1.00  0.00     0.048 A 
ATOM     20  C   UNL A   1      33.289  26.367  25.681  1.00  0.00     0.025 A 
BRANCH  18  21
ATOM     21  O   UNL A   1      34.054  22.851  25.180  1.00  0.00    -0.491 OA
BRANCH  21  22
ATOM     22  C   UNL A   1      33.357  22.001  26.086  1.00  0.00     0.167 C 
ATOM     23  C   UNL A   1      34.031  21.876  27.456  1.00  0.00     0.052 C 
ATOM     24  C   UNL A   1      31.841  22.206  26.065  1.00  0.00     0.052 C 
ENDBRANCH  21  22
ENDBRANCH  18  21
ENDBRANCH  11  14
ENDBRANCH   9  11
ENDBRANCH   8   9
BRANCH   8  25
ATOM     25  C   UNL A   1      34.146  29.587  27.217  1.00  0.00     0.188 C 
BRANCH  25  26
ATOM     26  O   UNL A   1      35.300  30.386  27.005  1.00  0.00    -0.394 OA
ATOM     27  H   UNL A   1      35.830  30.409  27.817  1.00  0.00     0.210 HD
ENDBRANCH  25  26
ENDBRANCH   8  25
ENDBRANCH   6   8
ENDBRANCH   5   6
ENDBRANCH   4   5
ENDBRANCH   3   4
ENDBRANCH   2   3
ENDBRANCH   1   2
BRANCH   1  28
ATOM     28  C   UNL A   1      33.972  36.806  32.278  1.00  0.00     0.188 C 
BRANCH  28  29
ATOM     29  O   UNL A   1      34.744  35.647  32.496  1.00  0.00    -0.376 OA
BRANCH  29  30
ATOM     30  C   UNL A   1      34.193  34.678  33.347  1.00  0.00     0.202 C 
BRANCH  30  31
ATOM     31  C   UNL A   1      34.368  33.260  32.795  1.00  0.00     0.261 C 
BRANCH  31  32
ATOM     32  O   UNL A   1      35.710  32.731  32.974  1.00  0.00    -0.460 OA
BRANCH  32  33
ATOM     33  C   UNL A   1      36.325  32.049  31.931  1.00  0.00     0.338 C 
ATOM     34  O   UNL A   1      35.710  31.686  30.946  1.00  0.00    -0.246 OA
BRANCH  33  35
ATOM     35  C   UNL A   1      37.823  32.102  32.053  1.00  0.00     0.060 A 
ATOM     36  C   UNL A   1      38.797  32.843  31.360  1.00  0.00     0.016 A 
ATOM     37  C   UNL A   1      38.317  31.190  32.901  1.00  0.00     0.016 A 
ATOM     38  C   UNL A   1      40.229  32.454  31.295  1.00  0.00     0.010 A 
ATOM     39  C   UNL A   1      39.592  30.730  32.618  1.00  0.00     0.010 A 
ATOM     40  C   UNL A   1      40.700  31.252  31.825  1.00  0.00    -0.014 A 
BRANCH  40  41
ATOM     41  C   UNL A   1      42.329  30.519  31.596  1.00  0.00     0.031 A 
ATOM     42  C   UNL A   1      42.857  28.968  30.790  1.00  0.00     0.074 A 
ATOM     43  C   UNL A   1      43.382  31.110  32.195  1.00  0.00     0.049 A 
ATOM     44  N   UNL A   1      43.616  28.031  31.333  1.00  0.00    -0.248 NA
ATOM     45  C   UNL A   1      42.306  28.306  29.506  1.00  0.00     0.031 C 
ATOM     46  C   UNL A   1      44.796  30.809  32.001  1.00  0.00     0.029 A 
ATOM     47  N   UNL A   1      43.381  32.143  33.131  1.00  0.00    -0.354 N 
ATOM     48  C   UNL A   1      43.572  26.887  30.485  1.00  0.00     0.074 A 
ATOM     49  C   UNL A   1      42.460  27.013  29.646  1.00  0.00     0.031 C 
ATOM     50  C   UNL A   1      45.497  31.419  32.972  1.00  0.00     0.029 A 
ATOM     51  C   UNL A   1      44.538  31.989  33.908  1.00  0.00     0.049 A 
ATOM     52  H   UNL A   1      42.698  32.845  33.230  1.00  0.00     0.167 HD
ATOM     53  C   UNL A   1      44.606  26.045  30.202  1.00  0.00     0.037 A 
ATOM     54  C   UNL A   1      44.386  31.669  35.225  1.00  0.00     0.037 A 
ATOM     55  C   UNL A   1      45.733  26.469  30.981  1.00  0.00     0.049 A 
ATOM     56  C   UNL A   1      44.846  30.251  35.510  1.00  0.00     0.074 A 
ATOM     57  C   UNL A   1      46.656  27.486  30.831  1.00  0.00     0.029 A 
ATOM     58  N   UNL A   1      45.643  26.209  32.321  1.00  0.00    -0.354 N 
ATOM     59  N   UNL A   1      45.354  29.443  34.612  1.00  0.00    -0.248 NA
ATOM     60  C   UNL A   1      44.751  29.620  36.825  1.00  0.00     0.031 C 
ATOM     61  C   UNL A   1      46.975  27.951  32.150  1.00  0.00     0.029 A 
ATOM     62  C   UNL A   1      46.285  27.175  33.068  1.00  0.00     0.049 A 
ATOM     63  H   UNL A   1      45.178  25.431  32.704  1.00  0.00     0.167 HD
ATOM     64  C   UNL A   1      45.587  28.224  35.172  1.00  0.00     0.074 A 
ATOM     65  C   UNL A   1      45.211  28.385  36.565  1.00  0.00     0.031 C 
ATOM     66  C   UNL A   1      46.051  27.135  34.499  1.00  0.00     0.037 A 
BRANCH  53  67
ATOM     67  C   UNL A   1      44.617  25.097  28.994  1.00  0.00     0.058 A 
ATOM     68  C   UNL A   1      45.081  25.551  27.748  1.00  0.00     0.135 A 
ATOM     69  C   UNL A   1      44.138  23.757  28.975  1.00  0.00     0.135 A 
ATOM     70  F   UNL A   1      45.633  26.767  27.626  1.00  0.00    -0.206 F 
ATOM     71  C   UNL A   1      44.995  24.787  26.574  1.00  0.00     0.059 A 
ATOM     72  C   UNL A   1      43.950  23.010  27.801  1.00  0.00     0.059 A 
ATOM     73  F   UNL A   1      43.858  23.101  30.113  1.00  0.00    -0.206 F 
ATOM     74  C   UNL A   1      44.397  23.531  26.600  1.00  0.00     0.060 A 
BRANCH  74  75
ATOM     75  S   UNL A   1      44.266  22.585  25.064  1.00  0.00     0.124 S 
ATOM     76  O   UNL A   1      45.107  23.352  24.150  1.00  0.00    -0.237 OA
ATOM     77  O   UNL A   1      44.790  21.285  25.467  1.00  0.00    -0.237 OA
ATOM     78  O   UNL A   1      42.838  22.618  24.758  1.00  0.00    -0.744 OA
ENDBRANCH  74  75
ENDBRANCH  53  67
BRANCH  54  79
ATOM     79  C   UNL A   1      43.263  32.444  35.861  1.00  0.00     0.058 A 
ATOM     80  C   UNL A   1      42.050  31.746  36.093  1.00  0.00     0.135 A 
ATOM     81  C   UNL A   1      43.438  33.634  36.578  1.00  0.00     0.135 A 
ATOM     82  F   UNL A   1      41.791  30.611  35.423  1.00  0.00    -0.206 F 
ATOM     83  C   UNL A   1      41.159  32.103  37.103  1.00  0.00     0.059 A 
ATOM     84  C   UNL A   1      42.530  34.036  37.576  1.00  0.00     0.059 A 
ATOM     85  F   UNL A   1      44.561  34.353  36.434  1.00  0.00    -0.206 F 
ATOM     86  C   UNL A   1      41.436  33.221  37.879  1.00  0.00     0.060 A 
BRANCH  86  87
ATOM     87  S   UNL A   1      40.450  33.457  39.383  1.00  0.00     0.124 S 
ATOM     88  O   UNL A   1      41.177  34.517  40.069  1.00  0.00    -0.237 OA
ATOM     89  O   UNL A   1      39.153  33.836  38.821  1.00  0.00    -0.237 OA
ATOM     90  O   UNL A   1      40.500  32.146  40.020  1.00  0.00    -0.744 OA
ENDBRANCH  86  87
ENDBRANCH  54  79
BRANCH  66  91
ATOM     91  C   UNL A   1      46.329  25.867  35.229  1.00  0.00     0.058 A 
ATOM     92  C   UNL A   1      47.654  25.486  35.463  1.00  0.00     0.135 A 
ATOM     93  C   UNL A   1      45.316  24.950  35.572  1.00  0.00     0.135 A 
ATOM     94  F   UNL A   1      48.665  26.310  35.142  1.00  0.00    -0.206 F 
ATOM     95  C   UNL A   1      47.961  24.260  36.033  1.00  0.00     0.059 A 
ATOM     96  C   UNL A   1      45.603  23.692  36.075  1.00  0.00     0.059 A 
ATOM     97  F   UNL A   1      44.017  25.259  35.425  1.00  0.00    -0.206 F 
ATOM     98  C   UNL A   1      46.929  23.370  36.329  1.00  0.00     0.060 A 
BRANCH  98  99
ATOM     99  S   UNL A   1      47.325  21.783  37.075  1.00  0.00     0.124 S 
ATOM    100  O   UNL A   1      46.045  21.082  37.038  1.00  0.00    -0.237 OA
ATOM    101  O   UNL A   1      48.344  21.288  36.156  1.00  0.00    -0.237 OA
ATOM    102  O   UNL A   1      47.795  22.148  38.407  1.00  0.00    -0.744 OA
ENDBRANCH  98  99
ENDBRANCH  66  91
ENDBRANCH  40  41
ENDBRANCH  33  35
ENDBRANCH  32  33
ENDBRANCH  31  32
ENDBRANCH  30  31
ENDBRANCH  29  30
ENDBRANCH  28  29
ENDBRANCH   1  28
TORSDOF 27
ENDMDL
