MODEL 1
REMARK VINA RESULT:      -9.2      0.000      0.000
REMARK SMILES C[C@H](CNC(=O)c1ccc(Br)nc1)C(=O)OCCOCCOCCOC(=O)c1ccc(-c2c3nc(c(-c4c(F)cc(S(=O)(=O)[O-])cc4F)c4ccc([nH]4)c(-c4c(F)cc(S(=O)(=O)[O-])cc4F)c4nc(c(-c5c(F)cc(S(=O)(=O)[O-])cc5F)c5ccc2[nH]5)C=C4)C=C3)cc1
REMARK SMILES IDX 20 1 19 2 18 3 17 4 16 5 14 6 15 7 2 8 1 9 3 10 4 11 5 12
REMARK SMILES IDX 6 14 7 15 8 16 13 17 9 18 12 19 10 20 11 21 21 22 22 23
REMARK SMILES IDX 23 24 24 25 25 26 26 27 27 28 28 29 29 30 93 31 30 32 92 33
REMARK SMILES IDX 31 34 32 35 33 36 86 37 34 38 91 39 85 40 87 41 35 42 90 43
REMARK SMILES IDX 84 44 83 45 36 47 70 48 49 49 69 50 50 51 53 52 68 53 88 54
REMARK SMILES IDX 51 55 52 56 67 58 89 59 54 60 37 61 38 62 47 63 39 64 40 65
REMARK SMILES IDX 46 66 48 67 41 68 42 69 43 70 44 71 45 72 71 73 72 74 81 75
REMARK SMILES IDX 73 76 74 77 80 78 82 79 75 80 76 81 77 82 78 83 79 84 55 85
REMARK SMILES IDX 56 86 65 87 57 88 58 89 64 90 66 91 59 92 60 93 61 94 62 95
REMARK SMILES IDX 63 96
REMARK H PARENT 4 13 87 46 53 57
REMARK Flexibility Score: inf
ROOT
ATOM      1  C   UNL A   1      33.638  30.707  27.285  1.00  0.00     0.188 C 
ENDROOT
BRANCH   1   2
ATOM      2  O   UNL A   1      32.285  30.279  27.172  1.00  0.00    -0.376 OA
BRANCH   2   3
ATOM      3  C   UNL A   1      31.752  30.148  25.854  1.00  0.00     0.202 C 
BRANCH   3   4
ATOM      4  C   UNL A   1      32.723  29.699  24.744  1.00  0.00     0.261 C 
BRANCH   4   5
ATOM      5  O   UNL A   1      32.334  28.482  24.057  1.00  0.00    -0.463 OA
BRANCH   5   6
ATOM      6  C   UNL A   1      32.543  27.326  24.742  1.00  0.00     0.310 C 
ATOM      7  O   UNL A   1      33.579  27.081  25.354  1.00  0.00    -0.252 OA
BRANCH   6   8
ATOM      8  C   UNL A   1      31.319  26.411  24.835  1.00  0.00     0.115 C 
ATOM      9  C   UNL A   1      31.565  25.348  25.908  1.00  0.00     0.022 C 
BRANCH   8  10
ATOM     10  C   UNL A   1      30.728  25.827  23.539  1.00  0.00     0.131 C 
BRANCH  10  11
ATOM     11  N   UNL A   1      31.569  25.930  22.354  1.00  0.00    -0.351 N 
ATOM     12  C   UNL A   1      32.686  25.225  21.978  1.00  0.00     0.252 C 
ATOM     13  H   UNL A   1      31.288  26.623  21.712  1.00  0.00     0.163 HD
ATOM     14  O   UNL A   1      33.289  25.552  20.958  1.00  0.00    -0.269 OA
BRANCH  12  15
ATOM     15  C   UNL A   1      33.211  24.094  22.769  1.00  0.00     0.058 A 
ATOM     16  C   UNL A   1      32.655  22.815  22.762  1.00  0.00     0.018 A 
ATOM     17  C   UNL A   1      34.403  24.278  23.461  1.00  0.00     0.126 A 
ATOM     18  C   UNL A   1      33.280  21.795  23.487  1.00  0.00     0.037 A 
ATOM     19  N   UNL A   1      35.028  23.308  24.174  1.00  0.00    -0.249 NA
ATOM     20  C   UNL A   1      34.451  22.087  24.175  1.00  0.00     0.106 A 
ATOM     21  Br  UNL A   1      35.317  20.709  25.149  1.00  0.00    -0.029 Br
ENDBRANCH  12  15
ENDBRANCH  10  11
ENDBRANCH   8  10
ENDBRANCH   6   8
ENDBRANCH   5   6
ENDBRANCH   4   5
ENDBRANCH   3   4
ENDBRANCH   2   3
ENDBRANCH   1   2
BRANCH   1  22
ATOM     22  C   UNL A   1      33.862  31.998  28.079  1.00  0.00     0.188 C 
BRANCH  22  23
ATOM     23  O   UNL A   1      35.070  32.028  28.815  1.00  0.00    -0.376 OA
BRANCH  23  24
ATOM     24  C   UNL A   1      35.121  32.751  30.042  1.00  0.00     0.202 C 
BRANCH  24  25
ATOM     25  C   UNL A   1      35.395  31.998  31.367  1.00  0.00     0.261 C 
BRANCH  25  26
ATOM     26  O   UNL A   1      36.689  31.387  31.537  1.00  0.00    -0.460 OA
BRANCH  26  27
ATOM     27  C   UNL A   1      36.871  30.142  31.022  1.00  0.00     0.338 C 
ATOM     28  O   UNL A   1      36.002  29.336  30.772  1.00  0.00    -0.246 OA
BRANCH  27  29
ATOM     29  C   UNL A   1      38.276  30.052  30.522  1.00  0.00     0.060 A 
ATOM     30  C   UNL A   1      38.480  30.134  29.135  1.00  0.00     0.016 A 
ATOM     31  C   UNL A   1      39.379  29.984  31.379  1.00  0.00     0.016 A 
ATOM     32  C   UNL A   1      39.772  30.102  28.602  1.00  0.00     0.010 A 
ATOM     33  C   UNL A   1      40.674  29.932  30.842  1.00  0.00     0.010 A 
ATOM     34  C   UNL A   1      40.879  29.955  29.450  1.00  0.00    -0.014 A 
BRANCH  34  35
ATOM     35  C   UNL A   1      42.210  29.606  28.883  1.00  0.00     0.031 A 
ATOM     36  C   UNL A   1      42.432  28.186  28.427  1.00  0.00     0.074 A 
ATOM     37  C   UNL A   1      43.199  30.509  28.751  1.00  0.00     0.049 A 
ATOM     38  N   UNL A   1      43.516  27.616  27.966  1.00  0.00    -0.248 NA
ATOM     39  C   UNL A   1      41.269  27.286  28.507  1.00  0.00     0.031 C 
ATOM     40  C   UNL A   1      43.109  31.925  29.103  1.00  0.00     0.029 A 
ATOM     41  N   UNL A   1      44.488  30.361  28.291  1.00  0.00    -0.354 N 
ATOM     42  C   UNL A   1      43.171  26.293  27.717  1.00  0.00     0.074 A 
ATOM     43  C   UNL A   1      41.785  26.137  28.101  1.00  0.00     0.031 C 
ATOM     44  C   UNL A   1      44.297  32.511  28.865  1.00  0.00     0.029 A 
ATOM     45  C   UNL A   1      45.244  31.507  28.377  1.00  0.00     0.049 A 
ATOM     46  H   UNL A   1      44.836  29.513  27.933  1.00  0.00     0.167 HD
ATOM     47  C   UNL A   1      43.935  25.298  27.208  1.00  0.00     0.037 A 
ATOM     48  C   UNL A   1      46.553  31.716  28.120  1.00  0.00     0.037 A 
ATOM     49  C   UNL A   1      45.313  25.452  26.825  1.00  0.00     0.049 A 
ATOM     50  C   UNL A   1      47.407  30.573  27.624  1.00  0.00     0.074 A 
ATOM     51  C   UNL A   1      46.164  24.504  26.282  1.00  0.00     0.029 A 
ATOM     52  N   UNL A   1      46.048  26.620  26.954  1.00  0.00    -0.354 N 
ATOM     53  N   UNL A   1      47.063  29.331  27.373  1.00  0.00    -0.248 NA
ATOM     54  C   UNL A   1      48.828  30.859  27.374  1.00  0.00     0.031 C 
ATOM     55  C   UNL A   1      47.430  25.083  26.141  1.00  0.00     0.029 A 
ATOM     56  C   UNL A   1      47.350  26.410  26.528  1.00  0.00     0.049 A 
ATOM     57  H   UNL A   1      45.697  27.474  27.296  1.00  0.00     0.167 HD
ATOM     58  C   UNL A   1      48.215  28.701  26.908  1.00  0.00     0.074 A 
ATOM     59  C   UNL A   1      49.263  29.699  26.901  1.00  0.00     0.031 C 
ATOM     60  C   UNL A   1      48.387  27.413  26.516  1.00  0.00     0.037 A 
BRANCH  47  61
ATOM     61  C   UNL A   1      43.306  23.938  27.070  1.00  0.00     0.058 A 
ATOM     62  C   UNL A   1      42.873  23.441  25.829  1.00  0.00     0.135 A 
ATOM     63  C   UNL A   1      43.164  23.106  28.193  1.00  0.00     0.135 A 
ATOM     64  F   UNL A   1      42.963  24.201  24.727  1.00  0.00    -0.206 F 
ATOM     65  C   UNL A   1      42.300  22.179  25.712  1.00  0.00     0.059 A 
ATOM     66  C   UNL A   1      42.622  21.829  28.093  1.00  0.00     0.059 A 
ATOM     67  F   UNL A   1      43.555  23.532  29.403  1.00  0.00    -0.206 F 
ATOM     68  C   UNL A   1      42.180  21.379  26.851  1.00  0.00     0.060 A 
BRANCH  68  69
ATOM     69  S   UNL A   1      41.439  19.742  26.679  1.00  0.00     0.124 S 
ATOM     70  O   UNL A   1      40.017  20.056  26.782  1.00  0.00    -0.237 OA
ATOM     71  O   UNL A   1      41.903  19.329  25.359  1.00  0.00    -0.237 OA
ATOM     72  O   UNL A   1      41.998  18.996  27.801  1.00  0.00    -0.744 OA
ENDBRANCH  68  69
ENDBRANCH  47  61
BRANCH  48  73
ATOM     73  C   UNL A   1      47.154  33.061  28.347  1.00  0.00     0.058 A 
ATOM     74  C   UNL A   1      47.216  34.014  27.319  1.00  0.00     0.135 A 
ATOM     75  C   UNL A   1      47.691  33.415  29.594  1.00  0.00     0.135 A 
ATOM     76  F   UNL A   1      46.736  33.719  26.101  1.00  0.00    -0.206 F 
ATOM     77  C   UNL A   1      47.796  35.264  27.515  1.00  0.00     0.059 A 
ATOM     78  C   UNL A   1      48.250  34.669  29.824  1.00  0.00     0.059 A 
ATOM     79  F   UNL A   1      47.658  32.542  30.613  1.00  0.00    -0.206 F 
ATOM     80  C   UNL A   1      48.305  35.585  28.775  1.00  0.00     0.060 A 
BRANCH  80  81
ATOM     81  S   UNL A   1      49.001  37.232  29.034  1.00  0.00     0.124 S 
ATOM     82  O   UNL A   1      49.528  37.120  30.389  1.00  0.00    -0.237 OA
ATOM     83  O   UNL A   1      49.993  37.314  27.967  1.00  0.00    -0.237 OA
ATOM     84  O   UNL A   1      47.847  38.112  28.876  1.00  0.00    -0.744 OA
ENDBRANCH  80  81
ENDBRANCH  48  73
BRANCH  60  85
ATOM     85  C   UNL A   1      49.744  27.007  26.001  1.00  0.00     0.058 A 
ATOM     86  C   UNL A   1      50.074  27.071  24.639  1.00  0.00     0.135 A 
ATOM     87  C   UNL A   1      50.752  26.610  26.898  1.00  0.00     0.135 A 
ATOM     88  F   UNL A   1      49.152  27.439  23.736  1.00  0.00    -0.206 F 
ATOM     89  C   UNL A   1      51.345  26.731  24.181  1.00  0.00     0.059 A 
ATOM     90  C   UNL A   1      52.038  26.298  26.466  1.00  0.00     0.059 A 
ATOM     91  F   UNL A   1      50.498  26.545  28.215  1.00  0.00    -0.206 F 
ATOM     92  C   UNL A   1      52.322  26.350  25.103  1.00  0.00     0.060 A 
BRANCH  92  93
ATOM     93  S   UNL A   1      53.974  25.946  24.498  1.00  0.00     0.124 S 
ATOM     94  O   UNL A   1      54.817  26.717  25.405  1.00  0.00    -0.237 OA
ATOM     95  O   UNL A   1      54.022  24.497  24.667  1.00  0.00    -0.237 OA
ATOM     96  O   UNL A   1      53.953  26.408  23.113  1.00  0.00    -0.744 OA
ENDBRANCH  92  93
ENDBRANCH  60  85
ENDBRANCH  34  35
ENDBRANCH  27  29
ENDBRANCH  26  27
ENDBRANCH  25  26
ENDBRANCH  24  25
ENDBRANCH  23  24
ENDBRANCH  22  23
ENDBRANCH   1  22
TORSDOF 23
ENDMDL
MODEL 2
REMARK VINA RESULT:      -9.2      3.386      8.898
REMARK SMILES C[C@H](CNC(=O)c1ccc(Br)nc1)C(=O)OCCOCCOCCOC(=O)c1ccc(-c2c3nc(c(-c4c(F)cc(S(=O)(=O)[O-])cc4F)c4ccc([nH]4)c(-c4c(F)cc(S(=O)(=O)[O-])cc4F)c4nc(c(-c5c(F)cc(S(=O)(=O)[O-])cc5F)c5ccc2[nH]5)C=C4)C=C3)cc1
REMARK SMILES IDX 20 1 19 2 18 3 17 4 16 5 14 6 15 7 2 8 1 9 3 10 4 11 5 12
REMARK SMILES IDX 6 14 7 15 8 16 13 17 9 18 12 19 10 20 11 21 21 22 22 23
REMARK SMILES IDX 23 24 24 25 25 26 26 27 27 28 28 29 29 30 93 31 30 32 92 33
REMARK SMILES IDX 31 34 32 35 33 36 86 37 34 38 91 39 85 40 87 41 35 42 90 43
REMARK SMILES IDX 84 44 83 45 36 47 70 48 49 49 69 50 50 51 53 52 68 53 88 54
REMARK SMILES IDX 51 55 52 56 67 58 89 59 54 60 37 61 38 62 47 63 39 64 40 65
REMARK SMILES IDX 46 66 48 67 41 68 42 69 43 70 44 71 45 72 71 73 72 74 81 75
REMARK SMILES IDX 73 76 74 77 80 78 82 79 75 80 76 81 77 82 78 83 79 84 55 85
REMARK SMILES IDX 56 86 65 87 57 88 58 89 64 90 66 91 59 92 60 93 61 94 62 95
REMARK SMILES IDX 63 96
REMARK H PARENT 4 13 87 46 53 57
REMARK Flexibility Score: inf
ROOT
ATOM      1  C   UNL A   1      32.157  22.827  27.137  1.00  0.00     0.188 C 
ENDROOT
BRANCH   1   2
ATOM      2  O   UNL A   1      31.927  24.091  26.523  1.00  0.00    -0.376 OA
BRANCH   2   3
ATOM      3  C   UNL A   1      30.567  24.470  26.309  1.00  0.00     0.202 C 
BRANCH   3   4
ATOM      4  C   UNL A   1      30.281  25.968  26.086  1.00  0.00     0.261 C 
BRANCH   4   5
ATOM      5  O   UNL A   1      29.732  26.290  24.783  1.00  0.00    -0.463 OA
BRANCH   5   6
ATOM      6  C   UNL A   1      30.452  27.175  24.042  1.00  0.00     0.310 C 
ATOM      7  O   UNL A   1      30.069  27.625  22.966  1.00  0.00    -0.252 OA
BRANCH   6   8
ATOM      8  C   UNL A   1      31.715  27.702  24.730  1.00  0.00     0.115 C 
ATOM      9  C   UNL A   1      31.594  29.216  24.911  1.00  0.00     0.022 C 
BRANCH   8  10
ATOM     10  C   UNL A   1      33.090  27.271  24.189  1.00  0.00     0.131 C 
BRANCH  10  11
ATOM     11  N   UNL A   1      33.177  27.085  22.747  1.00  0.00    -0.351 N 
ATOM     12  C   UNL A   1      33.135  25.944  21.982  1.00  0.00     0.252 C 
ATOM     13  H   UNL A   1      33.283  27.918  22.233  1.00  0.00     0.163 HD
ATOM     14  O   UNL A   1      33.318  26.027  20.770  1.00  0.00    -0.269 OA
BRANCH  12  15
ATOM     15  C   UNL A   1      32.900  24.609  22.565  1.00  0.00     0.058 A 
ATOM     16  C   UNL A   1      31.633  24.065  22.780  1.00  0.00     0.018 A 
ATOM     17  C   UNL A   1      34.002  23.793  22.795  1.00  0.00     0.126 A 
ATOM     18  C   UNL A   1      31.525  22.757  23.263  1.00  0.00     0.037 A 
ATOM     19  N   UNL A   1      33.925  22.524  23.267  1.00  0.00    -0.249 NA
ATOM     20  C   UNL A   1      32.688  22.033  23.495  1.00  0.00     0.106 A 
ATOM     21  Br  UNL A   1      32.553  20.253  24.136  1.00  0.00    -0.029 Br
ENDBRANCH  12  15
ENDBRANCH  10  11
ENDBRANCH   8  10
ENDBRANCH   6   8
ENDBRANCH   5   6
ENDBRANCH   4   5
ENDBRANCH   3   4
ENDBRANCH   2   3
ENDBRANCH   1   2
BRANCH   1  22
ATOM     22  C   UNL A   1      33.585  22.582  27.637  1.00  0.00     0.188 C 
BRANCH  22  23
ATOM     23  O   UNL A   1      34.267  21.539  26.967  1.00  0.00    -0.376 OA
BRANCH  23  24
ATOM     24  C   UNL A   1      35.443  21.841  26.220  1.00  0.00     0.202 C 
BRANCH  24  25
ATOM     25  C   UNL A   1      35.955  23.300  26.151  1.00  0.00     0.261 C 
BRANCH  25  26
ATOM     26  O   UNL A   1      37.237  23.534  25.535  1.00  0.00    -0.460 OA
BRANCH  26  27
ATOM     27  C   UNL A   1      38.338  23.048  26.165  1.00  0.00     0.338 C 
ATOM     28  O   UNL A   1      38.733  21.903  26.137  1.00  0.00    -0.246 OA
BRANCH  27  29
ATOM     29  C   UNL A   1      39.151  24.210  26.634  1.00  0.00     0.060 A 
ATOM     30  C   UNL A   1      39.174  24.475  28.012  1.00  0.00     0.016 A 
ATOM     31  C   UNL A   1      39.947  24.971  25.772  1.00  0.00     0.016 A 
ATOM     32  C   UNL A   1      39.950  25.519  28.524  1.00  0.00     0.010 A 
ATOM     33  C   UNL A   1      40.710  26.031  26.283  1.00  0.00     0.010 A 
ATOM     34  C   UNL A   1      40.690  26.335  27.657  1.00  0.00    -0.014 A 
BRANCH  34  35
ATOM     35  C   UNL A   1      41.256  27.621  28.148  1.00  0.00     0.031 A 
ATOM     36  C   UNL A   1      42.754  27.793  28.108  1.00  0.00     0.074 A 
ATOM     37  C   UNL A   1      40.484  28.625  28.602  1.00  0.00     0.049 A 
ATOM     38  N   UNL A   1      43.493  28.784  28.538  1.00  0.00    -0.248 NA
ATOM     39  C   UNL A   1      43.520  26.693  27.500  1.00  0.00     0.031 C 
ATOM     40  C   UNL A   1      39.023  28.616  28.653  1.00  0.00     0.029 A 
ATOM     41  N   UNL A   1      40.828  29.852  29.122  1.00  0.00    -0.354 N 
ATOM     42  C   UNL A   1      44.807  28.420  28.268  1.00  0.00     0.074 A 
ATOM     43  C   UNL A   1      44.767  27.108  27.661  1.00  0.00     0.031 C 
ATOM     44  C   UNL A   1      38.597  29.773  29.193  1.00  0.00     0.029 A 
ATOM     45  C   UNL A   1      39.754  30.592  29.560  1.00  0.00     0.049 A 
ATOM     46  H   UNL A   1      41.758  30.170  29.176  1.00  0.00     0.167 HD
ATOM     47  C   UNL A   1      45.945  29.115  28.499  1.00  0.00     0.037 A 
ATOM     48  C   UNL A   1      39.710  31.776  30.207  1.00  0.00     0.037 A 
ATOM     49  C   UNL A   1      45.986  30.421  29.103  1.00  0.00     0.049 A 
ATOM     50  C   UNL A   1      40.996  32.502  30.522  1.00  0.00     0.074 A 
ATOM     51  C   UNL A   1      47.092  31.213  29.360  1.00  0.00     0.029 A 
ATOM     52  N   UNL A   1      44.880  31.122  29.555  1.00  0.00    -0.354 N 
ATOM     53  N   UNL A   1      42.231  32.156  30.243  1.00  0.00    -0.248 NA
ATOM     54  C   UNL A   1      40.883  33.782  31.239  1.00  0.00     0.031 C 
ATOM     55  C   UNL A   1      46.660  32.366  30.024  1.00  0.00     0.029 A 
ATOM     56  C   UNL A   1      45.278  32.325  30.117  1.00  0.00     0.049 A 
ATOM     57  H   UNL A   1      43.947  30.813  29.488  1.00  0.00     0.167 HD
ATOM     58  C   UNL A   1      43.035  33.189  30.721  1.00  0.00     0.074 A 
ATOM     59  C   UNL A   1      42.148  34.176  31.298  1.00  0.00     0.031 C 
ATOM     60  C   UNL A   1      44.387  33.309  30.681  1.00  0.00     0.037 A 
BRANCH  47  61
ATOM     61  C   UNL A   1      47.249  28.461  28.129  1.00  0.00     0.058 A 
ATOM     62  C   UNL A   1      47.979  27.687  29.046  1.00  0.00     0.135 A 
ATOM     63  C   UNL A   1      47.758  28.586  26.826  1.00  0.00     0.135 A 
ATOM     64  F   UNL A   1      47.551  27.553  30.311  1.00  0.00    -0.206 F 
ATOM     65  C   UNL A   1      49.180  27.081  28.690  1.00  0.00     0.059 A 
ATOM     66  C   UNL A   1      48.941  27.963  26.440  1.00  0.00     0.059 A 
ATOM     67  F   UNL A   1      47.104  29.318  25.912  1.00  0.00    -0.206 F 
ATOM     68  C   UNL A   1      49.652  27.224  27.383  1.00  0.00     0.060 A 
BRANCH  68  69
ATOM     69  S   UNL A   1      51.208  26.426  26.938  1.00  0.00     0.124 S 
ATOM     70  O   UNL A   1      50.981  25.063  27.411  1.00  0.00    -0.237 OA
ATOM     71  O   UNL A   1      51.241  26.597  25.489  1.00  0.00    -0.237 OA
ATOM     72  O   UNL A   1      52.206  27.188  27.681  1.00  0.00    -0.744 OA
ENDBRANCH  68  69
ENDBRANCH  47  61
BRANCH  48  73
ATOM     73  C   UNL A   1      38.399  32.350  30.626  1.00  0.00     0.058 A 
ATOM     74  C   UNL A   1      37.717  33.275  29.819  1.00  0.00     0.135 A 
ATOM     75  C   UNL A   1      37.809  31.996  31.849  1.00  0.00     0.135 A 
ATOM     76  F   UNL A   1      38.247  33.663  28.649  1.00  0.00    -0.206 F 
ATOM     77  C   UNL A   1      36.505  33.833  30.213  1.00  0.00     0.059 A 
ATOM     78  C   UNL A   1      36.584  32.518  32.252  1.00  0.00     0.059 A 
ATOM     79  F   UNL A   1      38.418  31.116  32.659  1.00  0.00    -0.206 F 
ATOM     80  C   UNL A   1      35.942  33.443  31.430  1.00  0.00     0.060 A 
BRANCH  80  81
ATOM     81  S   UNL A   1      34.339  34.129  31.903  1.00  0.00     0.124 S 
ATOM     82  O   UNL A   1      33.676  34.247  30.610  1.00  0.00    -0.237 OA
ATOM     83  O   UNL A   1      33.820  33.099  32.797  1.00  0.00    -0.237 OA
ATOM     84  O   UNL A   1      34.692  35.390  32.549  1.00  0.00    -0.744 OA
ENDBRANCH  80  81
ENDBRANCH  48  73
BRANCH  60  85
ATOM     85  C   UNL A   1      45.000  34.570  31.234  1.00  0.00     0.058 A 
ATOM     86  C   UNL A   1      45.422  34.672  32.568  1.00  0.00     0.135 A 
ATOM     87  C   UNL A   1      45.227  35.674  30.393  1.00  0.00     0.135 A 
ATOM     88  F   UNL A   1      45.228  33.651  33.418  1.00  0.00    -0.206 F 
ATOM     89  C   UNL A   1      46.024  35.830  33.055  1.00  0.00     0.059 A 
ATOM     90  C   UNL A   1      45.856  36.828  30.849  1.00  0.00     0.059 A 
ATOM     91  F   UNL A   1      44.857  35.628  29.102  1.00  0.00    -0.206 F 
ATOM     92  C   UNL A   1      46.240  36.901  32.187  1.00  0.00     0.060 A 
BRANCH  92  93
ATOM     93  S   UNL A   1      47.052  38.383  32.825  1.00  0.00     0.124 S 
ATOM     94  O   UNL A   1      46.265  39.442  32.203  1.00  0.00    -0.237 OA
ATOM     95  O   UNL A   1      46.884  38.233  34.267  1.00  0.00    -0.237 OA
ATOM     96  O   UNL A   1      48.424  38.254  32.343  1.00  0.00    -0.744 OA
ENDBRANCH  92  93
ENDBRANCH  60  85
ENDBRANCH  34  35
ENDBRANCH  27  29
ENDBRANCH  26  27
ENDBRANCH  25  26
ENDBRANCH  24  25
ENDBRANCH  23  24
ENDBRANCH  22  23
ENDBRANCH   1  22
TORSDOF 23
ENDMDL
MODEL 3
REMARK VINA RESULT:      -9.1      1.721      2.516
REMARK SMILES C[C@H](CNC(=O)c1ccc(Br)nc1)C(=O)OCCOCCOCCOC(=O)c1ccc(-c2c3nc(c(-c4c(F)cc(S(=O)(=O)[O-])cc4F)c4ccc([nH]4)c(-c4c(F)cc(S(=O)(=O)[O-])cc4F)c4nc(c(-c5c(F)cc(S(=O)(=O)[O-])cc5F)c5ccc2[nH]5)C=C4)C=C3)cc1
REMARK SMILES IDX 20 1 19 2 18 3 17 4 16 5 14 6 15 7 2 8 1 9 3 10 4 11 5 12
REMARK SMILES IDX 6 14 7 15 8 16 13 17 9 18 12 19 10 20 11 21 21 22 22 23
REMARK SMILES IDX 23 24 24 25 25 26 26 27 27 28 28 29 29 30 93 31 30 32 92 33
REMARK SMILES IDX 31 34 32 35 33 36 86 37 34 38 91 39 85 40 87 41 35 42 90 43
REMARK SMILES IDX 84 44 83 45 36 47 70 48 49 49 69 50 50 51 53 52 68 53 88 54
REMARK SMILES IDX 51 55 52 56 67 58 89 59 54 60 37 61 38 62 47 63 39 64 40 65
REMARK SMILES IDX 46 66 48 67 41 68 42 69 43 70 44 71 45 72 71 73 72 74 81 75
REMARK SMILES IDX 73 76 74 77 80 78 82 79 75 80 76 81 77 82 78 83 79 84 55 85
REMARK SMILES IDX 56 86 65 87 57 88 58 89 64 90 66 91 59 92 60 93 61 94 62 95
REMARK SMILES IDX 63 96
REMARK H PARENT 4 13 87 46 53 57
REMARK Flexibility Score: inf
ROOT
ATOM      1  C   UNL A   1      33.311  33.575  28.395  1.00  0.00     0.188 C 
ENDROOT
BRANCH   1   2
ATOM      2  O   UNL A   1      32.543  33.063  27.311  1.00  0.00    -0.376 OA
BRANCH   2   3
ATOM      3  C   UNL A   1      32.489  31.643  27.167  1.00  0.00     0.202 C 
BRANCH   3   4
ATOM      4  C   UNL A   1      31.402  31.070  26.237  1.00  0.00     0.261 C 
BRANCH   4   5
ATOM      5  O   UNL A   1      31.757  29.821  25.592  1.00  0.00    -0.463 OA
BRANCH   5   6
ATOM      6  C   UNL A   1      32.133  28.813  26.424  1.00  0.00     0.310 C 
ATOM      7  O   UNL A   1      31.416  28.370  27.317  1.00  0.00    -0.252 OA
BRANCH   6   8
ATOM      8  C   UNL A   1      33.465  28.152  26.060  1.00  0.00     0.115 C 
ATOM      9  C   UNL A   1      34.577  28.749  26.924  1.00  0.00     0.022 C 
BRANCH   8  10
ATOM     10  C   UNL A   1      33.856  28.039  24.575  1.00  0.00     0.131 C 
BRANCH  10  11
ATOM     11  N   UNL A   1      33.755  26.708  23.990  1.00  0.00    -0.351 N 
ATOM     12  C   UNL A   1      32.680  26.037  23.461  1.00  0.00     0.252 C 
ATOM     13  H   UNL A   1      34.602  26.206  23.969  1.00  0.00     0.163 HD
ATOM     14  O   UNL A   1      32.819  24.871  23.098  1.00  0.00    -0.269 OA
BRANCH  12  15
ATOM     15  C   UNL A   1      31.347  26.656  23.329  1.00  0.00     0.058 A 
ATOM     16  C   UNL A   1      30.236  26.281  24.086  1.00  0.00     0.018 A 
ATOM     17  C   UNL A   1      31.219  27.761  22.496  1.00  0.00     0.126 A 
ATOM     18  C   UNL A   1      29.039  26.990  23.938  1.00  0.00     0.037 A 
ATOM     19  N   UNL A   1      30.069  28.463  22.331  1.00  0.00    -0.249 NA
ATOM     20  C   UNL A   1      29.002  28.061  23.053  1.00  0.00     0.106 A 
ATOM     21  Br  UNL A   1      27.389  29.038  22.855  1.00  0.00    -0.029 Br
ENDBRANCH  12  15
ENDBRANCH  10  11
ENDBRANCH   8  10
ENDBRANCH   6   8
ENDBRANCH   5   6
ENDBRANCH   4   5
ENDBRANCH   3   4
ENDBRANCH   2   3
ENDBRANCH   1   2
BRANCH   1  22
ATOM     22  C   UNL A   1      34.709  34.088  28.034  1.00  0.00     0.188 C 
BRANCH  22  23
ATOM     23  O   UNL A   1      35.660  33.971  29.074  1.00  0.00    -0.376 OA
BRANCH  23  24
ATOM     24  C   UNL A   1      35.225  33.601  30.380  1.00  0.00     0.202 C 
BRANCH  24  25
ATOM     25  C   UNL A   1      35.791  32.323  31.044  1.00  0.00     0.261 C 
BRANCH  25  26
ATOM     26  O   UNL A   1      36.275  31.274  30.181  1.00  0.00    -0.460 OA
BRANCH  26  27
ATOM     27  C   UNL A   1      36.839  30.186  30.767  1.00  0.00     0.338 C 
ATOM     28  O   UNL A   1      36.252  29.300  31.349  1.00  0.00    -0.246 OA
BRANCH  27  29
ATOM     29  C   UNL A   1      38.257  30.097  30.304  1.00  0.00     0.060 A 
ATOM     30  C   UNL A   1      38.488  30.049  28.921  1.00  0.00     0.016 A 
ATOM     31  C   UNL A   1      39.342  30.154  31.184  1.00  0.00     0.016 A 
ATOM     32  C   UNL A   1      39.792  30.011  28.418  1.00  0.00     0.010 A 
ATOM     33  C   UNL A   1      40.650  30.096  30.680  1.00  0.00     0.010 A 
ATOM     34  C   UNL A   1      40.884  29.989  29.296  1.00  0.00    -0.014 A 
BRANCH  34  35
ATOM     35  C   UNL A   1      42.238  29.634  28.791  1.00  0.00     0.031 A 
ATOM     36  C   UNL A   1      42.480  28.208  28.363  1.00  0.00     0.074 A 
ATOM     37  C   UNL A   1      43.233  30.536  28.692  1.00  0.00     0.049 A 
ATOM     38  N   UNL A   1      43.583  27.634  27.956  1.00  0.00    -0.248 NA
ATOM     39  C   UNL A   1      41.315  27.309  28.402  1.00  0.00     0.031 C 
ATOM     40  C   UNL A   1      43.128  31.955  29.024  1.00  0.00     0.029 A 
ATOM     41  N   UNL A   1      44.540  30.383  28.290  1.00  0.00    -0.354 N 
ATOM     42  C   UNL A   1      43.249  26.308  27.707  1.00  0.00     0.074 A 
ATOM     43  C   UNL A   1      41.848  26.156  28.033  1.00  0.00     0.031 C 
ATOM     44  C   UNL A   1      44.325  32.539  28.830  1.00  0.00     0.029 A 
ATOM     45  C   UNL A   1      45.292  31.530  28.396  1.00  0.00     0.049 A 
ATOM     46  H   UNL A   1      44.903  29.530  27.958  1.00  0.00     0.167 HD
ATOM     47  C   UNL A   1      44.034  25.307  27.244  1.00  0.00     0.037 A 
ATOM     48  C   UNL A   1      46.611  31.736  28.194  1.00  0.00     0.037 A 
ATOM     49  C   UNL A   1      45.428  25.457  26.919  1.00  0.00     0.049 A 
ATOM     50  C   UNL A   1      47.486  30.588  27.749  1.00  0.00     0.074 A 
ATOM     51  C   UNL A   1      46.302  24.504  26.425  1.00  0.00     0.029 A 
ATOM     52  N   UNL A   1      46.157  26.627  27.066  1.00  0.00    -0.354 N 
ATOM     53  N   UNL A   1      47.153  29.343  27.498  1.00  0.00    -0.248 NA
ATOM     54  C   UNL A   1      48.917  30.872  27.557  1.00  0.00     0.031 C 
ATOM     55  C   UNL A   1      47.572  25.081  26.332  1.00  0.00     0.029 A 
ATOM     56  C   UNL A   1      47.476  26.413  26.700  1.00  0.00     0.049 A 
ATOM     57  H   UNL A   1      45.791  27.485  27.383  1.00  0.00     0.167 HD
ATOM     58  C   UNL A   1      48.324  28.709  27.090  1.00  0.00     0.074 A 
ATOM     59  C   UNL A   1      49.372  29.707  27.118  1.00  0.00     0.031 C 
ATOM     60  C   UNL A   1      48.512  27.416  26.721  1.00  0.00     0.037 A 
BRANCH  47  61
ATOM     61  C   UNL A   1      43.412  23.945  27.094  1.00  0.00     0.058 A 
ATOM     62  C   UNL A   1      42.987  23.454  25.848  1.00  0.00     0.135 A 
ATOM     63  C   UNL A   1      43.269  23.106  28.211  1.00  0.00     0.135 A 
ATOM     64  F   UNL A   1      43.078  24.222  24.751  1.00  0.00    -0.206 F 
ATOM     65  C   UNL A   1      42.419  22.191  25.721  1.00  0.00     0.059 A 
ATOM     66  C   UNL A   1      42.733  21.827  28.101  1.00  0.00     0.059 A 
ATOM     67  F   UNL A   1      43.654  23.526  29.426  1.00  0.00    -0.206 F 
ATOM     68  C   UNL A   1      42.298  21.383  26.854  1.00  0.00     0.060 A 
BRANCH  68  69
ATOM     69  S   UNL A   1      41.565  19.745  26.669  1.00  0.00     0.124 S 
ATOM     70  O   UNL A   1      42.181  19.024  27.780  1.00  0.00    -0.237 OA
ATOM     71  O   UNL A   1      40.140  20.025  26.808  1.00  0.00    -0.237 OA
ATOM     72  O   UNL A   1      41.993  19.328  25.338  1.00  0.00    -0.744 OA
ENDBRANCH  68  69
ENDBRANCH  47  61
BRANCH  48  73
ATOM     73  C   UNL A   1      47.201  33.085  28.431  1.00  0.00     0.058 A 
ATOM     74  C   UNL A   1      47.239  34.053  27.415  1.00  0.00     0.135 A 
ATOM     75  C   UNL A   1      47.753  33.427  29.675  1.00  0.00     0.135 A 
ATOM     76  F   UNL A   1      46.744  33.770  26.201  1.00  0.00    -0.206 F 
ATOM     77  C   UNL A   1      47.809  35.305  27.621  1.00  0.00     0.059 A 
ATOM     78  C   UNL A   1      48.303  34.683  29.915  1.00  0.00     0.059 A 
ATOM     79  F   UNL A   1      47.744  32.539  30.682  1.00  0.00    -0.206 F 
ATOM     80  C   UNL A   1      48.334  35.614  28.878  1.00  0.00     0.060 A 
BRANCH  80  81
ATOM     81  S   UNL A   1      49.017  37.264  29.150  1.00  0.00     0.124 S 
ATOM     82  O   UNL A   1      50.000  37.357  28.078  1.00  0.00    -0.237 OA
ATOM     83  O   UNL A   1      47.835  38.108  29.010  1.00  0.00    -0.237 OA
ATOM     84  O   UNL A   1      49.563  37.181  30.502  1.00  0.00    -0.744 OA
ENDBRANCH  80  81
ENDBRANCH  48  73
BRANCH  60  85
ATOM     85  C   UNL A   1      49.891  27.005  26.271  1.00  0.00     0.058 A 
ATOM     86  C   UNL A   1      50.812  26.406  27.143  1.00  0.00     0.135 A 
ATOM     87  C   UNL A   1      50.269  27.153  24.925  1.00  0.00     0.135 A 
ATOM     88  F   UNL A   1      50.508  26.240  28.440  1.00  0.00    -0.206 F 
ATOM     89  C   UNL A   1      52.069  25.993  26.704  1.00  0.00     0.059 A 
ATOM     90  C   UNL A   1      51.506  26.719  24.457  1.00  0.00     0.059 A 
ATOM     91  F   UNL A   1      49.423  27.707  24.041  1.00  0.00    -0.206 F 
ATOM     92  C   UNL A   1      52.405  26.151  25.358  1.00  0.00     0.060 A 
BRANCH  92  93
ATOM     93  S   UNL A   1      54.024  25.581  24.797  1.00  0.00     0.124 S 
ATOM     94  O   UNL A   1      54.912  26.214  25.765  1.00  0.00    -0.237 OA
ATOM     95  O   UNL A   1      53.898  24.131  24.907  1.00  0.00    -0.237 OA
ATOM     96  O   UNL A   1      54.112  26.094  23.433  1.00  0.00    -0.744 OA
ENDBRANCH  92  93
ENDBRANCH  60  85
ENDBRANCH  34  35
ENDBRANCH  27  29
ENDBRANCH  26  27
ENDBRANCH  25  26
ENDBRANCH  24  25
ENDBRANCH  23  24
ENDBRANCH  22  23
ENDBRANCH   1  22
TORSDOF 23
ENDMDL
