MODEL 1
REMARK VINA RESULT:     -10.4      0.000      0.000
REMARK SMILES O=C(OCCOCCOCCOC(=O)[C@H]1CCCN(c2cc(-c3ccccn3)nc(-c3ccccc3F)n2)C1)c1ccc(-c2c3nc(c(-c4c(F)cc(S(=O)(=O)[O-])cc4F)c4ccc([nH]4)c(-c4c(F)cc(S(=O)(=O)[O-])cc4F)c4nc(c(-c5c(F)cc(S(=O)(=O)[O-])cc5F)c5ccc2[nH]5)C=C4)C=C3)cc1
REMARK SMILES IDX 7 1 6 2 5 3 4 4 3 5 2 6 1 7 40 8 41 9 105 10 42 11 104 12
REMARK SMILES IDX 43 13 44 14 45 15 98 16 46 17 103 18 97 19 99 20 47 21
REMARK SMILES IDX 102 22 96 23 95 24 48 26 82 27 61 28 81 29 62 30 65 31 80 32
REMARK SMILES IDX 100 33 63 34 64 35 79 37 101 38 66 39 49 40 50 41 59 42
REMARK SMILES IDX 51 43 52 44 58 45 60 46 53 47 54 48 55 49 56 50 57 51 83 52
REMARK SMILES IDX 84 53 93 54 85 55 86 56 92 57 94 58 87 59 88 60 89 61 90 62
REMARK SMILES IDX 91 63 67 64 68 65 77 66 69 67 70 68 76 69 78 70 71 71 72 72
REMARK SMILES IDX 73 73 74 74 75 75 8 76 9 77 10 78 11 79 12 80 13 81 14 82
REMARK SMILES IDX 15 83 16 84 39 85 17 86 19 87 18 88 20 89 21 90 38 91 22 92
REMARK SMILES IDX 30 93 29 94 23 95 24 96 28 97 25 98 27 99 26 100 31 101
REMARK SMILES IDX 32 102 36 103 33 104 35 105 37 106 34 107
REMARK H PARENT 99 25 65 36
REMARK Flexibility Score: inf
ROOT
ATOM      1  C   UNL A   1      45.667  24.501  25.145  1.00  0.00     0.188 C 
ENDROOT
BRANCH   1   2
ATOM      2  O   UNL A   1      46.285  25.750  24.797  1.00  0.00    -0.376 OA
BRANCH   2   3
ATOM      3  C   UNL A   1      47.501  26.000  25.503  1.00  0.00     0.202 C 
BRANCH   3   4
ATOM      4  C   UNL A   1      47.854  24.931  26.545  1.00  0.00     0.261 C 
BRANCH   4   5
ATOM      5  O   UNL A   1      47.672  25.389  27.893  1.00  0.00    -0.460 OA
BRANCH   5   6
ATOM      6  C   UNL A   1      46.527  25.766  28.518  1.00  0.00     0.338 C 
ATOM      7  O   UNL A   1      45.686  24.893  28.736  1.00  0.00    -0.246 OA
BRANCH   6   8
ATOM      8  C   UNL A   1      46.222  27.160  28.989  1.00  0.00     0.060 A 
ATOM      9  C   UNL A   1      46.519  27.685  30.246  1.00  0.00     0.016 A 
ATOM     10  C   UNL A   1      45.609  28.024  28.058  1.00  0.00     0.016 A 
ATOM     11  C   UNL A   1      46.152  28.979  30.603  1.00  0.00     0.010 A 
ATOM     12  C   UNL A   1      45.302  29.351  28.388  1.00  0.00     0.010 A 
ATOM     13  C   UNL A   1      45.556  29.827  29.675  1.00  0.00    -0.014 A 
BRANCH  13  14
ATOM     14  C   UNL A   1      45.237  31.201  30.088  1.00  0.00     0.031 A 
ATOM     15  C   UNL A   1      46.227  32.335  29.920  1.00  0.00     0.074 A 
ATOM     16  C   UNL A   1      44.025  31.468  30.610  1.00  0.00     0.049 A 
ATOM     17  N   UNL A   1      46.119  33.592  30.285  1.00  0.00    -0.248 NA
ATOM     18  C   UNL A   1      47.471  32.013  29.217  1.00  0.00     0.031 C 
ATOM     19  C   UNL A   1      42.920  30.600  30.866  1.00  0.00     0.029 A 
ATOM     20  N   UNL A   1      43.628  32.680  31.074  1.00  0.00    -0.354 N 
ATOM     21  C   UNL A   1      47.249  34.234  29.800  1.00  0.00     0.074 A 
ATOM     22  C   UNL A   1      48.066  33.197  29.186  1.00  0.00     0.031 C 
ATOM     23  C   UNL A   1      42.028  31.231  31.645  1.00  0.00     0.029 A 
ATOM     24  C   UNL A   1      42.566  32.721  32.189  1.00  0.00     0.049 A 
ATOM     25  H   UNL A   1      44.009  33.512  30.709  1.00  0.00     0.167 HD
ATOM     26  C   UNL A   1      47.573  35.555  29.771  1.00  0.00     0.037 A 
ATOM     27  C   UNL A   1      42.181  33.919  33.597  1.00  0.00     0.037 A 
ATOM     28  C   UNL A   1      46.915  36.662  30.436  1.00  0.00     0.049 A 
ATOM     29  C   UNL A   1      42.886  35.563  34.023  1.00  0.00     0.074 A 
ATOM     30  C   UNL A   1      47.121  38.009  30.178  1.00  0.00     0.029 A 
ATOM     31  N   UNL A   1      46.049  36.610  31.535  1.00  0.00    -0.354 N 
ATOM     32  N   UNL A   1      44.053  36.057  33.637  1.00  0.00    -0.248 NA
ATOM     33  C   UNL A   1      42.097  36.607  34.720  1.00  0.00     0.031 C 
ATOM     34  C   UNL A   1      46.411  38.766  31.115  1.00  0.00     0.029 A 
ATOM     35  C   UNL A   1      45.687  37.909  31.929  1.00  0.00     0.049 A 
ATOM     36  H   UNL A   1      45.739  35.783  31.967  1.00  0.00     0.167 HD
ATOM     37  C   UNL A   1      43.983  37.421  33.699  1.00  0.00     0.074 A 
ATOM     38  C   UNL A   1      42.825  37.710  34.513  1.00  0.00     0.031 C 
ATOM     39  C   UNL A   1      44.708  38.288  32.950  1.00  0.00     0.037 A 
BRANCH  26  40
ATOM     40  C   UNL A   1      48.701  35.879  28.813  1.00  0.00     0.058 A 
ATOM     41  C   UNL A   1      48.480  36.089  27.446  1.00  0.00     0.135 A 
ATOM     42  C   UNL A   1      50.013  36.054  29.302  1.00  0.00     0.135 A 
ATOM     43  F   UNL A   1      47.252  35.941  26.929  1.00  0.00    -0.206 F 
ATOM     44  C   UNL A   1      49.508  36.510  26.605  1.00  0.00     0.059 A 
ATOM     45  C   UNL A   1      51.049  36.488  28.483  1.00  0.00     0.059 A 
ATOM     46  F   UNL A   1      50.274  35.878  30.607  1.00  0.00    -0.206 F 
ATOM     47  C   UNL A   1      50.784  36.724  27.135  1.00  0.00     0.060 A 
BRANCH  47  48
ATOM     48  S   UNL A   1      52.067  37.435  26.078  1.00  0.00     0.124 S 
ATOM     49  O   UNL A   1      51.523  37.205  24.745  1.00  0.00    -0.237 OA
ATOM     50  O   UNL A   1      52.101  38.825  26.523  1.00  0.00    -0.237 OA
ATOM     51  O   UNL A   1      53.253  36.655  26.421  1.00  0.00    -0.744 OA
ENDBRANCH  47  48
ENDBRANCH  26  40
BRANCH  27  52
ATOM     52  C   UNL A   1      41.025  33.995  34.898  1.00  0.00     0.058 A 
ATOM     53  C   UNL A   1      41.320  33.526  36.197  1.00  0.00     0.135 A 
ATOM     54  C   UNL A   1      39.696  34.443  34.677  1.00  0.00     0.135 A 
ATOM     55  F   UNL A   1      42.575  33.219  36.548  1.00  0.00    -0.206 F 
ATOM     56  C   UNL A   1      40.303  33.269  37.118  1.00  0.00     0.059 A 
ATOM     57  C   UNL A   1      38.674  34.210  35.591  1.00  0.00     0.059 A 
ATOM     58  F   UNL A   1      39.366  35.075  33.540  1.00  0.00    -0.206 F 
ATOM     59  C   UNL A   1      38.978  33.551  36.775  1.00  0.00     0.060 A 
BRANCH  59  60
ATOM     60  S   UNL A   1      37.649  32.951  37.842  1.00  0.00     0.124 S 
ATOM     61  O   UNL A   1      37.959  31.525  37.917  1.00  0.00    -0.237 OA
ATOM     62  O   UNL A   1      37.861  33.714  39.065  1.00  0.00    -0.237 OA
ATOM     63  O   UNL A   1      36.439  33.281  37.095  1.00  0.00    -0.744 OA
ENDBRANCH  59  60
ENDBRANCH  27  52
BRANCH  39  64
ATOM     64  C   UNL A   1      44.355  39.745  33.072  1.00  0.00     0.058 A 
ATOM     65  C   UNL A   1      43.526  40.364  32.119  1.00  0.00     0.135 A 
ATOM     66  C   UNL A   1      44.906  40.550  34.078  1.00  0.00     0.135 A 
ATOM     67  F   UNL A   1      42.963  39.639  31.138  1.00  0.00    -0.206 F 
ATOM     68  C   UNL A   1      43.287  41.734  32.138  1.00  0.00     0.059 A 
ATOM     69  C   UNL A   1      44.664  41.921  34.128  1.00  0.00     0.059 A 
ATOM     70  F   UNL A   1      45.692  40.007  35.022  1.00  0.00    -0.206 F 
ATOM     71  C   UNL A   1      43.873  42.509  33.140  1.00  0.00     0.060 A 
BRANCH  71  72
ATOM     72  S   UNL A   1      43.567  44.289  33.159  1.00  0.00     0.124 S 
ATOM     73  O   UNL A   1      42.651  44.446  32.035  1.00  0.00    -0.237 OA
ATOM     74  O   UNL A   1      42.988  44.499  34.482  1.00  0.00    -0.237 OA
ATOM     75  O   UNL A   1      44.898  44.858  32.971  1.00  0.00    -0.744 OA
ENDBRANCH  71  72
ENDBRANCH  39  64
ENDBRANCH  13  14
ENDBRANCH   6   8
ENDBRANCH   5   6
ENDBRANCH   4   5
ENDBRANCH   3   4
ENDBRANCH   2   3
ENDBRANCH   1   2
BRANCH   1  76
ATOM     76  C   UNL A   1      44.140  24.634  25.104  1.00  0.00     0.188 C 
BRANCH  76  77
ATOM     77  O   UNL A   1      43.448  23.681  25.920  1.00  0.00    -0.376 OA
BRANCH  77  78
ATOM     78  C   UNL A   1      43.291  22.382  25.358  1.00  0.00     0.202 C 
BRANCH  78  79
ATOM     79  C   UNL A   1      42.238  21.474  26.009  1.00  0.00     0.261 C 
BRANCH  79  80
ATOM     80  O   UNL A   1      40.924  22.042  26.147  1.00  0.00    -0.463 OA
BRANCH  80  81
ATOM     81  C   UNL A   1      39.914  21.128  26.122  1.00  0.00     0.310 C 
ATOM     82  O   UNL A   1      40.099  19.915  26.069  1.00  0.00    -0.252 OA
BRANCH  81  83
ATOM     83  C   UNL A   1      38.517  21.741  26.095  1.00  0.00     0.118 C 
ATOM     84  C   UNL A   1      38.681  23.255  26.324  1.00  0.00     0.019 C 
ATOM     85  C   UNL A   1      37.719  21.454  24.817  1.00  0.00     0.133 C 
ATOM     86  C   UNL A   1      37.356  23.997  26.234  1.00  0.00     0.022 C 
ATOM     87  N   UNL A   1      36.537  22.316  24.692  1.00  0.00    -0.356 N 
ATOM     88  C   UNL A   1      36.704  23.749  24.881  1.00  0.00     0.118 C 
BRANCH  87  89
ATOM     89  C   UNL A   1      35.252  21.796  24.652  1.00  0.00     0.133 A 
ATOM     90  C   UNL A   1      35.078  20.429  24.675  1.00  0.00     0.077 A 
ATOM     91  N   UNL A   1      34.189  22.608  24.617  1.00  0.00    -0.211 NA
ATOM     92  C   UNL A   1      33.790  19.924  24.671  1.00  0.00     0.095 A 
ATOM     93  C   UNL A   1      32.946  22.047  24.601  1.00  0.00     0.165 A 
ATOM     94  N   UNL A   1      32.706  20.730  24.633  1.00  0.00    -0.226 NA
BRANCH  92  95
ATOM     95  C   UNL A   1      33.570  18.470  24.775  1.00  0.00     0.089 A 
ATOM     96  C   UNL A   1      34.244  17.568  23.941  1.00  0.00     0.030 A 
ATOM     97  N   UNL A   1      32.623  18.048  25.650  1.00  0.00    -0.255 NA
ATOM     98  C   UNL A   1      33.957  16.208  24.021  1.00  0.00     0.004 A 
ATOM     99  C   UNL A   1      32.385  16.721  25.728  1.00  0.00     0.112 A 
ATOM    100  C   UNL A   1      33.012  15.773  24.938  1.00  0.00     0.020 A 
ENDBRANCH  92  95
BRANCH  93 101
ATOM    101  C   UNL A   1      31.827  22.990  24.819  1.00  0.00     0.055 A 
ATOM    102  C   UNL A   1      31.111  23.789  23.305  1.00  0.00     0.015 A 
ATOM    103  C   UNL A   1      31.674  23.855  26.448  1.00  0.00     0.134 A 
ATOM    104  C   UNL A   1      30.325  25.484  23.404  1.00  0.00     0.001 A 
ATOM    105  C   UNL A   1      30.873  25.580  26.552  1.00  0.00     0.040 A 
ATOM    106  F   UNL A   1      32.346  23.389  27.514  1.00  0.00    -0.206 F 
ATOM    107  C   UNL A   1      30.206  26.366  25.021  1.00  0.00     0.003 A 
ENDBRANCH  93 101
ENDBRANCH  87  89
ENDBRANCH  81  83
ENDBRANCH  80  81
ENDBRANCH  79  80
ENDBRANCH  78  79
ENDBRANCH  77  78
ENDBRANCH  76  77
ENDBRANCH   1  76
TORSDOF 23
ENDMDL
MODEL 2
REMARK VINA RESULT:      -9.7      1.584      3.625
REMARK SMILES O=C(OCCOCCOCCOC(=O)[C@H]1CCCN(c2cc(-c3ccccn3)nc(-c3ccccc3F)n2)C1)c1ccc(-c2c3nc(c(-c4c(F)cc(S(=O)(=O)[O-])cc4F)c4ccc([nH]4)c(-c4c(F)cc(S(=O)(=O)[O-])cc4F)c4nc(c(-c5c(F)cc(S(=O)(=O)[O-])cc5F)c5ccc2[nH]5)C=C4)C=C3)cc1
REMARK SMILES IDX 7 1 6 2 5 3 4 4 3 5 2 6 1 7 40 8 41 9 105 10 42 11 104 12
REMARK SMILES IDX 43 13 44 14 45 15 98 16 46 17 103 18 97 19 99 20 47 21
REMARK SMILES IDX 102 22 96 23 95 24 48 26 82 27 61 28 81 29 62 30 65 31 80 32
REMARK SMILES IDX 100 33 63 34 64 35 79 37 101 38 66 39 49 40 50 41 59 42
REMARK SMILES IDX 51 43 52 44 58 45 60 46 53 47 54 48 55 49 56 50 57 51 83 52
REMARK SMILES IDX 84 53 93 54 85 55 86 56 92 57 94 58 87 59 88 60 89 61 90 62
REMARK SMILES IDX 91 63 67 64 68 65 77 66 69 67 70 68 76 69 78 70 71 71 72 72
REMARK SMILES IDX 73 73 74 74 75 75 8 76 9 77 10 78 11 79 12 80 13 81 14 82
REMARK SMILES IDX 15 83 16 84 39 85 17 86 19 87 18 88 20 89 21 90 38 91 22 92
REMARK SMILES IDX 30 93 29 94 23 95 24 96 28 97 25 98 27 99 26 100 31 101
REMARK SMILES IDX 32 102 36 103 33 104 35 105 37 106 34 107
REMARK H PARENT 99 25 65 36
REMARK Flexibility Score: inf
ROOT
ATOM      1  C   UNL A   1      45.277  22.477  26.384  1.00  0.00     0.188 C 
ENDROOT
BRANCH   1   2
ATOM      2  O   UNL A   1      44.750  23.720  26.874  1.00  0.00    -0.376 OA
BRANCH   2   3
ATOM      3  C   UNL A   1      44.085  24.492  25.873  1.00  0.00     0.202 C 
BRANCH   3   4
ATOM      4  C   UNL A   1      44.902  25.680  25.350  1.00  0.00     0.261 C 
BRANCH   4   5
ATOM      5  O   UNL A   1      46.309  25.535  25.594  1.00  0.00    -0.460 OA
BRANCH   5   6
ATOM      6  C   UNL A   1      47.172  26.417  26.159  1.00  0.00     0.338 C 
ATOM      7  O   UNL A   1      48.358  26.091  26.219  1.00  0.00    -0.246 OA
BRANCH   6   8
ATOM      8  C   UNL A   1      46.795  27.771  26.691  1.00  0.00     0.060 A 
ATOM      9  C   UNL A   1      46.312  28.842  25.941  1.00  0.00     0.016 A 
ATOM     10  C   UNL A   1      46.910  27.959  28.084  1.00  0.00     0.016 A 
ATOM     11  C   UNL A   1      46.034  30.075  26.523  1.00  0.00     0.010 A 
ATOM     12  C   UNL A   1      46.564  29.176  28.686  1.00  0.00     0.010 A 
ATOM     13  C   UNL A   1      46.142  30.249  27.899  1.00  0.00    -0.014 A 
BRANCH  13  14
ATOM     14  C   UNL A   1      45.786  31.556  28.468  1.00  0.00     0.031 A 
ATOM     15  C   UNL A   1      46.758  32.718  28.466  1.00  0.00     0.074 A 
ATOM     16  C   UNL A   1      44.557  31.739  28.987  1.00  0.00     0.049 A 
ATOM     17  N   UNL A   1      46.618  33.920  28.979  1.00  0.00    -0.248 NA
ATOM     18  C   UNL A   1      48.025  32.505  27.762  1.00  0.00     0.031 C 
ATOM     19  C   UNL A   1      43.463  30.828  29.105  1.00  0.00     0.029 A 
ATOM     20  N   UNL A   1      44.126  32.878  29.585  1.00  0.00    -0.354 N 
ATOM     21  C   UNL A   1      47.747  34.634  28.606  1.00  0.00     0.074 A 
ATOM     22  C   UNL A   1      48.598  33.693  27.891  1.00  0.00     0.031 C 
ATOM     23  C   UNL A   1      42.540  31.345  29.931  1.00  0.00     0.029 A 
ATOM     24  C   UNL A   1      43.037  32.766  30.667  1.00  0.00     0.049 A 
ATOM     25  H   UNL A   1      44.500  33.754  29.334  1.00  0.00     0.167 HD
ATOM     26  C   UNL A   1      48.047  35.953  28.746  1.00  0.00     0.037 A 
ATOM     27  C   UNL A   1      42.595  33.776  32.201  1.00  0.00     0.037 A 
ATOM     28  C   UNL A   1      47.352  36.960  29.524  1.00  0.00     0.049 A 
ATOM     29  C   UNL A   1      43.259  35.367  32.842  1.00  0.00     0.074 A 
ATOM     30  C   UNL A   1      47.539  38.332  29.438  1.00  0.00     0.029 A 
ATOM     31  N   UNL A   1      46.460  36.760  30.585  1.00  0.00    -0.354 N 
ATOM     32  N   UNL A   1      44.425  35.923  32.551  1.00  0.00    -0.248 NA
ATOM     33  C   UNL A   1      42.433  36.305  33.640  1.00  0.00     0.031 C 
ATOM     34  C   UNL A   1      46.792  38.957  30.441  1.00  0.00     0.029 A 
ATOM     35  C   UNL A   1      46.064  37.995  31.125  1.00  0.00     0.049 A 
ATOM     36  H   UNL A   1      46.155  35.882  30.905  1.00  0.00     0.167 HD
ATOM     37  C   UNL A   1      44.328  37.267  32.777  1.00  0.00     0.074 A 
ATOM     38  C   UNL A   1      43.145  37.436  33.589  1.00  0.00     0.031 C 
ATOM     39  C   UNL A   1      45.054  38.231  32.159  1.00  0.00     0.037 A 
BRANCH  26  40
ATOM     40  C   UNL A   1      49.191  36.410  27.865  1.00  0.00     0.058 A 
ATOM     41  C   UNL A   1      50.504  36.507  28.340  1.00  0.00     0.135 A 
ATOM     42  C   UNL A   1      48.964  36.679  26.499  1.00  0.00     0.135 A 
ATOM     43  F   UNL A   1      50.777  36.257  29.629  1.00  0.00    -0.206 F 
ATOM     44  C   UNL A   1      51.561  36.806  27.483  1.00  0.00     0.059 A 
ATOM     45  C   UNL A   1      50.006  36.964  25.624  1.00  0.00     0.059 A 
ATOM     46  F   UNL A   1      47.724  36.586  25.990  1.00  0.00    -0.206 F 
ATOM     47  C   UNL A   1      51.306  37.015  26.125  1.00  0.00     0.060 A 
BRANCH  47  48
ATOM     48  S   UNL A   1      52.698  37.230  24.992  1.00  0.00     0.124 S 
ATOM     49  O   UNL A   1      52.967  38.658  25.109  1.00  0.00    -0.237 OA
ATOM     50  O   UNL A   1      53.706  36.341  25.565  1.00  0.00    -0.237 OA
ATOM     51  O   UNL A   1      52.156  36.791  23.708  1.00  0.00    -0.744 OA
ENDBRANCH  47  48
ENDBRANCH  26  40
BRANCH  27  52
ATOM     52  C   UNL A   1      41.407  33.674  33.470  1.00  0.00     0.058 A 
ATOM     53  C   UNL A   1      41.725  33.210  34.765  1.00  0.00     0.135 A 
ATOM     54  C   UNL A   1      40.038  33.960  33.222  1.00  0.00     0.135 A 
ATOM     55  F   UNL A   1      43.000  33.052  35.144  1.00  0.00    -0.206 F 
ATOM     56  C   UNL A   1      40.726  32.805  35.651  1.00  0.00     0.059 A 
ATOM     57  C   UNL A   1      39.031  33.578  34.102  1.00  0.00     0.059 A 
ATOM     58  F   UNL A   1      39.661  34.577  32.092  1.00  0.00    -0.206 F 
ATOM     59  C   UNL A   1      39.385  32.931  35.278  1.00  0.00     0.060 A 
BRANCH  59  60
ATOM     60  S   UNL A   1      38.115  32.142  36.293  1.00  0.00     0.124 S 
ATOM     61  O   UNL A   1      38.856  31.863  37.521  1.00  0.00    -0.237 OA
ATOM     62  O   UNL A   1      37.098  33.182  36.385  1.00  0.00    -0.237 OA
ATOM     63  O   UNL A   1      37.742  30.964  35.515  1.00  0.00    -0.744 OA
ENDBRANCH  59  60
ENDBRANCH  27  52
BRANCH  39  64
ATOM     64  C   UNL A   1      44.671  39.656  32.448  1.00  0.00     0.058 A 
ATOM     65  C   UNL A   1      45.188  40.324  33.573  1.00  0.00     0.135 A 
ATOM     66  C   UNL A   1      43.724  40.332  31.667  1.00  0.00     0.135 A 
ATOM     67  F   UNL A   1      46.106  39.727  34.352  1.00  0.00    -0.206 F 
ATOM     68  C   UNL A   1      44.753  41.595  33.932  1.00  0.00     0.059 A 
ATOM     69  C   UNL A   1      43.288  41.613  31.997  1.00  0.00     0.059 A 
ATOM     70  F   UNL A   1      43.209  39.747  30.574  1.00  0.00    -0.206 F 
ATOM     71  C   UNL A   1      43.791  42.228  33.145  1.00  0.00     0.060 A 
BRANCH  71  72
ATOM     72  S   UNL A   1      43.221  43.876  33.617  1.00  0.00     0.124 S 
ATOM     73  O   UNL A   1      42.252  44.168  32.567  1.00  0.00    -0.237 OA
ATOM     74  O   UNL A   1      42.666  43.652  34.948  1.00  0.00    -0.237 OA
ATOM     75  O   UNL A   1      44.443  44.673  33.586  1.00  0.00    -0.744 OA
ENDBRANCH  71  72
ENDBRANCH  39  64
ENDBRANCH  13  14
ENDBRANCH   6   8
ENDBRANCH   5   6
ENDBRANCH   4   5
ENDBRANCH   3   4
ENDBRANCH   2   3
ENDBRANCH   1   2
BRANCH   1  76
ATOM     76  C   UNL A   1      44.202  21.719  25.595  1.00  0.00     0.188 C 
BRANCH  76  77
ATOM     77  O   UNL A   1      44.426  20.306  25.514  1.00  0.00    -0.376 OA
BRANCH  77  78
ATOM     78  C   UNL A   1      43.265  19.504  25.322  1.00  0.00     0.202 C 
BRANCH  78  79
ATOM     79  C   UNL A   1      42.085  19.764  26.269  1.00  0.00     0.261 C 
BRANCH  79  80
ATOM     80  O   UNL A   1      41.125  20.735  25.816  1.00  0.00    -0.463 OA
BRANCH  80  81
ATOM     81  C   UNL A   1      39.835  20.299  25.840  1.00  0.00     0.310 C 
ATOM     82  O   UNL A   1      39.501  19.153  25.550  1.00  0.00    -0.252 OA
BRANCH  81  83
ATOM     83  C   UNL A   1      38.816  21.378  26.196  1.00  0.00     0.118 C 
ATOM     84  C   UNL A   1      39.607  22.597  26.709  1.00  0.00     0.019 C 
ATOM     85  C   UNL A   1      37.872  21.767  25.052  1.00  0.00     0.133 C 
ATOM     86  C   UNL A   1      38.703  23.780  27.019  1.00  0.00     0.022 C 
ATOM     87  N   UNL A   1      37.145  23.012  25.328  1.00  0.00    -0.356 N 
ATOM     88  C   UNL A   1      37.901  24.168  25.785  1.00  0.00     0.118 C 
BRANCH  87  89
ATOM     89  C   UNL A   1      35.761  23.048  25.411  1.00  0.00     0.133 A 
ATOM     90  C   UNL A   1      35.135  24.243  25.692  1.00  0.00     0.077 A 
ATOM     91  N   UNL A   1      35.036  21.943  25.196  1.00  0.00    -0.211 NA
ATOM     92  C   UNL A   1      33.752  24.272  25.736  1.00  0.00     0.095 A 
ATOM     93  C   UNL A   1      33.678  22.036  25.267  1.00  0.00     0.165 A 
ATOM     94  N   UNL A   1      33.005  23.166  25.524  1.00  0.00    -0.226 NA
BRANCH  92  95
ATOM     95  C   UNL A   1      33.050  25.551  25.956  1.00  0.00     0.089 A 
ATOM     96  C   UNL A   1      33.643  26.775  25.621  1.00  0.00     0.030 A 
ATOM     97  N   UNL A   1      31.845  25.496  26.577  1.00  0.00    -0.255 NA
ATOM     98  C   UNL A   1      32.977  27.964  25.909  1.00  0.00     0.004 A 
ATOM     99  C   UNL A   1      31.208  26.662  26.818  1.00  0.00     0.112 A 
ATOM    100  C   UNL A   1      31.731  27.908  26.515  1.00  0.00     0.020 A 
ENDBRANCH  92  95
BRANCH  93 101
ATOM    101  C   UNL A   1      32.939  20.853  24.773  1.00  0.00     0.055 A 
ATOM    102  C   UNL A   1      33.158  19.281  25.734  1.00  0.00     0.015 A 
ATOM    103  C   UNL A   1      32.475  20.755  22.984  1.00  0.00     0.134 A 
ATOM    104  C   UNL A   1      33.001  17.619  24.889  1.00  0.00     0.001 A 
ATOM    105  C   UNL A   1      32.313  19.065  22.122  1.00  0.00     0.040 A 
ATOM    106  F   UNL A   1      32.498  21.866  22.230  1.00  0.00    -0.206 F 
ATOM    107  C   UNL A   1      32.576  17.519  23.096  1.00  0.00     0.003 A 
ENDBRANCH  93 101
ENDBRANCH  87  89
ENDBRANCH  81  83
ENDBRANCH  80  81
ENDBRANCH  79  80
ENDBRANCH  78  79
ENDBRANCH  77  78
ENDBRANCH  76  77
ENDBRANCH   1  76
TORSDOF 23
ENDMDL
MODEL 3
REMARK VINA RESULT:      -9.5      5.004      9.135
REMARK SMILES O=C(OCCOCCOCCOC(=O)[C@H]1CCCN(c2cc(-c3ccccn3)nc(-c3ccccc3F)n2)C1)c1ccc(-c2c3nc(c(-c4c(F)cc(S(=O)(=O)[O-])cc4F)c4ccc([nH]4)c(-c4c(F)cc(S(=O)(=O)[O-])cc4F)c4nc(c(-c5c(F)cc(S(=O)(=O)[O-])cc5F)c5ccc2[nH]5)C=C4)C=C3)cc1
REMARK SMILES IDX 7 1 6 2 5 3 4 4 3 5 2 6 1 7 40 8 41 9 105 10 42 11 104 12
REMARK SMILES IDX 43 13 44 14 45 15 98 16 46 17 103 18 97 19 99 20 47 21
REMARK SMILES IDX 102 22 96 23 95 24 48 26 82 27 61 28 81 29 62 30 65 31 80 32
REMARK SMILES IDX 100 33 63 34 64 35 79 37 101 38 66 39 49 40 50 41 59 42
REMARK SMILES IDX 51 43 52 44 58 45 60 46 53 47 54 48 55 49 56 50 57 51 83 52
REMARK SMILES IDX 84 53 93 54 85 55 86 56 92 57 94 58 87 59 88 60 89 61 90 62
REMARK SMILES IDX 91 63 67 64 68 65 77 66 69 67 70 68 76 69 78 70 71 71 72 72
REMARK SMILES IDX 73 73 74 74 75 75 8 76 9 77 10 78 11 79 12 80 13 81 14 82
REMARK SMILES IDX 15 83 16 84 39 85 17 86 19 87 18 88 20 89 21 90 38 91 22 92
REMARK SMILES IDX 30 93 29 94 23 95 24 96 28 97 25 98 27 99 26 100 31 101
REMARK SMILES IDX 32 102 36 103 33 104 35 105 37 106 34 107
REMARK H PARENT 99 25 65 36
REMARK Flexibility Score: inf
ROOT
ATOM      1  C   UNL A   1      46.529  24.838  28.318  1.00  0.00     0.188 C 
ENDROOT
BRANCH   1   2
ATOM      2  O   UNL A   1      46.817  24.088  27.128  1.00  0.00    -0.376 OA
BRANCH   2   3
ATOM      3  C   UNL A   1      47.584  24.815  26.167  1.00  0.00     0.202 C 
BRANCH   3   4
ATOM      4  C   UNL A   1      46.902  24.964  24.800  1.00  0.00     0.261 C 
BRANCH   4   5
ATOM      5  O   UNL A   1      46.576  26.326  24.489  1.00  0.00    -0.460 OA
BRANCH   5   6
ATOM      6  C   UNL A   1      47.209  27.464  24.873  1.00  0.00     0.338 C 
ATOM      7  O   UNL A   1      48.201  27.807  24.228  1.00  0.00    -0.246 OA
BRANCH   6   8
ATOM      8  C   UNL A   1      46.776  28.350  26.007  1.00  0.00     0.060 A 
ATOM      9  C   UNL A   1      45.539  28.980  26.129  1.00  0.00     0.016 A 
ATOM     10  C   UNL A   1      47.697  28.529  27.059  1.00  0.00     0.016 A 
ATOM     11  C   UNL A   1      45.250  29.821  27.199  1.00  0.00     0.010 A 
ATOM     12  C   UNL A   1      47.386  29.318  28.175  1.00  0.00     0.010 A 
ATOM     13  C   UNL A   1      46.161  29.985  28.238  1.00  0.00    -0.014 A 
BRANCH  13  14
ATOM     14  C   UNL A   1      45.785  30.844  29.369  1.00  0.00     0.031 A 
ATOM     15  C   UNL A   1      44.918  30.335  30.503  1.00  0.00     0.074 A 
ATOM     16  C   UNL A   1      46.237  32.111  29.417  1.00  0.00     0.049 A 
ATOM     17  N   UNL A   1      44.450  30.982  31.546  1.00  0.00    -0.248 NA
ATOM     18  C   UNL A   1      44.574  28.911  30.470  1.00  0.00     0.031 C 
ATOM     19  C   UNL A   1      47.064  32.828  28.498  1.00  0.00     0.029 A 
ATOM     20  N   UNL A   1      45.921  33.015  30.378  1.00  0.00    -0.354 N 
ATOM     21  C   UNL A   1      43.812  30.036  32.334  1.00  0.00     0.074 A 
ATOM     22  C   UNL A   1      43.887  28.783  31.595  1.00  0.00     0.031 C 
ATOM     23  C   UNL A   1      47.032  34.136  28.799  1.00  0.00     0.029 A 
ATOM     24  C   UNL A   1      45.931  34.508  30.004  1.00  0.00     0.049 A 
ATOM     25  H   UNL A   1      45.690  32.724  31.290  1.00  0.00     0.167 HD
ATOM     26  C   UNL A   1      43.282  30.135  33.583  1.00  0.00     0.037 A 
ATOM     27  C   UNL A   1      44.986  36.025  30.617  1.00  0.00     0.037 A 
ATOM     28  C   UNL A   1      43.044  31.328  34.372  1.00  0.00     0.049 A 
ATOM     29  C   UNL A   1      43.807  36.243  32.011  1.00  0.00     0.074 A 
ATOM     30  C   UNL A   1      42.743  31.366  35.725  1.00  0.00     0.029 A 
ATOM     31  N   UNL A   1      42.948  32.650  33.919  1.00  0.00    -0.354 N 
ATOM     32  N   UNL A   1      43.113  35.297  32.626  1.00  0.00    -0.248 NA
ATOM     33  C   UNL A   1      43.656  37.532  32.727  1.00  0.00     0.031 C 
ATOM     34  C   UNL A   1      42.447  32.684  36.089  1.00  0.00     0.029 A 
ATOM     35  C   UNL A   1      42.631  33.506  34.987  1.00  0.00     0.049 A 
ATOM     36  H   UNL A   1      43.082  32.937  32.988  1.00  0.00     0.167 HD
ATOM     37  C   UNL A   1      42.792  35.746  33.877  1.00  0.00     0.074 A 
ATOM     38  C   UNL A   1      43.009  37.173  33.841  1.00  0.00     0.031 C 
ATOM     39  C   UNL A   1      42.562  34.968  34.964  1.00  0.00     0.037 A 
BRANCH  26  40
ATOM     40  C   UNL A   1      43.035  28.794  34.243  1.00  0.00     0.058 A 
ATOM     41  C   UNL A   1      41.786  28.163  34.201  1.00  0.00     0.135 A 
ATOM     42  C   UNL A   1      44.100  28.106  34.860  1.00  0.00     0.135 A 
ATOM     43  F   UNL A   1      40.740  28.771  33.622  1.00  0.00    -0.206 F 
ATOM     44  C   UNL A   1      41.611  26.875  34.703  1.00  0.00     0.059 A 
ATOM     45  C   UNL A   1      43.950  26.814  35.353  1.00  0.00     0.059 A 
ATOM     46  F   UNL A   1      45.321  28.661  34.914  1.00  0.00    -0.206 F 
ATOM     47  C   UNL A   1      42.702  26.202  35.261  1.00  0.00     0.060 A 
BRANCH  47  48
ATOM     48  S   UNL A   1      42.510  24.472  35.750  1.00  0.00     0.124 S 
ATOM     49  O   UNL A   1      43.115  23.770  34.625  1.00  0.00    -0.237 OA
ATOM     50  O   UNL A   1      43.250  24.421  37.008  1.00  0.00    -0.237 OA
ATOM     51  O   UNL A   1      41.064  24.321  35.887  1.00  0.00    -0.744 OA
ENDBRANCH  47  48
ENDBRANCH  26  40
BRANCH  27  52
ATOM     52  C   UNL A   1      44.931  37.717  30.208  1.00  0.00     0.058 A 
ATOM     53  C   UNL A   1      45.920  38.629  30.638  1.00  0.00     0.135 A 
ATOM     54  C   UNL A   1      43.828  38.270  29.505  1.00  0.00     0.135 A 
ATOM     55  F   UNL A   1      47.066  38.195  31.178  1.00  0.00    -0.206 F 
ATOM     56  C   UNL A   1      45.692  40.005  30.610  1.00  0.00     0.059 A 
ATOM     57  C   UNL A   1      43.594  39.640  29.454  1.00  0.00     0.059 A 
ATOM     58  F   UNL A   1      42.934  37.474  28.897  1.00  0.00    -0.206 F 
ATOM     59  C   UNL A   1      44.495  40.493  30.078  1.00  0.00     0.060 A 
BRANCH  59  60
ATOM     60  S   UNL A   1      44.078  42.235  30.309  1.00  0.00     0.124 S 
ATOM     61  O   UNL A   1      44.405  42.788  28.997  1.00  0.00    -0.237 OA
ATOM     62  O   UNL A   1      42.660  42.177  30.641  1.00  0.00    -0.237 OA
ATOM     63  O   UNL A   1      44.961  42.655  31.393  1.00  0.00    -0.744 OA
ENDBRANCH  59  60
ENDBRANCH  27  52
BRANCH  39  64
ATOM     64  C   UNL A   1      42.382  35.680  36.277  1.00  0.00     0.058 A 
ATOM     65  C   UNL A   1      41.098  36.032  36.732  1.00  0.00     0.135 A 
ATOM     66  C   UNL A   1      43.481  36.093  37.042  1.00  0.00     0.135 A 
ATOM     67  F   UNL A   1      40.008  35.654  36.043  1.00  0.00    -0.206 F 
ATOM     68  C   UNL A   1      40.913  36.799  37.876  1.00  0.00     0.059 A 
ATOM     69  C   UNL A   1      43.318  36.845  38.204  1.00  0.00     0.059 A 
ATOM     70  F   UNL A   1      44.728  35.771  36.663  1.00  0.00    -0.206 F 
ATOM     71  C   UNL A   1      42.032  37.214  38.601  1.00  0.00     0.060 A 
BRANCH  71  72
ATOM     72  S   UNL A   1      41.790  38.217  40.084  1.00  0.00     0.124 S 
ATOM     73  O   UNL A   1      42.563  39.412  39.764  1.00  0.00    -0.237 OA
ATOM     74  O   UNL A   1      40.341  38.391  40.119  1.00  0.00    -0.237 OA
ATOM     75  O   UNL A   1      42.337  37.379  41.146  1.00  0.00    -0.744 OA
ENDBRANCH  71  72
ENDBRANCH  39  64
ENDBRANCH  13  14
ENDBRANCH   6   8
ENDBRANCH   5   6
ENDBRANCH   4   5
ENDBRANCH   3   4
ENDBRANCH   2   3
ENDBRANCH   1   2
BRANCH   1  76
ATOM     76  C   UNL A   1      45.210  25.605  28.156  1.00  0.00     0.188 C 
BRANCH  76  77
ATOM     77  O   UNL A   1      44.101  24.783  27.770  1.00  0.00    -0.376 OA
BRANCH  77  78
ATOM     78  C   UNL A   1      43.261  25.313  26.749  1.00  0.00     0.202 C 
BRANCH  78  79
ATOM     79  C   UNL A   1      41.748  25.215  26.985  1.00  0.00     0.261 C 
BRANCH  79  80
ATOM     80  O   UNL A   1      41.195  26.180  27.898  1.00  0.00    -0.463 OA
BRANCH  80  81
ATOM     81  C   UNL A   1      40.519  27.197  27.294  1.00  0.00     0.310 C 
ATOM     82  O   UNL A   1      40.827  27.659  26.198  1.00  0.00    -0.252 OA
BRANCH  81  83
ATOM     83  C   UNL A   1      39.376  27.769  28.128  1.00  0.00     0.118 C 
ATOM     84  C   UNL A   1      39.655  27.398  29.597  1.00  0.00     0.019 C 
ATOM     85  C   UNL A   1      39.161  29.279  27.966  1.00  0.00     0.133 C 
ATOM     86  C   UNL A   1      38.624  27.989  30.545  1.00  0.00     0.022 C 
ATOM     87  N   UNL A   1      38.290  29.833  29.009  1.00  0.00    -0.356 N 
ATOM     88  C   UNL A   1      38.576  29.503  30.397  1.00  0.00     0.118 C 
BRANCH  87  89
ATOM     89  C   UNL A   1      37.080  30.441  28.706  1.00  0.00     0.133 A 
ATOM     90  C   UNL A   1      36.129  29.733  28.004  1.00  0.00     0.077 A 
ATOM     91  N   UNL A   1      36.825  31.691  29.111  1.00  0.00    -0.211 NA
ATOM     92  C   UNL A   1      34.913  30.339  27.740  1.00  0.00     0.095 A 
ATOM     93  C   UNL A   1      35.612  32.235  28.807  1.00  0.00     0.165 A 
ATOM     94  N   UNL A   1      34.639  31.600  28.140  1.00  0.00    -0.226 NA
BRANCH  92  95
ATOM     95  C   UNL A   1      33.846  29.580  27.060  1.00  0.00     0.089 A 
ATOM     96  C   UNL A   1      34.010  28.229  26.727  1.00  0.00     0.030 A 
ATOM     97  N   UNL A   1      32.736  30.268  26.694  1.00  0.00    -0.255 NA
ATOM     98  C   UNL A   1      33.008  27.567  26.023  1.00  0.00     0.004 A 
ATOM     99  C   UNL A   1      31.766  29.594  26.037  1.00  0.00     0.112 A 
ATOM    100  C   UNL A   1      31.859  28.261  25.675  1.00  0.00     0.020 A 
ENDBRANCH  92  95
BRANCH  93 101
ATOM    101  C   UNL A   1      35.302  33.507  29.497  1.00  0.00     0.055 A 
ATOM    102  C   UNL A   1      34.994  33.403  31.324  1.00  0.00     0.015 A 
ATOM    103  C   UNL A   1      34.554  34.901  28.537  1.00  0.00     0.134 A 
ATOM    104  C   UNL A   1      33.869  34.637  32.170  1.00  0.00     0.001 A 
ATOM    105  C   UNL A   1      33.410  36.158  29.396  1.00  0.00     0.040 A 
ATOM    106  F   UNL A   1      34.607  34.888  27.195  1.00  0.00    -0.206 F 
ATOM    107  C   UNL A   1      33.090  36.006  31.208  1.00  0.00     0.003 A 
ENDBRANCH  93 101
ENDBRANCH  87  89
ENDBRANCH  81  83
ENDBRANCH  80  81
ENDBRANCH  79  80
ENDBRANCH  78  79
ENDBRANCH  77  78
ENDBRANCH  76  77
ENDBRANCH   1  76
TORSDOF 23
ENDMDL
