MODEL 1
REMARK VINA RESULT:      -9.5      0.000      0.000
REMARK SMILES O=C(OCCOCCOCCOC(=O)[C@H]1Cc2cc(Cl)ccc2O1)c1ccc(-c2c3nc(c(-c4c(F)cc(S(=O)(=O)[O-])cc4F)c4ccc([nH]4)c(-c4c(F)cc(S(=O)(=O)[O-])cc4F)c4nc(c(-c5c(F)cc(S(=O)(=O)[O-])cc5F)c5ccc2[nH]5)C=C4)C=C3)cc1
REMARK SMILES IDX 6 1 5 2 4 3 3 4 2 5 1 6 25 7 26 8 90 9 27 10 89 11 28 12
REMARK SMILES IDX 29 13 30 14 83 15 31 16 88 17 82 18 84 19 32 20 87 21 81 22
REMARK SMILES IDX 80 23 33 25 67 26 46 27 66 28 47 29 50 30 65 31 85 32 48 33
REMARK SMILES IDX 49 34 64 36 86 37 51 38 34 39 35 40 44 41 36 42 37 43 43 44
REMARK SMILES IDX 45 45 38 46 39 47 40 48 41 49 42 50 68 51 69 52 78 53 70 54
REMARK SMILES IDX 71 55 77 56 79 57 72 58 73 59 74 60 75 61 76 62 52 63 53 64
REMARK SMILES IDX 62 65 54 66 55 67 61 68 63 69 56 70 57 71 58 72 59 73 60 74
REMARK SMILES IDX 7 75 8 76 9 77 10 78 11 79 12 80 13 81 14 82 15 83 16 84
REMARK SMILES IDX 24 85 17 86 23 87 18 88 22 89 19 90 21 91 20 92
REMARK H PARENT 84 24 50 35
REMARK Flexibility Score: inf
ROOT
ATOM      1  O   UNL A   1      33.966  35.490  28.363  1.00  0.00    -0.376 OA
ENDROOT
BRANCH   1   2
ATOM      2  C   UNL A   1      33.943  34.198  28.955  1.00  0.00     0.202 C 
BRANCH   2   3
ATOM      3  C   UNL A   1      33.510  33.067  28.023  1.00  0.00     0.261 C 
BRANCH   3   4
ATOM      4  O   UNL A   1      34.598  32.282  27.516  1.00  0.00    -0.460 OA
BRANCH   4   5
ATOM      5  C   UNL A   1      34.754  30.937  27.596  1.00  0.00     0.338 C 
ATOM      6  O   UNL A   1      33.805  30.223  27.272  1.00  0.00    -0.246 OA
BRANCH   5   7
ATOM      7  C   UNL A   1      35.938  30.280  28.246  1.00  0.00     0.060 A 
ATOM      8  C   UNL A   1      37.174  30.446  27.591  1.00  0.00     0.016 A 
ATOM      9  C   UNL A   1      35.925  29.549  29.437  1.00  0.00     0.016 A 
ATOM     10  C   UNL A   1      38.350  29.899  28.111  1.00  0.00     0.010 A 
ATOM     11  C   UNL A   1      37.092  28.981  29.951  1.00  0.00     0.010 A 
ATOM     12  C   UNL A   1      38.314  29.173  29.306  1.00  0.00    -0.014 A 
BRANCH  12  13
ATOM     13  C   UNL A   1      39.559  28.811  30.012  1.00  0.00     0.031 A 
ATOM     14  C   UNL A   1      40.002  29.523  31.248  1.00  0.00     0.074 A 
ATOM     15  C   UNL A   1      40.323  27.861  29.443  1.00  0.00     0.049 A 
ATOM     16  N   UNL A   1      41.022  29.256  32.021  1.00  0.00    -0.248 NA
ATOM     17  C   UNL A   1      39.216  30.694  31.665  1.00  0.00     0.031 C 
ATOM     18  C   UNL A   1      40.004  27.181  28.183  1.00  0.00     0.029 A 
ATOM     19  N   UNL A   1      41.514  27.308  29.828  1.00  0.00    -0.354 N 
ATOM     20  C   UNL A   1      40.989  30.201  33.037  1.00  0.00     0.074 A 
ATOM     21  C   UNL A   1      39.881  31.089  32.746  1.00  0.00     0.031 C 
ATOM     22  C   UNL A   1      40.964  26.287  27.912  1.00  0.00     0.029 A 
ATOM     23  C   UNL A   1      41.966  26.335  28.970  1.00  0.00     0.049 A 
ATOM     24  H   UNL A   1      41.999  27.582  30.640  1.00  0.00     0.167 HD
ATOM     25  C   UNL A   1      41.802  30.292  34.117  1.00  0.00     0.037 A 
ATOM     26  C   UNL A   1      43.058  25.552  29.041  1.00  0.00     0.037 A 
ATOM     27  C   UNL A   1      42.919  29.409  34.348  1.00  0.00     0.049 A 
ATOM     28  C   UNL A   1      43.952  25.679  30.237  1.00  0.00     0.074 A 
ATOM     29  C   UNL A   1      43.769  29.361  35.439  1.00  0.00     0.029 A 
ATOM     30  N   UNL A   1      43.359  28.436  33.457  1.00  0.00    -0.354 N 
ATOM     31  N   UNL A   1      43.829  26.481  31.269  1.00  0.00    -0.248 NA
ATOM     32  C   UNL A   1      45.125  24.799  30.292  1.00  0.00     0.031 C 
ATOM     33  C   UNL A   1      44.756  28.403  35.181  1.00  0.00     0.029 A 
ATOM     34  C   UNL A   1      44.494  27.814  33.952  1.00  0.00     0.049 A 
ATOM     35  H   UNL A   1      42.927  28.220  32.600  1.00  0.00     0.167 HD
ATOM     36  C   UNL A   1      44.904  26.200  32.100  1.00  0.00     0.074 A 
ATOM     37  C   UNL A   1      45.656  25.138  31.460  1.00  0.00     0.031 C 
ATOM     38  C   UNL A   1      45.238  26.772  33.284  1.00  0.00     0.037 A 
BRANCH  25  39
ATOM     39  C   UNL A   1      41.509  31.365  35.134  1.00  0.00     0.058 A 
ATOM     40  C   UNL A   1      42.269  32.545  35.189  1.00  0.00     0.135 A 
ATOM     41  C   UNL A   1      40.427  31.248  36.022  1.00  0.00     0.135 A 
ATOM     42  F   UNL A   1      43.321  32.711  34.371  1.00  0.00    -0.206 F 
ATOM     43  C   UNL A   1      41.988  33.552  36.105  1.00  0.00     0.059 A 
ATOM     44  C   UNL A   1      40.111  32.256  36.932  1.00  0.00     0.059 A 
ATOM     45  F   UNL A   1      39.661  30.145  36.013  1.00  0.00    -0.206 F 
ATOM     46  C   UNL A   1      40.908  33.398  36.975  1.00  0.00     0.060 A 
BRANCH  46  47
ATOM     47  S   UNL A   1      40.579  34.708  38.174  1.00  0.00     0.124 S 
ATOM     48  O   UNL A   1      39.913  33.959  39.239  1.00  0.00    -0.237 OA
ATOM     49  O   UNL A   1      41.925  35.184  38.487  1.00  0.00    -0.237 OA
ATOM     50  O   UNL A   1      39.738  35.641  37.443  1.00  0.00    -0.744 OA
ENDBRANCH  46  47
ENDBRANCH  25  39
BRANCH  26  51
ATOM     51  C   UNL A   1      43.290  24.546  27.973  1.00  0.00     0.058 A 
ATOM     52  C   UNL A   1      43.936  24.906  26.782  1.00  0.00     0.135 A 
ATOM     53  C   UNL A   1      42.985  23.190  28.171  1.00  0.00     0.135 A 
ATOM     54  F   UNL A   1      44.251  26.190  26.552  1.00  0.00    -0.206 F 
ATOM     55  C   UNL A   1      44.282  23.956  25.828  1.00  0.00     0.059 A 
ATOM     56  C   UNL A   1      43.340  22.219  27.240  1.00  0.00     0.059 A 
ATOM     57  F   UNL A   1      42.391  22.793  29.307  1.00  0.00    -0.206 F 
ATOM     58  C   UNL A   1      43.991  22.612  26.072  1.00  0.00     0.060 A 
BRANCH  58  59
ATOM     59  S   UNL A   1      44.534  21.382  24.866  1.00  0.00     0.124 S 
ATOM     60  O   UNL A   1      45.856  21.036  25.373  1.00  0.00    -0.237 OA
ATOM     61  O   UNL A   1      43.509  20.351  25.001  1.00  0.00    -0.237 OA
ATOM     62  O   UNL A   1      44.513  22.114  23.604  1.00  0.00    -0.744 OA
ENDBRANCH  58  59
ENDBRANCH  26  51
BRANCH  38  63
ATOM     63  C   UNL A   1      46.494  26.291  33.952  1.00  0.00     0.058 A 
ATOM     64  C   UNL A   1      47.707  26.976  33.790  1.00  0.00     0.135 A 
ATOM     65  C   UNL A   1      46.464  25.207  34.844  1.00  0.00     0.135 A 
ATOM     66  F   UNL A   1      47.790  28.011  32.937  1.00  0.00    -0.206 F 
ATOM     67  C   UNL A   1      48.847  26.611  34.496  1.00  0.00     0.059 A 
ATOM     68  C   UNL A   1      47.585  24.838  35.580  1.00  0.00     0.059 A 
ATOM     69  F   UNL A   1      45.325  24.521  35.035  1.00  0.00    -0.206 F 
ATOM     70  C   UNL A   1      48.771  25.550  35.402  1.00  0.00     0.060 A 
BRANCH  70  71
ATOM     71  S   UNL A   1      50.236  25.151  36.377  1.00  0.00     0.124 S 
ATOM     72  O   UNL A   1      49.926  25.789  37.652  1.00  0.00    -0.237 OA
ATOM     73  O   UNL A   1      50.219  23.692  36.378  1.00  0.00    -0.237 OA
ATOM     74  O   UNL A   1      51.326  25.760  35.621  1.00  0.00    -0.744 OA
ENDBRANCH  70  71
ENDBRANCH  38  63
ENDBRANCH  12  13
ENDBRANCH   5   7
ENDBRANCH   4   5
ENDBRANCH   3   4
ENDBRANCH   2   3
ENDBRANCH   1   2
BRANCH   1  75
ATOM     75  C   UNL A   1      33.373  36.541  29.129  1.00  0.00     0.188 C 
BRANCH  75  76
ATOM     76  C   UNL A   1      32.689  36.136  30.441  1.00  0.00     0.188 C 
BRANCH  76  77
ATOM     77  O   UNL A   1      32.500  37.212  31.352  1.00  0.00    -0.376 OA
BRANCH  77  78
ATOM     78  C   UNL A   1      33.652  37.565  32.116  1.00  0.00     0.202 C 
BRANCH  78  79
ATOM     79  C   UNL A   1      33.831  36.802  33.438  1.00  0.00     0.261 C 
BRANCH  79  80
ATOM     80  O   UNL A   1      34.972  35.921  33.463  1.00  0.00    -0.460 OA
BRANCH  80  81
ATOM     81  C   UNL A   1      34.725  34.615  33.172  1.00  0.00     0.347 C 
ATOM     82  O   UNL A   1      33.596  34.144  33.084  1.00  0.00    -0.248 OA
BRANCH  81  83
ATOM     83  C   UNL A   1      36.023  33.818  33.011  1.00  0.00     0.287 C 
ATOM     84  C   UNL A   1      36.491  33.873  31.549  1.00  0.00     0.097 C 
ATOM     85  O   UNL A   1      37.098  34.269  33.875  1.00  0.00    -0.478 OA
ATOM     86  C   UNL A   1      37.936  34.113  31.737  1.00  0.00    -0.000 A 
ATOM     87  C   UNL A   1      38.211  34.302  33.078  1.00  0.00     0.124 A 
ATOM     88  C   UNL A   1      38.932  34.193  30.778  1.00  0.00     0.028 A 
ATOM     89  C   UNL A   1      39.499  34.533  33.524  1.00  0.00     0.048 A 
ATOM     90  C   UNL A   1      40.235  34.443  31.207  1.00  0.00     0.041 A 
ATOM     91  C   UNL A   1      40.525  34.598  32.572  1.00  0.00     0.024 A 
ATOM     92  Cl  UNL A   1      41.497  34.581  30.044  1.00  0.00    -0.084 Cl
ENDBRANCH  81  83
ENDBRANCH  80  81
ENDBRANCH  79  80
ENDBRANCH  78  79
ENDBRANCH  77  78
ENDBRANCH  76  77
ENDBRANCH  75  76
ENDBRANCH   1  75
TORSDOF 20
ENDMDL
MODEL 2
REMARK VINA RESULT:      -9.3      5.220     12.194
REMARK SMILES O=C(OCCOCCOCCOC(=O)[C@H]1Cc2cc(Cl)ccc2O1)c1ccc(-c2c3nc(c(-c4c(F)cc(S(=O)(=O)[O-])cc4F)c4ccc([nH]4)c(-c4c(F)cc(S(=O)(=O)[O-])cc4F)c4nc(c(-c5c(F)cc(S(=O)(=O)[O-])cc5F)c5ccc2[nH]5)C=C4)C=C3)cc1
REMARK SMILES IDX 6 1 5 2 4 3 3 4 2 5 1 6 25 7 26 8 90 9 27 10 89 11 28 12
REMARK SMILES IDX 29 13 30 14 83 15 31 16 88 17 82 18 84 19 32 20 87 21 81 22
REMARK SMILES IDX 80 23 33 25 67 26 46 27 66 28 47 29 50 30 65 31 85 32 48 33
REMARK SMILES IDX 49 34 64 36 86 37 51 38 34 39 35 40 44 41 36 42 37 43 43 44
REMARK SMILES IDX 45 45 38 46 39 47 40 48 41 49 42 50 68 51 69 52 78 53 70 54
REMARK SMILES IDX 71 55 77 56 79 57 72 58 73 59 74 60 75 61 76 62 52 63 53 64
REMARK SMILES IDX 62 65 54 66 55 67 61 68 63 69 56 70 57 71 58 72 59 73 60 74
REMARK SMILES IDX 7 75 8 76 9 77 10 78 11 79 12 80 13 81 14 82 15 83 16 84
REMARK SMILES IDX 24 85 17 86 23 87 18 88 22 89 19 90 21 91 20 92
REMARK H PARENT 84 24 50 35
REMARK Flexibility Score: inf
ROOT
ATOM      1  O   UNL A   1      40.680  22.149  25.772  1.00  0.00    -0.376 OA
ENDROOT
BRANCH   1   2
ATOM      2  C   UNL A   1      41.839  22.636  26.436  1.00  0.00     0.202 C 
BRANCH   2   3
ATOM      3  C   UNL A   1      42.854  23.339  25.535  1.00  0.00     0.261 C 
BRANCH   3   4
ATOM      4  O   UNL A   1      42.962  24.749  25.771  1.00  0.00    -0.460 OA
BRANCH   4   5
ATOM      5  C   UNL A   1      41.958  25.623  26.031  1.00  0.00     0.338 C 
ATOM      6  O   UNL A   1      41.273  26.018  25.087  1.00  0.00    -0.246 OA
BRANCH   5   7
ATOM      7  C   UNL A   1      41.766  26.287  27.364  1.00  0.00     0.060 A 
ATOM      8  C   UNL A   1      42.686  27.305  27.685  1.00  0.00     0.016 A 
ATOM      9  C   UNL A   1      40.757  26.005  28.289  1.00  0.00     0.016 A 
ATOM     10  C   UNL A   1      42.596  28.011  28.888  1.00  0.00     0.010 A 
ATOM     11  C   UNL A   1      40.675  26.690  29.503  1.00  0.00     0.010 A 
ATOM     12  C   UNL A   1      41.576  27.713  29.799  1.00  0.00    -0.014 A 
BRANCH  12  13
ATOM     13  C   UNL A   1      41.297  28.603  30.943  1.00  0.00     0.031 A 
ATOM     14  C   UNL A   1      42.063  28.508  32.223  1.00  0.00     0.074 A 
ATOM     15  C   UNL A   1      40.263  29.452  30.811  1.00  0.00     0.049 A 
ATOM     16  N   UNL A   1      41.988  29.279  33.275  1.00  0.00    -0.248 NA
ATOM     17  C   UNL A   1      43.022  27.400  32.349  1.00  0.00     0.031 C 
ATOM     18  C   UNL A   1      39.406  29.542  29.624  1.00  0.00     0.029 A 
ATOM     19  N   UNL A   1      39.747  30.388  31.666  1.00  0.00    -0.354 N 
ATOM     20  C   UNL A   1      42.910  28.776  34.182  1.00  0.00     0.074 A 
ATOM     21  C   UNL A   1      43.489  27.593  33.578  1.00  0.00     0.031 C 
ATOM     22  C   UNL A   1      38.486  30.496  29.818  1.00  0.00     0.029 A 
ATOM     23  C   UNL A   1      38.682  31.079  31.140  1.00  0.00     0.049 A 
ATOM     24  H   UNL A   1      40.104  30.550  32.569  1.00  0.00     0.167 HD
ATOM     25  C   UNL A   1      43.246  29.280  35.395  1.00  0.00     0.037 A 
ATOM     26  C   UNL A   1      37.956  32.085  31.659  1.00  0.00     0.037 A 
ATOM     27  C   UNL A   1      42.616  30.440  35.976  1.00  0.00     0.049 A 
ATOM     28  C   UNL A   1      38.336  32.619  33.008  1.00  0.00     0.074 A 
ATOM     29  C   UNL A   1      42.920  31.083  37.164  1.00  0.00     0.029 A 
ATOM     30  N   UNL A   1      41.533  31.115  35.424  1.00  0.00    -0.354 N 
ATOM     31  N   UNL A   1      39.309  32.227  33.798  1.00  0.00    -0.248 NA
ATOM     32  C   UNL A   1      37.536  33.728  33.538  1.00  0.00     0.031 C 
ATOM     33  C   UNL A   1      41.986  32.106  37.358  1.00  0.00     0.029 A 
ATOM     34  C   UNL A   1      41.128  32.137  36.267  1.00  0.00     0.049 A 
ATOM     35  H   UNL A   1      41.115  30.899  34.560  1.00  0.00     0.167 HD
ATOM     36  C   UNL A   1      39.243  33.045  34.916  1.00  0.00     0.074 A 
ATOM     37  C   UNL A   1      38.147  33.968  34.692  1.00  0.00     0.031 C 
ATOM     38  C   UNL A   1      40.018  33.030  36.029  1.00  0.00     0.037 A 
BRANCH  25  39
ATOM     39  C   UNL A   1      44.347  28.596  36.164  1.00  0.00     0.058 A 
ATOM     40  C   UNL A   1      44.077  27.514  37.018  1.00  0.00     0.135 A 
ATOM     41  C   UNL A   1      45.690  28.979  36.006  1.00  0.00     0.135 A 
ATOM     42  F   UNL A   1      42.813  27.106  37.215  1.00  0.00    -0.206 F 
ATOM     43  C   UNL A   1      45.091  26.859  37.710  1.00  0.00     0.059 A 
ATOM     44  C   UNL A   1      46.724  28.322  36.670  1.00  0.00     0.059 A 
ATOM     45  F   UNL A   1      46.010  30.004  35.200  1.00  0.00    -0.206 F 
ATOM     46  C   UNL A   1      46.411  27.272  37.531  1.00  0.00     0.060 A 
BRANCH  46  47
ATOM     47  S   UNL A   1      47.707  26.424  38.461  1.00  0.00     0.124 S 
ATOM     48  O   UNL A   1      46.965  25.973  39.638  1.00  0.00    -0.237 OA
ATOM     49  O   UNL A   1      48.113  25.371  37.532  1.00  0.00    -0.237 OA
ATOM     50  O   UNL A   1      48.695  27.463  38.702  1.00  0.00    -0.744 OA
ENDBRANCH  46  47
ENDBRANCH  25  39
BRANCH  26  51
ATOM     51  C   UNL A   1      36.863  32.676  30.846  1.00  0.00     0.058 A 
ATOM     52  C   UNL A   1      35.534  32.271  31.036  1.00  0.00     0.135 A 
ATOM     53  C   UNL A   1      37.105  33.735  29.957  1.00  0.00     0.135 A 
ATOM     54  F   UNL A   1      35.254  31.265  31.879  1.00  0.00    -0.206 F 
ATOM     55  C   UNL A   1      34.482  32.902  30.383  1.00  0.00     0.059 A 
ATOM     56  C   UNL A   1      36.067  34.396  29.309  1.00  0.00     0.059 A 
ATOM     57  F   UNL A   1      38.358  34.176  29.763  1.00  0.00    -0.206 F 
ATOM     58  C   UNL A   1      34.757  33.973  29.530  1.00  0.00     0.060 A 
BRANCH  58  59
ATOM     59  S   UNL A   1      33.371  34.843  28.766  1.00  0.00     0.124 S 
ATOM     60  O   UNL A   1      34.047  35.958  28.113  1.00  0.00    -0.237 OA
ATOM     61  O   UNL A   1      32.824  33.821  27.879  1.00  0.00    -0.237 OA
ATOM     62  O   UNL A   1      32.526  35.195  29.902  1.00  0.00    -0.744 OA
ENDBRANCH  58  59
ENDBRANCH  26  51
BRANCH  38  63
ATOM     63  C   UNL A   1      39.688  34.018  37.113  1.00  0.00     0.058 A 
ATOM     64  C   UNL A   1      38.929  33.638  38.229  1.00  0.00     0.135 A 
ATOM     65  C   UNL A   1      40.224  35.315  37.089  1.00  0.00     0.135 A 
ATOM     66  F   UNL A   1      38.383  32.413  38.291  1.00  0.00    -0.206 F 
ATOM     67  C   UNL A   1      38.719  34.508  39.292  1.00  0.00     0.059 A 
ATOM     68  C   UNL A   1      40.048  36.194  38.153  1.00  0.00     0.059 A 
ATOM     69  F   UNL A   1      40.961  35.724  36.043  1.00  0.00    -0.206 F 
ATOM     70  C   UNL A   1      39.297  35.780  39.252  1.00  0.00     0.060 A 
BRANCH  70  71
ATOM     71  S   UNL A   1      39.090  36.859  40.683  1.00  0.00     0.124 S 
ATOM     72  O   UNL A   1      38.313  37.957  40.116  1.00  0.00    -0.237 OA
ATOM     73  O   UNL A   1      38.378  35.996  41.620  1.00  0.00    -0.237 OA
ATOM     74  O   UNL A   1      40.461  37.191  41.061  1.00  0.00    -0.744 OA
ENDBRANCH  70  71
ENDBRANCH  38  63
ENDBRANCH  12  13
ENDBRANCH   5   7
ENDBRANCH   4   5
ENDBRANCH   3   4
ENDBRANCH   2   3
ENDBRANCH   1   2
BRANCH   1  75
ATOM     75  C   UNL A   1      39.457  22.226  26.508  1.00  0.00     0.188 C 
BRANCH  75  76
ATOM     76  C   UNL A   1      38.168  21.915  25.737  1.00  0.00     0.188 C 
BRANCH  76  77
ATOM     77  O   UNL A   1      37.699  22.993  24.935  1.00  0.00    -0.376 OA
BRANCH  77  78
ATOM     78  C   UNL A   1      36.759  23.855  25.574  1.00  0.00     0.202 C 
BRANCH  78  79
ATOM     79  C   UNL A   1      35.449  23.191  26.025  1.00  0.00     0.261 C 
BRANCH  79  80
ATOM     80  O   UNL A   1      34.355  23.350  25.100  1.00  0.00    -0.460 OA
BRANCH  80  81
ATOM     81  C   UNL A   1      33.969  22.228  24.433  1.00  0.00     0.347 C 
ATOM     82  O   UNL A   1      33.418  22.249  23.338  1.00  0.00    -0.248 OA
BRANCH  81  83
ATOM     83  C   UNL A   1      34.273  20.961  25.239  1.00  0.00     0.287 C 
ATOM     84  C   UNL A   1      32.961  20.269  25.638  1.00  0.00     0.097 C 
ATOM     85  O   UNL A   1      35.121  20.013  24.542  1.00  0.00    -0.478 OA
ATOM     86  C   UNL A   1      33.300  18.862  25.351  1.00  0.00    -0.000 A 
ATOM     87  C   UNL A   1      34.544  18.790  24.755  1.00  0.00     0.124 A 
ATOM     88  C   UNL A   1      32.538  17.726  25.570  1.00  0.00     0.028 A 
ATOM     89  C   UNL A   1      35.102  17.576  24.395  1.00  0.00     0.048 A 
ATOM     90  C   UNL A   1      33.076  16.495  25.197  1.00  0.00     0.041 A 
ATOM     91  C   UNL A   1      34.357  16.413  24.627  1.00  0.00     0.024 A 
ATOM     92  Cl  UNL A   1      32.150  15.061  25.424  1.00  0.00    -0.084 Cl
ENDBRANCH  81  83
ENDBRANCH  80  81
ENDBRANCH  79  80
ENDBRANCH  78  79
ENDBRANCH  77  78
ENDBRANCH  76  77
ENDBRANCH  75  76
ENDBRANCH   1  75
TORSDOF 20
ENDMDL
MODEL 3
REMARK VINA RESULT:      -9.3      4.184      6.795
REMARK SMILES O=C(OCCOCCOCCOC(=O)[C@H]1Cc2cc(Cl)ccc2O1)c1ccc(-c2c3nc(c(-c4c(F)cc(S(=O)(=O)[O-])cc4F)c4ccc([nH]4)c(-c4c(F)cc(S(=O)(=O)[O-])cc4F)c4nc(c(-c5c(F)cc(S(=O)(=O)[O-])cc5F)c5ccc2[nH]5)C=C4)C=C3)cc1
REMARK SMILES IDX 6 1 5 2 4 3 3 4 2 5 1 6 25 7 26 8 90 9 27 10 89 11 28 12
REMARK SMILES IDX 29 13 30 14 83 15 31 16 88 17 82 18 84 19 32 20 87 21 81 22
REMARK SMILES IDX 80 23 33 25 67 26 46 27 66 28 47 29 50 30 65 31 85 32 48 33
REMARK SMILES IDX 49 34 64 36 86 37 51 38 34 39 35 40 44 41 36 42 37 43 43 44
REMARK SMILES IDX 45 45 38 46 39 47 40 48 41 49 42 50 68 51 69 52 78 53 70 54
REMARK SMILES IDX 71 55 77 56 79 57 72 58 73 59 74 60 75 61 76 62 52 63 53 64
REMARK SMILES IDX 62 65 54 66 55 67 61 68 63 69 56 70 57 71 58 72 59 73 60 74
REMARK SMILES IDX 7 75 8 76 9 77 10 78 11 79 12 80 13 81 14 82 15 83 16 84
REMARK SMILES IDX 24 85 17 86 23 87 18 88 22 89 19 90 21 91 20 92
REMARK H PARENT 84 24 50 35
REMARK Flexibility Score: inf
ROOT
ATOM      1  O   UNL A   1      32.798  29.271  24.603  1.00  0.00    -0.376 OA
ENDROOT
BRANCH   1   2
ATOM      2  C   UNL A   1      31.855  29.938  25.432  1.00  0.00     0.202 C 
BRANCH   2   3
ATOM      3  C   UNL A   1      32.349  30.270  26.838  1.00  0.00     0.261 C 
BRANCH   3   4
ATOM      4  O   UNL A   1      33.777  30.284  26.965  1.00  0.00    -0.460 OA
BRANCH   4   5
ATOM      5  C   UNL A   1      34.507  30.653  28.047  1.00  0.00     0.338 C 
ATOM      6  O   UNL A   1      34.117  31.615  28.710  1.00  0.00    -0.246 OA
BRANCH   5   7
ATOM      7  C   UNL A   1      35.863  30.088  28.361  1.00  0.00     0.060 A 
ATOM      8  C   UNL A   1      36.758  29.993  27.278  1.00  0.00     0.016 A 
ATOM      9  C   UNL A   1      36.314  29.676  29.618  1.00  0.00     0.016 A 
ATOM     10  C   UNL A   1      38.056  29.502  27.451  1.00  0.00     0.010 A 
ATOM     11  C   UNL A   1      37.602  29.165  29.794  1.00  0.00     0.010 A 
ATOM     12  C   UNL A   1      38.488  29.098  28.718  1.00  0.00    -0.014 A 
BRANCH  12  13
ATOM     13  C   UNL A   1      39.914  28.828  28.983  1.00  0.00     0.031 A 
ATOM     14  C   UNL A   1      40.821  29.864  29.562  1.00  0.00     0.074 A 
ATOM     15  C   UNL A   1      40.384  27.626  28.603  1.00  0.00     0.049 A 
ATOM     16  N   UNL A   1      42.069  29.741  29.930  1.00  0.00    -0.248 NA
ATOM     17  C   UNL A   1      40.269  31.216  29.736  1.00  0.00     0.031 C 
ATOM     18  C   UNL A   1      39.580  26.589  27.945  1.00  0.00     0.029 A 
ATOM     19  N   UNL A   1      41.630  27.071  28.698  1.00  0.00    -0.354 N 
ATOM     20  C   UNL A   1      42.450  30.986  30.410  1.00  0.00     0.074 A 
ATOM     21  C   UNL A   1      41.315  31.870  30.228  1.00  0.00     0.031 C 
ATOM     22  C   UNL A   1      40.350  25.517  27.717  1.00  0.00     0.029 A 
ATOM     23  C   UNL A   1      41.697  25.790  28.203  1.00  0.00     0.049 A 
ATOM     24  H   UNL A   1      42.404  27.543  29.082  1.00  0.00     0.167 HD
ATOM     25  C   UNL A   1      43.633  31.338  30.969  1.00  0.00     0.037 A 
ATOM     26  C   UNL A   1      42.726  24.925  28.165  1.00  0.00     0.037 A 
ATOM     27  C   UNL A   1      44.752  30.435  31.096  1.00  0.00     0.049 A 
ATOM     28  C   UNL A   1      44.031  25.339  28.775  1.00  0.00     0.074 A 
ATOM     29  C   UNL A   1      45.975  30.657  31.705  1.00  0.00     0.029 A 
ATOM     30  N   UNL A   1      44.794  29.146  30.578  1.00  0.00    -0.354 N 
ATOM     31  N   UNL A   1      44.337  26.474  29.361  1.00  0.00    -0.248 NA
ATOM     32  C   UNL A   1      45.128  24.365  28.733  1.00  0.00     0.031 C 
ATOM     33  C   UNL A   1      46.774  29.527  31.503  1.00  0.00     0.029 A 
ATOM     34  C   UNL A   1      46.035  28.577  30.813  1.00  0.00     0.049 A 
ATOM     35  H   UNL A   1      44.049  28.701  30.112  1.00  0.00     0.167 HD
ATOM     36  C   UNL A   1      45.659  26.350  29.762  1.00  0.00     0.074 A 
ATOM     37  C   UNL A   1      46.089  25.022  29.371  1.00  0.00     0.031 C 
ATOM     38  C   UNL A   1      46.446  27.257  30.394  1.00  0.00     0.037 A 
BRANCH  25  39
ATOM     39  C   UNL A   1      43.777  32.742  31.496  1.00  0.00     0.058 A 
ATOM     40  C   UNL A   1      43.434  33.063  32.819  1.00  0.00     0.135 A 
ATOM     41  C   UNL A   1      44.318  33.766  30.699  1.00  0.00     0.135 A 
ATOM     42  F   UNL A   1      42.906  32.130  33.627  1.00  0.00    -0.206 F 
ATOM     43  C   UNL A   1      43.590  34.350  33.323  1.00  0.00     0.059 A 
ATOM     44  C   UNL A   1      44.507  35.056  31.190  1.00  0.00     0.059 A 
ATOM     45  F   UNL A   1      44.669  33.518  29.427  1.00  0.00    -0.206 F 
ATOM     46  C   UNL A   1      44.126  35.341  32.500  1.00  0.00     0.060 A 
BRANCH  46  47
ATOM     47  S   UNL A   1      44.294  37.011  33.167  1.00  0.00     0.124 S 
ATOM     48  O   UNL A   1      43.139  37.079  34.062  1.00  0.00    -0.237 OA
ATOM     49  O   UNL A   1      45.598  36.949  33.825  1.00  0.00    -0.237 OA
ATOM     50  O   UNL A   1      44.225  37.861  31.990  1.00  0.00    -0.744 OA
ENDBRANCH  46  47
ENDBRANCH  25  39
BRANCH  26  51
ATOM     51  C   UNL A   1      42.506  23.573  27.591  1.00  0.00     0.058 A 
ATOM     52  C   UNL A   1      42.666  23.347  26.217  1.00  0.00     0.135 A 
ATOM     53  C   UNL A   1      42.254  22.464  28.414  1.00  0.00     0.135 A 
ATOM     54  F   UNL A   1      42.912  24.376  25.392  1.00  0.00    -0.206 F 
ATOM     55  C   UNL A   1      42.596  22.067  25.678  1.00  0.00     0.059 A 
ATOM     56  C   UNL A   1      42.200  21.172  27.901  1.00  0.00     0.059 A 
ATOM     57  F   UNL A   1      42.119  22.627  29.740  1.00  0.00    -0.206 F 
ATOM     58  C   UNL A   1      42.376  20.983  26.531  1.00  0.00     0.060 A 
BRANCH  58  59
ATOM     59  S   UNL A   1      42.384  19.319  25.828  1.00  0.00     0.124 S 
ATOM     60  O   UNL A   1      40.973  19.124  25.518  1.00  0.00    -0.237 OA
ATOM     61  O   UNL A   1      43.273  19.478  24.682  1.00  0.00    -0.237 OA
ATOM     62  O   UNL A   1      42.912  18.497  26.912  1.00  0.00    -0.744 OA
ENDBRANCH  58  59
ENDBRANCH  26  51
BRANCH  38  63
ATOM     63  C   UNL A   1      47.868  26.862  30.671  1.00  0.00     0.058 A 
ATOM     64  C   UNL A   1      48.905  27.242  29.808  1.00  0.00     0.135 A 
ATOM     65  C   UNL A   1      48.209  26.196  31.859  1.00  0.00     0.135 A 
ATOM     66  F   UNL A   1      48.628  27.868  28.652  1.00  0.00    -0.206 F 
ATOM     67  C   UNL A   1      50.236  26.985  30.116  1.00  0.00     0.059 A 
ATOM     68  C   UNL A   1      49.536  25.950  32.200  1.00  0.00     0.059 A 
ATOM     69  F   UNL A   1      47.252  25.814  32.720  1.00  0.00    -0.206 F 
ATOM     70  C   UNL A   1      50.542  26.352  31.323  1.00  0.00     0.060 A 
BRANCH  70  71
ATOM     71  S   UNL A   1      52.279  26.111  31.747  1.00  0.00     0.124 S 
ATOM     72  O   UNL A   1      52.243  24.820  32.424  1.00  0.00    -0.237 OA
ATOM     73  O   UNL A   1      52.921  26.122  30.436  1.00  0.00    -0.237 OA
ATOM     74  O   UNL A   1      52.585  27.257  32.598  1.00  0.00    -0.744 OA
ENDBRANCH  70  71
ENDBRANCH  38  63
ENDBRANCH  12  13
ENDBRANCH   5   7
ENDBRANCH   4   5
ENDBRANCH   3   4
ENDBRANCH   2   3
ENDBRANCH   1   2
BRANCH   1  75
ATOM     75  C   UNL A   1      32.381  29.012  23.261  1.00  0.00     0.188 C 
BRANCH  75  76
ATOM     76  C   UNL A   1      31.728  27.650  22.993  1.00  0.00     0.188 C 
BRANCH  76  77
ATOM     77  O   UNL A   1      30.488  27.460  23.666  1.00  0.00    -0.376 OA
BRANCH  77  78
ATOM     78  C   UNL A   1      30.448  26.340  24.549  1.00  0.00     0.202 C 
BRANCH  78  79
ATOM     79  C   UNL A   1      30.753  26.646  26.024  1.00  0.00     0.261 C 
BRANCH  79  80
ATOM     80  O   UNL A   1      31.923  25.979  26.537  1.00  0.00    -0.460 OA
BRANCH  80  81
ATOM     81  C   UNL A   1      31.919  24.621  26.459  1.00  0.00     0.347 C 
ATOM     82  O   UNL A   1      31.162  23.909  27.111  1.00  0.00    -0.248 OA
BRANCH  81  83
ATOM     83  C   UNL A   1      32.993  24.108  25.496  1.00  0.00     0.287 C 
ATOM     84  C   UNL A   1      34.350  24.739  25.843  1.00  0.00     0.097 C 
ATOM     85  O   UNL A   1      33.127  22.664  25.482  1.00  0.00    -0.478 OA
ATOM     86  C   UNL A   1      35.231  23.560  25.737  1.00  0.00    -0.000 A 
ATOM     87  C   UNL A   1      34.475  22.427  25.507  1.00  0.00     0.124 A 
ATOM     88  C   UNL A   1      36.609  23.494  25.872  1.00  0.00     0.028 A 
ATOM     89  C   UNL A   1      35.065  21.185  25.356  1.00  0.00     0.048 A 
ATOM     90  C   UNL A   1      37.220  22.247  25.739  1.00  0.00     0.041 A 
ATOM     91  C   UNL A   1      36.459  21.099  25.468  1.00  0.00     0.024 A 
ATOM     92  Cl  UNL A   1      38.926  22.116  25.931  1.00  0.00    -0.084 Cl
ENDBRANCH  81  83
ENDBRANCH  80  81
ENDBRANCH  79  80
ENDBRANCH  78  79
ENDBRANCH  77  78
ENDBRANCH  76  77
ENDBRANCH  75  76
ENDBRANCH   1  75
TORSDOF 20
ENDMDL
