MODEL 1
REMARK VINA RESULT:     -10.4      0.000      0.000
REMARK SMILES Nc1nc(Nc2ccc(C(=O)OCCOCCOCCOC(=O)c3ccc(-c4c5nc(c(-c6c(F)cc(S(=O)(=O)[O-])cc6F)c6ccc([nH]6)c(-c6c(F)cc(S(=O)(=O)[O-])cc6F)c6nc(c(-c7c(F)cc(S(=O)(=O)[O-])cc7F)c7ccc4[nH]7)C=C6)C=C5)cc3)cc2)ccc1[N+](=O)[O-]
REMARK SMILES IDX 16 1 15 2 14 3 13 4 12 5 10 6 11 7 9 8 6 9 7 10 91 11 8 12
REMARK SMILES IDX 90 13 5 14 4 16 2 17 3 18 94 19 93 20 92 21 1 22 95 25 96 26
REMARK SMILES IDX 97 27 17 28 18 29 19 30 20 31 21 32 22 33 23 34 24 35 25 36
REMARK SMILES IDX 89 37 26 38 88 39 27 40 28 41 29 42 82 43 30 44 87 45 81 46
REMARK SMILES IDX 83 47 31 48 86 49 80 50 79 51 32 53 66 54 45 55 65 56 46 57
REMARK SMILES IDX 49 58 64 59 84 60 47 61 48 62 63 64 85 65 50 66 33 67 34 68
REMARK SMILES IDX 43 69 35 70 36 71 42 72 44 73 37 74 38 75 39 76 40 77 41 78
REMARK SMILES IDX 67 79 68 80 77 81 69 82 70 83 76 84 78 85 71 86 72 87 73 88
REMARK SMILES IDX 74 89 75 90 51 91 52 92 61 93 53 94 54 95 60 96 62 97 55 98
REMARK SMILES IDX 56 99 57 100 58 101 59 102
REMARK H PARENT 5 15 1 23 1 24 83 52 49 63
REMARK Flexibility Score: inf
ROOT
ATOM      1  C   UNL A   1      34.728  29.861  27.407  1.00  0.00     0.188 C 
ENDROOT
BRANCH   1   2
ATOM      2  O   UNL A   1      34.136  28.877  26.586  1.00  0.00    -0.376 OA
BRANCH   2   3
ATOM      3  C   UNL A   1      33.177  27.969  27.099  1.00  0.00     0.202 C 
BRANCH   3   4
ATOM      4  C   UNL A   1      31.710  27.913  26.651  1.00  0.00     0.261 C 
BRANCH   4   5
ATOM      5  O   UNL A   1      31.048  26.662  26.834  1.00  0.00    -0.460 OA
BRANCH   5   6
ATOM      6  C   UNL A   1      30.744  26.015  25.675  1.00  0.00     0.338 C 
ATOM      7  O   UNL A   1      29.962  26.370  24.824  1.00  0.00    -0.246 OA
BRANCH   6   8
ATOM      8  C   UNL A   1      31.647  24.856  25.504  1.00  0.00     0.060 A 
ATOM      9  C   UNL A   1      33.531  22.800  25.306  1.00  0.00     0.040 A 
ATOM     10  C   UNL A   1      33.038  23.182  26.560  1.00  0.00     0.027 A 
ATOM     11  C   UNL A   1      33.008  23.406  24.153  1.00  0.00     0.027 A 
ATOM     12  C   UNL A   1      32.110  24.218  26.660  1.00  0.00     0.018 A 
ATOM     13  C   UNL A   1      32.059  24.425  24.243  1.00  0.00     0.018 A 
BRANCH   9  14
ATOM     14  N   UNL A   1      34.697  22.004  25.239  1.00  0.00    -0.340 N 
ATOM     15  H   UNL A   1      35.570  22.431  25.394  1.00  0.00     0.168 HD
BRANCH  14  16
ATOM     16  C   UNL A   1      34.659  20.622  24.960  1.00  0.00     0.133 A 
ATOM     17  C   UNL A   1      33.403  18.733  24.352  1.00  0.00     0.204 A 
ATOM     18  N   UNL A   1      33.471  20.037  24.675  1.00  0.00    -0.207 NA
ATOM     19  C   UNL A   1      34.546  17.947  24.331  1.00  0.00     0.311 A 
ATOM     20  C   UNL A   1      35.779  18.525  24.661  1.00  0.00     0.093 A 
ATOM     21  C   UNL A   1      35.831  19.879  24.989  1.00  0.00     0.054 A 
BRANCH  17  22
ATOM     22  N   UNL A   1      32.114  18.289  24.152  1.00  0.00    -0.378 N 
ATOM     23  H   UNL A   1      31.708  17.654  24.786  1.00  0.00     0.158 HD
ATOM     24  H   UNL A   1      31.599  18.605  23.374  1.00  0.00     0.158 HD
ENDBRANCH  17  22
BRANCH  19  25
ATOM     25  N   UNL A   1      34.492  16.542  23.952  1.00  0.00     0.066 N 
ATOM     26  O   UNL A   1      34.093  16.276  22.808  1.00  0.00    -0.258 OA
ATOM     27  O   UNL A   1      34.811  15.687  24.792  1.00  0.00    -0.258 OA
ENDBRANCH  19  25
ENDBRANCH  14  16
ENDBRANCH   9  14
ENDBRANCH   6   8
ENDBRANCH   5   6
ENDBRANCH   4   5
ENDBRANCH   3   4
ENDBRANCH   2   3
ENDBRANCH   1   2
BRANCH   1  28
ATOM     28  C   UNL A   1      34.000  31.197  27.661  1.00  0.00     0.188 C 
BRANCH  28  29
ATOM     29  O   UNL A   1      34.693  32.425  27.580  1.00  0.00    -0.376 OA
BRANCH  29  30
ATOM     30  C   UNL A   1      34.631  33.355  28.647  1.00  0.00     0.202 C 
BRANCH  30  31
ATOM     31  C   UNL A   1      35.288  33.142  30.019  1.00  0.00     0.261 C 
BRANCH  31  32
ATOM     32  O   UNL A   1      36.603  32.583  30.026  1.00  0.00    -0.460 OA
BRANCH  32  33
ATOM     33  C   UNL A   1      36.728  31.428  30.728  1.00  0.00     0.338 C 
ATOM     34  O   UNL A   1      35.937  30.957  31.525  1.00  0.00    -0.246 OA
BRANCH  33  35
ATOM     35  C   UNL A   1      37.924  30.707  30.258  1.00  0.00     0.060 A 
ATOM     36  C   UNL A   1      38.820  30.207  31.211  1.00  0.00     0.016 A 
ATOM     37  C   UNL A   1      38.185  30.574  28.894  1.00  0.00     0.016 A 
ATOM     38  C   UNL A   1      39.999  29.586  30.799  1.00  0.00     0.010 A 
ATOM     39  C   UNL A   1      39.377  29.972  28.484  1.00  0.00     0.010 A 
ATOM     40  C   UNL A   1      40.301  29.499  29.434  1.00  0.00    -0.014 A 
BRANCH  40  41
ATOM     41  C   UNL A   1      41.652  29.070  29.003  1.00  0.00     0.031 A 
ATOM     42  C   UNL A   1      42.752  30.096  28.957  1.00  0.00     0.074 A 
ATOM     43  C   UNL A   1      41.901  27.791  28.668  1.00  0.00     0.049 A 
ATOM     44  N   UNL A   1      43.989  29.968  28.554  1.00  0.00    -0.248 NA
ATOM     45  C   UNL A   1      42.409  31.447  29.431  1.00  0.00     0.031 C 
ATOM     46  C   UNL A   1      40.928  26.701  28.711  1.00  0.00     0.029 A 
ATOM     47  N   UNL A   1      43.052  27.199  28.211  1.00  0.00    -0.354 N 
ATOM     48  C   UNL A   1      44.570  31.220  28.718  1.00  0.00     0.074 A 
ATOM     49  C   UNL A   1      43.544  32.101  29.232  1.00  0.00     0.031 C 
ATOM     50  C   UNL A   1      41.520  25.572  28.280  1.00  0.00     0.029 A 
ATOM     51  C   UNL A   1      42.901  25.869  27.899  1.00  0.00     0.049 A 
ATOM     52  H   UNL A   1      43.905  27.681  28.116  1.00  0.00     0.167 HD
ATOM     53  C   UNL A   1      45.845  31.599  28.469  1.00  0.00     0.037 A 
ATOM     54  C   UNL A   1      43.770  25.000  27.344  1.00  0.00     0.037 A 
ATOM     55  C   UNL A   1      46.861  30.720  27.951  1.00  0.00     0.049 A 
ATOM     56  C   UNL A   1      45.164  25.466  27.003  1.00  0.00     0.074 A 
ATOM     57  C   UNL A   1      48.186  31.007  27.672  1.00  0.00     0.029 A 
ATOM     58  N   UNL A   1      46.665  29.387  27.624  1.00  0.00    -0.354 N 
ATOM     59  N   UNL A   1      45.708  26.647  27.182  1.00  0.00    -0.248 NA
ATOM     60  C   UNL A   1      46.063  24.481  26.385  1.00  0.00     0.031 C 
ATOM     61  C   UNL A   1      48.777  29.861  27.132  1.00  0.00     0.029 A 
ATOM     62  C   UNL A   1      47.837  28.843  27.127  1.00  0.00     0.049 A 
ATOM     63  H   UNL A   1      45.816  28.899  27.731  1.00  0.00     0.167 HD
ATOM     64  C   UNL A   1      47.020  26.536  26.729  1.00  0.00     0.074 A 
ATOM     65  C   UNL A   1      47.191  25.170  26.277  1.00  0.00     0.031 C 
ATOM     66  C   UNL A   1      47.997  27.477  26.693  1.00  0.00     0.037 A 
BRANCH  53  67
ATOM     67  C   UNL A   1      46.210  33.033  28.733  1.00  0.00     0.058 A 
ATOM     68  C   UNL A   1      46.761  33.441  29.958  1.00  0.00     0.135 A 
ATOM     69  C   UNL A   1      46.041  34.006  27.735  1.00  0.00     0.135 A 
ATOM     70  F   UNL A   1      46.924  32.556  30.955  1.00  0.00    -0.206 F 
ATOM     71  C   UNL A   1      47.110  34.767  30.192  1.00  0.00     0.059 A 
ATOM     72  C   UNL A   1      46.409  35.333  27.937  1.00  0.00     0.059 A 
ATOM     73  F   UNL A   1      45.515  33.670  26.546  1.00  0.00    -0.206 F 
ATOM     74  C   UNL A   1      46.932  35.706  29.174  1.00  0.00     0.060 A 
BRANCH  74  75
ATOM     75  S   UNL A   1      47.404  37.419  29.489  1.00  0.00     0.124 S 
ATOM     76  O   UNL A   1      47.538  37.421  30.943  1.00  0.00    -0.237 OA
ATOM     77  O   UNL A   1      48.650  37.541  28.738  1.00  0.00    -0.237 OA
ATOM     78  O   UNL A   1      46.281  38.185  28.961  1.00  0.00    -0.744 OA
ENDBRANCH  74  75
ENDBRANCH  53  67
BRANCH  54  79
ATOM     79  C   UNL A   1      43.351  23.601  27.059  1.00  0.00     0.058 A 
ATOM     80  C   UNL A   1      43.045  23.188  25.754  1.00  0.00     0.135 A 
ATOM     81  C   UNL A   1      43.226  22.655  28.089  1.00  0.00     0.135 A 
ATOM     82  F   UNL A   1      43.137  24.058  24.737  1.00  0.00    -0.206 F 
ATOM     83  C   UNL A   1      42.611  21.894  25.481  1.00  0.00     0.059 A 
ATOM     84  C   UNL A   1      42.820  21.349  27.837  1.00  0.00     0.059 A 
ATOM     85  F   UNL A   1      43.513  22.997  29.355  1.00  0.00    -0.206 F 
ATOM     86  C   UNL A   1      42.501  20.981  26.531  1.00  0.00     0.060 A 
BRANCH  86  87
ATOM     87  S   UNL A   1      41.968  19.296  26.160  1.00  0.00     0.124 S 
ATOM     88  O   UNL A   1      42.337  18.596  27.384  1.00  0.00    -0.237 OA
ATOM     89  O   UNL A   1      40.537  19.473  25.931  1.00  0.00    -0.237 OA
ATOM     90  O   UNL A   1      42.747  18.951  24.975  1.00  0.00    -0.744 OA
ENDBRANCH  86  87
ENDBRANCH  54  79
BRANCH  66  91
ATOM     91  C   UNL A   1      49.354  27.058  26.195  1.00  0.00     0.058 A 
ATOM     92  C   UNL A   1      50.304  26.465  27.039  1.00  0.00     0.135 A 
ATOM     93  C   UNL A   1      49.685  27.202  24.836  1.00  0.00     0.135 A 
ATOM     94  F   UNL A   1      50.042  26.309  28.348  1.00  0.00    -0.206 F 
ATOM     95  C   UNL A   1      51.543  26.048  26.562  1.00  0.00     0.059 A 
ATOM     96  C   UNL A   1      50.905  26.767  24.331  1.00  0.00     0.059 A 
ATOM     97  F   UNL A   1      48.808  27.752  23.982  1.00  0.00    -0.206 F 
ATOM     98  C   UNL A   1      51.833  26.202  25.204  1.00  0.00     0.060 A 
BRANCH  98  99
ATOM     99  S   UNL A   1      53.431  25.626  24.589  1.00  0.00     0.124 S 
ATOM    100  O   UNL A   1      54.329  26.659  25.093  1.00  0.00    -0.237 OA
ATOM    101  O   UNL A   1      53.554  24.315  25.219  1.00  0.00    -0.237 OA
ATOM    102  O   UNL A   1      53.249  25.603  23.140  1.00  0.00    -0.744 OA
ENDBRANCH  98  99
ENDBRANCH  66  91
ENDBRANCH  40  41
ENDBRANCH  33  35
ENDBRANCH  32  33
ENDBRANCH  31  32
ENDBRANCH  30  31
ENDBRANCH  29  30
ENDBRANCH  28  29
ENDBRANCH   1  28
TORSDOF 24
ENDMDL
MODEL 2
REMARK VINA RESULT:     -10.2      1.394      8.250
REMARK SMILES Nc1nc(Nc2ccc(C(=O)OCCOCCOCCOC(=O)c3ccc(-c4c5nc(c(-c6c(F)cc(S(=O)(=O)[O-])cc6F)c6ccc([nH]6)c(-c6c(F)cc(S(=O)(=O)[O-])cc6F)c6nc(c(-c7c(F)cc(S(=O)(=O)[O-])cc7F)c7ccc4[nH]7)C=C6)C=C5)cc3)cc2)ccc1[N+](=O)[O-]
REMARK SMILES IDX 16 1 15 2 14 3 13 4 12 5 10 6 11 7 9 8 6 9 7 10 91 11 8 12
REMARK SMILES IDX 90 13 5 14 4 16 2 17 3 18 94 19 93 20 92 21 1 22 95 25 96 26
REMARK SMILES IDX 97 27 17 28 18 29 19 30 20 31 21 32 22 33 23 34 24 35 25 36
REMARK SMILES IDX 89 37 26 38 88 39 27 40 28 41 29 42 82 43 30 44 87 45 81 46
REMARK SMILES IDX 83 47 31 48 86 49 80 50 79 51 32 53 66 54 45 55 65 56 46 57
REMARK SMILES IDX 49 58 64 59 84 60 47 61 48 62 63 64 85 65 50 66 33 67 34 68
REMARK SMILES IDX 43 69 35 70 36 71 42 72 44 73 37 74 38 75 39 76 40 77 41 78
REMARK SMILES IDX 67 79 68 80 77 81 69 82 70 83 76 84 78 85 71 86 72 87 73 88
REMARK SMILES IDX 74 89 75 90 51 91 52 92 61 93 53 94 54 95 60 96 62 97 55 98
REMARK SMILES IDX 56 99 57 100 58 101 59 102
REMARK H PARENT 5 15 1 23 1 24 83 52 49 63
REMARK Flexibility Score: inf
ROOT
ATOM      1  C   UNL A   1      33.511  29.035  26.745  1.00  0.00     0.188 C 
ENDROOT
BRANCH   1   2
ATOM      2  O   UNL A   1      32.812  28.702  25.565  1.00  0.00    -0.376 OA
BRANCH   2   3
ATOM      3  C   UNL A   1      31.629  29.388  25.191  1.00  0.00     0.202 C 
BRANCH   3   4
ATOM      4  C   UNL A   1      30.861  29.144  23.886  1.00  0.00     0.261 C 
BRANCH   4   5
ATOM      5  O   UNL A   1      30.849  27.798  23.409  1.00  0.00    -0.460 OA
BRANCH   5   6
ATOM      6  C   UNL A   1      29.716  27.107  23.711  1.00  0.00     0.338 C 
ATOM      7  O   UNL A   1      28.579  27.412  23.435  1.00  0.00    -0.246 OA
BRANCH   6   8
ATOM      8  C   UNL A   1      30.077  25.801  24.304  1.00  0.00     0.060 A 
ATOM      9  C   UNL A   1      30.951  23.452  25.542  1.00  0.00     0.040 A 
ATOM     10  C   UNL A   1      30.454  24.509  26.314  1.00  0.00     0.027 A 
ATOM     11  C   UNL A   1      30.928  23.558  24.142  1.00  0.00     0.027 A 
ATOM     12  C   UNL A   1      30.032  25.687  25.698  1.00  0.00     0.018 A 
ATOM     13  C   UNL A   1      30.482  24.724  23.517  1.00  0.00     0.018 A 
BRANCH   9  14
ATOM     14  N   UNL A   1      31.679  22.420  26.176  1.00  0.00    -0.340 N 
ATOM     15  H   UNL A   1      31.195  21.785  26.752  1.00  0.00     0.168 HD
BRANCH  14  16
ATOM     16  C   UNL A   1      33.072  22.263  26.016  1.00  0.00     0.133 A 
ATOM     17  C   UNL A   1      34.875  20.897  25.385  1.00  0.00     0.204 A 
ATOM     18  N   UNL A   1      33.559  21.069  25.600  1.00  0.00    -0.207 NA
ATOM     19  C   UNL A   1      35.772  21.931  25.612  1.00  0.00     0.311 A 
ATOM     20  C   UNL A   1      35.291  23.162  26.080  1.00  0.00     0.093 A 
ATOM     21  C   UNL A   1      33.923  23.323  26.293  1.00  0.00     0.054 A 
BRANCH  17  22
ATOM     22  N   UNL A   1      35.204  19.608  25.025  1.00  0.00    -0.378 N 
ATOM     23  H   UNL A   1      36.128  19.287  25.135  1.00  0.00     0.158 HD
ATOM     24  H   UNL A   1      34.515  19.009  24.656  1.00  0.00     0.158 HD
ENDBRANCH  17  22
BRANCH  19  25
ATOM     25  N   UNL A   1      37.195  21.770  25.353  1.00  0.00     0.066 N 
ATOM     26  O   UNL A   1      37.521  21.119  24.348  1.00  0.00    -0.258 OA
ATOM     27  O   UNL A   1      38.005  22.256  26.157  1.00  0.00    -0.258 OA
ENDBRANCH  19  25
ENDBRANCH  14  16
ENDBRANCH   9  14
ENDBRANCH   6   8
ENDBRANCH   5   6
ENDBRANCH   4   5
ENDBRANCH   3   4
ENDBRANCH   2   3
ENDBRANCH   1   2
BRANCH   1  28
ATOM     28  C   UNL A   1      33.450  30.472  27.302  1.00  0.00     0.188 C 
BRANCH  28  29
ATOM     29  O   UNL A   1      34.633  31.196  27.566  1.00  0.00    -0.376 OA
BRANCH  29  30
ATOM     30  C   UNL A   1      34.606  32.332  28.411  1.00  0.00     0.202 C 
BRANCH  30  31
ATOM     31  C   UNL A   1      35.060  32.328  29.879  1.00  0.00     0.261 C 
BRANCH  31  32
ATOM     32  O   UNL A   1      36.439  32.045  30.127  1.00  0.00    -0.460 OA
BRANCH  32  33
ATOM     33  C   UNL A   1      36.676  30.859  30.743  1.00  0.00     0.338 C 
ATOM     34  O   UNL A   1      35.937  30.260  31.503  1.00  0.00    -0.246 OA
BRANCH  33  35
ATOM     35  C   UNL A   1      37.930  30.289  30.221  1.00  0.00     0.060 A 
ATOM     36  C   UNL A   1      38.910  29.881  31.136  1.00  0.00     0.016 A 
ATOM     37  C   UNL A   1      38.159  30.209  28.848  1.00  0.00     0.016 A 
ATOM     38  C   UNL A   1      40.137  29.408  30.675  1.00  0.00     0.010 A 
ATOM     39  C   UNL A   1      39.397  29.755  28.389  1.00  0.00     0.010 A 
ATOM     40  C   UNL A   1      40.401  29.378  29.300  1.00  0.00    -0.014 A 
BRANCH  40  41
ATOM     41  C   UNL A   1      41.778  29.115  28.818  1.00  0.00     0.031 A 
ATOM     42  C   UNL A   1      42.128  27.722  28.368  1.00  0.00     0.074 A 
ATOM     43  C   UNL A   1      42.697  30.096  28.772  1.00  0.00     0.049 A 
ATOM     44  N   UNL A   1      43.278  27.244  27.970  1.00  0.00    -0.248 NA
ATOM     45  C   UNL A   1      41.033  26.738  28.366  1.00  0.00     0.031 C 
ATOM     46  C   UNL A   1      42.465  31.490  29.144  1.00  0.00     0.029 A 
ATOM     47  N   UNL A   1      44.019  30.060  28.404  1.00  0.00    -0.354 N 
ATOM     48  C   UNL A   1      43.048  25.905  27.678  1.00  0.00     0.074 A 
ATOM     49  C   UNL A   1      41.657  25.639  27.968  1.00  0.00     0.031 C 
ATOM     50  C   UNL A   1      43.614  32.176  29.000  1.00  0.00     0.029 A 
ATOM     51  C   UNL A   1      44.667  31.261  28.560  1.00  0.00     0.049 A 
ATOM     52  H   UNL A   1      44.461  29.250  28.060  1.00  0.00     0.167 HD
ATOM     53  C   UNL A   1      43.918  24.982  27.203  1.00  0.00     0.037 A 
ATOM     54  C   UNL A   1      45.968  31.577  28.394  1.00  0.00     0.037 A 
ATOM     55  C   UNL A   1      45.304  25.250  26.922  1.00  0.00     0.049 A 
ATOM     56  C   UNL A   1      46.935  30.512  27.938  1.00  0.00     0.074 A 
ATOM     57  C   UNL A   1      46.265  24.384  26.430  1.00  0.00     0.029 A 
ATOM     58  N   UNL A   1      45.930  26.472  27.116  1.00  0.00    -0.354 N 
ATOM     59  N   UNL A   1      46.702  29.255  27.644  1.00  0.00    -0.248 NA
ATOM     60  C   UNL A   1      48.342  30.910  27.790  1.00  0.00     0.031 C 
ATOM     61  C   UNL A   1      47.482  25.069  26.372  1.00  0.00     0.029 A 
ATOM     62  C   UNL A   1      47.269  26.377  26.774  1.00  0.00     0.049 A 
ATOM     63  H   UNL A   1      45.488  27.287  27.447  1.00  0.00     0.167 HD
ATOM     64  C   UNL A   1      47.924  28.722  27.247  1.00  0.00     0.074 A 
ATOM     65  C   UNL A   1      48.893  29.796  27.328  1.00  0.00     0.031 C 
ATOM     66  C   UNL A   1      48.220  27.460  26.847  1.00  0.00     0.037 A 
BRANCH  53  67
ATOM     67  C   UNL A   1      43.400  23.589  26.978  1.00  0.00     0.058 A 
ATOM     68  C   UNL A   1      43.061  23.126  25.696  1.00  0.00     0.135 A 
ATOM     69  C   UNL A   1      43.277  22.693  28.052  1.00  0.00     0.135 A 
ATOM     70  F   UNL A   1      43.140  23.947  24.637  1.00  0.00    -0.206 F 
ATOM     71  C   UNL A   1      42.597  21.831  25.492  1.00  0.00     0.059 A 
ATOM     72  C   UNL A   1      42.841  21.385  27.867  1.00  0.00     0.059 A 
ATOM     73  F   UNL A   1      43.584  23.086  29.298  1.00  0.00    -0.206 F 
ATOM     74  C   UNL A   1      42.493  20.966  26.583  1.00  0.00     0.060 A 
BRANCH  74  75
ATOM     75  S   UNL A   1      41.903  19.285  26.298  1.00  0.00     0.124 S 
ATOM     76  O   UNL A   1      40.545  19.530  25.820  1.00  0.00    -0.237 OA
ATOM     77  O   UNL A   1      42.845  18.790  25.300  1.00  0.00    -0.237 OA
ATOM     78  O   UNL A   1      42.002  18.661  27.613  1.00  0.00    -0.744 OA
ENDBRANCH  74  75
ENDBRANCH  53  67
BRANCH  54  79
ATOM     79  C   UNL A   1      46.443  32.960  28.672  1.00  0.00     0.058 A 
ATOM     80  C   UNL A   1      46.882  33.332  29.952  1.00  0.00     0.135 A 
ATOM     81  C   UNL A   1      46.448  33.943  27.670  1.00  0.00     0.135 A 
ATOM     82  F   UNL A   1      46.885  32.431  30.947  1.00  0.00    -0.206 F 
ATOM     83  C   UNL A   1      47.288  34.632  30.235  1.00  0.00     0.059 A 
ATOM     84  C   UNL A   1      46.876  35.242  27.921  1.00  0.00     0.059 A 
ATOM     85  F   UNL A   1      46.045  33.638  26.426  1.00  0.00    -0.206 F 
ATOM     86  C   UNL A   1      47.281  35.581  29.211  1.00  0.00     0.060 A 
BRANCH  86  87
ATOM     87  S   UNL A   1      47.841  37.258  29.582  1.00  0.00     0.124 S 
ATOM     88  O   UNL A   1      46.978  37.613  30.702  1.00  0.00    -0.237 OA
ATOM     89  O   UNL A   1      49.249  37.044  29.903  1.00  0.00    -0.237 OA
ATOM     90  O   UNL A   1      47.591  37.978  28.337  1.00  0.00    -0.744 OA
ENDBRANCH  86  87
ENDBRANCH  54  79
BRANCH  66  91
ATOM     91  C   UNL A   1      49.634  27.174  26.419  1.00  0.00     0.058 A 
ATOM     92  C   UNL A   1      50.623  26.787  27.336  1.00  0.00     0.135 A 
ATOM     93  C   UNL A   1      49.989  27.232  25.060  1.00  0.00     0.135 A 
ATOM     94  F   UNL A   1      50.340  26.721  28.647  1.00  0.00    -0.206 F 
ATOM     95  C   UNL A   1      51.920  26.490  26.926  1.00  0.00     0.059 A 
ATOM     96  C   UNL A   1      51.270  26.912  24.624  1.00  0.00     0.059 A 
ATOM     97  F   UNL A   1      49.078  27.585  24.139  1.00  0.00    -0.206 F 
ATOM     98  C   UNL A   1      52.233  26.553  25.566  1.00  0.00     0.060 A 
BRANCH  98  99
ATOM     99  S   UNL A   1      53.909  26.132  25.042  1.00  0.00     0.124 S 
ATOM    100  O   UNL A   1      54.180  27.175  24.059  1.00  0.00    -0.237 OA
ATOM    101  O   UNL A   1      54.659  26.226  26.291  1.00  0.00    -0.237 OA
ATOM    102  O   UNL A   1      53.768  24.782  24.504  1.00  0.00    -0.744 OA
ENDBRANCH  98  99
ENDBRANCH  66  91
ENDBRANCH  40  41
ENDBRANCH  33  35
ENDBRANCH  32  33
ENDBRANCH  31  32
ENDBRANCH  30  31
ENDBRANCH  29  30
ENDBRANCH  28  29
ENDBRANCH   1  28
TORSDOF 24
ENDMDL
MODEL 3
REMARK VINA RESULT:     -10.0      1.371      2.286
REMARK SMILES Nc1nc(Nc2ccc(C(=O)OCCOCCOCCOC(=O)c3ccc(-c4c5nc(c(-c6c(F)cc(S(=O)(=O)[O-])cc6F)c6ccc([nH]6)c(-c6c(F)cc(S(=O)(=O)[O-])cc6F)c6nc(c(-c7c(F)cc(S(=O)(=O)[O-])cc7F)c7ccc4[nH]7)C=C6)C=C5)cc3)cc2)ccc1[N+](=O)[O-]
REMARK SMILES IDX 16 1 15 2 14 3 13 4 12 5 10 6 11 7 9 8 6 9 7 10 91 11 8 12
REMARK SMILES IDX 90 13 5 14 4 16 2 17 3 18 94 19 93 20 92 21 1 22 95 25 96 26
REMARK SMILES IDX 97 27 17 28 18 29 19 30 20 31 21 32 22 33 23 34 24 35 25 36
REMARK SMILES IDX 89 37 26 38 88 39 27 40 28 41 29 42 82 43 30 44 87 45 81 46
REMARK SMILES IDX 83 47 31 48 86 49 80 50 79 51 32 53 66 54 45 55 65 56 46 57
REMARK SMILES IDX 49 58 64 59 84 60 47 61 48 62 63 64 85 65 50 66 33 67 34 68
REMARK SMILES IDX 43 69 35 70 36 71 42 72 44 73 37 74 38 75 39 76 40 77 41 78
REMARK SMILES IDX 67 79 68 80 77 81 69 82 70 83 76 84 78 85 71 86 72 87 73 88
REMARK SMILES IDX 74 89 75 90 51 91 52 92 61 93 53 94 54 95 60 96 62 97 55 98
REMARK SMILES IDX 56 99 57 100 58 101 59 102
REMARK H PARENT 5 15 1 23 1 24 83 52 49 63
REMARK Flexibility Score: inf
ROOT
ATOM      1  C   UNL A   1      33.235  29.023  26.260  1.00  0.00     0.188 C 
ENDROOT
BRANCH   1   2
ATOM      2  O   UNL A   1      32.586  29.255  25.029  1.00  0.00    -0.376 OA
BRANCH   2   3
ATOM      3  C   UNL A   1      31.395  30.020  24.957  1.00  0.00     0.202 C 
BRANCH   3   4
ATOM      4  C   UNL A   1      30.276  29.789  23.934  1.00  0.00     0.261 C 
BRANCH   4   5
ATOM      5  O   UNL A   1      30.374  28.595  23.158  1.00  0.00    -0.460 OA
BRANCH   5   6
ATOM      6  C   UNL A   1      29.512  27.611  23.533  1.00  0.00     0.338 C 
ATOM      7  O   UNL A   1      28.306  27.624  23.445  1.00  0.00    -0.246 OA
BRANCH   6   8
ATOM      8  C   UNL A   1      30.276  26.409  23.931  1.00  0.00     0.060 A 
ATOM      9  C   UNL A   1      31.517  23.999  24.617  1.00  0.00     0.040 A 
ATOM     10  C   UNL A   1      31.174  24.257  23.285  1.00  0.00     0.027 A 
ATOM     11  C   UNL A   1      31.303  24.996  25.583  1.00  0.00     0.027 A 
ATOM     12  C   UNL A   1      30.541  25.452  22.944  1.00  0.00     0.018 A 
ATOM     13  C   UNL A   1      30.695  26.206  25.245  1.00  0.00     0.018 A 
BRANCH   9  14
ATOM     14  N   UNL A   1      31.837  22.678  25.002  1.00  0.00    -0.340 N 
ATOM     15  H   UNL A   1      31.108  22.075  25.272  1.00  0.00     0.168 HD
BRANCH  14  16
ATOM     16  C   UNL A   1      33.160  22.189  25.013  1.00  0.00     0.133 A 
ATOM     17  C   UNL A   1      35.451  22.595  24.691  1.00  0.00     0.204 A 
ATOM     18  N   UNL A   1      34.172  23.009  24.643  1.00  0.00    -0.207 NA
ATOM     19  C   UNL A   1      35.763  21.306  25.095  1.00  0.00     0.311 A 
ATOM     20  C   UNL A   1      34.727  20.428  25.444  1.00  0.00     0.093 A 
ATOM     21  C   UNL A   1      33.408  20.876  25.392  1.00  0.00     0.054 A 
BRANCH  17  22
ATOM     22  N   UNL A   1      36.345  23.534  24.224  1.00  0.00    -0.378 N 
ATOM     23  H   UNL A   1      36.734  23.438  23.324  1.00  0.00     0.158 HD
ATOM     24  H   UNL A   1      36.596  24.299  24.789  1.00  0.00     0.158 HD
ENDBRANCH  17  22
BRANCH  19  25
ATOM     25  N   UNL A   1      37.145  20.853  25.183  1.00  0.00     0.066 N 
ATOM     26  O   UNL A   1      37.393  19.704  24.787  1.00  0.00    -0.258 OA
ATOM     27  O   UNL A   1      37.991  21.617  25.673  1.00  0.00    -0.258 OA
ENDBRANCH  19  25
ENDBRANCH  14  16
ENDBRANCH   9  14
ENDBRANCH   6   8
ENDBRANCH   5   6
ENDBRANCH   4   5
ENDBRANCH   3   4
ENDBRANCH   2   3
ENDBRANCH   1   2
BRANCH   1  28
ATOM     28  C   UNL A   1      33.353  30.156  27.299  1.00  0.00     0.188 C 
BRANCH  28  29
ATOM     29  O   UNL A   1      34.467  31.025  27.300  1.00  0.00    -0.376 OA
BRANCH  29  30
ATOM     30  C   UNL A   1      34.402  32.273  27.967  1.00  0.00     0.202 C 
BRANCH  30  31
ATOM     31  C   UNL A   1      34.838  32.499  29.423  1.00  0.00     0.261 C 
BRANCH  31  32
ATOM     32  O   UNL A   1      36.235  32.392  29.703  1.00  0.00    -0.460 OA
BRANCH  32  33
ATOM     33  C   UNL A   1      36.557  31.478  30.654  1.00  0.00     0.338 C 
ATOM     34  O   UNL A   1      35.916  31.188  31.648  1.00  0.00    -0.246 OA
BRANCH  33  35
ATOM     35  C   UNL A   1      37.755  30.737  30.222  1.00  0.00     0.060 A 
ATOM     36  C   UNL A   1      38.621  30.238  31.204  1.00  0.00     0.016 A 
ATOM     37  C   UNL A   1      38.049  30.586  28.867  1.00  0.00     0.016 A 
ATOM     38  C   UNL A   1      39.802  29.599  30.829  1.00  0.00     0.010 A 
ATOM     39  C   UNL A   1      39.243  29.965  28.495  1.00  0.00     0.010 A 
ATOM     40  C   UNL A   1      40.137  29.492  29.473  1.00  0.00    -0.014 A 
BRANCH  40  41
ATOM     41  C   UNL A   1      41.494  29.042  29.081  1.00  0.00     0.031 A 
ATOM     42  C   UNL A   1      42.614  30.047  29.083  1.00  0.00     0.074 A 
ATOM     43  C   UNL A   1      41.729  27.762  28.740  1.00  0.00     0.049 A 
ATOM     44  N   UNL A   1      43.861  29.900  28.718  1.00  0.00    -0.248 NA
ATOM     45  C   UNL A   1      42.281  31.399  29.560  1.00  0.00     0.031 C 
ATOM     46  C   UNL A   1      40.736  26.690  28.739  1.00  0.00     0.029 A 
ATOM     47  N   UNL A   1      42.883  27.153  28.314  1.00  0.00    -0.354 N 
ATOM     48  C   UNL A   1      44.459  31.139  28.915  1.00  0.00     0.074 A 
ATOM     49  C   UNL A   1      43.434  32.033  29.405  1.00  0.00     0.031 C 
ATOM     50  C   UNL A   1      41.320  25.555  28.315  1.00  0.00     0.029 A 
ATOM     51  C   UNL A   1      42.718  25.829  27.983  1.00  0.00     0.049 A 
ATOM     52  H   UNL A   1      43.748  27.619  28.252  1.00  0.00     0.167 HD
ATOM     53  C   UNL A   1      45.749  31.496  28.712  1.00  0.00     0.037 A 
ATOM     54  C   UNL A   1      43.588  24.950  27.447  1.00  0.00     0.037 A 
ATOM     55  C   UNL A   1      46.764  30.603  28.217  1.00  0.00     0.049 A 
ATOM     56  C   UNL A   1      45.001  25.393  27.156  1.00  0.00     0.074 A 
ATOM     57  C   UNL A   1      48.103  30.868  27.985  1.00  0.00     0.029 A 
ATOM     58  N   UNL A   1      46.554  29.278  27.869  1.00  0.00    -0.354 N 
ATOM     59  N   UNL A   1      45.561  26.561  27.365  1.00  0.00    -0.248 NA
ATOM     60  C   UNL A   1      45.901  24.397  26.556  1.00  0.00     0.031 C 
ATOM     61  C   UNL A   1      48.690  29.716  27.452  1.00  0.00     0.029 A 
ATOM     62  C   UNL A   1      47.732  28.716  27.404  1.00  0.00     0.049 A 
ATOM     63  H   UNL A   1      45.693  28.804  27.943  1.00  0.00     0.167 HD
ATOM     64  C   UNL A   1      46.884  26.430  26.954  1.00  0.00     0.074 A 
ATOM     65  C   UNL A   1      47.044  25.066  26.493  1.00  0.00     0.031 C 
ATOM     66  C   UNL A   1      47.879  27.352  26.961  1.00  0.00     0.037 A 
BRANCH  53  67
ATOM     67  C   UNL A   1      46.131  32.920  29.003  1.00  0.00     0.058 A 
ATOM     68  C   UNL A   1      45.906  33.949  28.075  1.00  0.00     0.135 A 
ATOM     69  C   UNL A   1      46.696  33.267  30.241  1.00  0.00     0.135 A 
ATOM     70  F   UNL A   1      45.387  33.671  26.868  1.00  0.00    -0.206 F 
ATOM     71  C   UNL A   1      46.248  35.268  28.356  1.00  0.00     0.059 A 
ATOM     72  C   UNL A   1      47.021  34.583  30.554  1.00  0.00     0.059 A 
ATOM     73  F   UNL A   1      46.936  32.320  31.163  1.00  0.00    -0.206 F 
ATOM     74  C   UNL A   1      46.803  35.575  29.599  1.00  0.00     0.060 A 
BRANCH  74  75
ATOM     75  S   UNL A   1      47.227  37.294  29.952  1.00  0.00     0.124 S 
ATOM     76  O   UNL A   1      48.561  37.390  29.366  1.00  0.00    -0.237 OA
ATOM     77  O   UNL A   1      46.174  38.024  29.255  1.00  0.00    -0.237 OA
ATOM     78  O   UNL A   1      47.176  37.365  31.409  1.00  0.00    -0.744 OA
ENDBRANCH  74  75
ENDBRANCH  53  67
BRANCH  54  79
ATOM     79  C   UNL A   1      43.153  23.562  27.133  1.00  0.00     0.058 A 
ATOM     80  C   UNL A   1      43.019  22.598  28.144  1.00  0.00     0.135 A 
ATOM     81  C   UNL A   1      42.884  23.165  25.813  1.00  0.00     0.135 A 
ATOM     82  F   UNL A   1      43.277  22.925  29.419  1.00  0.00    -0.206 F 
ATOM     83  C   UNL A   1      42.655  21.286  27.857  1.00  0.00     0.059 A 
ATOM     84  C   UNL A   1      42.491  21.867  25.505  1.00  0.00     0.059 A 
ATOM     85  F   UNL A   1      42.990  24.050  24.810  1.00  0.00    -0.206 F 
ATOM     86  C   UNL A   1      42.392  20.930  26.533  1.00  0.00     0.060 A 
BRANCH  86  87
ATOM     87  S   UNL A   1      41.889  19.233  26.177  1.00  0.00     0.124 S 
ATOM     88  O   UNL A   1      42.291  18.546  27.399  1.00  0.00    -0.237 OA
ATOM     89  O   UNL A   1      40.451  19.379  25.969  1.00  0.00    -0.237 OA
ATOM     90  O   UNL A   1      42.658  18.899  24.982  1.00  0.00    -0.744 OA
ENDBRANCH  86  87
ENDBRANCH  54  79
BRANCH  66  91
ATOM     91  C   UNL A   1      49.244  26.913  26.502  1.00  0.00     0.058 A 
ATOM     92  C   UNL A   1      50.206  26.423  27.398  1.00  0.00     0.135 A 
ATOM     93  C   UNL A   1      49.571  26.929  25.135  1.00  0.00     0.135 A 
ATOM     94  F   UNL A   1      49.948  26.391  28.716  1.00  0.00    -0.206 F 
ATOM     95  C   UNL A   1      51.453  25.986  26.960  1.00  0.00     0.059 A 
ATOM     96  C   UNL A   1      50.799  26.471  24.671  1.00  0.00     0.059 A 
ATOM     97  F   UNL A   1      48.683  27.377  24.234  1.00  0.00    -0.206 F 
ATOM     98  C   UNL A   1      51.739  26.012  25.593  1.00  0.00     0.060 A 
BRANCH  98  99
ATOM     99  S   UNL A   1      53.347  25.410  25.033  1.00  0.00     0.124 S 
ATOM    100  O   UNL A   1      54.257  26.151  25.899  1.00  0.00    -0.237 OA
ATOM    101  O   UNL A   1      53.251  23.976  25.292  1.00  0.00    -0.237 OA
ATOM    102  O   UNL A   1      53.377  25.784  23.621  1.00  0.00    -0.744 OA
ENDBRANCH  98  99
ENDBRANCH  66  91
ENDBRANCH  40  41
ENDBRANCH  33  35
ENDBRANCH  32  33
ENDBRANCH  31  32
ENDBRANCH  30  31
ENDBRANCH  29  30
ENDBRANCH  28  29
ENDBRANCH   1  28
TORSDOF 24
ENDMDL
