MODEL 1
REMARK VINA RESULT:      -8.8      0.000      0.000
REMARK SMILES C[C@@H](C(=O)OCCOCCOCCOC(=O)c1ccc(-c2c3nc(c(-c4c(F)cc(S(=O)(=O)[O-])cc4F)c4ccc([nH]4)c(-c4c(F)cc(S(=O)(=O)[O-])cc4F)c4nc(c(-c5c(F)cc(S(=O)(=O)[O-])cc5F)c5ccc2[nH]5)C=C4)C=C3)cc1)c1ccc(-c2cccc(OC(=O)NC3CC3)c2)c(F)c1
REMARK SMILES IDX 9 1 8 2 7 3 6 4 5 5 3 6 4 7 2 8 1 9 83 10 84 11 102 12 85 13
REMARK SMILES IDX 100 14 86 15 101 16 87 17 88 18 99 19 89 20 91 21 90 22
REMARK SMILES IDX 92 23 93 24 94 25 95 26 96 28 97 29 98 30 10 31 11 32 12 33
REMARK SMILES IDX 13 34 14 35 15 36 16 37 17 38 18 39 82 40 19 41 81 42 20 43
REMARK SMILES IDX 21 44 22 45 75 46 23 47 80 48 74 49 76 50 24 51 79 52 73 53
REMARK SMILES IDX 72 54 25 56 59 57 38 58 58 59 39 60 42 61 57 62 77 63 40 64
REMARK SMILES IDX 41 65 56 67 78 68 43 69 26 70 27 71 36 72 28 73 29 74 35 75
REMARK SMILES IDX 37 76 30 77 31 78 32 79 33 80 34 81 60 82 61 83 70 84 62 85
REMARK SMILES IDX 63 86 69 87 71 88 64 89 65 90 66 91 67 92 68 93 44 94 45 95
REMARK SMILES IDX 54 96 46 97 47 98 53 99 55 100 48 101 49 102 50 103 51 104
REMARK SMILES IDX 52 105
REMARK H PARENT 95 27 76 55 42 66
REMARK Flexibility Score: inf
ROOT
ATOM      1  C   UNL A   1      34.373  34.487  31.197  1.00  0.00     0.188 C 
ENDROOT
BRANCH   1   2
ATOM      2  O   UNL A   1      35.275  35.295  31.936  1.00  0.00    -0.376 OA
BRANCH   2   3
ATOM      3  C   UNL A   1      35.934  34.724  33.062  1.00  0.00     0.202 C 
BRANCH   3   4
ATOM      4  C   UNL A   1      36.286  33.222  33.090  1.00  0.00     0.261 C 
BRANCH   4   5
ATOM      5  O   UNL A   1      37.558  32.857  32.504  1.00  0.00    -0.463 OA
BRANCH   5   6
ATOM      6  C   UNL A   1      38.307  33.879  32.011  1.00  0.00     0.313 C 
ATOM      7  O   UNL A   1      38.887  34.696  32.720  1.00  0.00    -0.252 OA
BRANCH   6   8
ATOM      8  C   UNL A   1      38.393  33.933  30.474  1.00  0.00     0.126 C 
ATOM      9  C   UNL A   1      37.622  32.888  29.664  1.00  0.00     0.025 C 
BRANCH   8  10
ATOM     10  C   UNL A   1      39.829  34.151  30.010  1.00  0.00    -0.031 A 
ATOM     11  C   UNL A   1      40.918  33.358  30.395  1.00  0.00     0.005 A 
ATOM     12  C   UNL A   1      40.085  35.252  29.184  1.00  0.00     0.044 A 
ATOM     13  C   UNL A   1      42.222  33.687  30.010  1.00  0.00     0.012 A 
ATOM     14  C   UNL A   1      41.379  35.551  28.777  1.00  0.00     0.131 A 
ATOM     15  C   UNL A   1      42.484  34.804  29.208  1.00  0.00     0.018 A 
ATOM     16  F   UNL A   1      41.535  36.600  27.956  1.00  0.00    -0.206 F 
BRANCH  15  17
ATOM     17  C   UNL A   1      43.861  35.220  28.906  1.00  0.00    -0.012 A 
ATOM     18  C   UNL A   1      44.739  35.726  29.883  1.00  0.00     0.009 A 
ATOM     19  C   UNL A   1      44.313  35.155  27.581  1.00  0.00     0.056 A 
ATOM     20  C   UNL A   1      46.032  36.129  29.547  1.00  0.00     0.004 A 
ATOM     21  C   UNL A   1      45.589  35.568  27.249  1.00  0.00     0.133 A 
ATOM     22  C   UNL A   1      46.463  36.030  28.231  1.00  0.00     0.047 A 
BRANCH  21  23
ATOM     23  O   UNL A   1      46.050  35.507  25.930  1.00  0.00    -0.410 OA
BRANCH  23  24
ATOM     24  C   UNL A   1      47.016  34.536  25.650  1.00  0.00     0.412 C 
ATOM     25  O   UNL A   1      48.077  34.780  25.066  1.00  0.00    -0.224 OA
ATOM     26  N   UNL A   1      46.848  33.135  26.070  1.00  0.00    -0.318 N 
ATOM     27  H   UNL A   1      47.641  32.665  25.724  1.00  0.00     0.167 HD
BRANCH  26  28
ATOM     28  C   UNL A   1      45.740  31.695  27.038  1.00  0.00     0.085 C 
ATOM     29  C   UNL A   1      44.737  31.643  28.319  1.00  0.00     0.027 C 
ATOM     30  C   UNL A   1      44.147  31.321  27.009  1.00  0.00     0.027 C 
ENDBRANCH  26  28
ENDBRANCH  23  24
ENDBRANCH  21  23
ENDBRANCH  15  17
ENDBRANCH   8  10
ENDBRANCH   6   8
ENDBRANCH   5   6
ENDBRANCH   4   5
ENDBRANCH   3   4
ENDBRANCH   2   3
ENDBRANCH   1   2
BRANCH   1  31
ATOM     31  C   UNL A   1      34.704  34.185  29.726  1.00  0.00     0.188 C 
BRANCH  31  32
ATOM     32  O   UNL A   1      33.747  34.603  28.786  1.00  0.00    -0.376 OA
BRANCH  32  33
ATOM     33  C   UNL A   1      33.094  33.653  27.971  1.00  0.00     0.202 C 
BRANCH  33  34
ATOM     34  C   UNL A   1      33.336  32.130  28.046  1.00  0.00     0.261 C 
BRANCH  34  35
ATOM     35  O   UNL A   1      34.558  31.596  27.515  1.00  0.00    -0.460 OA
BRANCH  35  36
ATOM     36  C   UNL A   1      34.698  30.246  27.548  1.00  0.00     0.338 C 
ATOM     37  O   UNL A   1      33.987  29.431  26.987  1.00  0.00    -0.246 OA
BRANCH  36  38
ATOM     38  C   UNL A   1      36.005  29.917  28.174  1.00  0.00     0.060 A 
ATOM     39  C   UNL A   1      37.170  30.061  27.410  1.00  0.00     0.016 A 
ATOM     40  C   UNL A   1      36.089  29.452  29.487  1.00  0.00     0.016 A 
ATOM     41  C   UNL A   1      38.419  29.743  27.959  1.00  0.00     0.010 A 
ATOM     42  C   UNL A   1      37.343  29.114  30.027  1.00  0.00     0.010 A 
ATOM     43  C   UNL A   1      38.519  29.254  29.268  1.00  0.00    -0.014 A 
BRANCH  43  44
ATOM     44  C   UNL A   1      39.821  28.708  29.754  1.00  0.00     0.031 A 
ATOM     45  C   UNL A   1      40.433  29.336  30.978  1.00  0.00     0.074 A 
ATOM     46  C   UNL A   1      40.448  27.678  29.146  1.00  0.00     0.049 A 
ATOM     47  N   UNL A   1      41.572  29.076  31.567  1.00  0.00    -0.248 NA
ATOM     48  C   UNL A   1      39.656  30.410  31.622  1.00  0.00     0.031 C 
ATOM     49  C   UNL A   1      39.945  26.955  27.983  1.00  0.00     0.029 A 
ATOM     50  N   UNL A   1      41.652  27.062  29.417  1.00  0.00    -0.354 N 
ATOM     51  C   UNL A   1      41.664  29.971  32.627  1.00  0.00     0.074 A 
ATOM     52  C   UNL A   1      40.466  30.781  32.602  1.00  0.00     0.031 C 
ATOM     53  C   UNL A   1      40.833  26.002  27.640  1.00  0.00     0.029 A 
ATOM     54  C   UNL A   1      41.970  26.025  28.557  1.00  0.00     0.049 A 
ATOM     55  H   UNL A   1      42.236  27.336  30.162  1.00  0.00     0.167 HD
ATOM     56  C   UNL A   1      42.662  30.116  33.531  1.00  0.00     0.037 A 
ATOM     57  C   UNL A   1      43.047  25.205  28.533  1.00  0.00     0.037 A 
ATOM     58  C   UNL A   1      43.860  29.319  33.548  1.00  0.00     0.049 A 
ATOM     59  C   UNL A   1      44.144  25.462  29.528  1.00  0.00     0.074 A 
ATOM     60  C   UNL A   1      44.938  29.403  34.414  1.00  0.00     0.029 A 
ATOM     61  N   UNL A   1      44.147  28.299  32.654  1.00  0.00    -0.354 N 
ATOM     62  N   UNL A   1      44.186  26.259  30.567  1.00  0.00    -0.248 NA
ATOM     63  C   UNL A   1      45.380  24.715  29.308  1.00  0.00     0.031 C 
ATOM     64  C   UNL A   1      45.902  28.479  34.005  1.00  0.00     0.029 A 
ATOM     65  C   UNL A   1      45.396  27.768  32.930  1.00  0.00     0.049 A 
ATOM     66  H   UNL A   1      43.552  27.998  31.930  1.00  0.00     0.167 HD
ATOM     67  C   UNL A   1      45.440  26.063  31.143  1.00  0.00     0.074 A 
ATOM     68  C   UNL A   1      46.104  25.042  30.365  1.00  0.00     0.031 C 
ATOM     69  C   UNL A   1      46.014  26.696  32.195  1.00  0.00     0.037 A 
BRANCH  56  70
ATOM     70  C   UNL A   1      42.529  31.216  34.545  1.00  0.00     0.058 A 
ATOM     71  C   UNL A   1      41.982  30.994  35.818  1.00  0.00     0.135 A 
ATOM     72  C   UNL A   1      42.988  32.511  34.245  1.00  0.00     0.135 A 
ATOM     73  F   UNL A   1      41.510  29.782  36.149  1.00  0.00    -0.206 F 
ATOM     74  C   UNL A   1      41.868  32.022  36.747  1.00  0.00     0.059 A 
ATOM     75  C   UNL A   1      42.915  33.544  35.171  1.00  0.00     0.059 A 
ATOM     76  F   UNL A   1      43.518  32.778  33.041  1.00  0.00    -0.206 F 
ATOM     77  C   UNL A   1      42.340  33.293  36.415  1.00  0.00     0.060 A 
BRANCH  77  78
ATOM     78  S   UNL A   1      42.191  34.613  37.637  1.00  0.00     0.124 S 
ATOM     79  O   UNL A   1      40.850  35.117  37.357  1.00  0.00    -0.237 OA
ATOM     80  O   UNL A   1      42.347  33.889  38.894  1.00  0.00    -0.237 OA
ATOM     81  O   UNL A   1      43.284  35.519  37.297  1.00  0.00    -0.744 OA
ENDBRANCH  77  78
ENDBRANCH  56  70
BRANCH  57  82
ATOM     82  C   UNL A   1      43.185  24.068  27.557  1.00  0.00     0.058 A 
ATOM     83  C   UNL A   1      44.240  24.212  26.074  1.00  0.00     0.135 A 
ATOM     84  C   UNL A   1      42.462  22.461  27.956  1.00  0.00     0.135 A 
ATOM     85  F   UNL A   1      44.705  25.409  25.690  1.00  0.00    -0.206 F 
ATOM     86  C   UNL A   1      44.667  22.724  25.068  1.00  0.00     0.059 A 
ATOM     87  C   UNL A   1      42.723  21.012  26.897  1.00  0.00     0.059 A 
ATOM     88  F   UNL A   1      41.674  22.340  29.034  1.00  0.00    -0.206 F 
ATOM     89  C   UNL A   1      43.881  21.128  25.506  1.00  0.00     0.060 A 
BRANCH  89  90
ATOM     90  S   UNL A   1      44.242  19.636  24.597  1.00  0.00     0.124 S 
ATOM     91  O   UNL A   1      44.537  20.147  23.262  1.00  0.00    -0.237 OA
ATOM     92  O   UNL A   1      45.372  19.084  25.333  1.00  0.00    -0.237 OA
ATOM     93  O   UNL A   1      42.987  18.900  24.720  1.00  0.00    -0.744 OA
ENDBRANCH  89  90
ENDBRANCH  57  82
BRANCH  69  94
ATOM     94  C   UNL A   1      47.381  26.237  32.630  1.00  0.00     0.058 A 
ATOM     95  C   UNL A   1      47.566  25.195  33.554  1.00  0.00     0.135 A 
ATOM     96  C   UNL A   1      48.530  26.830  32.079  1.00  0.00     0.135 A 
ATOM     97  F   UNL A   1      46.505  24.600  34.122  1.00  0.00    -0.206 F 
ATOM     98  C   UNL A   1      48.837  24.783  33.941  1.00  0.00     0.059 A 
ATOM     99  C   UNL A   1      49.810  26.407  32.422  1.00  0.00     0.059 A 
ATOM    100  F   UNL A   1      48.414  27.825  31.185  1.00  0.00    -0.206 F 
ATOM    101  C   UNL A   1      49.952  25.391  33.365  1.00  0.00     0.060 A 
BRANCH 101 102
ATOM    102  S   UNL A   1      51.594  24.818  33.851  1.00  0.00     0.124 S 
ATOM    103  O   UNL A   1      51.280  23.561  34.520  1.00  0.00    -0.237 OA
ATOM    104  O   UNL A   1      52.272  24.700  32.563  1.00  0.00    -0.237 OA
ATOM    105  O   UNL A   1      52.085  25.886  34.716  1.00  0.00    -0.744 OA
ENDBRANCH 101 102
ENDBRANCH  69  94
ENDBRANCH  43  44
ENDBRANCH  36  38
ENDBRANCH  35  36
ENDBRANCH  34  35
ENDBRANCH  33  34
ENDBRANCH  32  33
ENDBRANCH  31  32
ENDBRANCH   1  31
TORSDOF 25
ENDMDL
MODEL 2
REMARK VINA RESULT:      -8.7      2.716      9.656
REMARK SMILES C[C@@H](C(=O)OCCOCCOCCOC(=O)c1ccc(-c2c3nc(c(-c4c(F)cc(S(=O)(=O)[O-])cc4F)c4ccc([nH]4)c(-c4c(F)cc(S(=O)(=O)[O-])cc4F)c4nc(c(-c5c(F)cc(S(=O)(=O)[O-])cc5F)c5ccc2[nH]5)C=C4)C=C3)cc1)c1ccc(-c2cccc(OC(=O)NC3CC3)c2)c(F)c1
REMARK SMILES IDX 9 1 8 2 7 3 6 4 5 5 3 6 4 7 2 8 1 9 83 10 84 11 102 12 85 13
REMARK SMILES IDX 100 14 86 15 101 16 87 17 88 18 99 19 89 20 91 21 90 22
REMARK SMILES IDX 92 23 93 24 94 25 95 26 96 28 97 29 98 30 10 31 11 32 12 33
REMARK SMILES IDX 13 34 14 35 15 36 16 37 17 38 18 39 82 40 19 41 81 42 20 43
REMARK SMILES IDX 21 44 22 45 75 46 23 47 80 48 74 49 76 50 24 51 79 52 73 53
REMARK SMILES IDX 72 54 25 56 59 57 38 58 58 59 39 60 42 61 57 62 77 63 40 64
REMARK SMILES IDX 41 65 56 67 78 68 43 69 26 70 27 71 36 72 28 73 29 74 35 75
REMARK SMILES IDX 37 76 30 77 31 78 32 79 33 80 34 81 60 82 61 83 70 84 62 85
REMARK SMILES IDX 63 86 69 87 71 88 64 89 65 90 66 91 67 92 68 93 44 94 45 95
REMARK SMILES IDX 54 96 46 97 47 98 53 99 55 100 48 101 49 102 50 103 51 104
REMARK SMILES IDX 52 105
REMARK H PARENT 95 27 76 55 42 66
REMARK Flexibility Score: inf
ROOT
ATOM      1  C   UNL A   1      34.696  33.331  30.472  1.00  0.00     0.188 C 
ENDROOT
BRANCH   1   2
ATOM      2  O   UNL A   1      35.446  34.208  31.296  1.00  0.00    -0.376 OA
BRANCH   2   3
ATOM      3  C   UNL A   1      36.238  33.649  32.340  1.00  0.00     0.202 C 
BRANCH   3   4
ATOM      4  C   UNL A   1      37.324  32.597  32.029  1.00  0.00     0.261 C 
BRANCH   4   5
ATOM      5  O   UNL A   1      38.503  32.637  32.866  1.00  0.00    -0.463 OA
BRANCH   5   6
ATOM      6  C   UNL A   1      38.617  31.646  33.790  1.00  0.00     0.313 C 
ATOM      7  O   UNL A   1      37.775  30.766  33.947  1.00  0.00    -0.252 OA
BRANCH   6   8
ATOM      8  C   UNL A   1      39.907  31.693  34.631  1.00  0.00     0.126 C 
ATOM      9  C   UNL A   1      40.829  32.907  34.485  1.00  0.00     0.025 C 
BRANCH   8  10
ATOM     10  C   UNL A   1      40.630  30.352  34.607  1.00  0.00    -0.031 A 
ATOM     11  C   UNL A   1      41.277  29.778  35.710  1.00  0.00     0.005 A 
ATOM     12  C   UNL A   1      40.699  29.670  33.387  1.00  0.00     0.044 A 
ATOM     13  C   UNL A   1      42.009  28.593  35.581  1.00  0.00     0.012 A 
ATOM     14  C   UNL A   1      41.399  28.476  33.275  1.00  0.00     0.131 A 
ATOM     15  C   UNL A   1      42.104  27.925  34.355  1.00  0.00     0.018 A 
ATOM     16  F   UNL A   1      41.385  27.867  32.080  1.00  0.00    -0.206 F 
BRANCH  15  17
ATOM     17  C   UNL A   1      42.972  26.751  34.190  1.00  0.00    -0.012 A 
ATOM     18  C   UNL A   1      43.727  26.515  33.026  1.00  0.00     0.009 A 
ATOM     19  C   UNL A   1      43.021  25.796  35.215  1.00  0.00     0.056 A 
ATOM     20  C   UNL A   1      44.522  25.375  32.904  1.00  0.00     0.004 A 
ATOM     21  C   UNL A   1      43.798  24.661  35.086  1.00  0.00     0.133 A 
ATOM     22  C   UNL A   1      44.573  24.457  33.946  1.00  0.00     0.047 A 
BRANCH  21  23
ATOM     23  O   UNL A   1      43.855  23.702  36.103  1.00  0.00    -0.410 OA
BRANCH  23  24
ATOM     24  C   UNL A   1      45.050  23.624  36.822  1.00  0.00     0.412 C 
ATOM     25  O   UNL A   1      45.473  24.535  37.542  1.00  0.00    -0.224 OA
ATOM     26  N   UNL A   1      45.887  22.413  36.802  1.00  0.00    -0.318 N 
ATOM     27  H   UNL A   1      46.671  22.631  37.354  1.00  0.00     0.167 HD
BRANCH  26  28
ATOM     28  C   UNL A   1      46.193  20.480  36.162  1.00  0.00     0.085 C 
ATOM     29  C   UNL A   1      45.633  19.004  36.561  1.00  0.00     0.027 C 
ATOM     30  C   UNL A   1      45.319  19.481  35.205  1.00  0.00     0.027 C 
ENDBRANCH  26  28
ENDBRANCH  23  24
ENDBRANCH  21  23
ENDBRANCH  15  17
ENDBRANCH   8  10
ENDBRANCH   6   8
ENDBRANCH   5   6
ENDBRANCH   4   5
ENDBRANCH   3   4
ENDBRANCH   2   3
ENDBRANCH   1   2
BRANCH   1  31
ATOM     31  C   UNL A   1      34.907  33.404  28.950  1.00  0.00     0.188 C 
BRANCH  31  32
ATOM     32  O   UNL A   1      33.809  33.864  28.203  1.00  0.00    -0.376 OA
BRANCH  32  33
ATOM     33  C   UNL A   1      32.963  32.941  27.549  1.00  0.00     0.202 C 
BRANCH  33  34
ATOM     34  C   UNL A   1      33.117  31.407  27.634  1.00  0.00     0.261 C 
BRANCH  34  35
ATOM     35  O   UNL A   1      34.352  30.811  27.207  1.00  0.00    -0.460 OA
BRANCH  35  36
ATOM     36  C   UNL A   1      34.660  29.600  27.740  1.00  0.00     0.338 C 
ATOM     37  O   UNL A   1      33.970  28.597  27.700  1.00  0.00    -0.246 OA
BRANCH  36  38
ATOM     38  C   UNL A   1      36.082  29.616  28.169  1.00  0.00     0.060 A 
ATOM     39  C   UNL A   1      37.070  29.877  27.210  1.00  0.00     0.016 A 
ATOM     40  C   UNL A   1      36.449  29.354  29.490  1.00  0.00     0.016 A 
ATOM     41  C   UNL A   1      38.422  29.882  27.572  1.00  0.00     0.010 A 
ATOM     42  C   UNL A   1      37.810  29.339  29.844  1.00  0.00     0.010 A 
ATOM     43  C   UNL A   1      38.809  29.600  28.888  1.00  0.00    -0.014 A 
BRANCH  43  44
ATOM     44  C   UNL A   1      40.253  29.383  29.203  1.00  0.00     0.031 A 
ATOM     45  C   UNL A   1      40.861  28.054  28.835  1.00  0.00     0.074 A 
ATOM     46  C   UNL A   1      41.018  30.331  29.786  1.00  0.00     0.049 A 
ATOM     47  N   UNL A   1      42.071  27.607  29.044  1.00  0.00    -0.248 NA
ATOM     48  C   UNL A   1      39.978  27.099  28.143  1.00  0.00     0.031 C 
ATOM     49  C   UNL A   1      40.567  31.668  30.152  1.00  0.00     0.029 A 
ATOM     50  N   UNL A   1      42.340  30.311  30.181  1.00  0.00    -0.354 N 
ATOM     51  C   UNL A   1      42.088  26.311  28.540  1.00  0.00     0.074 A 
ATOM     52  C   UNL A   1      40.767  26.043  28.015  1.00  0.00     0.031 C 
ATOM     53  C   UNL A   1      41.590  32.336  30.722  1.00  0.00     0.029 A 
ATOM     54  C   UNL A   1      42.780  31.491  30.756  1.00  0.00     0.049 A 
ATOM     55  H   UNL A   1      42.921  29.525  30.062  1.00  0.00     0.167 HD
ATOM     56  C   UNL A   1      43.107  25.418  28.529  1.00  0.00     0.037 A 
ATOM     57  C   UNL A   1      44.000  31.828  31.240  1.00  0.00     0.037 A 
ATOM     58  C   UNL A   1      44.417  25.679  29.063  1.00  0.00     0.049 A 
ATOM     59  C   UNL A   1      45.065  30.769  31.252  1.00  0.00     0.074 A 
ATOM     60  C   UNL A   1      45.510  24.829  29.114  1.00  0.00     0.029 A 
ATOM     61  N   UNL A   1      44.812  26.871  29.648  1.00  0.00    -0.354 N 
ATOM     62  N   UNL A   1      45.091  29.577  30.708  1.00  0.00    -0.248 NA
ATOM     63  C   UNL A   1      46.275  31.102  31.997  1.00  0.00     0.031 C 
ATOM     64  C   UNL A   1      46.544  25.486  29.787  1.00  0.00     0.029 A 
ATOM     65  C   UNL A   1      46.121  26.769  30.090  1.00  0.00     0.049 A 
ATOM     66  H   UNL A   1      44.246  27.671  29.738  1.00  0.00     0.167 HD
ATOM     67  C   UNL A   1      46.345  29.050  31.014  1.00  0.00     0.074 A 
ATOM     68  C   UNL A   1      47.060  30.068  31.748  1.00  0.00     0.031 C 
ATOM     69  C   UNL A   1      46.849  27.820  30.751  1.00  0.00     0.037 A 
BRANCH  56  70
ATOM     70  C   UNL A   1      42.829  24.051  27.971  1.00  0.00     0.058 A 
ATOM     71  C   UNL A   1      42.629  22.935  28.798  1.00  0.00     0.135 A 
ATOM     72  C   UNL A   1      42.731  23.864  26.581  1.00  0.00     0.135 A 
ATOM     73  F   UNL A   1      42.732  23.054  30.131  1.00  0.00    -0.206 F 
ATOM     74  C   UNL A   1      42.369  21.677  28.267  1.00  0.00     0.059 A 
ATOM     75  C   UNL A   1      42.438  22.622  26.030  1.00  0.00     0.059 A 
ATOM     76  F   UNL A   1      42.916  24.897  25.745  1.00  0.00    -0.206 F 
ATOM     77  C   UNL A   1      42.273  21.531  26.881  1.00  0.00     0.060 A 
BRANCH  77  78
ATOM     78  S   UNL A   1      41.928  19.891  26.211  1.00  0.00     0.124 S 
ATOM     79  O   UNL A   1      42.818  19.858  25.054  1.00  0.00    -0.237 OA
ATOM     80  O   UNL A   1      42.298  19.019  27.320  1.00  0.00    -0.237 OA
ATOM     81  O   UNL A   1      40.502  19.942  25.902  1.00  0.00    -0.744 OA
ENDBRANCH  77  78
ENDBRANCH  56  70
BRANCH  57  82
ATOM     82  C   UNL A   1      44.318  33.203  31.764  1.00  0.00     0.058 A 
ATOM     83  C   UNL A   1      44.580  34.612  30.634  1.00  0.00     0.135 A 
ATOM     84  C   UNL A   1      44.240  33.517  33.542  1.00  0.00     0.135 A 
ATOM     85  F   UNL A   1      44.749  34.402  29.321  1.00  0.00    -0.206 F 
ATOM     86  C   UNL A   1      44.639  36.342  31.277  1.00  0.00     0.059 A 
ATOM     87  C   UNL A   1      44.461  35.184  34.222  1.00  0.00     0.059 A 
ATOM     88  F   UNL A   1      44.061  32.492  34.387  1.00  0.00    -0.206 F 
ATOM     89  C   UNL A   1      44.582  36.594  33.090  1.00  0.00     0.060 A 
BRANCH  89  90
ATOM     90  S   UNL A   1      44.622  38.230  33.800  1.00  0.00     0.124 S 
ATOM     91  O   UNL A   1      44.240  39.071  32.670  1.00  0.00    -0.237 OA
ATOM     92  O   UNL A   1      43.648  38.131  34.879  1.00  0.00    -0.237 OA
ATOM     93  O   UNL A   1      46.018  38.341  34.216  1.00  0.00    -0.744 OA
ENDBRANCH  89  90
ENDBRANCH  57  82
BRANCH  69  94
ATOM     94  C   UNL A   1      48.271  27.541  31.166  1.00  0.00     0.058 A 
ATOM     95  C   UNL A   1      48.592  26.968  32.408  1.00  0.00     0.135 A 
ATOM     96  C   UNL A   1      49.328  27.820  30.284  1.00  0.00     0.135 A 
ATOM     97  F   UNL A   1      47.624  26.692  33.296  1.00  0.00    -0.206 F 
ATOM     98  C   UNL A   1      49.911  26.715  32.773  1.00  0.00     0.059 A 
ATOM     99  C   UNL A   1      50.651  27.538  30.612  1.00  0.00     0.059 A 
ATOM    100  F   UNL A   1      49.080  28.361  29.080  1.00  0.00    -0.206 F 
ATOM    101  C   UNL A   1      50.932  26.998  31.866  1.00  0.00     0.060 A 
BRANCH 101 102
ATOM    102  S   UNL A   1      52.634  26.628  32.340  1.00  0.00     0.124 S 
ATOM    103  O   UNL A   1      52.559  26.717  33.794  1.00  0.00    -0.237 OA
ATOM    104  O   UNL A   1      52.822  25.287  31.794  1.00  0.00    -0.237 OA
ATOM    105  O   UNL A   1      53.407  27.679  31.685  1.00  0.00    -0.744 OA
ENDBRANCH 101 102
ENDBRANCH  69  94
ENDBRANCH  43  44
ENDBRANCH  36  38
ENDBRANCH  35  36
ENDBRANCH  34  35
ENDBRANCH  33  34
ENDBRANCH  32  33
ENDBRANCH  31  32
ENDBRANCH   1  31
TORSDOF 25
ENDMDL
MODEL 3
REMARK VINA RESULT:      -8.0      5.394     12.743
REMARK SMILES C[C@@H](C(=O)OCCOCCOCCOC(=O)c1ccc(-c2c3nc(c(-c4c(F)cc(S(=O)(=O)[O-])cc4F)c4ccc([nH]4)c(-c4c(F)cc(S(=O)(=O)[O-])cc4F)c4nc(c(-c5c(F)cc(S(=O)(=O)[O-])cc5F)c5ccc2[nH]5)C=C4)C=C3)cc1)c1ccc(-c2cccc(OC(=O)NC3CC3)c2)c(F)c1
REMARK SMILES IDX 9 1 8 2 7 3 6 4 5 5 3 6 4 7 2 8 1 9 83 10 84 11 102 12 85 13
REMARK SMILES IDX 100 14 86 15 101 16 87 17 88 18 99 19 89 20 91 21 90 22
REMARK SMILES IDX 92 23 93 24 94 25 95 26 96 28 97 29 98 30 10 31 11 32 12 33
REMARK SMILES IDX 13 34 14 35 15 36 16 37 17 38 18 39 82 40 19 41 81 42 20 43
REMARK SMILES IDX 21 44 22 45 75 46 23 47 80 48 74 49 76 50 24 51 79 52 73 53
REMARK SMILES IDX 72 54 25 56 59 57 38 58 58 59 39 60 42 61 57 62 77 63 40 64
REMARK SMILES IDX 41 65 56 67 78 68 43 69 26 70 27 71 36 72 28 73 29 74 35 75
REMARK SMILES IDX 37 76 30 77 31 78 32 79 33 80 34 81 60 82 61 83 70 84 62 85
REMARK SMILES IDX 63 86 69 87 71 88 64 89 65 90 66 91 67 92 68 93 44 94 45 95
REMARK SMILES IDX 54 96 46 97 47 98 53 99 55 100 48 101 49 102 50 103 51 104
REMARK SMILES IDX 52 105
REMARK H PARENT 95 27 76 55 42 66
REMARK Flexibility Score: inf
ROOT
ATOM      1  C   UNL A   1      44.338  26.200  26.316  1.00  0.00     0.188 C 
ENDROOT
BRANCH   1   2
ATOM      2  O   UNL A   1      45.155  27.282  26.734  1.00  0.00    -0.376 OA
BRANCH   2   3
ATOM      3  C   UNL A   1      44.852  28.588  26.252  1.00  0.00     0.202 C 
BRANCH   3   4
ATOM      4  C   UNL A   1      44.040  29.577  27.115  1.00  0.00     0.261 C 
BRANCH   4   5
ATOM      5  O   UNL A   1      43.757  30.861  26.511  1.00  0.00    -0.463 OA
BRANCH   5   6
ATOM      6  C   UNL A   1      44.770  31.767  26.524  1.00  0.00     0.313 C 
ATOM      7  O   UNL A   1      45.653  31.808  25.671  1.00  0.00    -0.252 OA
BRANCH   6   8
ATOM      8  C   UNL A   1      44.724  32.770  27.692  1.00  0.00     0.126 C 
ATOM      9  C   UNL A   1      43.513  32.743  28.629  1.00  0.00     0.025 C 
BRANCH   8  10
ATOM     10  C   UNL A   1      45.132  34.167  27.237  1.00  0.00    -0.031 A 
ATOM     11  C   UNL A   1      46.444  34.547  26.920  1.00  0.00     0.005 A 
ATOM     12  C   UNL A   1      44.139  35.151  27.183  1.00  0.00     0.044 A 
ATOM     13  C   UNL A   1      46.754  35.876  26.612  1.00  0.00     0.012 A 
ATOM     14  C   UNL A   1      44.450  36.460  26.842  1.00  0.00     0.131 A 
ATOM     15  C   UNL A   1      45.767  36.867  26.586  1.00  0.00     0.018 A 
ATOM     16  F   UNL A   1      43.435  37.334  26.777  1.00  0.00    -0.206 F 
BRANCH  15  17
ATOM     17  C   UNL A   1      46.111  38.282  26.385  1.00  0.00    -0.012 A 
ATOM     18  C   UNL A   1      46.725  38.761  25.212  1.00  0.00     0.009 A 
ATOM     19  C   UNL A   1      45.862  39.193  27.419  1.00  0.00     0.056 A 
ATOM     20  C   UNL A   1      47.054  40.110  25.072  1.00  0.00     0.004 A 
ATOM     21  C   UNL A   1      46.202  40.526  27.284  1.00  0.00     0.133 A 
ATOM     22  C   UNL A   1      46.772  40.996  26.103  1.00  0.00     0.047 A 
BRANCH  21  23
ATOM     23  O   UNL A   1      45.956  41.444  28.310  1.00  0.00    -0.410 OA
BRANCH  23  24
ATOM     24  C   UNL A   1      45.072  42.486  28.019  1.00  0.00     0.412 C 
ATOM     25  O   UNL A   1      45.282  43.664  28.328  1.00  0.00    -0.224 OA
ATOM     26  N   UNL A   1      43.821  42.254  27.277  1.00  0.00    -0.318 N 
ATOM     27  H   UNL A   1      43.377  43.132  27.238  1.00  0.00     0.167 HD
BRANCH  26  28
ATOM     28  C   UNL A   1      42.562  40.962  26.286  1.00  0.00     0.085 C 
ATOM     29  C   UNL A   1      41.656  39.667  26.676  1.00  0.00     0.027 C 
ATOM     30  C   UNL A   1      40.931  40.856  26.200  1.00  0.00     0.027 C 
ENDBRANCH  26  28
ENDBRANCH  23  24
ENDBRANCH  21  23
ENDBRANCH  15  17
ENDBRANCH   8  10
ENDBRANCH   6   8
ENDBRANCH   5   6
ENDBRANCH   4   5
ENDBRANCH   3   4
ENDBRANCH   2   3
ENDBRANCH   1   2
BRANCH   1  31
ATOM     31  C   UNL A   1      44.991  24.818  26.146  1.00  0.00     0.188 C 
BRANCH  31  32
ATOM     32  O   UNL A   1      46.368  24.755  26.417  1.00  0.00    -0.376 OA
BRANCH  32  33
ATOM     33  C   UNL A   1      46.819  24.490  27.730  1.00  0.00     0.202 C 
BRANCH  33  34
ATOM     34  C   UNL A   1      47.992  25.226  28.412  1.00  0.00     0.261 C 
BRANCH  34  35
ATOM     35  O   UNL A   1      47.793  26.574  28.864  1.00  0.00    -0.460 OA
BRANCH  35  36
ATOM     36  C   UNL A   1      48.867  27.195  29.418  1.00  0.00     0.338 C 
ATOM     37  O   UNL A   1      49.978  26.720  29.568  1.00  0.00    -0.246 OA
BRANCH  36  38
ATOM     38  C   UNL A   1      48.548  28.636  29.590  1.00  0.00     0.060 A 
ATOM     39  C   UNL A   1      48.897  29.262  30.794  1.00  0.00     0.016 A 
ATOM     40  C   UNL A   1      47.893  29.363  28.594  1.00  0.00     0.016 A 
ATOM     41  C   UNL A   1      48.596  30.614  31.001  1.00  0.00     0.010 A 
ATOM     42  C   UNL A   1      47.575  30.715  28.815  1.00  0.00     0.010 A 
ATOM     43  C   UNL A   1      47.920  31.352  30.021  1.00  0.00    -0.014 A 
BRANCH  43  44
ATOM     44  C   UNL A   1      47.407  32.716  30.348  1.00  0.00     0.031 A 
ATOM     45  C   UNL A   1      48.198  33.900  29.855  1.00  0.00     0.074 A 
ATOM     46  C   UNL A   1      46.270  32.916  31.048  1.00  0.00     0.049 A 
ATOM     47  N   UNL A   1      47.991  35.177  30.046  1.00  0.00    -0.248 NA
ATOM     48  C   UNL A   1      49.390  33.600  29.042  1.00  0.00     0.031 C 
ATOM     49  C   UNL A   1      45.393  31.862  31.545  1.00  0.00     0.029 A 
ATOM     50  N   UNL A   1      45.660  34.077  31.473  1.00  0.00    -0.354 N 
ATOM     51  C   UNL A   1      49.038  35.831  29.406  1.00  0.00     0.074 A 
ATOM     52  C   UNL A   1      49.880  34.811  28.822  1.00  0.00     0.031 C 
ATOM     53  C   UNL A   1      44.363  32.424  32.208  1.00  0.00     0.029 A 
ATOM     54  C   UNL A   1      44.488  33.879  32.183  1.00  0.00     0.049 A 
ATOM     55  H   UNL A   1      46.025  34.972  31.286  1.00  0.00     0.167 HD
ATOM     56  C   UNL A   1      49.286  37.160  29.326  1.00  0.00     0.037 A 
ATOM     57  C   UNL A   1      43.633  34.775  32.731  1.00  0.00     0.037 A 
ATOM     58  C   UNL A   1      48.455  38.175  29.918  1.00  0.00     0.049 A 
ATOM     59  C   UNL A   1      44.001  36.230  32.656  1.00  0.00     0.074 A 
ATOM     60  C   UNL A   1      48.634  39.549  29.906  1.00  0.00     0.029 A 
ATOM     61  N   UNL A   1      47.297  37.931  30.638  1.00  0.00    -0.354 N 
ATOM     62  N   UNL A   1      44.951  36.837  31.988  1.00  0.00    -0.248 NA
ATOM     63  C   UNL A   1      43.182  37.128  33.464  1.00  0.00     0.031 C 
ATOM     64  C   UNL A   1      47.620  40.129  30.672  1.00  0.00     0.029 A 
ATOM     65  C   UNL A   1      46.767  39.126  31.099  1.00  0.00     0.049 A 
ATOM     66  H   UNL A   1      46.908  37.041  30.798  1.00  0.00     0.167 HD
ATOM     67  C   UNL A   1      44.800  38.195  32.268  1.00  0.00     0.074 A 
ATOM     68  C   UNL A   1      43.644  38.320  33.125  1.00  0.00     0.031 C 
ATOM     69  C   UNL A   1      45.569  39.243  31.888  1.00  0.00     0.037 A 
BRANCH  56  70
ATOM     70  C   UNL A   1      50.538  37.594  28.617  1.00  0.00     0.058 A 
ATOM     71  C   UNL A   1      51.752  37.779  29.296  1.00  0.00     0.135 A 
ATOM     72  C   UNL A   1      50.525  37.799  27.227  1.00  0.00     0.135 A 
ATOM     73  F   UNL A   1      51.814  37.617  30.627  1.00  0.00    -0.206 F 
ATOM     74  C   UNL A   1      52.903  38.178  28.626  1.00  0.00     0.059 A 
ATOM     75  C   UNL A   1      51.673  38.164  26.532  1.00  0.00     0.059 A 
ATOM     76  F   UNL A   1      49.390  37.638  26.529  1.00  0.00    -0.206 F 
ATOM     77  C   UNL A   1      52.854  38.365  27.243  1.00  0.00     0.060 A 
BRANCH  77  78
ATOM     78  S   UNL A   1      54.360  38.875  26.390  1.00  0.00     0.124 S 
ATOM     79  O   UNL A   1      55.083  37.610  26.297  1.00  0.00    -0.237 OA
ATOM     80  O   UNL A   1      53.840  39.403  25.133  1.00  0.00    -0.237 OA
ATOM     81  O   UNL A   1      54.944  39.864  27.291  1.00  0.00    -0.744 OA
ENDBRANCH  77  78
ENDBRANCH  56  70
BRANCH  57  82
ATOM     82  C   UNL A   1      42.351  34.371  33.407  1.00  0.00     0.058 A 
ATOM     83  C   UNL A   1      40.811  34.131  32.457  1.00  0.00     0.135 A 
ATOM     84  C   UNL A   1      42.372  33.916  35.156  1.00  0.00     0.135 A 
ATOM     85  F   UNL A   1      40.727  34.555  31.188  1.00  0.00    -0.206 F 
ATOM     86  C   UNL A   1      39.340  33.322  33.226  1.00  0.00     0.059 A 
ATOM     87  C   UNL A   1      40.895  33.273  35.989  1.00  0.00     0.059 A 
ATOM     88  F   UNL A   1      43.491  34.098  35.872  1.00  0.00    -0.206 F 
ATOM     89  C   UNL A   1      39.413  32.909  35.009  1.00  0.00     0.060 A 
BRANCH  89  90
ATOM     90  S   UNL A   1      38.044  32.116  35.834  1.00  0.00     0.124 S 
ATOM     91  O   UNL A   1      37.525  33.188  36.678  1.00  0.00    -0.237 OA
ATOM     92  O   UNL A   1      37.195  31.713  34.722  1.00  0.00    -0.237 OA
ATOM     93  O   UNL A   1      38.713  31.030  36.546  1.00  0.00    -0.744 OA
ENDBRANCH  89  90
ENDBRANCH  57  82
BRANCH  69  94
ATOM     94  C   UNL A   1      45.132  40.623  32.307  1.00  0.00     0.058 A 
ATOM     95  C   UNL A   1      45.673  41.274  33.428  1.00  0.00     0.135 A 
ATOM     96  C   UNL A   1      44.178  41.319  31.546  1.00  0.00     0.135 A 
ATOM     97  F   UNL A   1      46.579  40.653  34.199  1.00  0.00    -0.206 F 
ATOM     98  C   UNL A   1      45.260  42.550  33.797  1.00  0.00     0.059 A 
ATOM     99  C   UNL A   1      43.779  42.611  31.874  1.00  0.00     0.059 A 
ATOM    100  F   UNL A   1      43.632  40.749  30.460  1.00  0.00    -0.206 F 
ATOM    101  C   UNL A   1      44.316  43.212  33.011  1.00  0.00     0.060 A 
BRANCH 101 102
ATOM    102  S   UNL A   1      43.818  44.882  33.484  1.00  0.00     0.124 S 
ATOM    103  O   UNL A   1      42.637  44.616  34.298  1.00  0.00    -0.237 OA
ATOM    104  O   UNL A   1      44.993  45.361  34.206  1.00  0.00    -0.237 OA
ATOM    105  O   UNL A   1      43.565  45.537  32.205  1.00  0.00    -0.744 OA
ENDBRANCH 101 102
ENDBRANCH  69  94
ENDBRANCH  43  44
ENDBRANCH  36  38
ENDBRANCH  35  36
ENDBRANCH  34  35
ENDBRANCH  33  34
ENDBRANCH  32  33
ENDBRANCH  31  32
ENDBRANCH   1  31
TORSDOF 25
ENDMDL
