MODEL 1
REMARK VINA RESULT:      -8.7      0.000      0.000
REMARK SMILES O=C(OCCOCCOCCOC(=O)c1ccc(-c2c3nc(c(-c4c(F)cc(S(=O)(=O)[O-])cc4F)c4ccc([nH]4)c(-c4c(F)cc(S(=O)(=O)[O-])cc4F)c4nc(c(-c5c(F)cc(S(=O)(=O)[O-])cc5F)c5ccc2[nH]5)C=C4)C=C3)cc1)C1=Cc2c(ccc(Cl)c2Oc2ccccc2)O[C@H]1C(F)(F)F
REMARK SMILES IDX 8 1 7 2 6 3 5 4 4 5 3 6 2 7 1 8 81 9 82 10 98 11 83 12 97 13
REMARK SMILES IDX 84 14 89 15 85 16 87 17 86 18 88 19 99 20 100 21 101 22
REMARK SMILES IDX 102 23 90 24 91 25 92 26 96 27 93 28 95 29 94 30 9 31 10 32
REMARK SMILES IDX 11 33 12 34 13 35 14 36 15 37 16 38 80 39 17 40 79 41 18 42
REMARK SMILES IDX 19 43 20 44 73 45 21 46 78 47 72 48 74 49 22 50 77 51 71 52
REMARK SMILES IDX 70 53 23 55 57 56 36 57 56 58 37 59 40 60 55 61 75 62 38 63
REMARK SMILES IDX 39 64 54 66 76 67 41 68 24 69 25 70 34 71 26 72 27 73 33 74
REMARK SMILES IDX 35 75 28 76 29 77 30 78 31 79 32 80 58 81 59 82 68 83 60 84
REMARK SMILES IDX 61 85 67 86 69 87 62 88 63 89 64 90 65 91 66 92 42 93 43 94
REMARK SMILES IDX 52 95 44 96 45 97 51 98 53 99 46 100 47 101 48 102 49 103
REMARK SMILES IDX 50 104
REMARK H PARENT 74 54 40 65
REMARK Flexibility Score: inf
ROOT
ATOM      1  C   UNL A   1      51.832  28.170  40.505  1.00  0.00     0.188 C 
ENDROOT
BRANCH   1   2
ATOM      2  C   UNL A   1      52.070  26.022  40.682  1.00  0.00     0.188 C 
BRANCH   2   3
ATOM      3  O   UNL A   1      51.243  24.854  40.220  1.00  0.00    -0.376 OA
BRANCH   3   4
ATOM      4  C   UNL A   1      50.929  25.010  38.869  1.00  0.00     0.202 C 
BRANCH   4   5
ATOM      5  C   UNL A   1      51.657  24.241  37.722  1.00  0.00     0.261 C 
BRANCH   5   6
ATOM      6  O   UNL A   1      50.731  23.715  36.732  1.00  0.00    -0.460 OA
BRANCH   6   7
ATOM      7  C   UNL A   1      50.667  22.408  36.346  1.00  0.00     0.338 C 
ATOM      8  O   UNL A   1      51.661  21.695  36.365  1.00  0.00    -0.246 OA
BRANCH   7   9
ATOM      9  C   UNL A   1      49.354  21.843  35.952  1.00  0.00     0.088 C 
ATOM     10  C   UNL A   1      48.488  22.708  35.434  1.00  0.00     0.031 C 
ATOM     11  C   UNL A   1      49.231  20.487  35.302  1.00  0.00     0.316 C 
ATOM     12  C   UNL A   1      47.125  22.544  35.064  1.00  0.00     0.062 A 
ATOM     13  O   UNL A   1      47.765  20.144  35.207  1.00  0.00    -0.475 OA
ATOM     14  C   UNL A   1      46.811  21.159  35.073  1.00  0.00     0.131 A 
ATOM     15  C   UNL A   1      46.285  23.649  34.698  1.00  0.00     0.156 A 
ATOM     16  C   UNL A   1      45.482  20.833  34.974  1.00  0.00     0.049 A 
ATOM     17  C   UNL A   1      44.941  23.260  34.688  1.00  0.00     0.084 A 
ATOM     18  C   UNL A   1      44.553  21.885  34.842  1.00  0.00     0.028 A 
ATOM     19  Cl  UNL A   1      43.669  24.426  34.630  1.00  0.00    -0.080 Cl
BRANCH  11  20
ATOM     20  C   UNL A   1      49.948  20.435  33.902  1.00  0.00     0.430 C 
ATOM     21  F   UNL A   1      50.350  21.658  33.479  1.00  0.00    -0.167 F 
ATOM     22  F   UNL A   1      51.036  19.639  33.901  1.00  0.00    -0.167 F 
ATOM     23  F   UNL A   1      49.106  19.973  32.939  1.00  0.00    -0.167 F 
ENDBRANCH  11  20
BRANCH  15  24
ATOM     24  O   UNL A   1      46.642  25.034  34.759  1.00  0.00    -0.455 OA
BRANCH  24  25
ATOM     25  C   UNL A   1      47.343  25.849  33.782  1.00  0.00     0.127 A 
ATOM     26  C   UNL A   1      49.069  26.299  34.179  1.00  0.00     0.047 A 
ATOM     27  C   UNL A   1      46.734  26.183  32.150  1.00  0.00     0.047 A 
ATOM     28  C   UNL A   1      50.204  26.927  32.891  1.00  0.00     0.004 A 
ATOM     29  C   UNL A   1      47.827  26.791  30.838  1.00  0.00     0.004 A 
ATOM     30  C   UNL A   1      49.560  27.207  31.194  1.00  0.00     0.000 A 
ENDBRANCH  24  25
ENDBRANCH  15  24
ENDBRANCH   7   9
ENDBRANCH   6   7
ENDBRANCH   5   6
ENDBRANCH   4   5
ENDBRANCH   3   4
ENDBRANCH   2   3
ENDBRANCH   1   2
BRANCH   1  31
ATOM     31  O   UNL A   1      50.613  29.049  40.565  1.00  0.00    -0.376 OA
BRANCH  31  32
ATOM     32  C   UNL A   1      49.325  28.458  40.743  1.00  0.00     0.202 C 
BRANCH  32  33
ATOM     33  C   UNL A   1      48.657  27.337  39.888  1.00  0.00     0.261 C 
BRANCH  33  34
ATOM     34  O   UNL A   1      47.418  27.613  39.205  1.00  0.00    -0.460 OA
BRANCH  34  35
ATOM     35  C   UNL A   1      47.236  26.958  38.017  1.00  0.00     0.338 C 
ATOM     36  O   UNL A   1      47.779  25.922  37.671  1.00  0.00    -0.246 OA
BRANCH  35  37
ATOM     37  C   UNL A   1      46.110  27.567  37.260  1.00  0.00     0.060 A 
ATOM     38  C   UNL A   1      46.378  28.724  36.513  1.00  0.00     0.016 A 
ATOM     39  C   UNL A   1      44.847  26.966  37.174  1.00  0.00     0.016 A 
ATOM     40  C   UNL A   1      45.421  29.231  35.625  1.00  0.00     0.010 A 
ATOM     41  C   UNL A   1      43.865  27.512  36.329  1.00  0.00     0.010 A 
ATOM     42  C   UNL A   1      44.145  28.648  35.546  1.00  0.00    -0.014 A 
BRANCH  42  43
ATOM     43  C   UNL A   1      43.048  29.456  34.941  1.00  0.00     0.031 A 
ATOM     44  C   UNL A   1      42.680  29.089  33.525  1.00  0.00     0.074 A 
ATOM     45  C   UNL A   1      42.361  30.420  35.587  1.00  0.00     0.049 A 
ATOM     46  N   UNL A   1      41.697  29.514  32.779  1.00  0.00    -0.248 NA
ATOM     47  C   UNL A   1      43.534  28.076  32.875  1.00  0.00     0.031 C 
ATOM     48  C   UNL A   1      42.585  30.867  36.961  1.00  0.00     0.029 A 
ATOM     49  N   UNL A   1      41.314  31.205  35.151  1.00  0.00    -0.354 N 
ATOM     50  C   UNL A   1      41.781  28.778  31.604  1.00  0.00     0.074 A 
ATOM     51  C   UNL A   1      42.932  27.914  31.710  1.00  0.00     0.031 C 
ATOM     52  C   UNL A   1      41.719  31.862  37.245  1.00  0.00     0.029 A 
ATOM     53  C   UNL A   1      40.877  32.127  36.078  1.00  0.00     0.049 A 
ATOM     54  H   UNL A   1      40.914  31.114  34.257  1.00  0.00     0.167 HD
ATOM     55  C   UNL A   1      40.967  28.803  30.526  1.00  0.00     0.037 A 
ATOM     56  C   UNL A   1      39.916  33.074  35.981  1.00  0.00     0.037 A 
ATOM     57  C   UNL A   1      39.879  29.723  30.364  1.00  0.00     0.049 A 
ATOM     58  C   UNL A   1      39.103  33.176  34.705  1.00  0.00     0.074 A 
ATOM     59  C   UNL A   1      39.033  29.869  29.282  1.00  0.00     0.029 A 
ATOM     60  N   UNL A   1      39.510  30.675  31.301  1.00  0.00    -0.354 N 
ATOM     61  N   UNL A   1      39.156  32.431  33.623  1.00  0.00    -0.248 NA
ATOM     62  C   UNL A   1      38.089  34.243  34.639  1.00  0.00     0.031 C 
ATOM     63  C   UNL A   1      38.185  30.951  29.539  1.00  0.00     0.029 A 
ATOM     64  C   UNL A   1      38.461  31.432  30.809  1.00  0.00     0.049 A 
ATOM     65  H   UNL A   1      39.930  30.794  32.183  1.00  0.00     0.167 HD
ATOM     66  C   UNL A   1      38.164  32.917  32.771  1.00  0.00     0.074 A 
ATOM     67  C   UNL A   1      37.513  34.005  33.470  1.00  0.00     0.031 C 
ATOM     68  C   UNL A   1      37.819  32.505  31.525  1.00  0.00     0.037 A 
BRANCH  55  69
ATOM     69  C   UNL A   1      41.262  27.823  29.431  1.00  0.00     0.058 A 
ATOM     70  C   UNL A   1      42.392  27.971  28.609  1.00  0.00     0.135 A 
ATOM     71  C   UNL A   1      40.415  26.730  29.199  1.00  0.00     0.135 A 
ATOM     72  F   UNL A   1      43.209  29.025  28.763  1.00  0.00    -0.206 F 
ATOM     73  C   UNL A   1      42.668  27.069  27.590  1.00  0.00     0.059 A 
ATOM     74  C   UNL A   1      40.686  25.802  28.201  1.00  0.00     0.059 A 
ATOM     75  F   UNL A   1      39.309  26.565  29.941  1.00  0.00    -0.206 F 
ATOM     76  C   UNL A   1      41.812  25.982  27.400  1.00  0.00     0.060 A 
BRANCH  76  77
ATOM     77  S   UNL A   1      42.207  24.799  26.096  1.00  0.00     0.124 S 
ATOM     78  O   UNL A   1      41.239  23.739  26.358  1.00  0.00    -0.237 OA
ATOM     79  O   UNL A   1      41.978  25.584  24.887  1.00  0.00    -0.237 OA
ATOM     80  O   UNL A   1      43.600  24.455  26.361  1.00  0.00    -0.744 OA
ENDBRANCH  76  77
ENDBRANCH  55  69
BRANCH  56  81
ATOM     81  C   UNL A   1      39.661  34.040  37.097  1.00  0.00     0.058 A 
ATOM     82  C   UNL A   1      40.315  35.282  37.161  1.00  0.00     0.135 A 
ATOM     83  C   UNL A   1      38.833  33.693  38.176  1.00  0.00     0.135 A 
ATOM     84  F   UNL A   1      41.138  35.659  36.171  1.00  0.00    -0.206 F 
ATOM     85  C   UNL A   1      40.189  36.123  38.267  1.00  0.00     0.059 A 
ATOM     86  C   UNL A   1      38.666  34.531  39.278  1.00  0.00     0.059 A 
ATOM     87  F   UNL A   1      38.184  32.518  38.175  1.00  0.00    -0.206 F 
ATOM     88  C   UNL A   1      39.366  35.735  39.325  1.00  0.00     0.060 A 
BRANCH  88  89
ATOM     89  S   UNL A   1      39.215  36.827  40.759  1.00  0.00     0.124 S 
ATOM     90  O   UNL A   1      38.525  35.967  41.713  1.00  0.00    -0.237 OA
ATOM     91  O   UNL A   1      40.610  37.128  41.064  1.00  0.00    -0.237 OA
ATOM     92  O   UNL A   1      38.435  37.950  40.246  1.00  0.00    -0.744 OA
ENDBRANCH  88  89
ENDBRANCH  56  81
BRANCH  68  93
ATOM     93  C   UNL A   1      36.666  33.199  30.846  1.00  0.00     0.058 A 
ATOM     94  C   UNL A   1      35.337  33.009  31.257  1.00  0.00     0.135 A 
ATOM     95  C   UNL A   1      36.902  34.108  29.801  1.00  0.00     0.135 A 
ATOM     96  F   UNL A   1      35.054  32.156  32.254  1.00  0.00    -0.206 F 
ATOM     97  C   UNL A   1      34.281  33.663  30.630  1.00  0.00     0.059 A 
ATOM     98  C   UNL A   1      35.864  34.801  29.184  1.00  0.00     0.059 A 
ATOM     99  F   UNL A   1      38.154  34.348  29.381  1.00  0.00    -0.206 F 
ATOM    100  C   UNL A   1      34.555  34.556  29.593  1.00  0.00     0.060 A 
BRANCH 100 101
ATOM    101  S   UNL A   1      33.176  35.404  28.793  1.00  0.00     0.124 S 
ATOM    102  O   UNL A   1      32.580  34.325  28.014  1.00  0.00    -0.237 OA
ATOM    103  O   UNL A   1      32.394  35.873  29.932  1.00  0.00    -0.237 OA
ATOM    104  O   UNL A   1      33.828  36.454  28.014  1.00  0.00    -0.744 OA
ENDBRANCH 100 101
ENDBRANCH  68  93
ENDBRANCH  42  43
ENDBRANCH  35  37
ENDBRANCH  34  35
ENDBRANCH  33  34
ENDBRANCH  32  33
ENDBRANCH  31  32
ENDBRANCH   1  31
TORSDOF 23
ENDMDL
MODEL 2
REMARK VINA RESULT:      -8.5      7.389     15.142
REMARK SMILES O=C(OCCOCCOCCOC(=O)c1ccc(-c2c3nc(c(-c4c(F)cc(S(=O)(=O)[O-])cc4F)c4ccc([nH]4)c(-c4c(F)cc(S(=O)(=O)[O-])cc4F)c4nc(c(-c5c(F)cc(S(=O)(=O)[O-])cc5F)c5ccc2[nH]5)C=C4)C=C3)cc1)C1=Cc2c(ccc(Cl)c2Oc2ccccc2)O[C@H]1C(F)(F)F
REMARK SMILES IDX 8 1 7 2 6 3 5 4 4 5 3 6 2 7 1 8 81 9 82 10 98 11 83 12 97 13
REMARK SMILES IDX 84 14 89 15 85 16 87 17 86 18 88 19 99 20 100 21 101 22
REMARK SMILES IDX 102 23 90 24 91 25 92 26 96 27 93 28 95 29 94 30 9 31 10 32
REMARK SMILES IDX 11 33 12 34 13 35 14 36 15 37 16 38 80 39 17 40 79 41 18 42
REMARK SMILES IDX 19 43 20 44 73 45 21 46 78 47 72 48 74 49 22 50 77 51 71 52
REMARK SMILES IDX 70 53 23 55 57 56 36 57 56 58 37 59 40 60 55 61 75 62 38 63
REMARK SMILES IDX 39 64 54 66 76 67 41 68 24 69 25 70 34 71 26 72 27 73 33 74
REMARK SMILES IDX 35 75 28 76 29 77 30 78 31 79 32 80 58 81 59 82 68 83 60 84
REMARK SMILES IDX 61 85 67 86 69 87 62 88 63 89 64 90 65 91 66 92 42 93 43 94
REMARK SMILES IDX 52 95 44 96 45 97 51 98 53 99 46 100 47 101 48 102 49 103
REMARK SMILES IDX 50 104
REMARK H PARENT 74 54 40 65
REMARK Flexibility Score: inf
ROOT
ATOM      1  C   UNL A   1      43.792  38.977  31.354  1.00  0.00     0.188 C 
ENDROOT
BRANCH   1   2
ATOM      2  C   UNL A   1      44.225  37.361  32.731  1.00  0.00     0.188 C 
BRANCH   2   3
ATOM      3  O   UNL A   1      44.204  35.863  32.599  1.00  0.00    -0.376 OA
BRANCH   3   4
ATOM      4  C   UNL A   1      42.952  35.454  32.135  1.00  0.00     0.202 C 
BRANCH   4   5
ATOM      5  C   UNL A   1      41.821  34.917  33.069  1.00  0.00     0.261 C 
BRANCH   5   6
ATOM      6  O   UNL A   1      40.771  34.233  32.332  1.00  0.00    -0.460 OA
BRANCH   6   7
ATOM      7  C   UNL A   1      40.179  33.069  32.724  1.00  0.00     0.338 C 
ATOM      8  O   UNL A   1      39.960  32.839  33.905  1.00  0.00    -0.246 OA
BRANCH   7   9
ATOM      9  C   UNL A   1      39.751  32.101  31.686  1.00  0.00     0.088 C 
ATOM     10  C   UNL A   1      38.869  32.558  30.802  1.00  0.00     0.031 C 
ATOM     11  C   UNL A   1      40.717  31.134  31.048  1.00  0.00     0.316 C 
ATOM     12  C   UNL A   1      38.166  31.887  29.765  1.00  0.00     0.062 A 
ATOM     13  O   UNL A   1      39.927  30.180  30.186  1.00  0.00    -0.475 OA
ATOM     14  C   UNL A   1      38.734  30.598  29.584  1.00  0.00     0.131 A 
ATOM     15  C   UNL A   1      37.101  32.505  29.027  1.00  0.00     0.156 A 
ATOM     16  C   UNL A   1      38.031  29.725  28.793  1.00  0.00     0.049 A 
ATOM     17  C   UNL A   1      36.386  31.546  28.302  1.00  0.00     0.084 A 
ATOM     18  C   UNL A   1      36.835  30.184  28.206  1.00  0.00     0.028 A 
ATOM     19  Cl  UNL A   1      34.852  31.911  27.598  1.00  0.00    -0.080 Cl
BRANCH  11  20
ATOM     20  C   UNL A   1      41.846  31.873  30.238  1.00  0.00     0.430 C 
ATOM     21  F   UNL A   1      42.887  32.245  31.021  1.00  0.00    -0.167 F 
ATOM     22  F   UNL A   1      42.351  31.122  29.240  1.00  0.00    -0.167 F 
ATOM     23  F   UNL A   1      41.375  33.022  29.683  1.00  0.00    -0.167 F 
ENDBRANCH  11  20
BRANCH  15  24
ATOM     24  O   UNL A   1      36.533  33.793  29.289  1.00  0.00    -0.455 OA
BRANCH  24  25
ATOM     25  C   UNL A   1      35.446  34.156  30.180  1.00  0.00     0.127 A 
ATOM     26  C   UNL A   1      35.832  34.207  31.966  1.00  0.00     0.047 A 
ATOM     27  C   UNL A   1      33.890  34.808  29.632  1.00  0.00     0.047 A 
ATOM     28  C   UNL A   1      34.727  35.054  33.151  1.00  0.00     0.004 A 
ATOM     29  C   UNL A   1      32.770  35.670  30.768  1.00  0.00     0.004 A 
ATOM     30  C   UNL A   1      33.150  35.773  32.543  1.00  0.00     0.000 A 
ENDBRANCH  24  25
ENDBRANCH  15  24
ENDBRANCH   7   9
ENDBRANCH   6   7
ENDBRANCH   5   6
ENDBRANCH   4   5
ENDBRANCH   3   4
ENDBRANCH   2   3
ENDBRANCH   1   2
BRANCH   1  31
ATOM     31  O   UNL A   1      44.280  39.261  29.960  1.00  0.00    -0.376 OA
BRANCH  31  32
ATOM     32  C   UNL A   1      44.018  38.324  28.915  1.00  0.00     0.202 C 
BRANCH  32  33
ATOM     33  C   UNL A   1      42.683  38.101  28.139  1.00  0.00     0.261 C 
BRANCH  33  34
ATOM     34  O   UNL A   1      42.667  37.219  26.999  1.00  0.00    -0.460 OA
BRANCH  34  35
ATOM     35  C   UNL A   1      42.190  35.958  27.230  1.00  0.00     0.338 C 
ATOM     36  O   UNL A   1      41.019  35.638  27.356  1.00  0.00    -0.246 OA
BRANCH  35  37
ATOM     37  C   UNL A   1      43.285  34.960  27.101  1.00  0.00     0.060 A 
ATOM     38  C   UNL A   1      43.871  34.480  28.281  1.00  0.00     0.016 A 
ATOM     39  C   UNL A   1      43.659  34.406  25.869  1.00  0.00     0.016 A 
ATOM     40  C   UNL A   1      44.763  33.401  28.242  1.00  0.00     0.010 A 
ATOM     41  C   UNL A   1      44.602  33.363  25.824  1.00  0.00     0.010 A 
ATOM     42  C   UNL A   1      45.160  32.852  27.011  1.00  0.00    -0.014 A 
BRANCH  42  43
ATOM     43  C   UNL A   1      46.403  32.029  26.985  1.00  0.00     0.031 A 
ATOM     44  C   UNL A   1      46.196  30.541  27.107  1.00  0.00     0.074 A 
ATOM     45  C   UNL A   1      47.645  32.525  26.811  1.00  0.00     0.049 A 
ATOM     46  N   UNL A   1      47.055  29.564  26.992  1.00  0.00    -0.248 NA
ATOM     47  C   UNL A   1      44.813  30.097  27.369  1.00  0.00     0.031 C 
ATOM     48  C   UNL A   1      47.998  33.935  26.656  1.00  0.00     0.029 A 
ATOM     49  N   UNL A   1      48.857  31.871  26.736  1.00  0.00    -0.354 N 
ATOM     50  C   UNL A   1      46.308  28.400  27.106  1.00  0.00     0.074 A 
ATOM     51  C   UNL A   1      44.936  28.782  27.345  1.00  0.00     0.031 C 
ATOM     52  C   UNL A   1      49.337  34.041  26.527  1.00  0.00     0.029 A 
ATOM     53  C   UNL A   1      49.942  32.709  26.592  1.00  0.00     0.049 A 
ATOM     54  H   UNL A   1      48.939  30.892  26.780  1.00  0.00     0.167 HD
ATOM     55  C   UNL A   1      46.715  27.115  27.010  1.00  0.00     0.037 A 
ATOM     56  C   UNL A   1      51.263  32.425  26.529  1.00  0.00     0.037 A 
ATOM     57  C   UNL A   1      48.086  26.718  26.872  1.00  0.00     0.049 A 
ATOM     58  C   UNL A   1      51.710  30.976  26.563  1.00  0.00     0.074 A 
ATOM     59  C   UNL A   1      48.608  25.440  26.828  1.00  0.00     0.029 A 
ATOM     60  N   UNL A   1      49.154  27.596  26.788  1.00  0.00    -0.354 N 
ATOM     61  N   UNL A   1      50.984  29.882  26.611  1.00  0.00    -0.248 NA
ATOM     62  C   UNL A   1      53.161  30.722  26.522  1.00  0.00     0.031 C 
ATOM     63  C   UNL A   1      50.002  25.544  26.774  1.00  0.00     0.029 A 
ATOM     64  C   UNL A   1      50.339  26.887  26.718  1.00  0.00     0.049 A 
ATOM     65  H   UNL A   1      49.080  28.578  26.780  1.00  0.00     0.167 HD
ATOM     66  C   UNL A   1      51.886  28.818  26.570  1.00  0.00     0.074 A 
ATOM     67  C   UNL A   1      53.208  29.398  26.473  1.00  0.00     0.031 C 
ATOM     68  C   UNL A   1      51.647  27.483  26.610  1.00  0.00     0.037 A 
BRANCH  55  69
ATOM     69  C   UNL A   1      45.655  26.059  27.093  1.00  0.00     0.058 A 
ATOM     70  C   UNL A   1      45.337  25.443  28.314  1.00  0.00     0.135 A 
ATOM     71  C   UNL A   1      44.951  25.660  25.948  1.00  0.00     0.135 A 
ATOM     72  F   UNL A   1      46.014  25.760  29.430  1.00  0.00    -0.206 F 
ATOM     73  C   UNL A   1      44.359  24.460  28.395  1.00  0.00     0.059 A 
ATOM     74  C   UNL A   1      43.950  24.696  26.011  1.00  0.00     0.059 A 
ATOM     75  F   UNL A   1      45.240  26.201  24.755  1.00  0.00    -0.206 F 
ATOM     76  C   UNL A   1      43.665  24.100  27.238  1.00  0.00     0.060 A 
BRANCH  76  77
ATOM     77  S   UNL A   1      42.371  22.850  27.370  1.00  0.00     0.124 S 
ATOM     78  O   UNL A   1      41.333  23.410  26.511  1.00  0.00    -0.237 OA
ATOM     79  O   UNL A   1      43.041  21.658  26.861  1.00  0.00    -0.237 OA
ATOM     80  O   UNL A   1      42.061  22.831  28.796  1.00  0.00    -0.744 OA
ENDBRANCH  76  77
ENDBRANCH  55  69
BRANCH  56  81
ATOM     81  C   UNL A   1      52.289  33.512  26.458  1.00  0.00     0.058 A 
ATOM     82  C   UNL A   1      52.841  34.084  27.617  1.00  0.00     0.135 A 
ATOM     83  C   UNL A   1      52.664  34.072  25.226  1.00  0.00     0.135 A 
ATOM     84  F   UNL A   1      52.503  33.609  28.825  1.00  0.00    -0.206 F 
ATOM     85  C   UNL A   1      53.689  35.190  27.560  1.00  0.00     0.059 A 
ATOM     86  C   UNL A   1      53.535  35.157  25.142  1.00  0.00     0.059 A 
ATOM     87  F   UNL A   1      52.168  33.572  24.083  1.00  0.00    -0.206 F 
ATOM     88  C   UNL A   1      54.026  35.724  26.316  1.00  0.00     0.060 A 
BRANCH  88  89
ATOM     89  S   UNL A   1      55.120  37.163  26.251  1.00  0.00     0.124 S 
ATOM     90  O   UNL A   1      56.412  36.540  25.988  1.00  0.00    -0.237 OA
ATOM     91  O   UNL A   1      54.547  37.934  25.151  1.00  0.00    -0.237 OA
ATOM     92  O   UNL A   1      54.968  37.761  27.573  1.00  0.00    -0.744 OA
ENDBRANCH  88  89
ENDBRANCH  56  81
BRANCH  68  93
ATOM     93  C   UNL A   1      52.827  26.551  26.509  1.00  0.00     0.058 A 
ATOM     94  C   UNL A   1      53.235  25.997  25.286  1.00  0.00     0.135 A 
ATOM     95  C   UNL A   1      53.593  26.251  27.648  1.00  0.00     0.135 A 
ATOM     96  F   UNL A   1      52.544  26.255  24.164  1.00  0.00    -0.206 F 
ATOM     97  C   UNL A   1      54.333  25.147  25.201  1.00  0.00     0.059 A 
ATOM     98  C   UNL A   1      54.717  25.432  27.581  1.00  0.00     0.059 A 
ATOM     99  F   UNL A   1      53.264  26.771  28.842  1.00  0.00    -0.206 F 
ATOM    100  C   UNL A   1      55.067  24.870  26.356  1.00  0.00     0.060 A 
BRANCH 100 101
ATOM    101  S   UNL A   1      56.494  23.771  26.232  1.00  0.00     0.124 S 
ATOM    102  O   UNL A   1      56.925  24.003  24.858  1.00  0.00    -0.237 OA
ATOM    103  O   UNL A   1      57.379  24.289  27.270  1.00  0.00    -0.237 OA
ATOM    104  O   UNL A   1      55.931  22.450  26.499  1.00  0.00    -0.744 OA
ENDBRANCH 100 101
ENDBRANCH  68  93
ENDBRANCH  42  43
ENDBRANCH  35  37
ENDBRANCH  34  35
ENDBRANCH  33  34
ENDBRANCH  32  33
ENDBRANCH  31  32
ENDBRANCH   1  31
TORSDOF 23
ENDMDL
MODEL 3
REMARK VINA RESULT:      -8.5      4.367     14.047
REMARK SMILES O=C(OCCOCCOCCOC(=O)c1ccc(-c2c3nc(c(-c4c(F)cc(S(=O)(=O)[O-])cc4F)c4ccc([nH]4)c(-c4c(F)cc(S(=O)(=O)[O-])cc4F)c4nc(c(-c5c(F)cc(S(=O)(=O)[O-])cc5F)c5ccc2[nH]5)C=C4)C=C3)cc1)C1=Cc2c(ccc(Cl)c2Oc2ccccc2)O[C@H]1C(F)(F)F
REMARK SMILES IDX 8 1 7 2 6 3 5 4 4 5 3 6 2 7 1 8 81 9 82 10 98 11 83 12 97 13
REMARK SMILES IDX 84 14 89 15 85 16 87 17 86 18 88 19 99 20 100 21 101 22
REMARK SMILES IDX 102 23 90 24 91 25 92 26 96 27 93 28 95 29 94 30 9 31 10 32
REMARK SMILES IDX 11 33 12 34 13 35 14 36 15 37 16 38 80 39 17 40 79 41 18 42
REMARK SMILES IDX 19 43 20 44 73 45 21 46 78 47 72 48 74 49 22 50 77 51 71 52
REMARK SMILES IDX 70 53 23 55 57 56 36 57 56 58 37 59 40 60 55 61 75 62 38 63
REMARK SMILES IDX 39 64 54 66 76 67 41 68 24 69 25 70 34 71 26 72 27 73 33 74
REMARK SMILES IDX 35 75 28 76 29 77 30 78 31 79 32 80 58 81 59 82 68 83 60 84
REMARK SMILES IDX 61 85 67 86 69 87 62 88 63 89 64 90 65 91 66 92 42 93 43 94
REMARK SMILES IDX 52 95 44 96 45 97 51 98 53 99 46 100 47 101 48 102 49 103
REMARK SMILES IDX 50 104
REMARK H PARENT 74 54 40 65
REMARK Flexibility Score: inf
ROOT
ATOM      1  C   UNL A   1      36.130  33.803  28.509  1.00  0.00     0.188 C 
ENDROOT
BRANCH   1   2
ATOM      2  C   UNL A   1      36.849  31.940  29.352  1.00  0.00     0.188 C 
BRANCH   2   3
ATOM      3  O   UNL A   1      36.333  30.527  29.315  1.00  0.00    -0.376 OA
BRANCH   3   4
ATOM      4  C   UNL A   1      37.410  29.638  29.327  1.00  0.00     0.202 C 
BRANCH   4   5
ATOM      5  C   UNL A   1      37.780  28.718  28.122  1.00  0.00     0.261 C 
BRANCH   5   6
ATOM      6  O   UNL A   1      39.030  28.006  28.330  1.00  0.00    -0.460 OA
BRANCH   6   7
ATOM      7  C   UNL A   1      39.184  26.933  29.157  1.00  0.00     0.338 C 
ATOM      8  O   UNL A   1      38.899  27.004  30.345  1.00  0.00    -0.246 OA
BRANCH   7   9
ATOM      9  C   UNL A   1      39.653  25.649  28.582  1.00  0.00     0.088 C 
ATOM     10  C   UNL A   1      38.930  25.173  27.573  1.00  0.00     0.031 C 
ATOM     11  C   UNL A   1      41.119  25.344  28.398  1.00  0.00     0.316 C 
ATOM     12  C   UNL A   1      39.015  23.937  26.875  1.00  0.00     0.062 A 
ATOM     13  O   UNL A   1      41.249  23.902  27.972  1.00  0.00    -0.475 OA
ATOM     14  C   UNL A   1      40.229  23.292  27.231  1.00  0.00     0.131 A 
ATOM     15  C   UNL A   1      38.020  23.511  25.932  1.00  0.00     0.156 A 
ATOM     16  C   UNL A   1      40.365  21.985  26.839  1.00  0.00     0.049 A 
ATOM     17  C   UNL A   1      38.177  22.153  25.635  1.00  0.00     0.084 A 
ATOM     18  C   UNL A   1      39.316  21.407  26.096  1.00  0.00     0.028 A 
ATOM     19  Cl  UNL A   1      36.944  21.264  24.816  1.00  0.00    -0.080 Cl
BRANCH  11  20
ATOM     20  C   UNL A   1      41.806  26.330  27.382  1.00  0.00     0.430 C 
ATOM     21  F   UNL A   1      42.869  25.772  26.755  1.00  0.00    -0.167 F 
ATOM     22  F   UNL A   1      40.963  26.762  26.423  1.00  0.00    -0.167 F 
ATOM     23  F   UNL A   1      42.291  27.429  28.020  1.00  0.00    -0.167 F 
ENDBRANCH  11  20
BRANCH  15  24
ATOM     24  O   UNL A   1      36.786  24.180  25.651  1.00  0.00    -0.455 OA
BRANCH  24  25
ATOM     25  C   UNL A   1      35.425  23.684  25.750  1.00  0.00     0.127 A 
ATOM     26  C   UNL A   1      34.417  23.751  24.226  1.00  0.00     0.047 A 
ATOM     27  C   UNL A   1      34.795  22.786  27.143  1.00  0.00     0.047 A 
ATOM     28  C   UNL A   1      32.874  22.784  24.068  1.00  0.00     0.004 A 
ATOM     29  C   UNL A   1      33.278  21.800  27.027  1.00  0.00     0.004 A 
ATOM     30  C   UNL A   1      32.278  21.814  25.509  1.00  0.00     0.000 A 
ENDBRANCH  24  25
ENDBRANCH  15  24
ENDBRANCH   7   9
ENDBRANCH   6   7
ENDBRANCH   5   6
ENDBRANCH   4   5
ENDBRANCH   3   4
ENDBRANCH   2   3
ENDBRANCH   1   2
BRANCH   1  31
ATOM     31  O   UNL A   1      34.748  34.267  28.141  1.00  0.00    -0.376 OA
BRANCH  31  32
ATOM     32  C   UNL A   1      33.700  34.201  29.109  1.00  0.00     0.202 C 
BRANCH  32  33
ATOM     33  C   UNL A   1      33.525  35.071  30.393  1.00  0.00     0.261 C 
BRANCH  33  34
ATOM     34  O   UNL A   1      34.558  35.063  31.398  1.00  0.00    -0.460 OA
BRANCH  34  35
ATOM     35  C   UNL A   1      34.566  33.980  32.234  1.00  0.00     0.338 C 
ATOM     36  O   UNL A   1      33.598  33.320  32.573  1.00  0.00    -0.246 OA
BRANCH  35  37
ATOM     37  C   UNL A   1      35.964  33.565  32.528  1.00  0.00     0.060 A 
ATOM     38  C   UNL A   1      36.156  32.333  33.172  1.00  0.00     0.016 A 
ATOM     39  C   UNL A   1      37.075  34.291  32.082  1.00  0.00     0.016 A 
ATOM     40  C   UNL A   1      37.441  31.792  33.298  1.00  0.00     0.010 A 
ATOM     41  C   UNL A   1      38.372  33.777  32.264  1.00  0.00     0.010 A 
ATOM     42  C   UNL A   1      38.564  32.522  32.873  1.00  0.00    -0.014 A 
BRANCH  42  43
ATOM     43  C   UNL A   1      39.897  32.123  33.409  1.00  0.00     0.031 A 
ATOM     44  C   UNL A   1      40.302  32.791  34.698  1.00  0.00     0.074 A 
ATOM     45  C   UNL A   1      40.699  31.194  32.850  1.00  0.00     0.049 A 
ATOM     46  N   UNL A   1      41.330  32.565  35.471  1.00  0.00    -0.248 NA
ATOM     47  C   UNL A   1      39.397  33.846  35.195  1.00  0.00     0.031 C 
ATOM     48  C   UNL A   1      40.432  30.448  31.621  1.00  0.00     0.029 A 
ATOM     49  N   UNL A   1      41.925  30.718  33.264  1.00  0.00    -0.354 N 
ATOM     50  C   UNL A   1      41.159  33.402  36.566  1.00  0.00     0.074 A 
ATOM     51  C   UNL A   1      39.961  34.175  36.343  1.00  0.00     0.031 C 
ATOM     52  C   UNL A   1      41.473  29.628  31.370  1.00  0.00     0.029 A 
ATOM     53  C   UNL A   1      42.485  29.786  32.417  1.00  0.00     0.049 A 
ATOM     54  H   UNL A   1      42.362  31.017  34.094  1.00  0.00     0.167 HD
ATOM     55  C   UNL A   1      41.923  33.518  37.674  1.00  0.00     0.037 A 
ATOM     56  C   UNL A   1      43.676  29.149  32.482  1.00  0.00     0.037 A 
ATOM     57  C   UNL A   1      43.167  32.830  37.866  1.00  0.00     0.049 A 
ATOM     58  C   UNL A   1      44.584  29.400  33.671  1.00  0.00     0.074 A 
ATOM     59  C   UNL A   1      44.046  32.927  38.927  1.00  0.00     0.029 A 
ATOM     60  N   UNL A   1      43.722  31.943  36.958  1.00  0.00    -0.354 N 
ATOM     61  N   UNL A   1      44.381  30.152  34.730  1.00  0.00    -0.248 NA
ATOM     62  C   UNL A   1      45.883  28.705  33.681  1.00  0.00     0.031 C 
ATOM     63  C   UNL A   1      45.164  32.139  38.635  1.00  0.00     0.029 A 
ATOM     64  C   UNL A   1      44.948  31.503  37.423  1.00  0.00     0.049 A 
ATOM     65  H   UNL A   1      43.306  31.667  36.109  1.00  0.00     0.167 HD
ATOM     66  C   UNL A   1      45.505  29.990  35.540  1.00  0.00     0.074 A 
ATOM     67  C   UNL A   1      46.376  29.055  34.860  1.00  0.00     0.031 C 
ATOM     68  C   UNL A   1      45.796  30.562  36.736  1.00  0.00     0.037 A 
BRANCH  55  69
ATOM     69  C   UNL A   1      41.437  34.456  38.738  1.00  0.00     0.058 A 
ATOM     70  C   UNL A   1      40.650  33.996  39.806  1.00  0.00     0.135 A 
ATOM     71  C   UNL A   1      41.759  35.819  38.693  1.00  0.00     0.135 A 
ATOM     72  F   UNL A   1      40.278  32.707  39.870  1.00  0.00    -0.206 F 
ATOM     73  C   UNL A   1      40.192  34.861  40.792  1.00  0.00     0.059 A 
ATOM     74  C   UNL A   1      41.333  36.698  39.682  1.00  0.00     0.059 A 
ATOM     75  F   UNL A   1      42.486  36.308  37.676  1.00  0.00    -0.206 F 
ATOM     76  C   UNL A   1      40.548  36.210  40.725  1.00  0.00     0.060 A 
BRANCH  76  77
ATOM     77  S   UNL A   1      39.978  37.311  42.035  1.00  0.00     0.124 S 
ATOM     78  O   UNL A   1      39.293  38.347  41.270  1.00  0.00    -0.237 OA
ATOM     79  O   UNL A   1      39.120  36.433  42.824  1.00  0.00    -0.237 OA
ATOM     80  O   UNL A   1      41.214  37.729  42.690  1.00  0.00    -0.744 OA
ENDBRANCH  76  77
ENDBRANCH  55  69
BRANCH  56  81
ATOM     81  C   UNL A   1      44.127  28.228  31.392  1.00  0.00     0.058 A 
ATOM     82  C   UNL A   1      44.003  26.833  31.506  1.00  0.00     0.135 A 
ATOM     83  C   UNL A   1      44.784  28.724  30.254  1.00  0.00     0.135 A 
ATOM     84  F   UNL A   1      43.406  26.299  32.582  1.00  0.00    -0.206 F 
ATOM     85  C   UNL A   1      44.547  25.966  30.558  1.00  0.00     0.059 A 
ATOM     86  C   UNL A   1      45.308  27.878  29.277  1.00  0.00     0.059 A 
ATOM     87  F   UNL A   1      44.937  30.047  30.089  1.00  0.00    -0.206 F 
ATOM     88  C   UNL A   1      45.204  26.499  29.449  1.00  0.00     0.060 A 
BRANCH  88  89
ATOM     89  S   UNL A   1      45.915  25.369  28.228  1.00  0.00     0.124 S 
ATOM     90  O   UNL A   1      47.266  25.187  28.747  1.00  0.00    -0.237 OA
ATOM     91  O   UNL A   1      45.030  24.212  28.330  1.00  0.00    -0.237 OA
ATOM     92  O   UNL A   1      45.817  26.118  26.979  1.00  0.00    -0.744 OA
ENDBRANCH  88  89
ENDBRANCH  56  81
BRANCH  68  93
ATOM     93  C   UNL A   1      47.084  30.168  37.412  1.00  0.00     0.058 A 
ATOM     94  C   UNL A   1      48.266  30.907  37.249  1.00  0.00     0.135 A 
ATOM     95  C   UNL A   1      47.121  29.063  38.279  1.00  0.00     0.135 A 
ATOM     96  F   UNL A   1      48.287  31.976  36.437  1.00  0.00    -0.206 F 
ATOM     97  C   UNL A   1      49.448  30.542  37.886  1.00  0.00     0.059 A 
ATOM     98  C   UNL A   1      48.282  28.701  38.956  1.00  0.00     0.059 A 
ATOM     99  F   UNL A   1      46.015  28.332  38.493  1.00  0.00    -0.206 F 
ATOM    100  C   UNL A   1      49.445  29.435  38.738  1.00  0.00     0.060 A 
BRANCH 100 101
ATOM    101  S   UNL A   1      50.982  28.976  39.565  1.00  0.00     0.124 S 
ATOM    102  O   UNL A   1      51.156  30.084  40.498  1.00  0.00    -0.237 OA
ATOM    103  O   UNL A   1      50.643  27.689  40.164  1.00  0.00    -0.237 OA
ATOM    104  O   UNL A   1      51.952  28.916  38.475  1.00  0.00    -0.744 OA
ENDBRANCH 100 101
ENDBRANCH  68  93
ENDBRANCH  42  43
ENDBRANCH  35  37
ENDBRANCH  34  35
ENDBRANCH  33  34
ENDBRANCH  32  33
ENDBRANCH  31  32
ENDBRANCH   1  31
TORSDOF 23
ENDMDL
