MODEL 1
REMARK VINA RESULT:     -10.5      0.000      0.000
REMARK SMILES Cc1nn(C)c(C)c1CNC(=O)N[C@H]1CC[C@@H](C(=O)OCCOCCOCCOC(=O)c2ccc(-c3c4nc(c(-c5c(F)cc(S(=O)(=O)[O-])cc5F)c5ccc([nH]5)c(-c5c(F)cc(S(=O)(=O)[O-])cc5F)c5nc(c(-c6c(F)cc(S(=O)(=O)[O-])cc6F)c6ccc3[nH]6)C=C5)C=C4)cc2)C1
REMARK SMILES IDX 24 1 23 2 22 3 21 4 20 5 18 6 19 7 17 8 14 9 15 10 98 11
REMARK SMILES IDX 16 12 13 13 10 14 11 15 12 17 9 19 8 20 1 21 2 22 3 23 4 24
REMARK SMILES IDX 6 25 5 26 7 27 25 28 26 29 27 30 28 31 29 32 30 33 31 34
REMARK SMILES IDX 32 35 33 36 97 37 34 38 96 39 35 40 36 41 37 42 90 43 38 44
REMARK SMILES IDX 95 45 89 46 91 47 39 48 94 49 88 50 87 51 40 53 74 54 53 55
REMARK SMILES IDX 73 56 54 57 57 58 72 59 92 60 55 61 56 62 71 64 93 65 58 66
REMARK SMILES IDX 41 67 42 68 51 69 43 70 44 71 50 72 52 73 45 74 46 75 47 76
REMARK SMILES IDX 48 77 49 78 75 79 76 80 85 81 77 82 78 83 84 84 86 85 79 86
REMARK SMILES IDX 80 87 81 88 82 89 83 90 59 91 60 92 69 93 61 94 62 95 68 96
REMARK SMILES IDX 70 97 63 98 64 99 65 100 66 101 67 102
REMARK H PARENT 10 16 13 18 91 52 57 63
REMARK Flexibility Score: inf
ROOT
ATOM      1  C   UNL A   1      39.843  22.121  26.740  1.00  0.00     0.188 C 
ENDROOT
BRANCH   1   2
ATOM      2  O   UNL A   1      38.651  22.312  25.993  1.00  0.00    -0.376 OA
BRANCH   2   3
ATOM      3  C   UNL A   1      37.939  23.540  26.113  1.00  0.00     0.202 C 
BRANCH   3   4
ATOM      4  C   UNL A   1      36.692  23.824  25.253  1.00  0.00     0.261 C 
BRANCH   4   5
ATOM      5  O   UNL A   1      36.336  22.769  24.340  1.00  0.00    -0.463 OA
BRANCH   5   6
ATOM      6  C   UNL A   1      35.202  22.954  23.615  1.00  0.00     0.309 C 
ATOM      7  O   UNL A   1      35.182  23.210  22.419  1.00  0.00    -0.252 OA
BRANCH   6   8
ATOM      8  C   UNL A   1      33.934  22.695  24.424  1.00  0.00     0.101 C 
ATOM      9  C   UNL A   1      31.996  23.549  23.255  1.00  0.00     0.084 C 
ATOM     10  C   UNL A   1      31.964  22.032  23.109  1.00  0.00     0.026 C 
ATOM     11  C   UNL A   1      32.864  23.785  24.470  1.00  0.00     0.040 C 
ATOM     12  C   UNL A   1      33.179  21.486  23.867  1.00  0.00     0.017 C 
BRANCH   9  13
ATOM     13  N   UNL A   1      32.572  24.204  22.090  1.00  0.00    -0.335 N 
ATOM     14  N   UNL A   1      31.812  26.432  22.187  1.00  0.00    -0.334 N 
ATOM     15  C   UNL A   1      32.538  25.460  21.630  1.00  0.00     0.315 C 
ATOM     16  H   UNL A   1      31.985  27.318  21.793  1.00  0.00     0.165 HD
ATOM     17  O   UNL A   1      33.238  25.743  20.655  1.00  0.00    -0.249 OA
ATOM     18  H   UNL A   1      33.098  23.597  21.522  1.00  0.00     0.165 HD
BRANCH  14  19
ATOM     19  C   UNL A   1      30.830  26.464  23.239  1.00  0.00     0.157 C 
BRANCH  19  20
ATOM     20  C   UNL A   1      31.029  27.632  24.152  1.00  0.00     0.015 A 
ATOM     21  C   UNL A   1      29.945  29.465  22.619  1.00  0.00     0.069 C 
ATOM     22  C   UNL A   1      30.655  28.971  23.825  1.00  0.00     0.065 A 
ATOM     23  N   UNL A   1      31.022  29.842  24.767  1.00  0.00    -0.178 NA
ATOM     24  N   UNL A   1      31.584  29.082  25.719  1.00  0.00    -0.272 N 
ATOM     25  C   UNL A   1      31.528  27.735  25.450  1.00  0.00     0.040 A 
ATOM     26  C   UNL A   1      32.180  29.750  26.853  1.00  0.00     0.174 C 
ATOM     27  C   UNL A   1      31.967  26.726  26.451  1.00  0.00     0.067 C 
ENDBRANCH  19  20
ENDBRANCH  14  19
ENDBRANCH   9  13
ENDBRANCH   6   8
ENDBRANCH   5   6
ENDBRANCH   4   5
ENDBRANCH   3   4
ENDBRANCH   2   3
ENDBRANCH   1   2
BRANCH   1  28
ATOM     28  C   UNL A   1      40.897  21.141  26.211  1.00  0.00     0.188 C 
BRANCH  28  29
ATOM     29  O   UNL A   1      41.973  21.719  25.517  1.00  0.00    -0.376 OA
BRANCH  29  30
ATOM     30  C   UNL A   1      43.294  21.506  25.999  1.00  0.00     0.202 C 
BRANCH  30  31
ATOM     31  C   UNL A   1      44.296  22.636  26.337  1.00  0.00     0.261 C 
BRANCH  31  32
ATOM     32  O   UNL A   1      43.838  23.765  27.095  1.00  0.00    -0.460 OA
BRANCH  32  33
ATOM     33  C   UNL A   1      43.409  24.846  26.398  1.00  0.00     0.338 C 
ATOM     34  O   UNL A   1      43.269  24.925  25.186  1.00  0.00    -0.246 OA
BRANCH  33  35
ATOM     35  C   UNL A   1      42.881  25.831  27.372  1.00  0.00     0.060 A 
ATOM     36  C   UNL A   1      43.282  27.173  27.274  1.00  0.00     0.016 A 
ATOM     37  C   UNL A   1      41.974  25.440  28.358  1.00  0.00     0.016 A 
ATOM     38  C   UNL A   1      42.790  28.124  28.171  1.00  0.00     0.010 A 
ATOM     39  C   UNL A   1      41.509  26.387  29.276  1.00  0.00     0.010 A 
ATOM     40  C   UNL A   1      41.932  27.727  29.204  1.00  0.00    -0.014 A 
BRANCH  40  41
ATOM     41  C   UNL A   1      41.629  28.657  30.320  1.00  0.00     0.031 A 
ATOM     42  C   UNL A   1      42.470  28.569  31.566  1.00  0.00     0.074 A 
ATOM     43  C   UNL A   1      40.631  29.557  30.241  1.00  0.00     0.049 A 
ATOM     44  N   UNL A   1      42.335  29.191  32.707  1.00  0.00    -0.248 NA
ATOM     45  C   UNL A   1      43.616  27.646  31.514  1.00  0.00     0.031 C 
ATOM     46  C   UNL A   1      39.780  29.778  29.074  1.00  0.00     0.029 A 
ATOM     47  N   UNL A   1      40.156  30.443  31.177  1.00  0.00    -0.354 N 
ATOM     48  C   UNL A   1      43.368  28.728  33.514  1.00  0.00     0.074 A 
ATOM     49  C   UNL A   1      44.104  27.751  32.741  1.00  0.00     0.031 C 
ATOM     50  C   UNL A   1      38.872  30.726  29.371  1.00  0.00     0.029 A 
ATOM     51  C   UNL A   1      39.052  31.149  30.760  1.00  0.00     0.049 A 
ATOM     52  H   UNL A   1      40.567  30.561  32.064  1.00  0.00     0.167 HD
ATOM     53  C   UNL A   1      43.678  29.087  34.781  1.00  0.00     0.037 A 
ATOM     54  C   UNL A   1      38.262  32.010  31.431  1.00  0.00     0.037 A 
ATOM     55  C   UNL A   1      42.938  30.055  35.548  1.00  0.00     0.049 A 
ATOM     56  C   UNL A   1      38.574  32.331  32.874  1.00  0.00     0.074 A 
ATOM     57  C   UNL A   1      43.175  30.494  36.838  1.00  0.00     0.029 A 
ATOM     58  N   UNL A   1      41.809  30.727  35.100  1.00  0.00    -0.354 N 
ATOM     59  N   UNL A   1      39.559  31.896  33.623  1.00  0.00    -0.248 NA
ATOM     60  C   UNL A   1      37.665  33.261  33.561  1.00  0.00     0.031 C 
ATOM     61  C   UNL A   1      42.159  31.387  37.191  1.00  0.00     0.029 A 
ATOM     62  C   UNL A   1      41.325  31.556  36.098  1.00  0.00     0.049 A 
ATOM     63  H   UNL A   1      41.411  30.628  34.205  1.00  0.00     0.167 HD
ATOM     64  C   UNL A   1      39.408  32.525  34.857  1.00  0.00     0.074 A 
ATOM     65  C   UNL A   1      38.242  33.377  34.749  1.00  0.00     0.031 C 
ATOM     66  C   UNL A   1      40.169  32.411  35.975  1.00  0.00     0.037 A 
BRANCH  53  67
ATOM     67  C   UNL A   1      44.852  28.407  35.432  1.00  0.00     0.058 A 
ATOM     68  C   UNL A   1      44.726  27.167  36.078  1.00  0.00     0.135 A 
ATOM     69  C   UNL A   1      46.130  28.990  35.380  1.00  0.00     0.135 A 
ATOM     70  F   UNL A   1      43.525  26.574  36.177  1.00  0.00    -0.206 F 
ATOM     71  C   UNL A   1      45.818  26.541  36.670  1.00  0.00     0.059 A 
ATOM     72  C   UNL A   1      47.242  28.367  35.937  1.00  0.00     0.059 A 
ATOM     73  F   UNL A   1      46.307  30.177  34.779  1.00  0.00    -0.206 F 
ATOM     74  C   UNL A   1      47.073  27.148  36.592  1.00  0.00     0.060 A 
BRANCH  74  75
ATOM     75  S   UNL A   1      48.480  26.317  37.357  1.00  0.00     0.124 S 
ATOM     76  O   UNL A   1      49.500  26.457  36.322  1.00  0.00    -0.237 OA
ATOM     77  O   UNL A   1      48.690  27.110  38.564  1.00  0.00    -0.237 OA
ATOM     78  O   UNL A   1      47.996  24.958  37.579  1.00  0.00    -0.744 OA
ENDBRANCH  74  75
ENDBRANCH  53  67
BRANCH  54  79
ATOM     79  C   UNL A   1      37.084  32.628  30.759  1.00  0.00     0.058 A 
ATOM     80  C   UNL A   1      37.224  33.776  29.964  1.00  0.00     0.135 A 
ATOM     81  C   UNL A   1      35.795  32.091  30.905  1.00  0.00     0.135 A 
ATOM     82  F   UNL A   1      38.432  34.339  29.806  1.00  0.00    -0.206 F 
ATOM     83  C   UNL A   1      36.129  34.378  29.353  1.00  0.00     0.059 A 
ATOM     84  C   UNL A   1      34.689  32.657  30.279  1.00  0.00     0.059 A 
ATOM     85  F   UNL A   1      35.606  30.990  31.650  1.00  0.00    -0.206 F 
ATOM     86  C   UNL A   1      34.865  33.807  29.511  1.00  0.00     0.060 A 
BRANCH  86  87
ATOM     87  S   UNL A   1      33.461  34.570  28.671  1.00  0.00     0.124 S 
ATOM     88  O   UNL A   1      34.097  35.696  27.996  1.00  0.00    -0.237 OA
ATOM     89  O   UNL A   1      32.998  33.488  27.808  1.00  0.00    -0.237 OA
ATOM     90  O   UNL A   1      32.562  34.919  29.767  1.00  0.00    -0.744 OA
ENDBRANCH  86  87
ENDBRANCH  54  79
BRANCH  66  91
ATOM     91  C   UNL A   1      39.801  33.260  37.164  1.00  0.00     0.058 A 
ATOM     92  C   UNL A   1      38.813  32.869  38.081  1.00  0.00     0.135 A 
ATOM     93  C   UNL A   1      40.495  34.454  37.422  1.00  0.00     0.135 A 
ATOM     94  F   UNL A   1      38.115  31.740  37.883  1.00  0.00    -0.206 F 
ATOM     95  C   UNL A   1      38.509  33.643  39.197  1.00  0.00     0.059 A 
ATOM     96  C   UNL A   1      40.231  35.227  38.549  1.00  0.00     0.059 A 
ATOM     97  F   UNL A   1      41.459  34.871  36.585  1.00  0.00    -0.206 F 
ATOM     98  C   UNL A   1      39.228  34.819  39.425  1.00  0.00     0.060 A 
BRANCH  98  99
ATOM     99  S   UNL A   1      38.849  35.793  40.898  1.00  0.00     0.124 S 
ATOM    100  O   UNL A   1      37.745  35.035  41.477  1.00  0.00    -0.237 OA
ATOM    101  O   UNL A   1      40.108  35.744  41.636  1.00  0.00    -0.237 OA
ATOM    102  O   UNL A   1      38.496  37.102  40.359  1.00  0.00    -0.744 OA
ENDBRANCH  98  99
ENDBRANCH  66  91
ENDBRANCH  40  41
ENDBRANCH  33  35
ENDBRANCH  32  33
ENDBRANCH  31  32
ENDBRANCH  30  31
ENDBRANCH  29  30
ENDBRANCH  28  29
ENDBRANCH   1  28
TORSDOF 23
ENDMDL
MODEL 2
REMARK VINA RESULT:     -10.3      1.392      8.305
REMARK SMILES Cc1nn(C)c(C)c1CNC(=O)N[C@H]1CC[C@@H](C(=O)OCCOCCOCCOC(=O)c2ccc(-c3c4nc(c(-c5c(F)cc(S(=O)(=O)[O-])cc5F)c5ccc([nH]5)c(-c5c(F)cc(S(=O)(=O)[O-])cc5F)c5nc(c(-c6c(F)cc(S(=O)(=O)[O-])cc6F)c6ccc3[nH]6)C=C5)C=C4)cc2)C1
REMARK SMILES IDX 24 1 23 2 22 3 21 4 20 5 18 6 19 7 17 8 14 9 15 10 98 11
REMARK SMILES IDX 16 12 13 13 10 14 11 15 12 17 9 19 8 20 1 21 2 22 3 23 4 24
REMARK SMILES IDX 6 25 5 26 7 27 25 28 26 29 27 30 28 31 29 32 30 33 31 34
REMARK SMILES IDX 32 35 33 36 97 37 34 38 96 39 35 40 36 41 37 42 90 43 38 44
REMARK SMILES IDX 95 45 89 46 91 47 39 48 94 49 88 50 87 51 40 53 74 54 53 55
REMARK SMILES IDX 73 56 54 57 57 58 72 59 92 60 55 61 56 62 71 64 93 65 58 66
REMARK SMILES IDX 41 67 42 68 51 69 43 70 44 71 50 72 52 73 45 74 46 75 47 76
REMARK SMILES IDX 48 77 49 78 75 79 76 80 85 81 77 82 78 83 84 84 86 85 79 86
REMARK SMILES IDX 80 87 81 88 82 89 83 90 59 91 60 92 69 93 61 94 62 95 68 96
REMARK SMILES IDX 70 97 63 98 64 99 65 100 66 101 67 102
REMARK H PARENT 10 16 13 18 91 52 57 63
REMARK Flexibility Score: inf
ROOT
ATOM      1  C   UNL A   1      37.394  21.325  24.996  1.00  0.00     0.188 C 
ENDROOT
BRANCH   1   2
ATOM      2  O   UNL A   1      36.199  20.914  25.643  1.00  0.00    -0.376 OA
BRANCH   2   3
ATOM      3  C   UNL A   1      35.238  20.152  24.919  1.00  0.00     0.202 C 
BRANCH   3   4
ATOM      4  C   UNL A   1      33.749  20.552  24.906  1.00  0.00     0.261 C 
BRANCH   4   5
ATOM      5  O   UNL A   1      33.383  21.476  23.864  1.00  0.00    -0.463 OA
BRANCH   5   6
ATOM      6  C   UNL A   1      33.590  22.793  24.124  1.00  0.00     0.309 C 
ATOM      7  O   UNL A   1      34.429  23.484  23.563  1.00  0.00    -0.252 OA
BRANCH   6   8
ATOM      8  C   UNL A   1      32.582  23.366  25.117  1.00  0.00     0.101 C 
ATOM      9  C   UNL A   1      31.817  25.541  24.384  1.00  0.00     0.084 C 
ATOM     10  C   UNL A   1      30.680  24.561  24.114  1.00  0.00     0.026 C 
ATOM     11  C   UNL A   1      32.650  24.857  25.444  1.00  0.00     0.040 C 
ATOM     12  C   UNL A   1      31.154  23.186  24.597  1.00  0.00     0.017 C 
BRANCH   9  13
ATOM     13  N   UNL A   1      32.621  25.795  23.198  1.00  0.00    -0.335 N 
ATOM     14  N   UNL A   1      31.466  27.468  22.008  1.00  0.00    -0.334 N 
ATOM     15  C   UNL A   1      32.508  26.651  22.177  1.00  0.00     0.315 C 
ATOM     16  H   UNL A   1      31.592  28.108  21.271  1.00  0.00     0.165 HD
ATOM     17  O   UNL A   1      33.433  26.712  21.363  1.00  0.00    -0.249 OA
ATOM     18  H   UNL A   1      33.413  25.216  23.134  1.00  0.00     0.165 HD
BRANCH  14  19
ATOM     19  C   UNL A   1      30.197  27.614  22.671  1.00  0.00     0.157 C 
BRANCH  19  20
ATOM     20  C   UNL A   1      29.938  29.031  23.075  1.00  0.00     0.015 A 
ATOM     21  C   UNL A   1      31.598  29.126  25.105  1.00  0.00     0.069 C 
ATOM     22  C   UNL A   1      30.555  29.664  24.196  1.00  0.00     0.065 A 
ATOM     23  N   UNL A   1      30.089  30.897  24.399  1.00  0.00    -0.178 NA
ATOM     24  N   UNL A   1      29.214  31.089  23.400  1.00  0.00    -0.272 N 
ATOM     25  C   UNL A   1      29.154  30.039  22.515  1.00  0.00     0.040 A 
ATOM     26  C   UNL A   1      28.453  32.317  23.393  1.00  0.00     0.174 C 
ATOM     27  C   UNL A   1      28.353  30.125  21.265  1.00  0.00     0.067 C 
ENDBRANCH  19  20
ENDBRANCH  14  19
ENDBRANCH   9  13
ENDBRANCH   6   8
ENDBRANCH   5   6
ENDBRANCH   4   5
ENDBRANCH   3   4
ENDBRANCH   2   3
ENDBRANCH   1   2
BRANCH   1  28
ATOM     28  C   UNL A   1      38.293  22.355  25.690  1.00  0.00     0.188 C 
BRANCH  28  29
ATOM     29  O   UNL A   1      39.279  21.828  26.542  1.00  0.00    -0.376 OA
BRANCH  29  30
ATOM     30  C   UNL A   1      40.645  22.114  26.269  1.00  0.00     0.202 C 
BRANCH  30  31
ATOM     31  C   UNL A   1      41.318  23.487  26.509  1.00  0.00     0.261 C 
BRANCH  31  32
ATOM     32  O   UNL A   1      40.528  24.678  26.380  1.00  0.00    -0.460 OA
BRANCH  32  33
ATOM     33  C   UNL A   1      41.193  25.851  26.238  1.00  0.00     0.338 C 
ATOM     34  O   UNL A   1      41.537  26.372  25.186  1.00  0.00    -0.246 OA
BRANCH  33  35
ATOM     35  C   UNL A   1      41.196  26.531  27.554  1.00  0.00     0.060 A 
ATOM     36  C   UNL A   1      40.187  26.229  28.483  1.00  0.00     0.016 A 
ATOM     37  C   UNL A   1      42.201  27.442  27.882  1.00  0.00     0.016 A 
ATOM     38  C   UNL A   1      40.173  26.847  29.737  1.00  0.00     0.010 A 
ATOM     39  C   UNL A   1      42.166  28.085  29.124  1.00  0.00     0.010 A 
ATOM     40  C   UNL A   1      41.140  27.810  30.047  1.00  0.00    -0.014 A 
BRANCH  40  41
ATOM     41  C   UNL A   1      40.977  28.671  31.246  1.00  0.00     0.031 A 
ATOM     42  C   UNL A   1      39.920  29.743  31.211  1.00  0.00     0.074 A 
ATOM     43  C   UNL A   1      41.746  28.516  32.339  1.00  0.00     0.049 A 
ATOM     44  N   UNL A   1      39.659  30.682  32.081  1.00  0.00    -0.248 NA
ATOM     45  C   UNL A   1      39.045  29.756  30.027  1.00  0.00     0.031 C 
ATOM     46  C   UNL A   1      42.766  27.484  32.519  1.00  0.00     0.029 A 
ATOM     47  N   UNL A   1      41.795  29.244  33.502  1.00  0.00    -0.354 N 
ATOM     48  C   UNL A   1      38.599  31.406  31.546  1.00  0.00     0.074 A 
ATOM     49  C   UNL A   1      38.285  30.815  30.264  1.00  0.00     0.031 C 
ATOM     50  C   UNL A   1      43.355  27.659  33.715  1.00  0.00     0.029 A 
ATOM     51  C   UNL A   1      42.783  28.836  34.368  1.00  0.00     0.049 A 
ATOM     52  H   UNL A   1      41.182  29.989  33.698  1.00  0.00     0.167 HD
ATOM     53  C   UNL A   1      37.944  32.465  32.079  1.00  0.00     0.037 A 
ATOM     54  C   UNL A   1      43.196  29.371  35.535  1.00  0.00     0.037 A 
ATOM     55  C   UNL A   1      38.266  33.053  33.352  1.00  0.00     0.049 A 
ATOM     56  C   UNL A   1      42.509  30.605  36.069  1.00  0.00     0.074 A 
ATOM     57  C   UNL A   1      37.657  34.123  33.984  1.00  0.00     0.029 A 
ATOM     58  N   UNL A   1      39.291  32.629  34.186  1.00  0.00    -0.354 N 
ATOM     59  N   UNL A   1      41.501  31.275  35.561  1.00  0.00    -0.248 NA
ATOM     60  C   UNL A   1      43.017  31.156  37.335  1.00  0.00     0.031 C 
ATOM     61  C   UNL A   1      38.349  34.383  35.171  1.00  0.00     0.029 A 
ATOM     62  C   UNL A   1      39.347  33.433  35.313  1.00  0.00     0.049 A 
ATOM     63  H   UNL A   1      39.890  31.869  34.004  1.00  0.00     0.167 HD
ATOM     64  C   UNL A   1      41.233  32.304  36.462  1.00  0.00     0.074 A 
ATOM     65  C   UNL A   1      42.179  32.161  37.549  1.00  0.00     0.031 C 
ATOM     66  C   UNL A   1      40.287  33.274  36.397  1.00  0.00     0.037 A 
BRANCH  53  67
ATOM     67  C   UNL A   1      36.833  33.076  31.269  1.00  0.00     0.058 A 
ATOM     68  C   UNL A   1      37.085  33.828  30.111  1.00  0.00     0.135 A 
ATOM     69  C   UNL A   1      35.492  32.879  31.640  1.00  0.00     0.135 A 
ATOM     70  F   UNL A   1      38.348  34.066  29.721  1.00  0.00    -0.206 F 
ATOM     71  C   UNL A   1      36.052  34.382  29.364  1.00  0.00     0.059 A 
ATOM     72  C   UNL A   1      34.440  33.398  30.891  1.00  0.00     0.059 A 
ATOM     73  F   UNL A   1      35.192  32.173  32.742  1.00  0.00    -0.206 F 
ATOM     74  C   UNL A   1      34.732  34.160  29.760  1.00  0.00     0.060 A 
BRANCH  74  75
ATOM     75  S   UNL A   1      33.403  34.879  28.774  1.00  0.00     0.124 S 
ATOM     76  O   UNL A   1      34.036  36.097  28.276  1.00  0.00    -0.237 OA
ATOM     77  O   UNL A   1      33.160  33.840  27.778  1.00  0.00    -0.237 OA
ATOM     78  O   UNL A   1      32.330  35.081  29.741  1.00  0.00    -0.744 OA
ENDBRANCH  74  75
ENDBRANCH  53  67
BRANCH  54  79
ATOM     79  C   UNL A   1      44.330  28.756  36.282  1.00  0.00     0.058 A 
ATOM     80  C   UNL A   1      44.127  27.655  37.127  1.00  0.00     0.135 A 
ATOM     81  C   UNL A   1      45.635  29.262  36.174  1.00  0.00     0.135 A 
ATOM     82  F   UNL A   1      42.896  27.144  37.279  1.00  0.00    -0.206 F 
ATOM     83  C   UNL A   1      45.171  27.088  37.851  1.00  0.00     0.059 A 
ATOM     84  C   UNL A   1      46.701  28.694  36.864  1.00  0.00     0.059 A 
ATOM     85  F   UNL A   1      45.885  30.311  35.375  1.00  0.00    -0.206 F 
ATOM     86  C   UNL A   1      46.457  27.612  37.708  1.00  0.00     0.060 A 
BRANCH  86  87
ATOM     87  S   UNL A   1      47.812  26.835  38.615  1.00  0.00     0.124 S 
ATOM     88  O   UNL A   1      47.667  27.438  39.935  1.00  0.00    -0.237 OA
ATOM     89  O   UNL A   1      47.470  25.419  38.518  1.00  0.00    -0.237 OA
ATOM     90  O   UNL A   1      48.996  27.241  37.864  1.00  0.00    -0.744 OA
ENDBRANCH  86  87
ENDBRANCH  54  79
BRANCH  66  91
ATOM     91  C   UNL A   1      40.186  34.236  37.552  1.00  0.00     0.058 A 
ATOM     92  C   UNL A   1      40.929  35.426  37.597  1.00  0.00     0.135 A 
ATOM     93  C   UNL A   1      39.283  33.990  38.600  1.00  0.00     0.135 A 
ATOM     94  F   UNL A   1      41.810  35.710  36.625  1.00  0.00    -0.206 F 
ATOM     95  C   UNL A   1      40.798  36.326  38.651  1.00  0.00     0.059 A 
ATOM     96  C   UNL A   1      39.112  34.891  39.647  1.00  0.00     0.059 A 
ATOM     97  F   UNL A   1      38.538  32.873  38.603  1.00  0.00    -0.206 F 
ATOM     98  C   UNL A   1      39.883  36.051  39.670  1.00  0.00     0.060 A 
BRANCH  98  99
ATOM     99  S   UNL A   1      39.697  37.245  41.011  1.00  0.00     0.124 S 
ATOM    100  O   UNL A   1      41.072  37.702  41.192  1.00  0.00    -0.237 OA
ATOM    101  O   UNL A   1      38.776  38.220  40.434  1.00  0.00    -0.237 OA
ATOM    102  O   UNL A   1      39.153  36.448  42.105  1.00  0.00    -0.744 OA
ENDBRANCH  98  99
ENDBRANCH  66  91
ENDBRANCH  40  41
ENDBRANCH  33  35
ENDBRANCH  32  33
ENDBRANCH  31  32
ENDBRANCH  30  31
ENDBRANCH  29  30
ENDBRANCH  28  29
ENDBRANCH   1  28
TORSDOF 23
ENDMDL
MODEL 3
REMARK VINA RESULT:     -10.2      1.392      2.241
REMARK SMILES Cc1nn(C)c(C)c1CNC(=O)N[C@H]1CC[C@@H](C(=O)OCCOCCOCCOC(=O)c2ccc(-c3c4nc(c(-c5c(F)cc(S(=O)(=O)[O-])cc5F)c5ccc([nH]5)c(-c5c(F)cc(S(=O)(=O)[O-])cc5F)c5nc(c(-c6c(F)cc(S(=O)(=O)[O-])cc6F)c6ccc3[nH]6)C=C5)C=C4)cc2)C1
REMARK SMILES IDX 24 1 23 2 22 3 21 4 20 5 18 6 19 7 17 8 14 9 15 10 98 11
REMARK SMILES IDX 16 12 13 13 10 14 11 15 12 17 9 19 8 20 1 21 2 22 3 23 4 24
REMARK SMILES IDX 6 25 5 26 7 27 25 28 26 29 27 30 28 31 29 32 30 33 31 34
REMARK SMILES IDX 32 35 33 36 97 37 34 38 96 39 35 40 36 41 37 42 90 43 38 44
REMARK SMILES IDX 95 45 89 46 91 47 39 48 94 49 88 50 87 51 40 53 74 54 53 55
REMARK SMILES IDX 73 56 54 57 57 58 72 59 92 60 55 61 56 62 71 64 93 65 58 66
REMARK SMILES IDX 41 67 42 68 51 69 43 70 44 71 50 72 52 73 45 74 46 75 47 76
REMARK SMILES IDX 48 77 49 78 75 79 76 80 85 81 77 82 78 83 84 84 86 85 79 86
REMARK SMILES IDX 80 87 81 88 82 89 83 90 59 91 60 92 69 93 61 94 62 95 68 96
REMARK SMILES IDX 70 97 63 98 64 99 65 100 66 101 67 102
REMARK H PARENT 10 16 13 18 91 52 57 63
REMARK Flexibility Score: inf
ROOT
ATOM      1  C   UNL A   1      38.296  22.177  25.808  1.00  0.00     0.188 C 
ENDROOT
BRANCH   1   2
ATOM      2  O   UNL A   1      37.498  21.693  24.739  1.00  0.00    -0.376 OA
BRANCH   2   3
ATOM      3  C   UNL A   1      36.505  20.704  24.998  1.00  0.00     0.202 C 
BRANCH   3   4
ATOM      4  C   UNL A   1      35.167  21.075  25.666  1.00  0.00     0.261 C 
BRANCH   4   5
ATOM      5  O   UNL A   1      34.007  20.904  24.829  1.00  0.00    -0.463 OA
BRANCH   5   6
ATOM      6  C   UNL A   1      33.117  21.929  24.814  1.00  0.00     0.309 C 
ATOM      7  O   UNL A   1      32.851  22.626  25.785  1.00  0.00    -0.252 OA
BRANCH   6   8
ATOM      8  C   UNL A   1      32.556  22.208  23.422  1.00  0.00     0.101 C 
ATOM      9  C   UNL A   1      31.817  24.505  23.253  1.00  0.00     0.084 C 
ATOM     10  C   UNL A   1      33.127  24.406  22.478  1.00  0.00     0.026 C 
ATOM     11  C   UNL A   1      31.309  23.082  23.301  1.00  0.00     0.040 C 
ATOM     12  C   UNL A   1      33.587  22.947  22.566  1.00  0.00     0.017 C 
BRANCH   9  13
ATOM     13  N   UNL A   1      32.010  25.017  24.601  1.00  0.00    -0.335 N 
ATOM     14  N   UNL A   1      30.077  26.281  25.070  1.00  0.00    -0.334 N 
ATOM     15  C   UNL A   1      31.253  25.755  25.421  1.00  0.00     0.315 C 
ATOM     16  H   UNL A   1      29.602  26.701  25.823  1.00  0.00     0.165 HD
ATOM     17  O   UNL A   1      31.650  25.934  26.575  1.00  0.00    -0.249 OA
ATOM     18  H   UNL A   1      32.878  24.768  24.991  1.00  0.00     0.165 HD
BRANCH  14  19
ATOM     19  C   UNL A   1      29.356  26.367  23.828  1.00  0.00     0.157 C 
BRANCH  19  20
ATOM     20  C   UNL A   1      29.223  27.781  23.357  1.00  0.00     0.015 A 
ATOM     21  C   UNL A   1      31.728  28.157  22.669  1.00  0.00     0.069 C 
ATOM     22  C   UNL A   1      30.317  28.566  22.880  1.00  0.00     0.065 A 
ATOM     23  N   UNL A   1      29.955  29.821  22.608  1.00  0.00    -0.178 NA
ATOM     24  N   UNL A   1      28.637  29.847  22.856  1.00  0.00    -0.272 N 
ATOM     25  C   UNL A   1      28.123  28.624  23.215  1.00  0.00     0.040 A 
ATOM     26  C   UNL A   1      27.953  31.115  22.747  1.00  0.00     0.174 C 
ATOM     27  C   UNL A   1      26.659  28.420  23.388  1.00  0.00     0.067 C 
ENDBRANCH  19  20
ENDBRANCH  14  19
ENDBRANCH   9  13
ENDBRANCH   6   8
ENDBRANCH   5   6
ENDBRANCH   4   5
ENDBRANCH   3   4
ENDBRANCH   2   3
ENDBRANCH   1   2
BRANCH   1  28
ATOM     28  C   UNL A   1      39.547  21.388  26.213  1.00  0.00     0.188 C 
BRANCH  28  29
ATOM     29  O   UNL A   1      40.284  21.921  27.285  1.00  0.00    -0.376 OA
BRANCH  29  30
ATOM     30  C   UNL A   1      41.684  21.682  27.340  1.00  0.00     0.202 C 
BRANCH  30  31
ATOM     31  C   UNL A   1      42.683  22.517  28.176  1.00  0.00     0.261 C 
BRANCH  31  32
ATOM     32  O   UNL A   1      43.364  23.614  27.551  1.00  0.00    -0.460 OA
BRANCH  32  33
ATOM     33  C   UNL A   1      42.613  24.479  26.827  1.00  0.00     0.338 C 
ATOM     34  O   UNL A   1      42.157  24.291  25.708  1.00  0.00    -0.246 OA
BRANCH  33  35
ATOM     35  C   UNL A   1      42.208  25.586  27.725  1.00  0.00     0.060 A 
ATOM     36  C   UNL A   1      43.032  26.719  27.830  1.00  0.00     0.016 A 
ATOM     37  C   UNL A   1      41.010  25.521  28.440  1.00  0.00     0.016 A 
ATOM     38  C   UNL A   1      42.668  27.782  28.660  1.00  0.00     0.010 A 
ATOM     39  C   UNL A   1      40.665  26.572  29.296  1.00  0.00     0.010 A 
ATOM     40  C   UNL A   1      41.502  27.696  29.430  1.00  0.00    -0.014 A 
BRANCH  40  41
ATOM     41  C   UNL A   1      41.250  28.677  30.515  1.00  0.00     0.031 A 
ATOM     42  C   UNL A   1      42.096  28.594  31.757  1.00  0.00     0.074 A 
ATOM     43  C   UNL A   1      40.293  29.618  30.411  1.00  0.00     0.049 A 
ATOM     44  N   UNL A   1      41.999  29.262  32.876  1.00  0.00    -0.248 NA
ATOM     45  C   UNL A   1      43.199  27.619  31.730  1.00  0.00     0.031 C 
ATOM     46  C   UNL A   1      39.443  29.836  29.242  1.00  0.00     0.029 A 
ATOM     47  N   UNL A   1      39.866  30.557  31.318  1.00  0.00    -0.354 N 
ATOM     48  C   UNL A   1      43.017  28.780  33.692  1.00  0.00     0.074 A 
ATOM     49  C   UNL A   1      43.701  27.745  32.949  1.00  0.00     0.031 C 
ATOM     50  C   UNL A   1      38.582  30.834  29.511  1.00  0.00     0.029 A 
ATOM     51  C   UNL A   1      38.792  31.297  30.882  1.00  0.00     0.049 A 
ATOM     52  H   UNL A   1      40.290  30.687  32.197  1.00  0.00     0.167 HD
ATOM     53  C   UNL A   1      43.353  29.170  34.944  1.00  0.00     0.037 A 
ATOM     54  C   UNL A   1      38.047  32.217  31.529  1.00  0.00     0.037 A 
ATOM     55  C   UNL A   1      42.663  30.196  35.681  1.00  0.00     0.049 A 
ATOM     56  C   UNL A   1      38.385  32.573  32.956  1.00  0.00     0.074 A 
ATOM     57  C   UNL A   1      42.931  30.670  36.952  1.00  0.00     0.029 A 
ATOM     58  N   UNL A   1      41.562  30.903  35.216  1.00  0.00    -0.354 N 
ATOM     59  N   UNL A   1      39.356  32.121  33.714  1.00  0.00    -0.248 NA
ATOM     60  C   UNL A   1      37.525  33.567  33.617  1.00  0.00     0.031 C 
ATOM     61  C   UNL A   1      41.960  31.620  37.280  1.00  0.00     0.029 A 
ATOM     62  C   UNL A   1      41.125  31.788  36.187  1.00  0.00     0.049 A 
ATOM     63  H   UNL A   1      41.153  30.791  34.328  1.00  0.00     0.167 HD
ATOM     64  C   UNL A   1      39.244  32.799  34.926  1.00  0.00     0.074 A 
ATOM     65  C   UNL A   1      38.116  33.698  34.796  1.00  0.00     0.031 C 
ATOM     66  C   UNL A   1      40.007  32.690  36.042  1.00  0.00     0.037 A 
BRANCH  53  67
ATOM     67  C   UNL A   1      44.500  28.460  35.611  1.00  0.00     0.058 A 
ATOM     68  C   UNL A   1      45.830  28.881  35.445  1.00  0.00     0.135 A 
ATOM     69  C   UNL A   1      44.263  27.362  36.455  1.00  0.00     0.135 A 
ATOM     70  F   UNL A   1      46.117  29.911  34.633  1.00  0.00    -0.206 F 
ATOM     71  C   UNL A   1      46.883  28.225  36.071  1.00  0.00     0.059 A 
ATOM     72  C   UNL A   1      45.299  26.710  37.116  1.00  0.00     0.059 A 
ATOM     73  F   UNL A   1      43.012  26.914  36.645  1.00  0.00    -0.206 F 
ATOM     74  C   UNL A   1      46.608  27.141  36.907  1.00  0.00     0.060 A 
BRANCH  74  75
ATOM     75  S   UNL A   1      47.988  26.308  37.719  1.00  0.00     0.124 S 
ATOM     76  O   UNL A   1      49.012  26.358  36.680  1.00  0.00    -0.237 OA
ATOM     77  O   UNL A   1      48.223  27.158  38.881  1.00  0.00    -0.237 OA
ATOM     78  O   UNL A   1      47.459  24.980  38.014  1.00  0.00    -0.744 OA
ENDBRANCH  74  75
ENDBRANCH  53  67
BRANCH  54  79
ATOM     79  C   UNL A   1      36.893  32.863  30.842  1.00  0.00     0.058 A 
ATOM     80  C   UNL A   1      35.573  32.488  31.136  1.00  0.00     0.135 A 
ATOM     81  C   UNL A   1      37.085  33.859  29.871  1.00  0.00     0.135 A 
ATOM     82  F   UNL A   1      35.336  31.528  32.043  1.00  0.00    -0.206 F 
ATOM     83  C   UNL A   1      34.488  33.063  30.483  1.00  0.00     0.059 A 
ATOM     84  C   UNL A   1      36.015  34.471  29.226  1.00  0.00     0.059 A 
ATOM     85  F   UNL A   1      38.327  34.259  29.555  1.00  0.00    -0.206 F 
ATOM     86  C   UNL A   1      34.719  34.059  29.533  1.00  0.00     0.060 A 
BRANCH  86  87
ATOM     87  S   UNL A   1      33.299  34.832  28.729  1.00  0.00     0.124 S 
ATOM     88  O   UNL A   1      32.431  35.110  29.868  1.00  0.00    -0.237 OA
ATOM     89  O   UNL A   1      33.907  35.996  28.092  1.00  0.00    -0.237 OA
ATOM     90  O   UNL A   1      32.826  33.799  27.813  1.00  0.00    -0.744 OA
ENDBRANCH  86  87
ENDBRANCH  54  79
BRANCH  66  91
ATOM     91  C   UNL A   1      39.688  33.596  37.203  1.00  0.00     0.058 A 
ATOM     92  C   UNL A   1      38.907  33.168  38.288  1.00  0.00     0.135 A 
ATOM     93  C   UNL A   1      40.227  34.892  37.257  1.00  0.00     0.135 A 
ATOM     94  F   UNL A   1      38.363  31.942  38.288  1.00  0.00    -0.206 F 
ATOM     95  C   UNL A   1      38.652  34.002  39.373  1.00  0.00     0.059 A 
ATOM     96  C   UNL A   1      40.012  35.731  38.346  1.00  0.00     0.059 A 
ATOM     97  F   UNL A   1      40.992  35.349  36.252  1.00  0.00    -0.206 F 
ATOM     98  C   UNL A   1      39.213  35.281  39.395  1.00  0.00     0.060 A 
BRANCH  98  99
ATOM     99  S   UNL A   1      38.904  36.337  40.826  1.00  0.00     0.124 S 
ATOM    100  O   UNL A   1      38.546  37.601  40.189  1.00  0.00    -0.237 OA
ATOM    101  O   UNL A   1      37.814  35.637  41.501  1.00  0.00    -0.237 OA
ATOM    102  O   UNL A   1      40.179  36.333  41.536  1.00  0.00    -0.744 OA
ENDBRANCH  98  99
ENDBRANCH  66  91
ENDBRANCH  40  41
ENDBRANCH  33  35
ENDBRANCH  32  33
ENDBRANCH  31  32
ENDBRANCH  30  31
ENDBRANCH  29  30
ENDBRANCH  28  29
ENDBRANCH   1  28
TORSDOF 23
ENDMDL
