MODEL 1
REMARK VINA RESULT:     -10.8      0.000      0.000
REMARK SMILES CC(=O)N[C@@H](Cc1c(C)[nH]c2ccccc2c1=O)C(=O)OCCOCCOCCOC(=O)c1ccc(-c2c3nc(c(-c4c(F)cc(S(=O)(=O)[O-])cc4F)c4ccc([nH]4)c(-c4c(F)cc(S(=O)(=O)[O-])cc4F)c4nc(c(-c5c(F)cc(S(=O)(=O)[O-])cc5F)c5ccc2[nH]5)C=C4)C=C3)cc1
REMARK SMILES IDX 26 1 25 2 24 3 23 4 22 5 21 6 19 7 20 8 5 9 4 10 1 11 2 12
REMARK SMILES IDX 3 13 6 15 7 16 8 17 17 18 9 19 10 20 16 21 18 22 11 23 15 25
REMARK SMILES IDX 12 26 14 27 13 28 27 29 28 30 29 31 30 32 31 33 32 34 33 35
REMARK SMILES IDX 34 36 98 37 35 38 97 39 36 40 37 41 38 42 91 43 39 44 96 45
REMARK SMILES IDX 90 46 92 47 40 48 95 49 89 50 88 51 41 53 75 54 54 55 74 56
REMARK SMILES IDX 55 57 58 58 73 59 93 60 56 61 57 62 72 64 94 65 59 66 42 67
REMARK SMILES IDX 43 68 52 69 44 70 45 71 51 72 53 73 46 74 47 75 48 76 49 77
REMARK SMILES IDX 50 78 76 79 77 80 86 81 78 82 79 83 85 84 87 85 80 86 81 87
REMARK SMILES IDX 82 88 83 89 84 90 60 91 61 92 70 93 62 94 63 95 69 96 71 97
REMARK SMILES IDX 64 98 65 99 66 100 67 101 68 102
REMARK H PARENT 4 14 10 24 92 52 58 63
REMARK Flexibility Score: inf
ROOT
ATOM      1  C   UNL A   1      39.648  21.418  26.128  1.00  0.00     0.188 C 
ENDROOT
BRANCH   1   2
ATOM      2  C   UNL A   1      38.830  22.719  25.996  1.00  0.00     0.188 C 
BRANCH   2   3
ATOM      3  O   UNL A   1      37.605  22.699  25.262  1.00  0.00    -0.376 OA
BRANCH   3   4
ATOM      4  C   UNL A   1      37.089  21.454  24.818  1.00  0.00     0.202 C 
BRANCH   4   5
ATOM      5  C   UNL A   1      35.657  21.124  25.241  1.00  0.00     0.261 C 
BRANCH   5   6
ATOM      6  O   UNL A   1      35.275  21.737  26.487  1.00  0.00    -0.462 OA
BRANCH   6   7
ATOM      7  C   UNL A   1      33.985  21.565  26.875  1.00  0.00     0.329 C 
ATOM      8  O   UNL A   1      33.550  21.871  27.981  1.00  0.00    -0.250 OA
BRANCH   7   9
ATOM      9  C   UNL A   1      33.134  20.772  25.861  1.00  0.00     0.196 C 
BRANCH   9  10
ATOM     10  N   UNL A   1      32.872  19.346  26.089  1.00  0.00    -0.343 N 
ATOM     11  C   UNL A   1      32.772  18.589  23.744  1.00  0.00     0.114 C 
ATOM     12  C   UNL A   1      32.596  18.343  25.214  1.00  0.00     0.217 C 
ATOM     13  O   UNL A   1      32.227  17.248  25.635  1.00  0.00    -0.275 OA
ATOM     14  H   UNL A   1      32.901  19.070  27.034  1.00  0.00     0.164 HD
ENDBRANCH   9  10
BRANCH   9  15
ATOM     15  C   UNL A   1      31.793  21.537  25.705  1.00  0.00     0.078 C 
BRANCH  15  16
ATOM     16  C   UNL A   1      31.848  22.949  25.120  1.00  0.00     0.022 A 
ATOM     17  C   UNL A   1      32.154  23.285  23.842  1.00  0.00     0.019 A 
ATOM     18  C   UNL A   1      31.494  24.086  26.045  1.00  0.00     0.192 A 
ATOM     19  C   UNL A   1      32.525  22.286  22.770  1.00  0.00     0.064 C 
ATOM     20  N   UNL A   1      32.141  24.595  23.391  1.00  0.00    -0.358 N 
ATOM     21  C   UNL A   1      31.624  25.477  25.574  1.00  0.00     0.046 A 
ATOM     22  O   UNL A   1      31.090  23.892  27.187  1.00  0.00    -0.289 OA
ATOM     23  C   UNL A   1      31.900  25.687  24.225  1.00  0.00     0.049 A 
ATOM     24  H   UNL A   1      32.311  24.763  22.436  1.00  0.00     0.166 HD
ATOM     25  C   UNL A   1      31.437  26.549  26.456  1.00  0.00     0.014 A 
ATOM     26  C   UNL A   1      31.916  26.999  23.743  1.00  0.00     0.027 A 
ATOM     27  C   UNL A   1      31.481  27.853  25.970  1.00  0.00     0.001 A 
ATOM     28  C   UNL A   1      31.702  28.076  24.612  1.00  0.00     0.002 A 
ENDBRANCH  15  16
ENDBRANCH   9  15
ENDBRANCH   7   9
ENDBRANCH   6   7
ENDBRANCH   5   6
ENDBRANCH   4   5
ENDBRANCH   3   4
ENDBRANCH   2   3
ENDBRANCH   1   2
BRANCH   1  29
ATOM     29  O   UNL A   1      40.793  21.596  26.946  1.00  0.00    -0.376 OA
BRANCH  29  30
ATOM     30  C   UNL A   1      42.044  21.441  26.315  1.00  0.00     0.202 C 
BRANCH  30  31
ATOM     31  C   UNL A   1      42.591  22.722  25.676  1.00  0.00     0.261 C 
BRANCH  31  32
ATOM     32  O   UNL A   1      41.969  23.943  26.103  1.00  0.00    -0.460 OA
BRANCH  32  33
ATOM     33  C   UNL A   1      42.697  25.082  26.018  1.00  0.00     0.338 C 
ATOM     34  O   UNL A   1      43.468  25.385  25.124  1.00  0.00    -0.246 OA
BRANCH  33  35
ATOM     35  C   UNL A   1      42.261  25.974  27.120  1.00  0.00     0.060 A 
ATOM     36  C   UNL A   1      41.241  25.570  27.988  1.00  0.00     0.016 A 
ATOM     37  C   UNL A   1      42.849  27.238  27.269  1.00  0.00     0.016 A 
ATOM     38  C   UNL A   1      40.836  26.416  29.024  1.00  0.00     0.010 A 
ATOM     39  C   UNL A   1      42.435  28.088  28.306  1.00  0.00     0.010 A 
ATOM     40  C   UNL A   1      41.445  27.672  29.208  1.00  0.00    -0.014 A 
BRANCH  40  41
ATOM     41  C   UNL A   1      41.188  28.413  30.471  1.00  0.00     0.031 A 
ATOM     42  C   UNL A   1      42.050  28.271  31.689  1.00  0.00     0.074 A 
ATOM     43  C   UNL A   1      40.157  29.284  30.474  1.00  0.00     0.049 A 
ATOM     44  N   UNL A   1      42.043  28.992  32.784  1.00  0.00    -0.248 NA
ATOM     45  C   UNL A   1      43.035  27.182  31.693  1.00  0.00     0.031 C 
ATOM     46  C   UNL A   1      39.229  29.478  29.359  1.00  0.00     0.029 A 
ATOM     47  N   UNL A   1      39.734  30.180  31.423  1.00  0.00    -0.354 N 
ATOM     48  C   UNL A   1      43.042  28.471  33.595  1.00  0.00     0.074 A 
ATOM     49  C   UNL A   1      43.599  27.333  32.887  1.00  0.00     0.031 C 
ATOM     50  C   UNL A   1      38.375  30.465  29.668  1.00  0.00     0.029 A 
ATOM     51  C   UNL A   1      38.684  30.963  31.005  1.00  0.00     0.049 A 
ATOM     52  H   UNL A   1      40.143  30.256  32.315  1.00  0.00     0.167 HD
ATOM     53  C   UNL A   1      43.465  28.917  34.804  1.00  0.00     0.037 A 
ATOM     54  C   UNL A   1      38.052  31.984  31.613  1.00  0.00     0.037 A 
ATOM     55  C   UNL A   1      42.889  30.041  35.505  1.00  0.00     0.049 A 
ATOM     56  C   UNL A   1      38.526  32.443  32.963  1.00  0.00     0.074 A 
ATOM     57  C   UNL A   1      43.279  30.589  36.716  1.00  0.00     0.029 A 
ATOM     58  N   UNL A   1      41.799  30.781  35.070  1.00  0.00    -0.354 N 
ATOM     59  N   UNL A   1      39.530  31.996  33.678  1.00  0.00    -0.248 NA
ATOM     60  C   UNL A   1      37.788  33.550  33.587  1.00  0.00     0.031 C 
ATOM     61  C   UNL A   1      42.397  31.626  37.036  1.00  0.00     0.029 A 
ATOM     62  C   UNL A   1      41.487  31.762  36.001  1.00  0.00     0.049 A 
ATOM     63  H   UNL A   1      41.317  30.633  34.224  1.00  0.00     0.167 HD
ATOM     64  C   UNL A   1      39.561  32.783  34.823  1.00  0.00     0.074 A 
ATOM     65  C   UNL A   1      38.481  33.740  34.702  1.00  0.00     0.031 C 
ATOM     66  C   UNL A   1      40.412  32.716  35.875  1.00  0.00     0.037 A 
BRANCH  53  67
ATOM     67  C   UNL A   1      44.628  28.216  35.456  1.00  0.00     0.058 A 
ATOM     68  C   UNL A   1      44.429  27.126  36.317  1.00  0.00     0.135 A 
ATOM     69  C   UNL A   1      45.952  28.558  35.132  1.00  0.00     0.135 A 
ATOM     70  F   UNL A   1      43.186  26.755  36.663  1.00  0.00    -0.206 F 
ATOM     71  C   UNL A   1      45.499  26.407  36.843  1.00  0.00     0.059 A 
ATOM     72  C   UNL A   1      47.037  27.838  35.628  1.00  0.00     0.059 A 
ATOM     73  F   UNL A   1      46.201  29.587  34.307  1.00  0.00    -0.206 F 
ATOM     74  C   UNL A   1      46.800  26.767  36.488  1.00  0.00     0.060 A 
BRANCH  74  75
ATOM     75  S   UNL A   1      48.172  25.803  37.158  1.00  0.00     0.124 S 
ATOM     76  O   UNL A   1      48.241  24.694  36.209  1.00  0.00    -0.237 OA
ATOM     77  O   UNL A   1      49.279  26.753  37.101  1.00  0.00    -0.237 OA
ATOM     78  O   UNL A   1      47.720  25.449  38.499  1.00  0.00    -0.744 OA
ENDBRANCH  74  75
ENDBRANCH  53  67
BRANCH  54  79
ATOM     79  C   UNL A   1      36.938  32.676  30.914  1.00  0.00     0.058 A 
ATOM     80  C   UNL A   1      37.192  33.555  29.852  1.00  0.00     0.135 A 
ATOM     81  C   UNL A   1      35.601  32.440  31.267  1.00  0.00     0.135 A 
ATOM     82  F   UNL A   1      38.454  33.813  29.480  1.00  0.00    -0.206 F 
ATOM     83  C   UNL A   1      36.158  34.188  29.171  1.00  0.00     0.059 A 
ATOM     84  C   UNL A   1      34.549  33.040  30.584  1.00  0.00     0.059 A 
ATOM     85  F   UNL A   1      35.309  31.591  32.265  1.00  0.00    -0.206 F 
ATOM     86  C   UNL A   1      34.838  33.920  29.542  1.00  0.00     0.060 A 
BRANCH  86  87
ATOM     87  S   UNL A   1      33.504  34.712  28.618  1.00  0.00     0.124 S 
ATOM     88  O   UNL A   1      32.525  34.957  29.670  1.00  0.00    -0.237 OA
ATOM     89  O   UNL A   1      34.168  35.893  28.075  1.00  0.00    -0.237 OA
ATOM     90  O   UNL A   1      33.132  33.702  27.632  1.00  0.00    -0.744 OA
ENDBRANCH  86  87
ENDBRANCH  54  79
BRANCH  66  91
ATOM     91  C   UNL A   1      40.230  33.711  36.989  1.00  0.00     0.058 A 
ATOM     92  C   UNL A   1      40.837  34.976  36.950  1.00  0.00     0.135 A 
ATOM     93  C   UNL A   1      39.371  33.430  38.065  1.00  0.00     0.135 A 
ATOM     94  F   UNL A   1      41.675  35.293  35.950  1.00  0.00    -0.206 F 
ATOM     95  C   UNL A   1      40.601  35.927  37.939  1.00  0.00     0.059 A 
ATOM     96  C   UNL A   1      39.102  34.374  39.051  1.00  0.00     0.059 A 
ATOM     97  F   UNL A   1      38.761  32.236  38.148  1.00  0.00    -0.206 F 
ATOM     98  C   UNL A   1      39.723  35.619  38.981  1.00  0.00     0.060 A 
BRANCH  98  99
ATOM     99  S   UNL A   1      39.375  36.890  40.217  1.00  0.00     0.124 S 
ATOM    100  O   UNL A   1      38.318  36.259  41.001  1.00  0.00    -0.237 OA
ATOM    101  O   UNL A   1      40.664  37.031  40.888  1.00  0.00    -0.237 OA
ATOM    102  O   UNL A   1      38.962  38.038  39.417  1.00  0.00    -0.744 OA
ENDBRANCH  98  99
ENDBRANCH  66  91
ENDBRANCH  40  41
ENDBRANCH  33  35
ENDBRANCH  32  33
ENDBRANCH  31  32
ENDBRANCH  30  31
ENDBRANCH  29  30
ENDBRANCH   1  29
TORSDOF 23
ENDMDL
MODEL 2
REMARK VINA RESULT:     -10.6      1.613      2.533
REMARK SMILES CC(=O)N[C@@H](Cc1c(C)[nH]c2ccccc2c1=O)C(=O)OCCOCCOCCOC(=O)c1ccc(-c2c3nc(c(-c4c(F)cc(S(=O)(=O)[O-])cc4F)c4ccc([nH]4)c(-c4c(F)cc(S(=O)(=O)[O-])cc4F)c4nc(c(-c5c(F)cc(S(=O)(=O)[O-])cc5F)c5ccc2[nH]5)C=C4)C=C3)cc1
REMARK SMILES IDX 26 1 25 2 24 3 23 4 22 5 21 6 19 7 20 8 5 9 4 10 1 11 2 12
REMARK SMILES IDX 3 13 6 15 7 16 8 17 17 18 9 19 10 20 16 21 18 22 11 23 15 25
REMARK SMILES IDX 12 26 14 27 13 28 27 29 28 30 29 31 30 32 31 33 32 34 33 35
REMARK SMILES IDX 34 36 98 37 35 38 97 39 36 40 37 41 38 42 91 43 39 44 96 45
REMARK SMILES IDX 90 46 92 47 40 48 95 49 89 50 88 51 41 53 75 54 54 55 74 56
REMARK SMILES IDX 55 57 58 58 73 59 93 60 56 61 57 62 72 64 94 65 59 66 42 67
REMARK SMILES IDX 43 68 52 69 44 70 45 71 51 72 53 73 46 74 47 75 48 76 49 77
REMARK SMILES IDX 50 78 76 79 77 80 86 81 78 82 79 83 85 84 87 85 80 86 81 87
REMARK SMILES IDX 82 88 83 89 84 90 60 91 61 92 70 93 62 94 63 95 69 96 71 97
REMARK SMILES IDX 64 98 65 99 66 100 67 101 68 102
REMARK H PARENT 4 14 10 24 92 52 58 63
REMARK Flexibility Score: inf
ROOT
ATOM      1  C   UNL A   1      39.369  21.622  26.136  1.00  0.00     0.188 C 
ENDROOT
BRANCH   1   2
ATOM      2  C   UNL A   1      38.285  22.718  26.063  1.00  0.00     0.188 C 
BRANCH   2   3
ATOM      3  O   UNL A   1      37.511  22.852  24.870  1.00  0.00    -0.376 OA
BRANCH   3   4
ATOM      4  C   UNL A   1      36.308  23.604  24.911  1.00  0.00     0.202 C 
BRANCH   4   5
ATOM      5  C   UNL A   1      35.519  23.690  23.605  1.00  0.00     0.261 C 
BRANCH   5   6
ATOM      6  O   UNL A   1      34.459  24.665  23.641  1.00  0.00    -0.462 OA
BRANCH   6   7
ATOM      7  C   UNL A   1      33.191  24.179  23.643  1.00  0.00     0.329 C 
ATOM      8  O   UNL A   1      32.797  23.275  22.912  1.00  0.00    -0.250 OA
BRANCH   7   9
ATOM      9  C   UNL A   1      32.218  24.992  24.522  1.00  0.00     0.196 C 
BRANCH   9  10
ATOM     10  N   UNL A   1      31.941  24.555  25.895  1.00  0.00    -0.343 N 
ATOM     11  C   UNL A   1      30.688  22.489  25.400  1.00  0.00     0.114 C 
ATOM     12  C   UNL A   1      31.186  23.526  26.364  1.00  0.00     0.217 C 
ATOM     13  O   UNL A   1      30.938  23.447  27.566  1.00  0.00    -0.275 OA
ATOM     14  H   UNL A   1      32.374  25.098  26.593  1.00  0.00     0.164 HD
ENDBRANCH   9  10
BRANCH   9  15
ATOM     15  C   UNL A   1      32.733  26.455  24.527  1.00  0.00     0.078 C 
BRANCH  15  16
ATOM     16  C   UNL A   1      31.942  27.486  23.722  1.00  0.00     0.022 A 
ATOM     17  C   UNL A   1      32.453  28.449  22.915  1.00  0.00     0.019 A 
ATOM     18  C   UNL A   1      30.438  27.409  23.802  1.00  0.00     0.192 A 
ATOM     19  C   UNL A   1      33.932  28.677  22.700  1.00  0.00     0.064 C 
ATOM     20  N   UNL A   1      31.653  29.320  22.191  1.00  0.00    -0.358 N 
ATOM     21  C   UNL A   1      29.617  28.434  23.132  1.00  0.00     0.046 A 
ATOM     22  O   UNL A   1      29.866  26.508  24.406  1.00  0.00    -0.289 OA
ATOM     23  C   UNL A   1      30.262  29.342  22.294  1.00  0.00     0.049 A 
ATOM     24  H   UNL A   1      32.087  29.953  21.576  1.00  0.00     0.166 HD
ATOM     25  C   UNL A   1      28.228  28.464  23.308  1.00  0.00     0.014 A 
ATOM     26  C   UNL A   1      29.485  30.247  21.567  1.00  0.00     0.027 A 
ATOM     27  C   UNL A   1      27.466  29.388  22.598  1.00  0.00     0.001 A 
ATOM     28  C   UNL A   1      28.092  30.266  21.715  1.00  0.00     0.002 A 
ENDBRANCH  15  16
ENDBRANCH   9  15
ENDBRANCH   7   9
ENDBRANCH   6   7
ENDBRANCH   5   6
ENDBRANCH   4   5
ENDBRANCH   3   4
ENDBRANCH   2   3
ENDBRANCH   1   2
BRANCH   1  29
ATOM     29  O   UNL A   1      40.153  21.735  27.312  1.00  0.00    -0.376 OA
BRANCH  29  30
ATOM     30  C   UNL A   1      41.552  21.726  27.136  1.00  0.00     0.202 C 
BRANCH  30  31
ATOM     31  C   UNL A   1      42.082  22.856  26.246  1.00  0.00     0.261 C 
BRANCH  31  32
ATOM     32  O   UNL A   1      42.400  24.081  26.923  1.00  0.00    -0.460 OA
BRANCH  32  33
ATOM     33  C   UNL A   1      42.021  25.241  26.334  1.00  0.00     0.338 C 
ATOM     34  O   UNL A   1      41.889  25.438  25.139  1.00  0.00    -0.246 OA
BRANCH  33  35
ATOM     35  C   UNL A   1      41.631  26.182  27.412  1.00  0.00     0.060 A 
ATOM     36  C   UNL A   1      40.601  25.847  28.296  1.00  0.00     0.016 A 
ATOM     37  C   UNL A   1      42.273  27.423  27.521  1.00  0.00     0.016 A 
ATOM     38  C   UNL A   1      40.239  26.739  29.310  1.00  0.00     0.010 A 
ATOM     39  C   UNL A   1      41.902  28.321  28.534  1.00  0.00     0.010 A 
ATOM     40  C   UNL A   1      40.901  27.973  29.453  1.00  0.00    -0.014 A 
BRANCH  40  41
ATOM     41  C   UNL A   1      40.684  28.761  30.695  1.00  0.00     0.031 A 
ATOM     42  C   UNL A   1      41.549  28.619  31.912  1.00  0.00     0.074 A 
ATOM     43  C   UNL A   1      39.691  29.673  30.680  1.00  0.00     0.049 A 
ATOM     44  N   UNL A   1      41.580  29.371  32.985  1.00  0.00    -0.248 NA
ATOM     45  C   UNL A   1      42.489  27.490  31.942  1.00  0.00     0.031 C 
ATOM     46  C   UNL A   1      38.762  29.873  29.565  1.00  0.00     0.029 A 
ATOM     47  N   UNL A   1      39.312  30.613  31.604  1.00  0.00    -0.354 N 
ATOM     48  C   UNL A   1      42.563  28.833  33.805  1.00  0.00     0.074 A 
ATOM     49  C   UNL A   1      43.067  27.654  33.127  1.00  0.00     0.031 C 
ATOM     50  C   UNL A   1      37.952  30.902  29.850  1.00  0.00     0.029 A 
ATOM     51  C   UNL A   1      38.291  31.426  31.169  1.00  0.00     0.049 A 
ATOM     52  H   UNL A   1      39.730  30.698  32.490  1.00  0.00     0.167 HD
ATOM     53  C   UNL A   1      43.013  29.297  34.998  1.00  0.00     0.037 A 
ATOM     54  C   UNL A   1      37.707  32.490  31.751  1.00  0.00     0.037 A 
ATOM     55  C   UNL A   1      42.489  30.464  35.669  1.00  0.00     0.049 A 
ATOM     56  C   UNL A   1      38.209  32.968  33.084  1.00  0.00     0.074 A 
ATOM     57  C   UNL A   1      42.910  31.031  36.861  1.00  0.00     0.029 A 
ATOM     58  N   UNL A   1      41.427  31.235  35.219  1.00  0.00    -0.354 N 
ATOM     59  N   UNL A   1      39.199  32.502  33.805  1.00  0.00    -0.248 NA
ATOM     60  C   UNL A   1      37.522  34.123  33.680  1.00  0.00     0.031 C 
ATOM     61  C   UNL A   1      42.073  32.112  37.155  1.00  0.00     0.029 A 
ATOM     62  C   UNL A   1      41.162  32.255  36.122  1.00  0.00     0.049 A 
ATOM     63  H   UNL A   1      40.933  31.083  34.381  1.00  0.00     0.167 HD
ATOM     64  C   UNL A   1      39.271  33.319  34.927  1.00  0.00     0.074 A 
ATOM     65  C   UNL A   1      38.230  34.316  34.785  1.00  0.00     0.031 C 
ATOM     66  C   UNL A   1      40.126  33.248  35.975  1.00  0.00     0.037 A 
BRANCH  53  67
ATOM     67  C   UNL A   1      44.151  28.568  35.663  1.00  0.00     0.058 A 
ATOM     68  C   UNL A   1      43.915  27.499  36.542  1.00  0.00     0.135 A 
ATOM     69  C   UNL A   1      45.487  28.860  35.335  1.00  0.00     0.135 A 
ATOM     70  F   UNL A   1      42.660  27.177  36.891  1.00  0.00    -0.206 F 
ATOM     71  C   UNL A   1      44.959  26.754  37.080  1.00  0.00     0.059 A 
ATOM     72  C   UNL A   1      46.546  28.112  35.844  1.00  0.00     0.059 A 
ATOM     73  F   UNL A   1      45.770  29.866  34.494  1.00  0.00    -0.206 F 
ATOM     74  C   UNL A   1      46.272  27.064  36.722  1.00  0.00     0.060 A 
BRANCH  74  75
ATOM     75  S   UNL A   1      47.611  26.065  37.409  1.00  0.00     0.124 S 
ATOM     76  O   UNL A   1      48.513  27.095  37.916  1.00  0.00    -0.237 OA
ATOM     77  O   UNL A   1      46.920  25.275  38.423  1.00  0.00    -0.237 OA
ATOM     78  O   UNL A   1      48.103  25.314  36.259  1.00  0.00    -0.744 OA
ENDBRANCH  74  75
ENDBRANCH  53  67
BRANCH  54  79
ATOM     79  C   UNL A   1      36.617  33.206  31.039  1.00  0.00     0.058 A 
ATOM     80  C   UNL A   1      36.902  34.081  29.982  1.00  0.00     0.135 A 
ATOM     81  C   UNL A   1      35.270  32.998  31.375  1.00  0.00     0.135 A 
ATOM     82  F   UNL A   1      38.175  34.313  29.626  1.00  0.00    -0.206 F 
ATOM     83  C   UNL A   1      35.891  34.737  29.288  1.00  0.00     0.059 A 
ATOM     84  C   UNL A   1      34.241  33.621  30.679  1.00  0.00     0.059 A 
ATOM     85  F   UNL A   1      34.947  32.154  32.367  1.00  0.00    -0.206 F 
ATOM     86  C   UNL A   1      34.562  34.496  29.642  1.00  0.00     0.060 A 
BRANCH  86  87
ATOM     87  S   UNL A   1      33.256  35.318  28.703  1.00  0.00     0.124 S 
ATOM     88  O   UNL A   1      34.031  36.165  27.804  1.00  0.00    -0.237 OA
ATOM     89  O   UNL A   1      32.570  34.189  28.083  1.00  0.00    -0.237 OA
ATOM     90  O   UNL A   1      32.493  36.019  29.730  1.00  0.00    -0.744 OA
ENDBRANCH  86  87
ENDBRANCH  54  79
BRANCH  66  91
ATOM     91  C   UNL A   1      39.993  34.282  37.060  1.00  0.00     0.058 A 
ATOM     92  C   UNL A   1      40.649  35.521  36.978  1.00  0.00     0.135 A 
ATOM     93  C   UNL A   1      39.134  34.067  38.151  1.00  0.00     0.135 A 
ATOM     94  F   UNL A   1      41.490  35.774  35.963  1.00  0.00    -0.206 F 
ATOM     95  C   UNL A   1      40.459  36.509  37.940  1.00  0.00     0.059 A 
ATOM     96  C   UNL A   1      38.911  35.049  39.111  1.00  0.00     0.059 A 
ATOM     97  F   UNL A   1      38.479  32.901  38.275  1.00  0.00    -0.206 F 
ATOM     98  C   UNL A   1      39.580  36.267  38.998  1.00  0.00     0.060 A 
BRANCH  98  99
ATOM     99  S   UNL A   1      39.293  37.586  40.198  1.00  0.00     0.124 S 
ATOM    100  O   UNL A   1      38.216  38.337  39.562  1.00  0.00    -0.237 OA
ATOM    101  O   UNL A   1      38.924  36.840  41.398  1.00  0.00    -0.237 OA
ATOM    102  O   UNL A   1      40.580  38.271  40.264  1.00  0.00    -0.744 OA
ENDBRANCH  98  99
ENDBRANCH  66  91
ENDBRANCH  40  41
ENDBRANCH  33  35
ENDBRANCH  32  33
ENDBRANCH  31  32
ENDBRANCH  30  31
ENDBRANCH  29  30
ENDBRANCH   1  29
TORSDOF 23
ENDMDL
MODEL 3
REMARK VINA RESULT:     -10.6      6.183     11.801
REMARK SMILES CC(=O)N[C@@H](Cc1c(C)[nH]c2ccccc2c1=O)C(=O)OCCOCCOCCOC(=O)c1ccc(-c2c3nc(c(-c4c(F)cc(S(=O)(=O)[O-])cc4F)c4ccc([nH]4)c(-c4c(F)cc(S(=O)(=O)[O-])cc4F)c4nc(c(-c5c(F)cc(S(=O)(=O)[O-])cc5F)c5ccc2[nH]5)C=C4)C=C3)cc1
REMARK SMILES IDX 26 1 25 2 24 3 23 4 22 5 21 6 19 7 20 8 5 9 4 10 1 11 2 12
REMARK SMILES IDX 3 13 6 15 7 16 8 17 17 18 9 19 10 20 16 21 18 22 11 23 15 25
REMARK SMILES IDX 12 26 14 27 13 28 27 29 28 30 29 31 30 32 31 33 32 34 33 35
REMARK SMILES IDX 34 36 98 37 35 38 97 39 36 40 37 41 38 42 91 43 39 44 96 45
REMARK SMILES IDX 90 46 92 47 40 48 95 49 89 50 88 51 41 53 75 54 54 55 74 56
REMARK SMILES IDX 55 57 58 58 73 59 93 60 56 61 57 62 72 64 94 65 59 66 42 67
REMARK SMILES IDX 43 68 52 69 44 70 45 71 51 72 53 73 46 74 47 75 48 76 49 77
REMARK SMILES IDX 50 78 76 79 77 80 86 81 78 82 79 83 85 84 87 85 80 86 81 87
REMARK SMILES IDX 82 88 83 89 84 90 60 91 61 92 70 93 62 94 63 95 69 96 71 97
REMARK SMILES IDX 64 98 65 99 66 100 67 101 68 102
REMARK H PARENT 4 14 10 24 92 52 58 63
REMARK Flexibility Score: inf
ROOT
ATOM      1  C   UNL A   1      33.020  31.196  27.138  1.00  0.00     0.188 C 
ENDROOT
BRANCH   1   2
ATOM      2  C   UNL A   1      32.462  29.849  26.636  1.00  0.00     0.188 C 
BRANCH   2   3
ATOM      3  O   UNL A   1      32.011  29.742  25.285  1.00  0.00    -0.376 OA
BRANCH   3   4
ATOM      4  C   UNL A   1      32.680  28.853  24.404  1.00  0.00     0.202 C 
BRANCH   4   5
ATOM      5  C   UNL A   1      32.213  28.864  22.949  1.00  0.00     0.261 C 
BRANCH   5   6
ATOM      6  O   UNL A   1      31.060  28.034  22.713  1.00  0.00    -0.462 OA
BRANCH   6   7
ATOM      7  C   UNL A   1      31.304  26.739  22.383  1.00  0.00     0.329 C 
ATOM      8  O   UNL A   1      31.306  26.309  21.233  1.00  0.00    -0.250 OA
BRANCH   7   9
ATOM      9  C   UNL A   1      31.399  25.797  23.601  1.00  0.00     0.196 C 
BRANCH   9  10
ATOM     10  N   UNL A   1      30.368  25.850  24.644  1.00  0.00    -0.343 N 
ATOM     11  C   UNL A   1      31.827  26.013  26.625  1.00  0.00     0.114 C 
ATOM     12  C   UNL A   1      30.475  25.837  25.999  1.00  0.00     0.217 C 
ATOM     13  O   UNL A   1      29.467  25.704  26.691  1.00  0.00    -0.275 OA
ATOM     14  H   UNL A   1      29.445  25.902  24.305  1.00  0.00     0.164 HD
ENDBRANCH   9  10
BRANCH   9  15
ATOM     15  C   UNL A   1      31.515  24.354  23.044  1.00  0.00     0.078 C 
BRANCH  15  16
ATOM     16  C   UNL A   1      32.526  23.418  23.706  1.00  0.00     0.022 A 
ATOM     17  C   UNL A   1      32.273  22.514  24.684  1.00  0.00     0.019 A 
ATOM     18  C   UNL A   1      33.946  23.479  23.202  1.00  0.00     0.192 A 
ATOM     19  C   UNL A   1      30.913  22.301  25.310  1.00  0.00     0.064 C 
ATOM     20  N   UNL A   1      33.251  21.678  25.201  1.00  0.00    -0.358 N 
ATOM     21  C   UNL A   1      34.991  22.678  23.865  1.00  0.00     0.046 A 
ATOM     22  O   UNL A   1      34.265  24.174  22.243  1.00  0.00    -0.289 OA
ATOM     23  C   UNL A   1      34.592  21.751  24.826  1.00  0.00     0.049 A 
ATOM     24  H   UNL A   1      32.985  21.000  25.864  1.00  0.00     0.166 HD
ATOM     25  C   UNL A   1      36.337  22.823  23.507  1.00  0.00     0.014 A 
ATOM     26  C   UNL A   1      35.558  20.908  25.382  1.00  0.00     0.027 A 
ATOM     27  C   UNL A   1      37.295  21.995  24.086  1.00  0.00     0.001 A 
ATOM     28  C   UNL A   1      36.903  21.027  25.009  1.00  0.00     0.002 A 
ENDBRANCH  15  16
ENDBRANCH   9  15
ENDBRANCH   7   9
ENDBRANCH   6   7
ENDBRANCH   5   6
ENDBRANCH   4   5
ENDBRANCH   3   4
ENDBRANCH   2   3
ENDBRANCH   1   2
BRANCH   1  29
ATOM     29  O   UNL A   1      34.259  31.036  27.808  1.00  0.00    -0.376 OA
BRANCH  29  30
ATOM     30  C   UNL A   1      34.645  32.083  28.671  1.00  0.00     0.202 C 
BRANCH  30  31
ATOM     31  C   UNL A   1      35.396  31.622  29.925  1.00  0.00     0.261 C 
BRANCH  31  32
ATOM     32  O   UNL A   1      35.986  30.316  29.850  1.00  0.00    -0.460 OA
BRANCH  32  33
ATOM     33  C   UNL A   1      36.841  29.955  30.837  1.00  0.00     0.338 C 
ATOM     34  O   UNL A   1      36.542  29.629  31.972  1.00  0.00    -0.246 OA
BRANCH  33  35
ATOM     35  C   UNL A   1      38.196  29.863  30.241  1.00  0.00     0.060 A 
ATOM     36  C   UNL A   1      39.318  29.735  31.065  1.00  0.00     0.016 A 
ATOM     37  C   UNL A   1      38.353  29.941  28.850  1.00  0.00     0.016 A 
ATOM     38  C   UNL A   1      40.591  29.648  30.496  1.00  0.00     0.010 A 
ATOM     39  C   UNL A   1      39.633  29.861  28.281  1.00  0.00     0.010 A 
ATOM     40  C   UNL A   1      40.760  29.686  29.099  1.00  0.00    -0.014 A 
BRANCH  40  41
ATOM     41  C   UNL A   1      42.081  29.313  28.527  1.00  0.00     0.031 A 
ATOM     42  C   UNL A   1      43.234  30.269  28.447  1.00  0.00     0.074 A 
ATOM     43  C   UNL A   1      42.235  28.038  28.117  1.00  0.00     0.049 A 
ATOM     44  N   UNL A   1      44.483  30.018  28.143  1.00  0.00    -0.248 NA
ATOM     45  C   UNL A   1      42.956  31.683  28.732  1.00  0.00     0.031 C 
ATOM     46  C   UNL A   1      41.173  27.030  28.113  1.00  0.00     0.029 A 
ATOM     47  N   UNL A   1      43.338  27.364  27.655  1.00  0.00    -0.354 N 
ATOM     48  C   UNL A   1      45.152  31.231  28.231  1.00  0.00     0.074 A 
ATOM     49  C   UNL A   1      44.155  32.231  28.565  1.00  0.00     0.031 C 
ATOM     50  C   UNL A   1      41.685  25.857  27.715  1.00  0.00     0.029 A 
ATOM     51  C   UNL A   1      43.104  26.029  27.423  1.00  0.00     0.049 A 
ATOM     52  H   UNL A   1      44.210  27.794  27.506  1.00  0.00     0.167 HD
ATOM     53  C   UNL A   1      46.477  31.478  28.070  1.00  0.00     0.037 A 
ATOM     54  C   UNL A   1      43.939  25.044  27.041  1.00  0.00     0.037 A 
ATOM     55  C   UNL A   1      47.456  30.474  27.722  1.00  0.00     0.049 A 
ATOM     56  C   UNL A   1      45.397  25.349  26.847  1.00  0.00     0.074 A 
ATOM     57  C   UNL A   1      48.826  30.624  27.578  1.00  0.00     0.029 A 
ATOM     58  N   UNL A   1      47.175  29.142  27.452  1.00  0.00    -0.354 N 
ATOM     59  N   UNL A   1      46.030  26.484  27.021  1.00  0.00    -0.248 NA
ATOM     60  C   UNL A   1      46.258  24.240  26.414  1.00  0.00     0.031 C 
ATOM     61  C   UNL A   1      49.364  29.398  27.173  1.00  0.00     0.029 A 
ATOM     62  C   UNL A   1      48.340  28.468  27.116  1.00  0.00     0.049 A 
ATOM     63  H   UNL A   1      46.280  28.734  27.493  1.00  0.00     0.167 HD
ATOM     64  C   UNL A   1      47.366  26.220  26.744  1.00  0.00     0.074 A 
ATOM     65  C   UNL A   1      47.453  24.816  26.400  1.00  0.00     0.031 C 
ATOM     66  C   UNL A   1      48.422  27.068  26.776  1.00  0.00     0.037 A 
BRANCH  53  67
ATOM     67  C   UNL A   1      46.974  32.882  28.294  1.00  0.00     0.058 A 
ATOM     68  C   UNL A   1      46.880  33.854  27.285  1.00  0.00     0.135 A 
ATOM     69  C   UNL A   1      47.440  33.293  29.554  1.00  0.00     0.135 A 
ATOM     70  F   UNL A   1      46.443  33.518  26.061  1.00  0.00    -0.206 F 
ATOM     71  C   UNL A   1      47.240  35.179  27.514  1.00  0.00     0.059 A 
ATOM     72  C   UNL A   1      47.783  34.618  29.811  1.00  0.00     0.059 A 
ATOM     73  F   UNL A   1      47.542  32.407  30.557  1.00  0.00    -0.206 F 
ATOM     74  C   UNL A   1      47.686  35.553  28.783  1.00  0.00     0.060 A 
BRANCH  74  75
ATOM     75  S   UNL A   1      48.120  37.283  29.066  1.00  0.00     0.124 S 
ATOM     76  O   UNL A   1      47.909  37.406  30.506  1.00  0.00    -0.237 OA
ATOM     77  O   UNL A   1      49.510  37.333  28.624  1.00  0.00    -0.237 OA
ATOM     78  O   UNL A   1      47.172  38.015  28.232  1.00  0.00    -0.744 OA
ENDBRANCH  74  75
ENDBRANCH  53  67
BRANCH  54  79
ATOM     79  C   UNL A   1      43.414  23.664  26.876  1.00  0.00     0.058 A 
ATOM     80  C   UNL A   1      43.253  23.103  25.602  1.00  0.00     0.135 A 
ATOM     81  C   UNL A   1      43.104  22.866  27.989  1.00  0.00     0.135 A 
ATOM     82  F   UNL A   1      43.535  23.828  24.508  1.00  0.00    -0.206 F 
ATOM     83  C   UNL A   1      42.790  21.803  25.433  1.00  0.00     0.059 A 
ATOM     84  C   UNL A   1      42.665  21.555  27.847  1.00  0.00     0.059 A 
ATOM     85  F   UNL A   1      43.261  23.353  29.229  1.00  0.00    -0.206 F 
ATOM     86  C   UNL A   1      42.502  21.035  26.563  1.00  0.00     0.060 A 
BRANCH  86  87
ATOM     87  S   UNL A   1      41.946  19.333  26.331  1.00  0.00     0.124 S 
ATOM     88  O   UNL A   1      42.488  19.025  25.013  1.00  0.00    -0.237 OA
ATOM     89  O   UNL A   1      42.576  18.650  27.457  1.00  0.00    -0.237 OA
ATOM     90  O   UNL A   1      40.492  19.440  26.407  1.00  0.00    -0.744 OA
ENDBRANCH  86  87
ENDBRANCH  54  79
BRANCH  66  91
ATOM     91  C   UNL A   1      49.779  26.510  26.443  1.00  0.00     0.058 A 
ATOM     92  C   UNL A   1      50.301  26.575  25.141  1.00  0.00     0.135 A 
ATOM     93  C   UNL A   1      50.602  25.982  27.452  1.00  0.00     0.135 A 
ATOM     94  F   UNL A   1      49.553  27.060  24.137  1.00  0.00    -0.206 F 
ATOM     95  C   UNL A   1      51.589  26.134  24.852  1.00  0.00     0.059 A 
ATOM     96  C   UNL A   1      51.901  25.559  27.190  1.00  0.00     0.059 A 
ATOM     97  F   UNL A   1      50.154  25.902  28.716  1.00  0.00    -0.206 F 
ATOM     98  C   UNL A   1      52.385  25.637  25.886  1.00  0.00     0.060 A 
BRANCH  98  99
ATOM     99  S   UNL A   1      54.078  25.135  25.503  1.00  0.00     0.124 S 
ATOM    100  O   UNL A   1      53.930  23.692  25.341  1.00  0.00    -0.237 OA
ATOM    101  O   UNL A   1      54.356  25.885  24.282  1.00  0.00    -0.237 OA
ATOM    102  O   UNL A   1      54.833  25.558  26.678  1.00  0.00    -0.744 OA
ENDBRANCH  98  99
ENDBRANCH  66  91
ENDBRANCH  40  41
ENDBRANCH  33  35
ENDBRANCH  32  33
ENDBRANCH  31  32
ENDBRANCH  30  31
ENDBRANCH  29  30
ENDBRANCH   1  29
TORSDOF 23
ENDMDL
