MODEL 1
REMARK VINA RESULT:     -12.1      0.000      0.000
REMARK SMILES Cc1ccc(-c2cc3cccnc3n2CCC(=O)OCCOCCOCCOC(=O)c2ccc(-c3c4nc(c(-c5c(F)cc(S(=O)(=O)[O-])cc5F)c5ccc([nH]5)c(-c5c(F)cc(S(=O)(=O)[O-])cc5F)c5nc(c(-c6c(F)cc(S(=O)(=O)[O-])cc6F)c6ccc3[nH]6)C=C5)C=C4)cc2)cn1
REMARK SMILES IDX 23 1 22 2 21 3 20 4 19 5 17 6 18 7 16 8 15 9 14 10 6 11 7 12
REMARK SMILES IDX 8 13 13 14 9 15 12 16 10 17 11 18 5 19 1 20 2 21 3 22 98 23
REMARK SMILES IDX 4 24 97 25 24 26 25 27 26 28 27 29 28 30 29 31 30 32 31 33
REMARK SMILES IDX 32 34 96 35 33 36 95 37 34 38 35 39 36 40 89 41 37 42 94 43
REMARK SMILES IDX 88 44 90 45 38 46 93 47 87 48 86 49 39 51 73 52 52 53 72 54
REMARK SMILES IDX 53 55 56 56 71 57 91 58 54 59 55 60 70 62 92 63 57 64 40 65
REMARK SMILES IDX 41 66 50 67 42 68 43 69 49 70 51 71 44 72 45 73 46 74 47 75
REMARK SMILES IDX 48 76 74 77 75 78 84 79 76 80 77 81 83 82 85 83 78 84 79 85
REMARK SMILES IDX 80 86 81 87 82 88 58 89 59 90 68 91 60 92 61 93 67 94 69 95
REMARK SMILES IDX 62 96 63 97 64 98 65 99 66 100
REMARK H PARENT 90 50 56 61
REMARK Flexibility Score: inf
ROOT
ATOM      1  C   UNL A   1      37.818  23.502  26.138  1.00  0.00     0.188 C 
ENDROOT
BRANCH   1   2
ATOM      2  O   UNL A   1      36.321  23.803  26.172  1.00  0.00    -0.376 OA
BRANCH   2   3
ATOM      3  C   UNL A   1      34.727  24.714  25.387  1.00  0.00     0.202 C 
BRANCH   3   4
ATOM      4  C   UNL A   1      34.211  26.379  25.356  1.00  0.00     0.261 C 
BRANCH   4   5
ATOM      5  O   UNL A   1      32.895  26.827  25.785  1.00  0.00    -0.463 OA
BRANCH   5   6
ATOM      6  C   UNL A   1      32.485  28.087  25.495  1.00  0.00     0.307 C 
ATOM      7  O   UNL A   1      32.083  28.880  26.339  1.00  0.00    -0.252 OA
BRANCH   6   8
ATOM      8  C   UNL A   1      32.646  28.476  24.021  1.00  0.00     0.144 C 
BRANCH   8   9
ATOM      9  C   UNL A   1      31.915  27.682  22.929  1.00  0.00     0.136 C 
BRANCH   9  10
ATOM     10  N   UNL A   1      30.480  27.615  23.081  1.00  0.00    -0.325 N 
ATOM     11  C   UNL A   1      29.776  26.601  23.697  1.00  0.00     0.052 A 
ATOM     12  C   UNL A   1      28.458  27.029  23.771  1.00  0.00     0.039 A 
ATOM     13  C   UNL A   1      28.342  28.261  23.101  1.00  0.00     0.020 A 
ATOM     14  C   UNL A   1      29.609  28.583  22.633  1.00  0.00     0.140 A 
ATOM     15  C   UNL A   1      27.287  29.143  22.842  1.00  0.00     0.013 A 
ATOM     16  N   UNL A   1      29.937  29.667  21.898  1.00  0.00    -0.238 NA
ATOM     17  C   UNL A   1      27.569  30.262  22.068  1.00  0.00     0.021 A 
ATOM     18  C   UNL A   1      28.870  30.454  21.618  1.00  0.00     0.113 A 
BRANCH  11  19
ATOM     19  C   UNL A   1      30.310  25.362  24.280  1.00  0.00     0.017 A 
ATOM     20  C   UNL A   1      32.734  21.208  25.682  1.00  0.00     0.066 C 
ATOM     21  C   UNL A   1      31.735  22.245  25.273  1.00  0.00     0.037 A 
ATOM     22  C   UNL A   1      30.944  23.243  26.534  1.00  0.00     0.024 A 
ATOM     23  N   UNL A   1      31.779  22.715  23.592  1.00  0.00    -0.261 NA
ATOM     24  C   UNL A   1      30.221  24.830  26.040  1.00  0.00     0.014 A 
ATOM     25  C   UNL A   1      31.098  24.258  23.114  1.00  0.00     0.121 A 
ENDBRANCH  11  19
ENDBRANCH   9  10
ENDBRANCH   8   9
ENDBRANCH   6   8
ENDBRANCH   5   6
ENDBRANCH   4   5
ENDBRANCH   3   4
ENDBRANCH   2   3
ENDBRANCH   1   2
BRANCH   1  26
ATOM     26  C   UNL A   1      38.139  22.023  25.840  1.00  0.00     0.188 C 
BRANCH  26  27
ATOM     27  O   UNL A   1      39.509  21.618  25.860  1.00  0.00    -0.376 OA
BRANCH  27  28
ATOM     28  C   UNL A   1      39.820  20.257  26.172  1.00  0.00     0.202 C 
BRANCH  28  29
ATOM     29  C   UNL A   1      41.299  19.924  26.127  1.00  0.00     0.261 C 
BRANCH  29  30
ATOM     30  O   UNL A   1      41.976  21.085  25.669  1.00  0.00    -0.460 OA
BRANCH  30  31
ATOM     31  C   UNL A   1      42.812  21.630  26.579  1.00  0.00     0.338 C 
ATOM     32  O   UNL A   1      42.784  21.469  27.793  1.00  0.00    -0.246 OA
BRANCH  31  33
ATOM     33  C   UNL A   1      43.862  22.426  25.840  1.00  0.00     0.060 A 
ATOM     34  C   UNL A   1      44.856  22.812  26.737  1.00  0.00     0.016 A 
ATOM     35  C   UNL A   1      43.268  23.373  25.018  1.00  0.00     0.016 A 
ATOM     36  C   UNL A   1      44.654  24.023  27.349  1.00  0.00     0.010 A 
ATOM     37  C   UNL A   1      42.969  24.540  25.660  1.00  0.00     0.010 A 
ATOM     38  C   UNL A   1      43.594  24.802  26.885  1.00  0.00    -0.014 A 
BRANCH  38  39
ATOM     39  C   UNL A   1      43.266  26.017  27.582  1.00  0.00     0.031 A 
ATOM     40  C   UNL A   1      44.318  27.019  27.340  1.00  0.00     0.074 A 
ATOM     41  C   UNL A   1      42.110  26.230  28.232  1.00  0.00     0.049 A 
ATOM     42  N   UNL A   1      45.399  27.178  28.032  1.00  0.00    -0.248 NA
ATOM     43  C   UNL A   1      44.371  27.622  25.996  1.00  0.00     0.031 C 
ATOM     44  C   UNL A   1      40.899  25.413  28.284  1.00  0.00     0.029 A 
ATOM     45  N   UNL A   1      41.769  27.335  28.942  1.00  0.00    -0.354 N 
ATOM     46  C   UNL A   1      46.117  28.113  27.304  1.00  0.00     0.074 A 
ATOM     47  C   UNL A   1      45.650  27.996  25.953  1.00  0.00     0.031 C 
ATOM     48  C   UNL A   1      39.889  26.155  28.801  1.00  0.00     0.029 A 
ATOM     49  C   UNL A   1      40.411  27.445  29.221  1.00  0.00     0.049 A 
ATOM     50  H   UNL A   1      42.429  28.003  29.237  1.00  0.00     0.167 HD
ATOM     51  C   UNL A   1      46.698  29.184  27.907  1.00  0.00     0.037 A 
ATOM     52  C   UNL A   1      39.815  28.586  29.661  1.00  0.00     0.037 A 
ATOM     53  C   UNL A   1      46.747  29.003  29.339  1.00  0.00     0.049 A 
ATOM     54  C   UNL A   1      40.907  29.443  30.221  1.00  0.00     0.074 A 
ATOM     55  C   UNL A   1      47.300  28.050  30.175  1.00  0.00     0.029 A 
ATOM     56  N   UNL A   1      45.791  29.655  30.085  1.00  0.00    -0.354 N 
ATOM     57  N   UNL A   1      41.597  29.129  31.287  1.00  0.00    -0.248 NA
ATOM     58  C   UNL A   1      41.570  30.374  29.315  1.00  0.00     0.031 C 
ATOM     59  C   UNL A   1      46.354  27.879  31.226  1.00  0.00     0.029 A 
ATOM     60  C   UNL A   1      45.307  28.780  31.025  1.00  0.00     0.049 A 
ATOM     61  H   UNL A   1      45.504  30.589  29.964  1.00  0.00     0.167 HD
ATOM     62  C   UNL A   1      42.909  29.480  30.992  1.00  0.00     0.074 A 
ATOM     63  C   UNL A   1      42.818  30.302  29.787  1.00  0.00     0.031 C 
ATOM     64  C   UNL A   1      43.963  28.828  31.568  1.00  0.00     0.037 A 
BRANCH  51  65
ATOM     65  C   UNL A   1      46.835  30.537  27.247  1.00  0.00     0.058 A 
ATOM     66  C   UNL A   1      48.109  31.127  27.181  1.00  0.00     0.135 A 
ATOM     67  C   UNL A   1      45.758  31.380  26.877  1.00  0.00     0.135 A 
ATOM     68  F   UNL A   1      49.203  30.427  27.520  1.00  0.00    -0.206 F 
ATOM     69  C   UNL A   1      48.291  32.466  26.830  1.00  0.00     0.059 A 
ATOM     70  C   UNL A   1      45.923  32.689  26.459  1.00  0.00     0.059 A 
ATOM     71  F   UNL A   1      44.474  31.029  26.989  1.00  0.00    -0.206 F 
ATOM     72  C   UNL A   1      47.188  33.239  26.478  1.00  0.00     0.060 A 
BRANCH  72  73
ATOM     73  S   UNL A   1      47.395  34.986  26.117  1.00  0.00     0.124 S 
ATOM     74  O   UNL A   1      46.037  35.369  25.753  1.00  0.00    -0.237 OA
ATOM     75  O   UNL A   1      47.890  35.496  27.391  1.00  0.00    -0.237 OA
ATOM     76  O   UNL A   1      48.367  34.992  25.026  1.00  0.00    -0.744 OA
ENDBRANCH  72  73
ENDBRANCH  51  65
BRANCH  52  77
ATOM     77  C   UNL A   1      38.481  29.136  29.287  1.00  0.00     0.058 A 
ATOM     78  C   UNL A   1      37.534  29.483  30.270  1.00  0.00     0.135 A 
ATOM     79  C   UNL A   1      38.212  29.598  27.983  1.00  0.00     0.135 A 
ATOM     80  F   UNL A   1      37.716  29.105  31.545  1.00  0.00    -0.206 F 
ATOM     81  C   UNL A   1      36.420  30.285  29.987  1.00  0.00     0.059 A 
ATOM     82  C   UNL A   1      37.104  30.390  27.677  1.00  0.00     0.059 A 
ATOM     83  F   UNL A   1      39.069  29.375  26.977  1.00  0.00    -0.206 F 
ATOM     84  C   UNL A   1      36.227  30.754  28.690  1.00  0.00     0.060 A 
BRANCH  84  85
ATOM     85  S   UNL A   1      34.897  31.934  28.354  1.00  0.00     0.124 S 
ATOM     86  O   UNL A   1      34.446  32.277  29.698  1.00  0.00    -0.237 OA
ATOM     87  O   UNL A   1      35.599  32.989  27.629  1.00  0.00    -0.237 OA
ATOM     88  O   UNL A   1      33.948  31.161  27.557  1.00  0.00    -0.744 OA
ENDBRANCH  84  85
ENDBRANCH  52  77
BRANCH  64  89
ATOM     89  C   UNL A   1      43.680  27.913  32.735  1.00  0.00     0.058 A 
ATOM     90  C   UNL A   1      43.596  26.512  32.644  1.00  0.00     0.135 A 
ATOM     91  C   UNL A   1      43.671  28.470  34.022  1.00  0.00     0.135 A 
ATOM     92  F   UNL A   1      43.699  25.894  31.458  1.00  0.00    -0.206 F 
ATOM     93  C   UNL A   1      43.478  25.705  33.779  1.00  0.00     0.059 A 
ATOM     94  C   UNL A   1      43.585  27.685  35.167  1.00  0.00     0.059 A 
ATOM     95  F   UNL A   1      43.809  29.797  34.178  1.00  0.00    -0.206 F 
ATOM     96  C   UNL A   1      43.479  26.302  35.039  1.00  0.00     0.060 A 
BRANCH  96  97
ATOM     97  S   UNL A   1      43.409  25.259  36.513  1.00  0.00     0.124 S 
ATOM     98  O   UNL A   1      44.556  24.378  36.321  1.00  0.00    -0.237 OA
ATOM     99  O   UNL A   1      43.531  26.233  37.595  1.00  0.00    -0.237 OA
ATOM    100  O   UNL A   1      42.103  24.613  36.413  1.00  0.00    -0.744 OA
ENDBRANCH  96  97
ENDBRANCH  64  89
ENDBRANCH  38  39
ENDBRANCH  31  33
ENDBRANCH  30  31
ENDBRANCH  29  30
ENDBRANCH  28  29
ENDBRANCH  27  28
ENDBRANCH  26  27
ENDBRANCH   1  26
TORSDOF 23
ENDMDL
MODEL 2
REMARK VINA RESULT:     -11.4      2.746      9.475
REMARK SMILES Cc1ccc(-c2cc3cccnc3n2CCC(=O)OCCOCCOCCOC(=O)c2ccc(-c3c4nc(c(-c5c(F)cc(S(=O)(=O)[O-])cc5F)c5ccc([nH]5)c(-c5c(F)cc(S(=O)(=O)[O-])cc5F)c5nc(c(-c6c(F)cc(S(=O)(=O)[O-])cc6F)c6ccc3[nH]6)C=C5)C=C4)cc2)cn1
REMARK SMILES IDX 23 1 22 2 21 3 20 4 19 5 17 6 18 7 16 8 15 9 14 10 6 11 7 12
REMARK SMILES IDX 8 13 13 14 9 15 12 16 10 17 11 18 5 19 1 20 2 21 3 22 98 23
REMARK SMILES IDX 4 24 97 25 24 26 25 27 26 28 27 29 28 30 29 31 30 32 31 33
REMARK SMILES IDX 32 34 96 35 33 36 95 37 34 38 35 39 36 40 89 41 37 42 94 43
REMARK SMILES IDX 88 44 90 45 38 46 93 47 87 48 86 49 39 51 73 52 52 53 72 54
REMARK SMILES IDX 53 55 56 56 71 57 91 58 54 59 55 60 70 62 92 63 57 64 40 65
REMARK SMILES IDX 41 66 50 67 42 68 43 69 49 70 51 71 44 72 45 73 46 74 47 75
REMARK SMILES IDX 48 76 74 77 75 78 84 79 76 80 77 81 83 82 85 83 78 84 79 85
REMARK SMILES IDX 80 86 81 87 82 88 58 89 59 90 68 91 60 92 61 93 67 94 69 95
REMARK SMILES IDX 62 96 63 97 64 98 65 99 66 100
REMARK H PARENT 90 50 56 61
REMARK Flexibility Score: inf
ROOT
ATOM      1  C   UNL A   1      31.854  30.273  26.622  1.00  0.00     0.188 C 
ENDROOT
BRANCH   1   2
ATOM      2  O   UNL A   1      31.898  28.806  26.203  1.00  0.00    -0.376 OA
BRANCH   2   3
ATOM      3  C   UNL A   1      30.950  27.084  25.849  1.00  0.00     0.202 C 
BRANCH   3   4
ATOM      4  C   UNL A   1      31.055  25.504  26.579  1.00  0.00     0.261 C 
BRANCH   4   5
ATOM      5  O   UNL A   1      30.001  24.504  26.502  1.00  0.00    -0.463 OA
BRANCH   5   6
ATOM      6  C   UNL A   1      30.194  23.278  27.046  1.00  0.00     0.307 C 
ATOM      7  O   UNL A   1      29.398  22.741  27.809  1.00  0.00    -0.252 OA
BRANCH   6   8
ATOM      8  C   UNL A   1      31.461  22.567  26.559  1.00  0.00     0.144 C 
BRANCH   8   9
ATOM      9  C   UNL A   1      31.395  21.602  25.366  1.00  0.00     0.136 C 
BRANCH   9  10
ATOM     10  N   UNL A   1      32.667  21.057  24.951  1.00  0.00    -0.325 N 
ATOM     11  C   UNL A   1      33.763  21.782  24.533  1.00  0.00     0.052 A 
ATOM     12  C   UNL A   1      34.806  20.877  24.405  1.00  0.00     0.039 A 
ATOM     13  C   UNL A   1      34.314  19.580  24.643  1.00  0.00     0.020 A 
ATOM     14  C   UNL A   1      32.962  19.712  24.932  1.00  0.00     0.140 A 
ATOM     15  C   UNL A   1      34.878  18.299  24.645  1.00  0.00     0.013 A 
ATOM     16  N   UNL A   1      32.097  18.706  25.182  1.00  0.00    -0.238 NA
ATOM     17  C   UNL A   1      34.023  17.228  24.873  1.00  0.00     0.021 A 
ATOM     18  C   UNL A   1      32.678  17.484  25.106  1.00  0.00     0.113 A 
BRANCH  11  19
ATOM     19  C   UNL A   1      33.866  23.239  24.369  1.00  0.00     0.017 A 
ATOM     20  C   UNL A   1      33.580  28.118  23.269  1.00  0.00     0.066 C 
ATOM     21  C   UNL A   1      33.999  26.707  23.537  1.00  0.00     0.037 A 
ATOM     22  C   UNL A   1      34.443  26.229  25.208  1.00  0.00     0.024 A 
ATOM     23  N   UNL A   1      33.568  25.544  22.310  1.00  0.00    -0.261 NA
ATOM     24  C   UNL A   1      34.374  24.470  25.640  1.00  0.00     0.014 A 
ATOM     25  C   UNL A   1      33.482  23.844  22.730  1.00  0.00     0.121 A 
ENDBRANCH  11  19
ENDBRANCH   9  10
ENDBRANCH   8   9
ENDBRANCH   6   8
ENDBRANCH   5   6
ENDBRANCH   4   5
ENDBRANCH   3   4
ENDBRANCH   2   3
ENDBRANCH   1   2
BRANCH   1  26
ATOM     26  C   UNL A   1      33.250  30.916  26.750  1.00  0.00     0.188 C 
BRANCH  26  27
ATOM     27  O   UNL A   1      33.556  31.619  27.956  1.00  0.00    -0.376 OA
BRANCH  27  28
ATOM     28  C   UNL A   1      33.572  33.049  27.935  1.00  0.00     0.202 C 
BRANCH  28  29
ATOM     29  C   UNL A   1      34.958  33.663  28.011  1.00  0.00     0.261 C 
BRANCH  29  30
ATOM     30  O   UNL A   1      35.893  32.610  27.828  1.00  0.00    -0.460 OA
BRANCH  30  31
ATOM     31  C   UNL A   1      36.877  32.580  28.752  1.00  0.00     0.338 C 
ATOM     32  O   UNL A   1      37.847  33.326  28.818  1.00  0.00    -0.246 OA
BRANCH  31  33
ATOM     33  C   UNL A   1      36.547  31.506  29.761  1.00  0.00     0.060 A 
ATOM     34  C   UNL A   1      37.283  31.732  30.923  1.00  0.00     0.016 A 
ATOM     35  C   UNL A   1      36.565  30.253  29.164  1.00  0.00     0.016 A 
ATOM     36  C   UNL A   1      38.509  31.117  30.967  1.00  0.00     0.010 A 
ATOM     37  C   UNL A   1      37.807  29.692  29.113  1.00  0.00     0.010 A 
ATOM     38  C   UNL A   1      38.804  30.210  29.949  1.00  0.00    -0.014 A 
BRANCH  38  39
ATOM     39  C   UNL A   1      40.125  29.643  29.884  1.00  0.00     0.031 A 
ATOM     40  C   UNL A   1      40.621  29.402  31.250  1.00  0.00     0.074 A 
ATOM     41  C   UNL A   1      40.734  29.270  28.747  1.00  0.00     0.049 A 
ATOM     42  N   UNL A   1      41.263  30.246  31.992  1.00  0.00    -0.248 NA
ATOM     43  C   UNL A   1      40.011  28.287  31.997  1.00  0.00     0.031 C 
ATOM     44  C   UNL A   1      40.215  29.203  27.383  1.00  0.00     0.029 A 
ATOM     45  N   UNL A   1      41.992  28.775  28.624  1.00  0.00    -0.354 N 
ATOM     46  C   UNL A   1      41.345  29.603  33.216  1.00  0.00     0.074 A 
ATOM     47  C   UNL A   1      40.247  28.683  33.248  1.00  0.00     0.031 C 
ATOM     48  C   UNL A   1      41.077  28.488  26.618  1.00  0.00     0.029 A 
ATOM     49  C   UNL A   1      42.252  28.157  27.406  1.00  0.00     0.049 A 
ATOM     50  H   UNL A   1      42.665  28.848  29.339  1.00  0.00     0.167 HD
ATOM     51  C   UNL A   1      42.515  29.547  33.908  1.00  0.00     0.037 A 
ATOM     52  C   UNL A   1      43.326  27.356  27.174  1.00  0.00     0.037 A 
ATOM     53  C   UNL A   1      43.470  30.491  33.378  1.00  0.00     0.049 A 
ATOM     54  C   UNL A   1      44.330  27.679  28.236  1.00  0.00     0.074 A 
ATOM     55  C   UNL A   1      43.478  31.861  33.194  1.00  0.00     0.029 A 
ATOM     56  N   UNL A   1      44.446  29.991  32.544  1.00  0.00    -0.354 N 
ATOM     57  N   UNL A   1      44.934  28.835  28.332  1.00  0.00    -0.248 NA
ATOM     58  C   UNL A   1      44.275  26.911  29.475  1.00  0.00     0.031 C 
ATOM     59  C   UNL A   1      44.139  32.070  31.950  1.00  0.00     0.029 A 
ATOM     60  C   UNL A   1      44.567  30.833  31.467  1.00  0.00     0.049 A 
ATOM     61  H   UNL A   1      44.968  29.169  32.695  1.00  0.00     0.167 HD
ATOM     62  C   UNL A   1      44.965  29.120  29.692  1.00  0.00     0.074 A 
ATOM     63  C   UNL A   1      44.603  27.867  30.350  1.00  0.00     0.031 C 
ATOM     64  C   UNL A   1      44.984  30.410  30.145  1.00  0.00     0.037 A 
BRANCH  51  65
ATOM     65  C   UNL A   1      42.915  28.373  34.771  1.00  0.00     0.058 A 
ATOM     66  C   UNL A   1      43.268  28.610  36.110  1.00  0.00     0.135 A 
ATOM     67  C   UNL A   1      43.184  27.064  34.298  1.00  0.00     0.135 A 
ATOM     68  F   UNL A   1      43.071  29.818  36.663  1.00  0.00    -0.206 F 
ATOM     69  C   UNL A   1      43.892  27.642  36.899  1.00  0.00     0.059 A 
ATOM     70  C   UNL A   1      43.738  26.068  35.084  1.00  0.00     0.059 A 
ATOM     71  F   UNL A   1      43.024  26.691  33.025  1.00  0.00    -0.206 F 
ATOM     72  C   UNL A   1      44.127  26.376  36.371  1.00  0.00     0.060 A 
BRANCH  72  73
ATOM     73  S   UNL A   1      45.013  25.150  37.340  1.00  0.00     0.124 S 
ATOM     74  O   UNL A   1      44.354  25.274  38.634  1.00  0.00    -0.237 OA
ATOM     75  O   UNL A   1      44.743  23.928  36.593  1.00  0.00    -0.237 OA
ATOM     76  O   UNL A   1      46.397  25.617  37.289  1.00  0.00    -0.744 OA
ENDBRANCH  72  73
ENDBRANCH  51  65
BRANCH  52  77
ATOM     77  C   UNL A   1      43.388  26.100  26.373  1.00  0.00     0.058 A 
ATOM     78  C   UNL A   1      44.405  25.891  25.422  1.00  0.00     0.135 A 
ATOM     79  C   UNL A   1      42.626  24.966  26.718  1.00  0.00     0.135 A 
ATOM     80  F   UNL A   1      45.196  26.909  25.046  1.00  0.00    -0.206 F 
ATOM     81  C   UNL A   1      44.685  24.626  24.889  1.00  0.00     0.059 A 
ATOM     82  C   UNL A   1      42.881  23.698  26.194  1.00  0.00     0.059 A 
ATOM     83  F   UNL A   1      41.666  25.032  27.651  1.00  0.00    -0.206 F 
ATOM     84  C   UNL A   1      43.931  23.529  25.301  1.00  0.00     0.060 A 
BRANCH  84  85
ATOM     85  S   UNL A   1      44.399  21.867  24.759  1.00  0.00     0.124 S 
ATOM     86  O   UNL A   1      45.649  21.652  25.481  1.00  0.00    -0.237 OA
ATOM     87  O   UNL A   1      43.261  21.068  25.203  1.00  0.00    -0.237 OA
ATOM     88  O   UNL A   1      44.532  22.005  23.311  1.00  0.00    -0.744 OA
ENDBRANCH  84  85
ENDBRANCH  52  77
BRANCH  64  89
ATOM     89  C   UNL A   1      45.251  31.510  29.144  1.00  0.00     0.058 A 
ATOM     90  C   UNL A   1      46.532  31.896  28.712  1.00  0.00     0.135 A 
ATOM     91  C   UNL A   1      44.155  32.068  28.472  1.00  0.00     0.135 A 
ATOM     92  F   UNL A   1      47.631  31.335  29.235  1.00  0.00    -0.206 F 
ATOM     93  C   UNL A   1      46.714  32.818  27.677  1.00  0.00     0.059 A 
ATOM     94  C   UNL A   1      44.311  32.964  27.419  1.00  0.00     0.059 A 
ATOM     95  F   UNL A   1      42.907  31.693  28.797  1.00  0.00    -0.206 F 
ATOM     96  C   UNL A   1      45.594  33.343  27.032  1.00  0.00     0.060 A 
BRANCH  96  97
ATOM     97  S   UNL A   1      45.823  34.472  25.640  1.00  0.00     0.124 S 
ATOM     98  O   UNL A   1      47.249  34.335  25.364  1.00  0.00    -0.237 OA
ATOM     99  O   UNL A   1      44.925  33.917  24.632  1.00  0.00    -0.237 OA
ATOM    100  O   UNL A   1      45.415  35.767  26.179  1.00  0.00    -0.744 OA
ENDBRANCH  96  97
ENDBRANCH  64  89
ENDBRANCH  38  39
ENDBRANCH  31  33
ENDBRANCH  30  31
ENDBRANCH  29  30
ENDBRANCH  28  29
ENDBRANCH  27  28
ENDBRANCH  26  27
ENDBRANCH   1  26
TORSDOF 23
ENDMDL
MODEL 3
REMARK VINA RESULT:     -11.2      2.570      9.297
REMARK SMILES Cc1ccc(-c2cc3cccnc3n2CCC(=O)OCCOCCOCCOC(=O)c2ccc(-c3c4nc(c(-c5c(F)cc(S(=O)(=O)[O-])cc5F)c5ccc([nH]5)c(-c5c(F)cc(S(=O)(=O)[O-])cc5F)c5nc(c(-c6c(F)cc(S(=O)(=O)[O-])cc6F)c6ccc3[nH]6)C=C5)C=C4)cc2)cn1
REMARK SMILES IDX 23 1 22 2 21 3 20 4 19 5 17 6 18 7 16 8 15 9 14 10 6 11 7 12
REMARK SMILES IDX 8 13 13 14 9 15 12 16 10 17 11 18 5 19 1 20 2 21 3 22 98 23
REMARK SMILES IDX 4 24 97 25 24 26 25 27 26 28 27 29 28 30 29 31 30 32 31 33
REMARK SMILES IDX 32 34 96 35 33 36 95 37 34 38 35 39 36 40 89 41 37 42 94 43
REMARK SMILES IDX 88 44 90 45 38 46 93 47 87 48 86 49 39 51 73 52 52 53 72 54
REMARK SMILES IDX 53 55 56 56 71 57 91 58 54 59 55 60 70 62 92 63 57 64 40 65
REMARK SMILES IDX 41 66 50 67 42 68 43 69 49 70 51 71 44 72 45 73 46 74 47 75
REMARK SMILES IDX 48 76 74 77 75 78 84 79 76 80 77 81 83 82 85 83 78 84 79 85
REMARK SMILES IDX 80 86 81 87 82 88 58 89 59 90 68 91 60 92 61 93 67 94 69 95
REMARK SMILES IDX 62 96 63 97 64 98 65 99 66 100
REMARK H PARENT 90 50 56 61
REMARK Flexibility Score: inf
ROOT
ATOM      1  C   UNL A   1      31.755  28.407  26.991  1.00  0.00     0.188 C 
ENDROOT
BRANCH   1   2
ATOM      2  O   UNL A   1      32.823  27.370  26.651  1.00  0.00    -0.376 OA
BRANCH   2   3
ATOM      3  C   UNL A   1      34.021  26.506  25.308  1.00  0.00     0.202 C 
BRANCH   3   4
ATOM      4  C   UNL A   1      34.723  24.913  25.199  1.00  0.00     0.261 C 
BRANCH   4   5
ATOM      5  O   UNL A   1      34.413  23.827  26.116  1.00  0.00    -0.463 OA
BRANCH   5   6
ATOM      6  C   UNL A   1      34.928  22.592  25.896  1.00  0.00     0.307 C 
ATOM      7  O   UNL A   1      35.898  22.380  25.177  1.00  0.00    -0.252 OA
BRANCH   6   8
ATOM      8  C   UNL A   1      34.246  21.476  26.697  1.00  0.00     0.144 C 
BRANCH   8   9
ATOM      9  C   UNL A   1      32.806  21.059  26.366  1.00  0.00     0.136 C 
BRANCH   9  10
ATOM     10  N   UNL A   1      32.650  20.338  25.124  1.00  0.00    -0.325 N 
ATOM     11  C   UNL A   1      32.368  20.894  23.893  1.00  0.00     0.052 A 
ATOM     12  C   UNL A   1      32.482  19.869  22.965  1.00  0.00     0.039 A 
ATOM     13  C   UNL A   1      32.729  18.664  23.647  1.00  0.00     0.020 A 
ATOM     14  C   UNL A   1      32.779  18.973  25.001  1.00  0.00     0.140 A 
ATOM     15  C   UNL A   1      32.919  17.333  23.256  1.00  0.00     0.013 A 
ATOM     16  N   UNL A   1      32.955  18.097  26.013  1.00  0.00    -0.238 NA
ATOM     17  C   UNL A   1      33.079  16.390  24.264  1.00  0.00     0.021 A 
ATOM     18  C   UNL A   1      33.066  16.816  25.586  1.00  0.00     0.113 A 
BRANCH  11  19
ATOM     19  C   UNL A   1      32.117  22.309  23.583  1.00  0.00     0.017 A 
ATOM     20  C   UNL A   1      31.530  26.935  21.753  1.00  0.00     0.066 C 
ATOM     21  C   UNL A   1      31.867  25.716  22.554  1.00  0.00     0.037 A 
ATOM     22  C   UNL A   1      30.700  25.125  23.779  1.00  0.00     0.024 A 
ATOM     23  N   UNL A   1      33.137  24.711  21.902  1.00  0.00    -0.261 NA
ATOM     24  C   UNL A   1      30.817  23.394  24.305  1.00  0.00     0.014 A 
ATOM     25  C   UNL A   1      33.240  23.032  22.394  1.00  0.00     0.121 A 
ENDBRANCH  11  19
ENDBRANCH   9  10
ENDBRANCH   8   9
ENDBRANCH   6   8
ENDBRANCH   5   6
ENDBRANCH   4   5
ENDBRANCH   3   4
ENDBRANCH   2   3
ENDBRANCH   1   2
BRANCH   1  26
ATOM     26  C   UNL A   1      31.891  29.714  26.184  1.00  0.00     0.188 C 
BRANCH  26  27
ATOM     27  O   UNL A   1      33.097  30.467  26.325  1.00  0.00    -0.376 OA
BRANCH  27  28
ATOM     28  C   UNL A   1      33.448  30.968  27.618  1.00  0.00     0.202 C 
BRANCH  28  29
ATOM     29  C   UNL A   1      34.829  31.591  27.698  1.00  0.00     0.261 C 
BRANCH  29  30
ATOM     30  O   UNL A   1      35.451  31.080  28.868  1.00  0.00    -0.460 OA
BRANCH  30  31
ATOM     31  C   UNL A   1      36.266  31.960  29.488  1.00  0.00     0.338 C 
ATOM     32  O   UNL A   1      36.786  32.954  28.995  1.00  0.00    -0.246 OA
BRANCH  31  33
ATOM     33  C   UNL A   1      36.377  31.562  30.941  1.00  0.00     0.060 A 
ATOM     34  C   UNL A   1      37.488  32.187  31.501  1.00  0.00     0.016 A 
ATOM     35  C   UNL A   1      36.207  30.192  31.085  1.00  0.00     0.016 A 
ATOM     36  C   UNL A   1      38.660  31.476  31.424  1.00  0.00     0.010 A 
ATOM     37  C   UNL A   1      37.357  29.479  30.899  1.00  0.00     0.010 A 
ATOM     38  C   UNL A   1      38.578  30.161  30.966  1.00  0.00    -0.014 A 
BRANCH  38  39
ATOM     39  C   UNL A   1      39.794  29.424  30.745  1.00  0.00     0.031 A 
ATOM     40  C   UNL A   1      40.518  29.283  32.020  1.00  0.00     0.074 A 
ATOM     41  C   UNL A   1      40.129  28.845  29.582  1.00  0.00     0.049 A 
ATOM     42  N   UNL A   1      41.377  30.119  32.510  1.00  0.00    -0.248 NA
ATOM     43  C   UNL A   1      39.951  28.353  33.013  1.00  0.00     0.031 C 
ATOM     44  C   UNL A   1      39.350  28.686  28.355  1.00  0.00     0.029 A 
ATOM     45  N   UNL A   1      41.279  28.180  29.306  1.00  0.00    -0.354 N 
ATOM     46  C   UNL A   1      41.627  29.620  33.778  1.00  0.00     0.074 A 
ATOM     47  C   UNL A   1      40.465  28.859  34.134  1.00  0.00     0.031 C 
ATOM     48  C   UNL A   1      39.967  27.780  27.556  1.00  0.00     0.029 A 
ATOM     49  C   UNL A   1      41.232  27.394  28.160  1.00  0.00     0.049 A 
ATOM     50  H   UNL A   1      42.083  28.249  29.872  1.00  0.00     0.167 HD
ATOM     51  C   UNL A   1      42.896  29.494  34.251  1.00  0.00     0.037 A 
ATOM     52  C   UNL A   1      42.150  26.439  27.854  1.00  0.00     0.037 A 
ATOM     53  C   UNL A   1      43.824  30.237  33.431  1.00  0.00     0.049 A 
ATOM     54  C   UNL A   1      43.370  26.752  28.664  1.00  0.00     0.074 A 
ATOM     55  C   UNL A   1      43.940  31.564  33.060  1.00  0.00     0.029 A 
ATOM     56  N   UNL A   1      44.562  29.521  32.515  1.00  0.00    -0.354 N 
ATOM     57  N   UNL A   1      44.099  27.824  28.487  1.00  0.00    -0.248 NA
ATOM     58  C   UNL A   1      43.476  26.149  29.988  1.00  0.00     0.031 C 
ATOM     59  C   UNL A   1      44.365  31.538  31.701  1.00  0.00     0.029 A 
ATOM     60  C   UNL A   1      44.559  30.208  31.326  1.00  0.00     0.049 A 
ATOM     61  H   UNL A   1      45.014  28.662  32.683  1.00  0.00     0.167 HD
ATOM     62  C   UNL A   1      44.423  28.261  29.766  1.00  0.00     0.074 A 
ATOM     63  C   UNL A   1      44.066  27.151  30.647  1.00  0.00     0.031 C 
ATOM     64  C   UNL A   1      44.665  29.582  30.023  1.00  0.00     0.037 A 
BRANCH  51  65
ATOM     65  C   UNL A   1      43.331  28.388  35.183  1.00  0.00     0.058 A 
ATOM     66  C   UNL A   1      43.933  28.734  36.405  1.00  0.00     0.135 A 
ATOM     67  C   UNL A   1      43.391  27.012  34.849  1.00  0.00     0.135 A 
ATOM     68  F   UNL A   1      43.947  30.011  36.820  1.00  0.00    -0.206 F 
ATOM     69  C   UNL A   1      44.592  27.798  37.202  1.00  0.00     0.059 A 
ATOM     70  C   UNL A   1      43.979  26.055  35.659  1.00  0.00     0.059 A 
ATOM     71  F   UNL A   1      42.978  26.518  33.679  1.00  0.00    -0.206 F 
ATOM     72  C   UNL A   1      44.614  26.461  36.814  1.00  0.00     0.060 A 
BRANCH  72  73
ATOM     73  S   UNL A   1      45.539  25.261  37.779  1.00  0.00     0.124 S 
ATOM     74  O   UNL A   1      44.866  25.347  39.069  1.00  0.00    -0.237 OA
ATOM     75  O   UNL A   1      45.321  24.036  37.018  1.00  0.00    -0.237 OA
ATOM     76  O   UNL A   1      46.904  25.780  37.743  1.00  0.00    -0.744 OA
ENDBRANCH  72  73
ENDBRANCH  51  65
BRANCH  52  77
ATOM     77  C   UNL A   1      41.923  25.101  27.238  1.00  0.00     0.058 A 
ATOM     78  C   UNL A   1      42.884  24.515  26.392  1.00  0.00     0.135 A 
ATOM     79  C   UNL A   1      40.896  24.247  27.686  1.00  0.00     0.135 A 
ATOM     80  F   UNL A   1      43.911  25.246  25.930  1.00  0.00    -0.206 F 
ATOM     81  C   UNL A   1      42.858  23.155  26.056  1.00  0.00     0.059 A 
ATOM     82  C   UNL A   1      40.845  22.891  27.359  1.00  0.00     0.059 A 
ATOM     83  F   UNL A   1      39.956  24.679  28.538  1.00  0.00    -0.206 F 
ATOM     84  C   UNL A   1      41.845  22.344  26.566  1.00  0.00     0.060 A 
BRANCH  84  85
ATOM     85  S   UNL A   1      41.904  20.557  26.288  1.00  0.00     0.124 S 
ATOM     86  O   UNL A   1      42.233  20.053  27.618  1.00  0.00    -0.237 OA
ATOM     87  O   UNL A   1      40.553  20.276  25.815  1.00  0.00    -0.237 OA
ATOM     88  O   UNL A   1      42.956  20.402  25.287  1.00  0.00    -0.744 OA
ENDBRANCH  84  85
ENDBRANCH  52  77
BRANCH  64  89
ATOM     89  C   UNL A   1      44.846  30.512  28.848  1.00  0.00     0.058 A 
ATOM     90  C   UNL A   1      43.791  31.049  28.089  1.00  0.00     0.135 A 
ATOM     91  C   UNL A   1      46.132  31.014  28.598  1.00  0.00     0.135 A 
ATOM     92  F   UNL A   1      42.521  30.696  28.334  1.00  0.00    -0.206 F 
ATOM     93  C   UNL A   1      44.008  32.019  27.106  1.00  0.00     0.059 A 
ATOM     94  C   UNL A   1      46.369  32.001  27.646  1.00  0.00     0.059 A 
ATOM     95  F   UNL A   1      47.173  30.586  29.331  1.00  0.00    -0.206 F 
ATOM     96  C   UNL A   1      45.303  32.493  26.895  1.00  0.00     0.060 A 
BRANCH  96  97
ATOM     97  S   UNL A   1      45.579  33.805  25.684  1.00  0.00     0.124 S 
ATOM     98  O   UNL A   1      44.843  33.314  24.525  1.00  0.00    -0.237 OA
ATOM     99  O   UNL A   1      45.009  34.974  26.349  1.00  0.00    -0.237 OA
ATOM    100  O   UNL A   1      47.031  33.833  25.534  1.00  0.00    -0.744 OA
ENDBRANCH  96  97
ENDBRANCH  64  89
ENDBRANCH  38  39
ENDBRANCH  31  33
ENDBRANCH  30  31
ENDBRANCH  29  30
ENDBRANCH  28  29
ENDBRANCH  27  28
ENDBRANCH  26  27
ENDBRANCH   1  26
TORSDOF 23
ENDMDL
