MODEL 1
REMARK VINA RESULT:     -10.7      0.000      0.000
REMARK SMILES O=C(CN1C(=O)N[C@@](CCC(=O)OCCOCCOCCOC(=O)c2ccc(-c3c4nc(c(-c5c(F)cc(S(=O)(=O)[O-])cc5F)c5ccc([nH]5)c(-c5c(F)cc(S(=O)(=O)[O-])cc5F)c5nc(c(-c6c(F)cc(S(=O)(=O)[O-])cc6F)c6ccc3[nH]6)C=C5)C=C4)cc2)(c2ccccc2)C1=O)Nc1cccc(F)c1
REMARK SMILES IDX 17 1 16 2 15 3 14 4 13 5 11 6 12 7 10 8 9 9 8 10 4 11 5 12
REMARK SMILES IDX 97 13 6 14 7 15 98 16 3 18 2 19 1 20 99 21 100 23 101 24
REMARK SMILES IDX 106 25 102 26 104 27 103 28 105 29 91 30 92 31 96 32 93 33
REMARK SMILES IDX 95 34 94 35 18 36 19 37 20 38 21 39 22 40 23 41 24 42 25 43
REMARK SMILES IDX 26 44 90 45 27 46 89 47 28 48 29 49 30 50 83 51 31 52 88 53
REMARK SMILES IDX 82 54 84 55 32 56 87 57 81 58 80 59 33 61 67 62 46 63 66 64
REMARK SMILES IDX 47 65 50 66 65 67 85 68 48 69 49 70 64 72 86 73 51 74 34 75
REMARK SMILES IDX 35 76 44 77 36 78 37 79 43 80 45 81 38 82 39 83 40 84 41 85
REMARK SMILES IDX 42 86 68 87 69 88 78 89 70 90 71 91 77 92 79 93 72 94 73 95
REMARK SMILES IDX 74 96 75 97 76 98 52 99 53 100 62 101 54 102 55 103 61 104
REMARK SMILES IDX 63 105 56 106 57 107 58 108 59 109 60 110
REMARK H PARENT 7 17 99 22 84 60 50 71
REMARK Flexibility Score: inf
ROOT
ATOM      1  C   UNL A   1      33.656  34.600  27.944  1.00  0.00     0.188 C 
ENDROOT
BRANCH   1   2
ATOM      2  O   UNL A   1      34.989  34.199  28.232  1.00  0.00    -0.376 OA
BRANCH   2   3
ATOM      3  C   UNL A   1      35.317  32.859  27.884  1.00  0.00     0.202 C 
BRANCH   3   4
ATOM      4  C   UNL A   1      34.381  31.813  28.506  1.00  0.00     0.261 C 
BRANCH   4   5
ATOM      5  O   UNL A   1      33.736  30.983  27.512  1.00  0.00    -0.463 OA
BRANCH   5   6
ATOM      6  C   UNL A   1      34.232  29.738  27.327  1.00  0.00     0.305 C 
ATOM      7  O   UNL A   1      35.144  29.243  27.976  1.00  0.00    -0.252 OA
BRANCH   6   8
ATOM      8  C   UNL A   1      33.600  29.029  26.147  1.00  0.00     0.126 C 
BRANCH   8   9
ATOM      9  C   UNL A   1      32.212  29.487  25.660  1.00  0.00     0.055 C 
BRANCH   9  10
ATOM     10  C   UNL A   1      31.759  29.026  24.243  1.00  0.00     0.147 C 
ATOM     11  N   UNL A   1      32.500  27.054  23.128  1.00  0.00    -0.252 N 
ATOM     12  C   UNL A   1      33.169  28.105  22.597  1.00  0.00     0.325 C 
ATOM     13  C   UNL A   1      31.758  27.461  24.207  1.00  0.00     0.261 C 
ATOM     14  O   UNL A   1      33.968  28.069  21.678  1.00  0.00    -0.248 OA
ATOM     15  N   UNL A   1      32.812  29.246  23.266  1.00  0.00    -0.319 N 
ATOM     16  O   UNL A   1      31.131  26.722  24.952  1.00  0.00    -0.271 OA
ATOM     17  H   UNL A   1      33.227  30.125  23.102  1.00  0.00     0.166 HD
BRANCH  11  18
ATOM     18  C   UNL A   1      32.405  25.740  22.528  1.00  0.00     0.230 C 
BRANCH  18  19
ATOM     19  C   UNL A   1      33.173  24.602  23.192  1.00  0.00     0.244 C 
ATOM     20  O   UNL A   1      34.151  24.123  22.617  1.00  0.00    -0.273 OA
ATOM     21  N   UNL A   1      32.788  24.319  24.488  1.00  0.00    -0.324 N 
ATOM     22  H   UNL A   1      32.010  24.813  24.832  1.00  0.00     0.170 HD
BRANCH  21  23
ATOM     23  C   UNL A   1      33.389  23.399  25.371  1.00  0.00     0.044 A 
ATOM     24  C   UNL A   1      32.886  23.350  26.679  1.00  0.00     0.026 A 
ATOM     25  C   UNL A   1      34.439  22.552  25.019  1.00  0.00     0.065 A 
ATOM     26  C   UNL A   1      33.403  22.443  27.610  1.00  0.00     0.005 A 
ATOM     27  C   UNL A   1      34.959  21.666  25.957  1.00  0.00     0.125 A 
ATOM     28  C   UNL A   1      34.444  21.596  27.245  1.00  0.00     0.039 A 
ATOM     29  F   UNL A   1      35.979  20.866  25.614  1.00  0.00    -0.207 F 
ENDBRANCH  21  23
ENDBRANCH  18  19
ENDBRANCH  11  18
BRANCH  10  30
ATOM     30  C   UNL A   1      30.398  29.472  23.690  1.00  0.00    -0.013 A 
ATOM     31  C   UNL A   1      29.864  30.722  23.993  1.00  0.00     0.007 A 
ATOM     32  C   UNL A   1      29.552  28.590  22.986  1.00  0.00     0.007 A 
ATOM     33  C   UNL A   1      28.583  31.108  23.584  1.00  0.00     0.000 A 
ATOM     34  C   UNL A   1      28.255  28.957  22.602  1.00  0.00     0.000 A 
ATOM     35  C   UNL A   1      27.773  30.224  22.894  1.00  0.00     0.000 A 
ENDBRANCH  10  30
ENDBRANCH   9  10
ENDBRANCH   8   9
ENDBRANCH   6   8
ENDBRANCH   5   6
ENDBRANCH   4   5
ENDBRANCH   3   4
ENDBRANCH   2   3
ENDBRANCH   1   2
BRANCH   1  36
ATOM     36  C   UNL A   1      33.151  35.724  28.850  1.00  0.00     0.188 C 
BRANCH  36  37
ATOM     37  O   UNL A   1      32.510  35.254  30.037  1.00  0.00    -0.376 OA
BRANCH  37  38
ATOM     38  C   UNL A   1      32.760  36.033  31.211  1.00  0.00     0.202 C 
BRANCH  38  39
ATOM     39  C   UNL A   1      33.719  35.454  32.261  1.00  0.00     0.261 C 
BRANCH  39  40
ATOM     40  O   UNL A   1      34.264  34.203  31.839  1.00  0.00    -0.460 OA
BRANCH  40  41
ATOM     41  C   UNL A   1      34.677  33.383  32.840  1.00  0.00     0.338 C 
ATOM     42  O   UNL A   1      34.039  33.030  33.818  1.00  0.00    -0.246 OA
BRANCH  41  43
ATOM     43  C   UNL A   1      35.951  32.760  32.412  1.00  0.00     0.060 A 
ATOM     44  C   UNL A   1      36.510  31.771  33.240  1.00  0.00     0.016 A 
ATOM     45  C   UNL A   1      36.493  33.020  31.149  1.00  0.00     0.016 A 
ATOM     46  C   UNL A   1      37.633  31.060  32.818  1.00  0.00     0.010 A 
ATOM     47  C   UNL A   1      37.621  32.322  30.735  1.00  0.00     0.010 A 
ATOM     48  C   UNL A   1      38.215  31.373  31.584  1.00  0.00    -0.014 A 
BRANCH  48  49
ATOM     49  C   UNL A   1      39.610  30.987  31.291  1.00  0.00     0.031 A 
ATOM     50  C   UNL A   1      40.649  32.046  31.523  1.00  0.00     0.074 A 
ATOM     51  C   UNL A   1      39.924  29.798  30.750  1.00  0.00     0.049 A 
ATOM     52  N   UNL A   1      41.893  32.091  31.134  1.00  0.00    -0.248 NA
ATOM     53  C   UNL A   1      40.207  33.240  32.270  1.00  0.00     0.031 C 
ATOM     54  C   UNL A   1      38.996  28.693  30.522  1.00  0.00     0.029 A 
ATOM     55  N   UNL A   1      41.121  29.343  30.259  1.00  0.00    -0.354 N 
ATOM     56  C   UNL A   1      42.371  33.322  31.563  1.00  0.00     0.074 A 
ATOM     57  C   UNL A   1      41.283  34.005  32.225  1.00  0.00     0.031 C 
ATOM     58  C   UNL A   1      39.653  27.695  29.903  1.00  0.00     0.029 A 
ATOM     59  C   UNL A   1      41.032  28.112  29.653  1.00  0.00     0.049 A 
ATOM     60  H   UNL A   1      41.962  29.850  30.333  1.00  0.00     0.167 HD
ATOM     61  C   UNL A   1      43.609  33.841  31.413  1.00  0.00     0.037 A 
ATOM     62  C   UNL A   1      41.955  27.432  28.944  1.00  0.00     0.037 A 
ATOM     63  C   UNL A   1      44.673  33.150  30.744  1.00  0.00     0.049 A 
ATOM     64  C   UNL A   1      43.319  28.047  28.744  1.00  0.00     0.074 A 
ATOM     65  C   UNL A   1      45.972  33.570  30.531  1.00  0.00     0.029 A 
ATOM     66  N   UNL A   1      44.554  31.891  30.172  1.00  0.00    -0.354 N 
ATOM     67  N   UNL A   1      43.770  29.209  29.159  1.00  0.00    -0.248 NA
ATOM     68  C   UNL A   1      44.301  27.266  27.977  1.00  0.00     0.031 C 
ATOM     69  C   UNL A   1      46.629  32.580  29.795  1.00  0.00     0.029 A 
ATOM     70  C   UNL A   1      45.754  31.521  29.598  1.00  0.00     0.049 A 
ATOM     71  H   UNL A   1      43.736  31.344  30.176  1.00  0.00     0.167 HD
ATOM     72  C   UNL A   1      45.096  29.279  28.741  1.00  0.00     0.074 A 
ATOM     73  C   UNL A   1      45.373  28.047  28.032  1.00  0.00     0.031 C 
ATOM     74  C   UNL A   1      46.005  30.268  28.931  1.00  0.00     0.037 A 
BRANCH  61  75
ATOM     75  C   UNL A   1      43.851  35.219  31.952  1.00  0.00     0.058 A 
ATOM     76  C   UNL A   1      44.179  35.440  33.300  1.00  0.00     0.135 A 
ATOM     77  C   UNL A   1      43.751  36.338  31.110  1.00  0.00     0.135 A 
ATOM     78  F   UNL A   1      44.254  34.406  34.154  1.00  0.00    -0.206 F 
ATOM     79  C   UNL A   1      44.374  36.722  33.800  1.00  0.00     0.059 A 
ATOM     80  C   UNL A   1      43.972  37.628  31.582  1.00  0.00     0.059 A 
ATOM     81  F   UNL A   1      43.426  36.185  29.816  1.00  0.00    -0.206 F 
ATOM     82  C   UNL A   1      44.270  37.810  32.932  1.00  0.00     0.060 A 
BRANCH  82  83
ATOM     83  S   UNL A   1      44.537  39.468  33.593  1.00  0.00     0.124 S 
ATOM     84  O   UNL A   1      45.183  39.173  34.868  1.00  0.00    -0.237 OA
ATOM     85  O   UNL A   1      45.391  40.075  32.576  1.00  0.00    -0.237 OA
ATOM     86  O   UNL A   1      43.188  40.018  33.684  1.00  0.00    -0.744 OA
ENDBRANCH  82  83
ENDBRANCH  61  75
BRANCH  62  87
ATOM     87  C   UNL A   1      41.623  26.104  28.359  1.00  0.00     0.058 A 
ATOM     88  C   UNL A   1      42.160  24.925  28.896  1.00  0.00     0.135 A 
ATOM     89  C   UNL A   1      40.763  25.984  27.255  1.00  0.00     0.135 A 
ATOM     90  F   UNL A   1      42.998  24.986  29.942  1.00  0.00    -0.206 F 
ATOM     91  C   UNL A   1      41.869  23.676  28.354  1.00  0.00     0.059 A 
ATOM     92  C   UNL A   1      40.437  24.744  26.710  1.00  0.00     0.059 A 
ATOM     93  F   UNL A   1      40.215  27.080  26.707  1.00  0.00    -0.206 F 
ATOM     94  C   UNL A   1      41.003  23.595  27.262  1.00  0.00     0.060 A 
BRANCH  94  95
ATOM     95  S   UNL A   1      40.598  21.966  26.595  1.00  0.00     0.124 S 
ATOM     96  O   UNL A   1      40.651  21.136  27.794  1.00  0.00    -0.237 OA
ATOM     97  O   UNL A   1      39.270  22.187  26.031  1.00  0.00    -0.237 OA
ATOM     98  O   UNL A   1      41.656  21.730  25.618  1.00  0.00    -0.744 OA
ENDBRANCH  94  95
ENDBRANCH  62  87
BRANCH  74  99
ATOM     99  C   UNL A   1      47.405  30.042  28.439  1.00  0.00     0.058 A 
ATOM    100  C   UNL A   1      47.862  30.587  27.231  1.00  0.00     0.135 A 
ATOM    101  C   UNL A   1      48.335  29.380  29.258  1.00  0.00     0.135 A 
ATOM    102  F   UNL A   1      47.012  31.225  26.411  1.00  0.00    -0.206 F 
ATOM    103  C   UNL A   1      49.197  30.486  26.852  1.00  0.00     0.059 A 
ATOM    104  C   UNL A   1      49.677  29.288  28.912  1.00  0.00     0.059 A 
ATOM    105  F   UNL A   1      47.946  28.855  30.432  1.00  0.00    -0.206 F 
ATOM    106  C   UNL A   1      50.099  29.844  27.705  1.00  0.00     0.060 A 
BRANCH 106 107
ATOM    107  S   UNL A   1      51.843  29.796  27.243  1.00  0.00     0.124 S 
ATOM    108  O   UNL A   1      51.785  30.174  25.834  1.00  0.00    -0.237 OA
ATOM    109  O   UNL A   1      52.432  30.785  28.141  1.00  0.00    -0.237 OA
ATOM    110  O   UNL A   1      52.227  28.412  27.506  1.00  0.00    -0.744 OA
ENDBRANCH 106 107
ENDBRANCH  74  99
ENDBRANCH  48  49
ENDBRANCH  41  43
ENDBRANCH  40  41
ENDBRANCH  39  40
ENDBRANCH  38  39
ENDBRANCH  37  38
ENDBRANCH  36  37
ENDBRANCH   1  36
TORSDOF 26
ENDMDL
MODEL 2
REMARK VINA RESULT:     -10.3      4.066     10.548
REMARK SMILES O=C(CN1C(=O)N[C@@](CCC(=O)OCCOCCOCCOC(=O)c2ccc(-c3c4nc(c(-c5c(F)cc(S(=O)(=O)[O-])cc5F)c5ccc([nH]5)c(-c5c(F)cc(S(=O)(=O)[O-])cc5F)c5nc(c(-c6c(F)cc(S(=O)(=O)[O-])cc6F)c6ccc3[nH]6)C=C5)C=C4)cc2)(c2ccccc2)C1=O)Nc1cccc(F)c1
REMARK SMILES IDX 17 1 16 2 15 3 14 4 13 5 11 6 12 7 10 8 9 9 8 10 4 11 5 12
REMARK SMILES IDX 97 13 6 14 7 15 98 16 3 18 2 19 1 20 99 21 100 23 101 24
REMARK SMILES IDX 106 25 102 26 104 27 103 28 105 29 91 30 92 31 96 32 93 33
REMARK SMILES IDX 95 34 94 35 18 36 19 37 20 38 21 39 22 40 23 41 24 42 25 43
REMARK SMILES IDX 26 44 90 45 27 46 89 47 28 48 29 49 30 50 83 51 31 52 88 53
REMARK SMILES IDX 82 54 84 55 32 56 87 57 81 58 80 59 33 61 67 62 46 63 66 64
REMARK SMILES IDX 47 65 50 66 65 67 85 68 48 69 49 70 64 72 86 73 51 74 34 75
REMARK SMILES IDX 35 76 44 77 36 78 37 79 43 80 45 81 38 82 39 83 40 84 41 85
REMARK SMILES IDX 42 86 68 87 69 88 78 89 70 90 71 91 77 92 79 93 72 94 73 95
REMARK SMILES IDX 74 96 75 97 76 98 52 99 53 100 62 101 54 102 55 103 61 104
REMARK SMILES IDX 63 105 56 106 57 107 58 108 59 109 60 110
REMARK H PARENT 7 17 99 22 84 60 50 71
REMARK Flexibility Score: inf
ROOT
ATOM      1  C   UNL A   1      42.112  19.323  27.191  1.00  0.00     0.188 C 
ENDROOT
BRANCH   1   2
ATOM      2  O   UNL A   1      41.383  19.940  26.137  1.00  0.00    -0.376 OA
BRANCH   2   3
ATOM      3  C   UNL A   1      40.030  20.265  26.435  1.00  0.00     0.202 C 
BRANCH   3   4
ATOM      4  C   UNL A   1      39.663  21.723  26.121  1.00  0.00     0.261 C 
BRANCH   4   5
ATOM      5  O   UNL A   1      38.287  21.871  25.699  1.00  0.00    -0.463 OA
BRANCH   5   6
ATOM      6  C   UNL A   1      37.687  23.059  25.944  1.00  0.00     0.305 C 
ATOM      7  O   UNL A   1      38.249  24.048  26.394  1.00  0.00    -0.252 OA
BRANCH   6   8
ATOM      8  C   UNL A   1      36.194  23.020  25.691  1.00  0.00     0.126 C 
BRANCH   8   9
ATOM      9  C   UNL A   1      35.682  23.118  24.241  1.00  0.00     0.055 C 
BRANCH   9  10
ATOM     10  C   UNL A   1      34.149  23.286  24.030  1.00  0.00     0.147 C 
ATOM     11  N   UNL A   1      32.496  23.164  25.743  1.00  0.00    -0.252 N 
ATOM     12  C   UNL A   1      32.482  21.988  25.072  1.00  0.00     0.325 C 
ATOM     13  C   UNL A   1      33.539  23.942  25.314  1.00  0.00     0.261 C 
ATOM     14  O   UNL A   1      31.729  21.050  25.264  1.00  0.00    -0.248 OA
ATOM     15  N   UNL A   1      33.470  22.004  24.123  1.00  0.00    -0.319 N 
ATOM     16  O   UNL A   1      33.870  25.013  25.803  1.00  0.00    -0.271 OA
ATOM     17  H   UNL A   1      33.697  21.226  23.561  1.00  0.00     0.166 HD
BRANCH  11  18
ATOM     18  C   UNL A   1      31.447  23.629  26.627  1.00  0.00     0.230 C 
BRANCH  18  19
ATOM     19  C   UNL A   1      30.628  24.835  26.177  1.00  0.00     0.244 C 
ATOM     20  O   UNL A   1      29.627  25.153  26.820  1.00  0.00    -0.273 OA
ATOM     21  N   UNL A   1      31.196  25.578  25.160  1.00  0.00    -0.324 N 
ATOM     22  H   UNL A   1      32.025  25.221  24.767  1.00  0.00     0.170 HD
BRANCH  21  23
ATOM     23  C   UNL A   1      30.718  26.791  24.625  1.00  0.00     0.044 A 
ATOM     24  C   UNL A   1      29.703  26.706  23.662  1.00  0.00     0.026 A 
ATOM     25  C   UNL A   1      31.196  28.048  24.995  1.00  0.00     0.065 A 
ATOM     26  C   UNL A   1      29.150  27.863  23.103  1.00  0.00     0.005 A 
ATOM     27  C   UNL A   1      30.652  29.192  24.421  1.00  0.00     0.125 A 
ATOM     28  C   UNL A   1      29.626  29.113  23.487  1.00  0.00     0.039 A 
ATOM     29  F   UNL A   1      31.127  30.396  24.771  1.00  0.00    -0.207 F 
ENDBRANCH  21  23
ENDBRANCH  18  19
ENDBRANCH  11  18
BRANCH  10  30
ATOM     30  C   UNL A   1      33.623  24.097  22.838  1.00  0.00    -0.013 A 
ATOM     31  C   UNL A   1      33.279  23.485  21.636  1.00  0.00     0.007 A 
ATOM     32  C   UNL A   1      33.612  25.508  22.841  1.00  0.00     0.007 A 
ATOM     33  C   UNL A   1      32.895  24.215  20.506  1.00  0.00     0.000 A 
ATOM     34  C   UNL A   1      33.262  26.248  21.703  1.00  0.00     0.000 A 
ATOM     35  C   UNL A   1      32.893  25.599  20.535  1.00  0.00     0.000 A 
ENDBRANCH  10  30
ENDBRANCH   9  10
ENDBRANCH   8   9
ENDBRANCH   6   8
ENDBRANCH   5   6
ENDBRANCH   4   5
ENDBRANCH   3   4
ENDBRANCH   2   3
ENDBRANCH   1   2
BRANCH   1  36
ATOM     36  C   UNL A   1      42.832  18.044  26.762  1.00  0.00     0.188 C 
BRANCH  36  37
ATOM     37  O   UNL A   1      43.382  18.114  25.446  1.00  0.00    -0.376 OA
BRANCH  37  38
ATOM     38  C   UNL A   1      44.563  18.913  25.323  1.00  0.00     0.202 C 
BRANCH  38  39
ATOM     39  C   UNL A   1      44.523  20.101  24.352  1.00  0.00     0.261 C 
BRANCH  39  40
ATOM     40  O   UNL A   1      43.919  21.248  24.952  1.00  0.00    -0.460 OA
BRANCH  40  41
ATOM     41  C   UNL A   1      44.188  22.431  24.342  1.00  0.00     0.338 C 
ATOM     42  O   UNL A   1      44.412  22.619  23.159  1.00  0.00    -0.246 OA
BRANCH  41  43
ATOM     43  C   UNL A   1      43.897  23.513  25.313  1.00  0.00     0.060 A 
ATOM     44  C   UNL A   1      44.161  24.836  24.922  1.00  0.00     0.016 A 
ATOM     45  C   UNL A   1      43.226  23.245  26.511  1.00  0.00     0.016 A 
ATOM     46  C   UNL A   1      43.780  25.896  25.744  1.00  0.00     0.010 A 
ATOM     47  C   UNL A   1      42.861  24.300  27.337  1.00  0.00     0.010 A 
ATOM     48  C   UNL A   1      43.173  25.622  26.975  1.00  0.00    -0.014 A 
BRANCH  48  49
ATOM     49  C   UNL A   1      43.154  26.636  28.047  1.00  0.00     0.031 A 
ATOM     50  C   UNL A   1      44.261  26.546  29.059  1.00  0.00     0.074 A 
ATOM     51  C   UNL A   1      42.153  27.523  28.176  1.00  0.00     0.049 A 
ATOM     52  N   UNL A   1      44.373  27.123  30.223  1.00  0.00    -0.248 NA
ATOM     53  C   UNL A   1      45.382  25.648  28.719  1.00  0.00     0.031 C 
ATOM     54  C   UNL A   1      41.057  27.714  27.229  1.00  0.00     0.029 A 
ATOM     55  N   UNL A   1      41.884  28.406  29.189  1.00  0.00    -0.354 N 
ATOM     56  C   UNL A   1      45.557  26.637  30.763  1.00  0.00     0.074 A 
ATOM     57  C   UNL A   1      46.120  25.706  29.813  1.00  0.00     0.031 C 
ATOM     58  C   UNL A   1      40.212  28.637  27.725  1.00  0.00     0.029 A 
ATOM     59  C   UNL A   1      40.686  29.064  29.040  1.00  0.00     0.049 A 
ATOM     60  H   UNL A   1      42.491  28.555  29.951  1.00  0.00     0.167 HD
ATOM     61  C   UNL A   1      46.123  26.939  31.952  1.00  0.00     0.037 A 
ATOM     62  C   UNL A   1      40.039  29.881  29.895  1.00  0.00     0.037 A 
ATOM     63  C   UNL A   1      45.543  27.860  32.886  1.00  0.00     0.049 A 
ATOM     64  C   UNL A   1      40.662  30.170  31.240  1.00  0.00     0.074 A 
ATOM     65  C   UNL A   1      46.023  28.250  34.121  1.00  0.00     0.029 A 
ATOM     66  N   UNL A   1      44.345  28.531  32.684  1.00  0.00    -0.354 N 
ATOM     67  N   UNL A   1      41.786  29.715  31.744  1.00  0.00    -0.248 NA
ATOM     68  C   UNL A   1      39.930  31.076  32.136  1.00  0.00     0.031 C 
ATOM     69  C   UNL A   1      45.093  29.129  34.686  1.00  0.00     0.029 A 
ATOM     70  C   UNL A   1      44.064  29.328  33.777  1.00  0.00     0.049 A 
ATOM     71  H   UNL A   1      43.781  28.452  31.882  1.00  0.00     0.167 HD
ATOM     72  C   UNL A   1      41.916  30.312  32.994  1.00  0.00     0.074 A 
ATOM     73  C   UNL A   1      40.752  31.153  33.176  1.00  0.00     0.031 C 
ATOM     74  C   UNL A   1      42.910  30.182  33.908  1.00  0.00     0.037 A 
BRANCH  61  75
ATOM     75  C   UNL A   1      47.403  26.241  32.306  1.00  0.00     0.058 A 
ATOM     76  C   UNL A   1      48.633  26.626  31.747  1.00  0.00     0.135 A 
ATOM     77  C   UNL A   1      47.400  25.170  33.213  1.00  0.00     0.135 A 
ATOM     78  F   UNL A   1      48.686  27.623  30.849  1.00  0.00    -0.206 F 
ATOM     79  C   UNL A   1      49.812  25.957  32.057  1.00  0.00     0.059 A 
ATOM     80  C   UNL A   1      48.572  24.506  33.560  1.00  0.00     0.059 A 
ATOM     81  F   UNL A   1      46.249  24.752  33.764  1.00  0.00    -0.206 F 
ATOM     82  C   UNL A   1      49.772  24.899  32.966  1.00  0.00     0.060 A 
BRANCH  82  83
ATOM     83  S   UNL A   1      51.311  24.048  33.367  1.00  0.00     0.124 S 
ATOM     84  O   UNL A   1      52.248  25.163  33.449  1.00  0.00    -0.237 OA
ATOM     85  O   UNL A   1      50.987  23.397  34.633  1.00  0.00    -0.237 OA
ATOM     86  O   UNL A   1      51.505  23.146  32.235  1.00  0.00    -0.744 OA
ENDBRANCH  82  83
ENDBRANCH  61  75
BRANCH  62  87
ATOM     87  C   UNL A   1      38.726  30.472  29.518  1.00  0.00     0.058 A 
ATOM     88  C   UNL A   1      37.558  29.695  29.518  1.00  0.00     0.135 A 
ATOM     89  C   UNL A   1      38.608  31.823  29.154  1.00  0.00     0.135 A 
ATOM     90  F   UNL A   1      37.619  28.395  29.846  1.00  0.00    -0.206 F 
ATOM     91  C   UNL A   1      36.324  30.229  29.157  1.00  0.00     0.059 A 
ATOM     92  C   UNL A   1      37.381  32.387  28.812  1.00  0.00     0.059 A 
ATOM     93  F   UNL A   1      39.692  32.615  29.144  1.00  0.00    -0.206 F 
ATOM     94  C   UNL A   1      36.245  31.578  28.808  1.00  0.00     0.060 A 
BRANCH  94  95
ATOM     95  S   UNL A   1      34.631  32.270  28.385  1.00  0.00     0.124 S 
ATOM     96  O   UNL A   1      35.010  33.452  27.617  1.00  0.00    -0.237 OA
ATOM     97  O   UNL A   1      34.022  31.184  27.623  1.00  0.00    -0.237 OA
ATOM     98  O   UNL A   1      34.025  32.530  29.686  1.00  0.00    -0.744 OA
ENDBRANCH  94  95
ENDBRANCH  62  87
BRANCH  74  99
ATOM     99  C   UNL A   1      42.836  31.018  35.154  1.00  0.00     0.058 A 
ATOM    100  C   UNL A   1      43.349  32.321  35.202  1.00  0.00     0.135 A 
ATOM    101  C   UNL A   1      42.122  30.547  36.268  1.00  0.00     0.135 A 
ATOM    102  F   UNL A   1      44.041  32.816  34.164  1.00  0.00    -0.206 F 
ATOM    103  C   UNL A   1      43.154  33.133  36.315  1.00  0.00     0.059 A 
ATOM    104  C   UNL A   1      41.895  31.349  37.380  1.00  0.00     0.059 A 
ATOM    105  F   UNL A   1      41.600  29.310  36.262  1.00  0.00    -0.206 F 
ATOM    106  C   UNL A   1      42.416  32.641  37.394  1.00  0.00     0.060 A 
BRANCH 106 107
ATOM    107  S   UNL A   1      42.096  33.735  38.795  1.00  0.00     0.124 S 
ATOM    108  O   UNL A   1      42.006  35.035  38.138  1.00  0.00    -0.237 OA
ATOM    109  O   UNL A   1      40.844  33.205  39.326  1.00  0.00    -0.237 OA
ATOM    110  O   UNL A   1      43.264  33.543  39.649  1.00  0.00    -0.744 OA
ENDBRANCH 106 107
ENDBRANCH  74  99
ENDBRANCH  48  49
ENDBRANCH  41  43
ENDBRANCH  40  41
ENDBRANCH  39  40
ENDBRANCH  38  39
ENDBRANCH  37  38
ENDBRANCH  36  37
ENDBRANCH   1  36
TORSDOF 26
ENDMDL
MODEL 3
REMARK VINA RESULT:     -10.0      4.985     10.724
REMARK SMILES O=C(CN1C(=O)N[C@@](CCC(=O)OCCOCCOCCOC(=O)c2ccc(-c3c4nc(c(-c5c(F)cc(S(=O)(=O)[O-])cc5F)c5ccc([nH]5)c(-c5c(F)cc(S(=O)(=O)[O-])cc5F)c5nc(c(-c6c(F)cc(S(=O)(=O)[O-])cc6F)c6ccc3[nH]6)C=C5)C=C4)cc2)(c2ccccc2)C1=O)Nc1cccc(F)c1
REMARK SMILES IDX 17 1 16 2 15 3 14 4 13 5 11 6 12 7 10 8 9 9 8 10 4 11 5 12
REMARK SMILES IDX 97 13 6 14 7 15 98 16 3 18 2 19 1 20 99 21 100 23 101 24
REMARK SMILES IDX 106 25 102 26 104 27 103 28 105 29 91 30 92 31 96 32 93 33
REMARK SMILES IDX 95 34 94 35 18 36 19 37 20 38 21 39 22 40 23 41 24 42 25 43
REMARK SMILES IDX 26 44 90 45 27 46 89 47 28 48 29 49 30 50 83 51 31 52 88 53
REMARK SMILES IDX 82 54 84 55 32 56 87 57 81 58 80 59 33 61 67 62 46 63 66 64
REMARK SMILES IDX 47 65 50 66 65 67 85 68 48 69 49 70 64 72 86 73 51 74 34 75
REMARK SMILES IDX 35 76 44 77 36 78 37 79 43 80 45 81 38 82 39 83 40 84 41 85
REMARK SMILES IDX 42 86 68 87 69 88 78 89 70 90 71 91 77 92 79 93 72 94 73 95
REMARK SMILES IDX 74 96 75 97 76 98 52 99 53 100 62 101 54 102 55 103 61 104
REMARK SMILES IDX 63 105 56 106 57 107 58 108 59 109 60 110
REMARK H PARENT 7 17 99 22 84 60 50 71
REMARK Flexibility Score: inf
ROOT
ATOM      1  C   UNL A   1      39.633  22.150  26.449  1.00  0.00     0.188 C 
ENDROOT
BRANCH   1   2
ATOM      2  O   UNL A   1      38.959  21.422  25.430  1.00  0.00    -0.376 OA
BRANCH   2   3
ATOM      3  C   UNL A   1      37.869  20.618  25.866  1.00  0.00     0.202 C 
BRANCH   3   4
ATOM      4  C   UNL A   1      37.067  19.990  24.718  1.00  0.00     0.261 C 
BRANCH   4   5
ATOM      5  O   UNL A   1      35.654  20.289  24.798  1.00  0.00    -0.463 OA
BRANCH   5   6
ATOM      6  C   UNL A   1      34.793  19.255  24.657  1.00  0.00     0.305 C 
ATOM      7  O   UNL A   1      35.111  18.074  24.648  1.00  0.00    -0.252 OA
BRANCH   6   8
ATOM      8  C   UNL A   1      33.370  19.713  24.408  1.00  0.00     0.126 C 
BRANCH   8   9
ATOM      9  C   UNL A   1      32.689  20.625  25.446  1.00  0.00     0.055 C 
BRANCH   9  10
ATOM     10  C   UNL A   1      32.710  22.159  25.178  1.00  0.00     0.147 C 
ATOM     11  N   UNL A   1      30.872  23.642  25.497  1.00  0.00    -0.252 N 
ATOM     12  C   UNL A   1      30.972  23.387  24.171  1.00  0.00     0.325 C 
ATOM     13  C   UNL A   1      31.747  22.854  26.198  1.00  0.00     0.261 C 
ATOM     14  O   UNL A   1      30.287  23.866  23.285  1.00  0.00    -0.248 OA
ATOM     15  N   UNL A   1      31.980  22.482  23.964  1.00  0.00    -0.319 N 
ATOM     16  O   UNL A   1      31.815  22.784  27.417  1.00  0.00    -0.271 OA
ATOM     17  H   UNL A   1      32.187  22.092  23.084  1.00  0.00     0.166 HD
BRANCH  11  18
ATOM     18  C   UNL A   1      30.117  24.732  26.080  1.00  0.00     0.230 C 
BRANCH  18  19
ATOM     19  C   UNL A   1      30.323  26.126  25.495  1.00  0.00     0.244 C 
ATOM     20  O   UNL A   1      31.210  26.843  25.956  1.00  0.00    -0.273 OA
ATOM     21  N   UNL A   1      29.581  26.397  24.362  1.00  0.00    -0.324 N 
ATOM     22  H   UNL A   1      28.936  25.707  24.085  1.00  0.00     0.170 HD
BRANCH  21  23
ATOM     23  C   UNL A   1      29.649  27.553  23.558  1.00  0.00     0.044 A 
ATOM     24  C   UNL A   1      30.910  27.911  23.062  1.00  0.00     0.026 A 
ATOM     25  C   UNL A   1      28.546  28.345  23.239  1.00  0.00     0.065 A 
ATOM     26  C   UNL A   1      31.060  29.025  22.230  1.00  0.00     0.005 A 
ATOM     27  C   UNL A   1      28.708  29.462  22.425  1.00  0.00     0.125 A 
ATOM     28  C   UNL A   1      29.953  29.804  21.909  1.00  0.00     0.039 A 
ATOM     29  F   UNL A   1      27.646  30.227  22.136  1.00  0.00    -0.207 F 
ENDBRANCH  21  23
ENDBRANCH  18  19
ENDBRANCH  11  18
BRANCH  10  30
ATOM     30  C   UNL A   1      34.036  22.930  25.241  1.00  0.00    -0.013 A 
ATOM     31  C   UNL A   1      34.686  23.355  24.085  1.00  0.00     0.007 A 
ATOM     32  C   UNL A   1      34.741  23.108  26.450  1.00  0.00     0.007 A 
ATOM     33  C   UNL A   1      35.942  23.969  24.115  1.00  0.00     0.000 A 
ATOM     34  C   UNL A   1      36.015  23.691  26.485  1.00  0.00     0.000 A 
ATOM     35  C   UNL A   1      36.613  24.131  25.314  1.00  0.00     0.000 A 
ENDBRANCH  10  30
ENDBRANCH   9  10
ENDBRANCH   8   9
ENDBRANCH   6   8
ENDBRANCH   5   6
ENDBRANCH   4   5
ENDBRANCH   3   4
ENDBRANCH   2   3
ENDBRANCH   1   2
BRANCH   1  36
ATOM     36  C   UNL A   1      40.885  21.444  26.972  1.00  0.00     0.188 C 
BRANCH  36  37
ATOM     37  O   UNL A   1      42.062  21.742  26.219  1.00  0.00    -0.376 OA
BRANCH  37  38
ATOM     38  C   UNL A   1      42.192  23.106  25.809  1.00  0.00     0.202 C 
BRANCH  38  39
ATOM     39  C   UNL A   1      42.700  24.118  26.846  1.00  0.00     0.261 C 
BRANCH  39  40
ATOM     40  O   UNL A   1      42.894  25.409  26.266  1.00  0.00    -0.460 OA
BRANCH  40  41
ATOM     41  C   UNL A   1      41.803  26.217  26.272  1.00  0.00     0.338 C 
ATOM     42  O   UNL A   1      40.925  26.280  25.429  1.00  0.00    -0.246 OA
BRANCH  41  43
ATOM     43  C   UNL A   1      41.706  26.830  27.618  1.00  0.00     0.060 A 
ATOM     44  C   UNL A   1      40.665  26.404  28.461  1.00  0.00     0.016 A 
ATOM     45  C   UNL A   1      42.710  27.677  28.099  1.00  0.00     0.016 A 
ATOM     46  C   UNL A   1      40.610  26.848  29.781  1.00  0.00     0.010 A 
ATOM     47  C   UNL A   1      42.646  28.132  29.411  1.00  0.00     0.010 A 
ATOM     48  C   UNL A   1      41.576  27.752  30.239  1.00  0.00    -0.014 A 
BRANCH  48  49
ATOM     49  C   UNL A   1      41.327  28.576  31.438  1.00  0.00     0.031 A 
ATOM     50  C   UNL A   1      40.234  29.600  31.319  1.00  0.00     0.074 A 
ATOM     51  C   UNL A   1      42.097  28.492  32.536  1.00  0.00     0.049 A 
ATOM     52  N   UNL A   1      39.954  30.611  32.092  1.00  0.00    -0.248 NA
ATOM     53  C   UNL A   1      39.358  29.482  30.137  1.00  0.00     0.031 C 
ATOM     54  C   UNL A   1      43.154  27.509  32.763  1.00  0.00     0.029 A 
ATOM     55  N   UNL A   1      42.123  29.283  33.656  1.00  0.00    -0.354 N 
ATOM     56  C   UNL A   1      38.892  31.263  31.478  1.00  0.00     0.074 A 
ATOM     57  C   UNL A   1      38.588  30.548  30.260  1.00  0.00     0.031 C 
ATOM     58  C   UNL A   1      43.750  27.778  33.939  1.00  0.00     0.029 A 
ATOM     59  C   UNL A   1      43.146  28.975  34.521  1.00  0.00     0.049 A 
ATOM     60  H   UNL A   1      41.472  30.003  33.823  1.00  0.00     0.167 HD
ATOM     61  C   UNL A   1      38.231  32.366  31.893  1.00  0.00     0.037 A 
ATOM     62  C   UNL A   1      43.562  29.621  35.629  1.00  0.00     0.037 A 
ATOM     63  C   UNL A   1      38.556  33.067  33.102  1.00  0.00     0.049 A 
ATOM     64  C   UNL A   1      42.843  30.879  36.052  1.00  0.00     0.074 A 
ATOM     65  C   UNL A   1      37.957  34.194  33.630  1.00  0.00     0.029 A 
ATOM     66  N   UNL A   1      39.576  32.705  33.969  1.00  0.00    -0.354 N 
ATOM     67  N   UNL A   1      41.833  31.488  35.473  1.00  0.00    -0.248 NA
ATOM     68  C   UNL A   1      43.319  31.545  37.274  1.00  0.00     0.031 C 
ATOM     69  C   UNL A   1      38.643  34.538  34.798  1.00  0.00     0.029 A 
ATOM     70  C   UNL A   1      39.632  33.592  35.025  1.00  0.00     0.049 A 
ATOM     71  H   UNL A   1      40.172  31.931  33.848  1.00  0.00     0.167 HD
ATOM     72  C   UNL A   1      41.527  32.580  36.280  1.00  0.00     0.074 A 
ATOM     73  C   UNL A   1      42.465  32.555  37.384  1.00  0.00     0.031 C 
ATOM     74  C   UNL A   1      40.557  33.515  36.128  1.00  0.00     0.037 A 
BRANCH  61  75
ATOM     75  C   UNL A   1      37.131  32.884  31.015  1.00  0.00     0.058 A 
ATOM     76  C   UNL A   1      35.779  32.630  31.298  1.00  0.00     0.135 A 
ATOM     77  C   UNL A   1      37.431  33.641  29.871  1.00  0.00     0.135 A 
ATOM     78  F   UNL A   1      35.439  31.884  32.361  1.00  0.00    -0.206 F 
ATOM     79  C   UNL A   1      34.764  33.089  30.465  1.00  0.00     0.059 A 
ATOM     80  C   UNL A   1      36.431  34.134  29.041  1.00  0.00     0.059 A 
ATOM     81  F   UNL A   1      38.708  33.898  29.547  1.00  0.00    -0.206 F 
ATOM     82  C   UNL A   1      35.100  33.841  29.339  1.00  0.00     0.060 A 
BRANCH  82  83
ATOM     83  S   UNL A   1      33.773  34.438  28.273  1.00  0.00     0.124 S 
ATOM     84  O   UNL A   1      32.653  34.496  29.207  1.00  0.00    -0.237 OA
ATOM     85  O   UNL A   1      34.290  35.727  27.824  1.00  0.00    -0.237 OA
ATOM     86  O   UNL A   1      33.677  33.410  27.242  1.00  0.00    -0.744 OA
ENDBRANCH  82  83
ENDBRANCH  61  75
BRANCH  62  87
ATOM     87  C   UNL A   1      44.719  29.103  36.409  1.00  0.00     0.058 A 
ATOM     88  C   UNL A   1      44.568  28.027  37.296  1.00  0.00     0.135 A 
ATOM     89  C   UNL A   1      45.998  29.669  36.284  1.00  0.00     0.135 A 
ATOM     90  F   UNL A   1      43.363  27.460  37.461  1.00  0.00    -0.206 F 
ATOM     91  C   UNL A   1      45.637  27.538  38.041  1.00  0.00     0.059 A 
ATOM     92  C   UNL A   1      47.089  29.182  37.001  1.00  0.00     0.059 A 
ATOM     93  F   UNL A   1      46.201  30.696  35.444  1.00  0.00    -0.206 F 
ATOM     94  C   UNL A   1      46.896  28.120  37.885  1.00  0.00     0.060 A 
BRANCH  94  95
ATOM     95  S   UNL A   1      48.285  27.449  38.824  1.00  0.00     0.124 S 
ATOM     96  O   UNL A   1      47.967  26.025  38.843  1.00  0.00    -0.237 OA
ATOM     97  O   UNL A   1      49.426  27.836  38.002  1.00  0.00    -0.237 OA
ATOM     98  O   UNL A   1      48.185  28.134  40.109  1.00  0.00    -0.744 OA
ENDBRANCH  94  95
ENDBRANCH  62  87
BRANCH  74  99
ATOM     99  C   UNL A   1      40.397  34.547  37.208  1.00  0.00     0.058 A 
ATOM    100  C   UNL A   1      41.106  35.755  37.187  1.00  0.00     0.135 A 
ATOM    101  C   UNL A   1      39.420  34.371  38.201  1.00  0.00     0.135 A 
ATOM    102  F   UNL A   1      42.052  35.970  36.259  1.00  0.00    -0.206 F 
ATOM    103  C   UNL A   1      40.850  36.759  38.116  1.00  0.00     0.059 A 
ATOM    104  C   UNL A   1      39.130  35.369  39.124  1.00  0.00     0.059 A 
ATOM    105  F   UNL A   1      38.705  33.235  38.252  1.00  0.00    -0.206 F 
ATOM    106  C   UNL A   1      39.851  36.560  39.073  1.00  0.00     0.060 A 
BRANCH 106 107
ATOM    107  S   UNL A   1      39.469  37.903  40.217  1.00  0.00     0.124 S 
ATOM    108  O   UNL A   1      40.639  38.763  40.063  1.00  0.00    -0.237 OA
ATOM    109  O   UNL A   1      38.220  38.430  39.675  1.00  0.00    -0.237 OA
ATOM    110  O   UNL A   1      39.351  37.229  41.506  1.00  0.00    -0.744 OA
ENDBRANCH 106 107
ENDBRANCH  74  99
ENDBRANCH  48  49
ENDBRANCH  41  43
ENDBRANCH  40  41
ENDBRANCH  39  40
ENDBRANCH  38  39
ENDBRANCH  37  38
ENDBRANCH  36  37
ENDBRANCH   1  36
TORSDOF 26
ENDMDL
