MODEL 1
REMARK VINA RESULT:      -8.6      0.000      0.000
REMARK SMILES C=CCOc1ccc(C(=O)N2CCC[C@H]2C(=O)OCCOCCOCCOC(=O)c2ccc(-c3c4nc(c(-c5c(F)cc(S(=O)(=O)[O-])cc5F)c5ccc([nH]5)c(-c5c(F)cc(S(=O)(=O)[O-])cc5F)c5nc(c(-c6c(F)cc(S(=O)(=O)[O-])cc6F)c6ccc3[nH]6)C=C5)C=C4)cc2)cc1
REMARK SMILES IDX 22 1 21 2 20 3 19 4 18 5 16 6 17 7 15 8 11 9 12 10 13 11
REMARK SMILES IDX 14 12 9 13 10 14 8 15 5 16 6 17 97 18 7 19 96 20 4 21 3 22
REMARK SMILES IDX 2 23 1 24 23 25 24 26 25 27 26 28 27 29 28 30 29 31 30 32
REMARK SMILES IDX 31 33 95 34 32 35 94 36 33 37 34 38 35 39 88 40 36 41 93 42
REMARK SMILES IDX 87 43 89 44 37 45 92 46 86 47 85 48 38 50 72 51 51 52 71 53
REMARK SMILES IDX 52 54 55 55 70 56 90 57 53 58 54 59 69 61 91 62 56 63 39 64
REMARK SMILES IDX 40 65 49 66 41 67 42 68 48 69 50 70 43 71 44 72 45 73 46 74
REMARK SMILES IDX 47 75 73 76 74 77 83 78 75 79 76 80 82 81 84 82 77 83 78 84
REMARK SMILES IDX 79 85 80 86 81 87 57 88 58 89 67 90 59 91 60 92 66 93 68 94
REMARK SMILES IDX 61 95 62 96 63 97 64 98 65 99
REMARK H PARENT 89 49 55 60
REMARK Flexibility Score: inf
ROOT
ATOM      1  C   UNL A   1      47.583  40.732  26.981  1.00  0.00     0.188 C 
ENDROOT
BRANCH   1   2
ATOM      2  O   UNL A   1      46.549  40.771  26.019  1.00  0.00    -0.376 OA
BRANCH   2   3
ATOM      3  C   UNL A   1      46.886  41.137  24.693  1.00  0.00     0.202 C 
BRANCH   3   4
ATOM      4  C   UNL A   1      47.171  42.606  24.337  1.00  0.00     0.261 C 
BRANCH   4   5
ATOM      5  O   UNL A   1      47.837  42.834  23.094  1.00  0.00    -0.462 OA
BRANCH   5   6
ATOM      6  C   UNL A   1      47.295  43.733  22.226  1.00  0.00     0.328 C 
ATOM      7  O   UNL A   1      47.884  44.700  21.763  1.00  0.00    -0.250 OA
BRANCH   6   8
ATOM      8  C   UNL A   1      45.882  43.268  21.841  1.00  0.00     0.195 C 
ATOM      9  N   UNL A   1      44.927  44.349  21.959  1.00  0.00    -0.325 N 
ATOM     10  C   UNL A   1      44.647  44.909  20.645  1.00  0.00     0.121 C 
ATOM     11  C   UNL A   1      44.666  43.676  19.758  1.00  0.00     0.024 C 
ATOM     12  C   UNL A   1      45.773  42.815  20.373  1.00  0.00     0.039 C 
BRANCH   9  13
ATOM     13  C   UNL A   1      44.375  44.580  23.202  1.00  0.00     0.254 C 
ATOM     14  O   UNL A   1      44.739  45.526  23.900  1.00  0.00    -0.269 OA
BRANCH  13  15
ATOM     15  C   UNL A   1      43.466  43.574  23.802  1.00  0.00     0.040 A 
ATOM     16  C   UNL A   1      41.930  41.466  24.824  1.00  0.00     0.119 A 
ATOM     17  C   UNL A   1      43.029  41.936  25.543  1.00  0.00     0.047 A 
ATOM     18  C   UNL A   1      41.587  42.068  23.620  1.00  0.00     0.047 A 
ATOM     19  C   UNL A   1      43.798  42.991  25.033  1.00  0.00     0.017 A 
ATOM     20  C   UNL A   1      42.383  43.070  23.085  1.00  0.00     0.017 A 
BRANCH  16  21
ATOM     21  O   UNL A   1      41.180  40.454  25.359  1.00  0.00    -0.490 OA
BRANCH  21  22
ATOM     22  C   UNL A   1      41.575  40.088  26.693  1.00  0.00     0.257 C 
BRANCH  22  23
ATOM     23  C   UNL A   1      42.036  38.658  26.777  1.00  0.00     0.006 C 
ATOM     24  C   UNL A   1      43.317  38.287  26.932  1.00  0.00     0.007 C 
ENDBRANCH  22  23
ENDBRANCH  21  22
ENDBRANCH  16  21
ENDBRANCH  13  15
ENDBRANCH   9  13
ENDBRANCH   6   8
ENDBRANCH   5   6
ENDBRANCH   4   5
ENDBRANCH   3   4
ENDBRANCH   2   3
ENDBRANCH   1   2
BRANCH   1  25
ATOM     25  C   UNL A   1      47.080  41.000  28.419  1.00  0.00     0.188 C 
BRANCH  25  26
ATOM     26  O   UNL A   1      47.928  40.774  29.536  1.00  0.00    -0.376 OA
BRANCH  26  27
ATOM     27  C   UNL A   1      47.785  39.579  30.283  1.00  0.00     0.202 C 
BRANCH  27  28
ATOM     28  C   UNL A   1      46.647  38.595  29.954  1.00  0.00     0.261 C 
BRANCH  28  29
ATOM     29  O   UNL A   1      47.010  37.215  29.777  1.00  0.00    -0.460 OA
BRANCH  29  30
ATOM     30  C   UNL A   1      47.333  36.846  28.515  1.00  0.00     0.338 C 
ATOM     31  O   UNL A   1      47.784  37.574  27.632  1.00  0.00    -0.246 OA
BRANCH  30  32
ATOM     32  C   UNL A   1      47.248  35.378  28.364  1.00  0.00     0.060 A 
ATOM     33  C   UNL A   1      47.113  34.847  27.072  1.00  0.00     0.016 A 
ATOM     34  C   UNL A   1      47.225  34.531  29.474  1.00  0.00     0.016 A 
ATOM     35  C   UNL A   1      46.910  33.479  26.887  1.00  0.00     0.010 A 
ATOM     36  C   UNL A   1      46.998  33.159  29.287  1.00  0.00     0.010 A 
ATOM     37  C   UNL A   1      46.798  32.633  27.997  1.00  0.00    -0.014 A 
BRANCH  37  38
ATOM     38  C   UNL A   1      46.272  31.254  27.811  1.00  0.00     0.031 A 
ATOM     39  C   UNL A   1      47.223  30.177  27.355  1.00  0.00     0.074 A 
ATOM     40  C   UNL A   1      44.991  30.944  28.086  1.00  0.00     0.049 A 
ATOM     41  N   UNL A   1      46.993  28.911  27.114  1.00  0.00    -0.248 NA
ATOM     42  C   UNL A   1      48.622  30.583  27.145  1.00  0.00     0.031 C 
ATOM     43  C   UNL A   1      43.981  31.880  28.576  1.00  0.00     0.029 A 
ATOM     44  N   UNL A   1      44.322  29.749  27.985  1.00  0.00    -0.354 N 
ATOM     45  C   UNL A   1      48.214  28.373  26.720  1.00  0.00     0.074 A 
ATOM     46  C   UNL A   1      49.173  29.456  26.721  1.00  0.00     0.031 C 
ATOM     47  C   UNL A   1      42.816  31.224  28.724  1.00  0.00     0.029 A 
ATOM     48  C   UNL A   1      42.989  29.831  28.312  1.00  0.00     0.049 A 
ATOM     49  H   UNL A   1      44.756  28.911  27.705  1.00  0.00     0.167 HD
ATOM     50  C   UNL A   1      48.514  27.091  26.396  1.00  0.00     0.037 A 
ATOM     51  C   UNL A   1      42.017  28.897  28.264  1.00  0.00     0.037 A 
ATOM     52  C   UNL A   1      47.557  26.015  26.389  1.00  0.00     0.049 A 
ATOM     53  C   UNL A   1      42.357  27.492  27.828  1.00  0.00     0.074 A 
ATOM     54  C   UNL A   1      47.766  24.681  26.082  1.00  0.00     0.029 A 
ATOM     55  N   UNL A   1      46.210  26.147  26.695  1.00  0.00    -0.354 N 
ATOM     56  N   UNL A   1      43.519  26.994  27.476  1.00  0.00    -0.248 NA
ATOM     57  C   UNL A   1      41.253  26.521  27.791  1.00  0.00     0.031 C 
ATOM     58  C   UNL A   1      46.536  24.019  26.148  1.00  0.00     0.029 A 
ATOM     59  C   UNL A   1      45.573  24.925  26.561  1.00  0.00     0.049 A 
ATOM     60  H   UNL A   1      45.773  26.986  26.967  1.00  0.00     0.167 HD
ATOM     61  C   UNL A   1      43.291  25.644  27.213  1.00  0.00     0.074 A 
ATOM     62  C   UNL A   1      41.884  25.405  27.452  1.00  0.00     0.031 C 
ATOM     63  C   UNL A   1      44.172  24.690  26.816  1.00  0.00     0.037 A 
BRANCH  50  64
ATOM     64  C   UNL A   1      49.931  26.789  25.991  1.00  0.00     0.058 A 
ATOM     65  C   UNL A   1      50.374  26.947  24.668  1.00  0.00     0.135 A 
ATOM     66  C   UNL A   1      50.868  26.363  26.947  1.00  0.00     0.135 A 
ATOM     67  F   UNL A   1      49.518  27.336  23.709  1.00  0.00    -0.206 F 
ATOM     68  C   UNL A   1      51.686  26.666  24.300  1.00  0.00     0.059 A 
ATOM     69  C   UNL A   1      52.193  26.104  26.607  1.00  0.00     0.059 A 
ATOM     70  F   UNL A   1      50.499  26.193  28.225  1.00  0.00    -0.206 F 
ATOM     71  C   UNL A   1      52.589  26.243  25.278  1.00  0.00     0.060 A 
BRANCH  71  72
ATOM     72  S   UNL A   1      54.287  25.880  24.786  1.00  0.00     0.124 S 
ATOM     73  O   UNL A   1      54.350  24.438  24.997  1.00  0.00    -0.237 OA
ATOM     74  O   UNL A   1      54.308  26.318  23.393  1.00  0.00    -0.237 OA
ATOM     75  O   UNL A   1      55.087  26.685  25.704  1.00  0.00    -0.744 OA
ENDBRANCH  71  72
ENDBRANCH  50  64
BRANCH  51  76
ATOM     76  C   UNL A   1      40.620  29.254  28.637  1.00  0.00     0.058 A 
ATOM     77  C   UNL A   1      40.242  29.399  29.981  1.00  0.00     0.135 A 
ATOM     78  C   UNL A   1      39.633  29.446  27.658  1.00  0.00     0.135 A 
ATOM     79  F   UNL A   1      41.145  29.212  30.956  1.00  0.00    -0.206 F 
ATOM     80  C   UNL A   1      38.934  29.708  30.341  1.00  0.00     0.059 A 
ATOM     81  C   UNL A   1      38.325  29.783  27.992  1.00  0.00     0.059 A 
ATOM     82  F   UNL A   1      39.943  29.324  26.359  1.00  0.00    -0.206 F 
ATOM     83  C   UNL A   1      37.983  29.903  29.338  1.00  0.00     0.060 A 
BRANCH  83  84
ATOM     84  S   UNL A   1      36.302  30.356  29.817  1.00  0.00     0.124 S 
ATOM     85  O   UNL A   1      36.412  31.804  29.942  1.00  0.00    -0.237 OA
ATOM     86  O   UNL A   1      35.522  29.869  28.684  1.00  0.00    -0.237 OA
ATOM     87  O   UNL A   1      36.102  29.627  31.067  1.00  0.00    -0.744 OA
ENDBRANCH  83  84
ENDBRANCH  51  76
BRANCH  63  88
ATOM     88  C   UNL A   1      43.660  23.282  26.668  1.00  0.00     0.058 A 
ATOM     89  C   UNL A   1      43.487  22.676  25.414  1.00  0.00     0.135 A 
ATOM     90  C   UNL A   1      43.388  22.506  27.809  1.00  0.00     0.135 A 
ATOM     91  F   UNL A   1      43.728  23.370  24.290  1.00  0.00    -0.206 F 
ATOM     92  C   UNL A   1      43.036  21.364  25.294  1.00  0.00     0.059 A 
ATOM     93  C   UNL A   1      42.966  21.183  27.714  1.00  0.00     0.059 A 
ATOM     94  F   UNL A   1      43.548  23.029  29.036  1.00  0.00    -0.206 F 
ATOM     95  C   UNL A   1      42.780  20.625  26.451  1.00  0.00     0.060 A 
BRANCH  95  96
ATOM     96  S   UNL A   1      42.219  18.917  26.282  1.00  0.00     0.124 S 
ATOM     97  O   UNL A   1      40.838  19.102  25.850  1.00  0.00    -0.237 OA
ATOM     98  O   UNL A   1      43.132  18.386  25.275  1.00  0.00    -0.237 OA
ATOM     99  O   UNL A   1      42.388  18.368  27.625  1.00  0.00    -0.744 OA
ENDBRANCH  95  96
ENDBRANCH  63  88
ENDBRANCH  37  38
ENDBRANCH  30  32
ENDBRANCH  29  30
ENDBRANCH  28  29
ENDBRANCH  27  28
ENDBRANCH  26  27
ENDBRANCH  25  26
ENDBRANCH   1  25
TORSDOF 25
ENDMDL
MODEL 2
REMARK VINA RESULT:      -8.2      8.031     14.008
REMARK SMILES C=CCOc1ccc(C(=O)N2CCC[C@H]2C(=O)OCCOCCOCCOC(=O)c2ccc(-c3c4nc(c(-c5c(F)cc(S(=O)(=O)[O-])cc5F)c5ccc([nH]5)c(-c5c(F)cc(S(=O)(=O)[O-])cc5F)c5nc(c(-c6c(F)cc(S(=O)(=O)[O-])cc6F)c6ccc3[nH]6)C=C5)C=C4)cc2)cc1
REMARK SMILES IDX 22 1 21 2 20 3 19 4 18 5 16 6 17 7 15 8 11 9 12 10 13 11
REMARK SMILES IDX 14 12 9 13 10 14 8 15 5 16 6 17 97 18 7 19 96 20 4 21 3 22
REMARK SMILES IDX 2 23 1 24 23 25 24 26 25 27 26 28 27 29 28 30 29 31 30 32
REMARK SMILES IDX 31 33 95 34 32 35 94 36 33 37 34 38 35 39 88 40 36 41 93 42
REMARK SMILES IDX 87 43 89 44 37 45 92 46 86 47 85 48 38 50 72 51 51 52 71 53
REMARK SMILES IDX 52 54 55 55 70 56 90 57 53 58 54 59 69 61 91 62 56 63 39 64
REMARK SMILES IDX 40 65 49 66 41 67 42 68 48 69 50 70 43 71 44 72 45 73 46 74
REMARK SMILES IDX 47 75 73 76 74 77 83 78 75 79 76 80 82 81 84 82 77 83 78 84
REMARK SMILES IDX 79 85 80 86 81 87 57 88 58 89 67 90 59 91 60 92 66 93 68 94
REMARK SMILES IDX 61 95 62 96 63 97 64 98 65 99
REMARK H PARENT 89 49 55 60
REMARK Flexibility Score: inf
ROOT
ATOM      1  C   UNL A   1      49.809  26.352  32.439  1.00  0.00     0.188 C 
ENDROOT
BRANCH   1   2
ATOM      2  O   UNL A   1      50.334  27.243  31.476  1.00  0.00    -0.376 OA
BRANCH   2   3
ATOM      3  C   UNL A   1      49.476  27.684  30.438  1.00  0.00     0.202 C 
BRANCH   3   4
ATOM      4  C   UNL A   1      48.750  26.669  29.539  1.00  0.00     0.261 C 
BRANCH   4   5
ATOM      5  O   UNL A   1      47.361  26.473  29.806  1.00  0.00    -0.462 OA
BRANCH   5   6
ATOM      6  C   UNL A   1      46.476  26.652  28.787  1.00  0.00     0.328 C 
ATOM      7  O   UNL A   1      45.274  26.435  28.858  1.00  0.00    -0.250 OA
BRANCH   6   8
ATOM      8  C   UNL A   1      47.211  27.276  27.590  1.00  0.00     0.195 C 
ATOM      9  N   UNL A   1      46.829  26.631  26.351  1.00  0.00    -0.325 N 
ATOM     10  C   UNL A   1      45.856  27.451  25.644  1.00  0.00     0.121 C 
ATOM     11  C   UNL A   1      46.347  28.858  25.937  1.00  0.00     0.024 C 
ATOM     12  C   UNL A   1      46.865  28.761  27.374  1.00  0.00     0.039 C 
BRANCH   9  13
ATOM     13  C   UNL A   1      47.499  25.478  26.000  1.00  0.00     0.254 C 
ATOM     14  O   UNL A   1      48.704  25.488  25.745  1.00  0.00    -0.269 OA
BRANCH  13  15
ATOM     15  C   UNL A   1      46.737  24.234  25.734  1.00  0.00     0.040 A 
ATOM     16  C   UNL A   1      45.058  22.059  25.187  1.00  0.00     0.119 A 
ATOM     17  C   UNL A   1      45.667  22.747  24.138  1.00  0.00     0.047 A 
ATOM     18  C   UNL A   1      45.315  22.439  26.499  1.00  0.00     0.047 A 
ATOM     19  C   UNL A   1      46.507  23.835  24.410  1.00  0.00     0.017 A 
ATOM     20  C   UNL A   1      46.095  23.554  26.767  1.00  0.00     0.017 A 
BRANCH  16  21
ATOM     21  O   UNL A   1      44.265  20.983  24.895  1.00  0.00    -0.490 OA
BRANCH  21  22
ATOM     22  C   UNL A   1      43.224  20.755  25.860  1.00  0.00     0.257 C 
BRANCH  22  23
ATOM     23  C   UNL A   1      42.561  19.417  25.677  1.00  0.00     0.006 C 
ATOM     24  C   UNL A   1      42.877  18.317  26.379  1.00  0.00     0.007 C 
ENDBRANCH  22  23
ENDBRANCH  21  22
ENDBRANCH  16  21
ENDBRANCH  13  15
ENDBRANCH   9  13
ENDBRANCH   6   8
ENDBRANCH   5   6
ENDBRANCH   4   5
ENDBRANCH   3   4
ENDBRANCH   2   3
ENDBRANCH   1   2
BRANCH   1  25
ATOM     25  C   UNL A   1      50.561  26.411  33.789  1.00  0.00     0.188 C 
BRANCH  25  26
ATOM     26  O   UNL A   1      50.980  25.217  34.435  1.00  0.00    -0.376 OA
BRANCH  26  27
ATOM     27  C   UNL A   1      50.077  24.539  35.291  1.00  0.00     0.202 C 
BRANCH  27  28
ATOM     28  C   UNL A   1      49.205  25.336  36.278  1.00  0.00     0.261 C 
BRANCH  28  29
ATOM     29  O   UNL A   1      47.844  25.591  35.886  1.00  0.00    -0.460 OA
BRANCH  29  30
ATOM     30  C   UNL A   1      46.967  25.794  36.896  1.00  0.00     0.338 C 
ATOM     31  O   UNL A   1      47.019  25.301  38.022  1.00  0.00    -0.246 OA
BRANCH  30  32
ATOM     32  C   UNL A   1      46.001  26.856  36.542  1.00  0.00     0.060 A 
ATOM     33  C   UNL A   1      44.693  26.763  37.043  1.00  0.00     0.016 A 
ATOM     34  C   UNL A   1      46.343  27.891  35.669  1.00  0.00     0.016 A 
ATOM     35  C   UNL A   1      43.716  27.674  36.643  1.00  0.00     0.010 A 
ATOM     36  C   UNL A   1      45.353  28.791  35.249  1.00  0.00     0.010 A 
ATOM     37  C   UNL A   1      44.025  28.662  35.701  1.00  0.00    -0.014 A 
BRANCH  37  38
ATOM     38  C   UNL A   1      42.923  29.415  35.046  1.00  0.00     0.031 A 
ATOM     39  C   UNL A   1      42.496  29.005  33.660  1.00  0.00     0.074 A 
ATOM     40  C   UNL A   1      42.274  30.411  35.679  1.00  0.00     0.049 A 
ATOM     41  N   UNL A   1      41.572  29.517  32.887  1.00  0.00    -0.248 NA
ATOM     42  C   UNL A   1      43.208  27.861  33.066  1.00  0.00     0.031 C 
ATOM     43  C   UNL A   1      42.556  30.875  37.036  1.00  0.00     0.029 A 
ATOM     44  N   UNL A   1      41.243  31.214  35.256  1.00  0.00    -0.354 N 
ATOM     45  C   UNL A   1      41.595  28.764  31.718  1.00  0.00     0.074 A 
ATOM     46  C   UNL A   1      42.647  27.783  31.869  1.00  0.00     0.031 C 
ATOM     47  C   UNL A   1      41.724  31.890  37.330  1.00  0.00     0.029 A 
ATOM     48  C   UNL A   1      40.871  32.167  36.174  1.00  0.00     0.049 A 
ATOM     49  H   UNL A   1      40.811  31.117  34.377  1.00  0.00     0.167 HD
ATOM     50  C   UNL A   1      40.806  28.871  30.621  1.00  0.00     0.037 A 
ATOM     51  C   UNL A   1      39.962  33.160  36.085  1.00  0.00     0.037 A 
ATOM     52  C   UNL A   1      39.762  29.853  30.469  1.00  0.00     0.049 A 
ATOM     53  C   UNL A   1      39.144  33.309  34.825  1.00  0.00     0.074 A 
ATOM     54  C   UNL A   1      38.905  30.036  29.399  1.00  0.00     0.029 A 
ATOM     55  N   UNL A   1      39.439  30.820  31.410  1.00  0.00    -0.354 N 
ATOM     56  N   UNL A   1      39.165  32.578  33.735  1.00  0.00    -0.248 NA
ATOM     57  C   UNL A   1      38.175  34.414  34.786  1.00  0.00     0.031 C 
ATOM     58  C   UNL A   1      38.101  31.148  29.668  1.00  0.00     0.029 A 
ATOM     59  C   UNL A   1      38.411  31.617  30.934  1.00  0.00     0.049 A 
ATOM     60  H   UNL A   1      39.876  30.924  32.286  1.00  0.00     0.167 HD
ATOM     61  C   UNL A   1      38.186  33.112  32.899  1.00  0.00     0.074 A 
ATOM     62  C   UNL A   1      37.590  34.221  33.612  1.00  0.00     0.031 C 
ATOM     63  C   UNL A   1      37.812  32.713  31.656  1.00  0.00     0.037 A 
BRANCH  50  64
ATOM     64  C   UNL A   1      41.062  27.920  29.484  1.00  0.00     0.058 A 
ATOM     65  C   UNL A   1      42.145  28.089  28.606  1.00  0.00     0.135 A 
ATOM     66  C   UNL A   1      40.229  26.807  29.286  1.00  0.00     0.135 A 
ATOM     67  F   UNL A   1      42.965  29.144  28.737  1.00  0.00    -0.206 F 
ATOM     68  C   UNL A   1      42.376  27.205  27.556  1.00  0.00     0.059 A 
ATOM     69  C   UNL A   1      40.459  25.894  28.260  1.00  0.00     0.059 A 
ATOM     70  F   UNL A   1      39.178  26.598  30.094  1.00  0.00    -0.206 F 
ATOM     71  C   UNL A   1      41.525  26.111  27.390  1.00  0.00     0.060 A 
BRANCH  71  72
ATOM     72  S   UNL A   1      41.837  24.975  26.023  1.00  0.00     0.124 S 
ATOM     73  O   UNL A   1      41.059  25.588  24.952  1.00  0.00    -0.237 OA
ATOM     74  O   UNL A   1      43.288  25.054  25.877  1.00  0.00    -0.237 OA
ATOM     75  O   UNL A   1      41.329  23.699  26.518  1.00  0.00    -0.744 OA
ENDBRANCH  71  72
ENDBRANCH  50  64
BRANCH  51  76
ATOM     76  C   UNL A   1      39.771  34.101  37.224  1.00  0.00     0.058 A 
ATOM     77  C   UNL A   1      40.369  35.370  37.225  1.00  0.00     0.135 A 
ATOM     78  C   UNL A   1      38.997  33.744  38.339  1.00  0.00     0.135 A 
ATOM     79  F   UNL A   1      41.131  35.754  36.190  1.00  0.00    -0.206 F 
ATOM     80  C   UNL A   1      40.218  36.246  38.295  1.00  0.00     0.059 A 
ATOM     81  C   UNL A   1      38.807  34.613  39.409  1.00  0.00     0.059 A 
ATOM     82  F   UNL A   1      38.398  32.544  38.385  1.00  0.00    -0.206 F 
ATOM     83  C   UNL A   1      39.430  35.861  39.381  1.00  0.00     0.060 A 
BRANCH  83  84
ATOM     84  S   UNL A   1      39.198  37.028  40.739  1.00  0.00     0.124 S 
ATOM     85  O   UNL A   1      38.338  38.030  40.122  1.00  0.00    -0.237 OA
ATOM     86  O   UNL A   1      38.573  36.188  41.757  1.00  0.00    -0.237 OA
ATOM     87  O   UNL A   1      40.558  37.462  41.043  1.00  0.00    -0.744 OA
ENDBRANCH  83  84
ENDBRANCH  51  76
BRANCH  63  88
ATOM     88  C   UNL A   1      36.666  33.439  31.002  1.00  0.00     0.058 A 
ATOM     89  C   UNL A   1      36.848  34.275  29.889  1.00  0.00     0.135 A 
ATOM     90  C   UNL A   1      35.353  33.252  31.468  1.00  0.00     0.135 A 
ATOM     91  F   UNL A   1      38.080  34.494  29.403  1.00  0.00    -0.206 F 
ATOM     92  C   UNL A   1      35.775  34.921  29.280  1.00  0.00     0.059 A 
ATOM     93  C   UNL A   1      34.263  33.862  30.856  1.00  0.00     0.059 A 
ATOM     94  F   UNL A   1      35.117  32.453  32.521  1.00  0.00    -0.206 F 
ATOM     95  C   UNL A   1      34.485  34.706  29.770  1.00  0.00     0.060 A 
BRANCH  95  96
ATOM     96  S   UNL A   1      33.100  35.530  28.955  1.00  0.00     0.124 S 
ATOM     97  O   UNL A   1      32.321  35.995  30.098  1.00  0.00    -0.237 OA
ATOM     98  O   UNL A   1      33.767  36.569  28.179  1.00  0.00    -0.237 OA
ATOM     99  O   UNL A   1      32.485  34.465  28.168  1.00  0.00    -0.744 OA
ENDBRANCH  95  96
ENDBRANCH  63  88
ENDBRANCH  37  38
ENDBRANCH  30  32
ENDBRANCH  29  30
ENDBRANCH  28  29
ENDBRANCH  27  28
ENDBRANCH  26  27
ENDBRANCH  25  26
ENDBRANCH   1  25
TORSDOF 25
ENDMDL
MODEL 3
REMARK VINA RESULT:      -8.0     11.036     20.404
REMARK SMILES C=CCOc1ccc(C(=O)N2CCC[C@H]2C(=O)OCCOCCOCCOC(=O)c2ccc(-c3c4nc(c(-c5c(F)cc(S(=O)(=O)[O-])cc5F)c5ccc([nH]5)c(-c5c(F)cc(S(=O)(=O)[O-])cc5F)c5nc(c(-c6c(F)cc(S(=O)(=O)[O-])cc6F)c6ccc3[nH]6)C=C5)C=C4)cc2)cc1
REMARK SMILES IDX 22 1 21 2 20 3 19 4 18 5 16 6 17 7 15 8 11 9 12 10 13 11
REMARK SMILES IDX 14 12 9 13 10 14 8 15 5 16 6 17 97 18 7 19 96 20 4 21 3 22
REMARK SMILES IDX 2 23 1 24 23 25 24 26 25 27 26 28 27 29 28 30 29 31 30 32
REMARK SMILES IDX 31 33 95 34 32 35 94 36 33 37 34 38 35 39 88 40 36 41 93 42
REMARK SMILES IDX 87 43 89 44 37 45 92 46 86 47 85 48 38 50 72 51 51 52 71 53
REMARK SMILES IDX 52 54 55 55 70 56 90 57 53 58 54 59 69 61 91 62 56 63 39 64
REMARK SMILES IDX 40 65 49 66 41 67 42 68 48 69 50 70 43 71 44 72 45 73 46 74
REMARK SMILES IDX 47 75 73 76 74 77 83 78 75 79 76 80 82 81 84 82 77 83 78 84
REMARK SMILES IDX 79 85 80 86 81 87 57 88 58 89 67 90 59 91 60 92 66 93 68 94
REMARK SMILES IDX 61 95 62 96 63 97 64 98 65 99
REMARK H PARENT 89 49 55 60
REMARK Flexibility Score: inf
ROOT
ATOM      1  C   UNL A   1      47.478  20.286  35.525  1.00  0.00     0.188 C 
ENDROOT
BRANCH   1   2
ATOM      2  O   UNL A   1      46.229  19.985  34.937  1.00  0.00    -0.376 OA
BRANCH   2   3
ATOM      3  C   UNL A   1      45.172  19.579  35.788  1.00  0.00     0.202 C 
BRANCH   3   4
ATOM      4  C   UNL A   1      45.334  18.354  36.705  1.00  0.00     0.261 C 
BRANCH   4   5
ATOM      5  O   UNL A   1      45.187  18.594  38.105  1.00  0.00    -0.462 OA
BRANCH   5   6
ATOM      6  C   UNL A   1      45.136  17.522  38.942  1.00  0.00     0.328 C 
ATOM      7  O   UNL A   1      44.770  16.400  38.620  1.00  0.00    -0.250 OA
BRANCH   6   8
ATOM      8  C   UNL A   1      45.717  17.924  40.307  1.00  0.00     0.195 C 
ATOM      9  N   UNL A   1      45.432  16.921  41.311  1.00  0.00    -0.325 N 
ATOM     10  C   UNL A   1      46.606  16.087  41.527  1.00  0.00     0.121 C 
ATOM     11  C   UNL A   1      47.741  17.088  41.398  1.00  0.00     0.024 C 
ATOM     12  C   UNL A   1      47.254  18.038  40.300  1.00  0.00     0.039 C 
BRANCH   9  13
ATOM     13  C   UNL A   1      44.213  16.989  41.952  1.00  0.00     0.254 C 
ATOM     14  O   UNL A   1      43.851  18.012  42.535  1.00  0.00    -0.269 OA
BRANCH  13  15
ATOM     15  C   UNL A   1      43.397  15.763  42.117  1.00  0.00     0.040 A 
ATOM     16  C   UNL A   1      41.614  13.627  42.442  1.00  0.00     0.119 A 
ATOM     17  C   UNL A   1      41.853  14.144  41.169  1.00  0.00     0.047 A 
ATOM     18  C   UNL A   1      42.287  14.154  43.537  1.00  0.00     0.047 A 
ATOM     19  C   UNL A   1      42.744  15.213  41.005  1.00  0.00     0.017 A 
ATOM     20  C   UNL A   1      43.121  15.252  43.384  1.00  0.00     0.017 A 
BRANCH  16  21
ATOM     21  O   UNL A   1      40.760  12.565  42.569  1.00  0.00    -0.490 OA
BRANCH  21  22
ATOM     22  C   UNL A   1      41.280  11.502  43.387  1.00  0.00     0.257 C 
BRANCH  22  23
ATOM     23  C   UNL A   1      42.541  10.911  42.817  1.00  0.00     0.006 C 
ATOM     24  C   UNL A   1      43.560  10.450  43.559  1.00  0.00     0.007 C 
ENDBRANCH  22  23
ENDBRANCH  21  22
ENDBRANCH  16  21
ENDBRANCH  13  15
ENDBRANCH   9  13
ENDBRANCH   6   8
ENDBRANCH   5   6
ENDBRANCH   4   5
ENDBRANCH   3   4
ENDBRANCH   2   3
ENDBRANCH   1   2
BRANCH   1  25
ATOM     25  C   UNL A   1      48.171  21.507  34.877  1.00  0.00     0.188 C 
BRANCH  25  26
ATOM     26  O   UNL A   1      47.814  22.828  35.259  1.00  0.00    -0.376 OA
BRANCH  26  27
ATOM     27  C   UNL A   1      46.544  23.337  34.887  1.00  0.00     0.202 C 
BRANCH  27  28
ATOM     28  C   UNL A   1      45.407  23.400  35.923  1.00  0.00     0.261 C 
BRANCH  28  29
ATOM     29  O   UNL A   1      44.133  22.864  35.524  1.00  0.00    -0.460 OA
BRANCH  29  30
ATOM     30  C   UNL A   1      43.580  23.418  34.420  1.00  0.00     0.338 C 
ATOM     31  O   UNL A   1      43.333  22.847  33.359  1.00  0.00    -0.246 OA
BRANCH  30  32
ATOM     32  C   UNL A   1      43.122  24.796  34.701  1.00  0.00     0.060 A 
ATOM     33  C   UNL A   1      43.676  25.848  33.955  1.00  0.00     0.016 A 
ATOM     34  C   UNL A   1      42.221  25.068  35.732  1.00  0.00     0.016 A 
ATOM     35  C   UNL A   1      43.366  27.172  34.263  1.00  0.00     0.010 A 
ATOM     36  C   UNL A   1      41.929  26.402  36.056  1.00  0.00     0.010 A 
ATOM     37  C   UNL A   1      42.532  27.461  35.350  1.00  0.00    -0.014 A 
BRANCH  37  38
ATOM     38  C   UNL A   1      42.462  28.854  35.865  1.00  0.00     0.031 A 
ATOM     39  C   UNL A   1      43.516  29.316  36.838  1.00  0.00     0.074 A 
ATOM     40  C   UNL A   1      41.516  29.715  35.445  1.00  0.00     0.049 A 
ATOM     41  N   UNL A   1      43.654  30.475  37.430  1.00  0.00    -0.248 NA
ATOM     42  C   UNL A   1      44.556  28.335  37.192  1.00  0.00     0.031 C 
ATOM     43  C   UNL A   1      40.467  29.412  34.473  1.00  0.00     0.029 A 
ATOM     44  N   UNL A   1      41.285  31.025  35.791  1.00  0.00    -0.354 N 
ATOM     45  C   UNL A   1      44.788  30.362  38.226  1.00  0.00     0.074 A 
ATOM     46  C   UNL A   1      45.281  29.011  38.070  1.00  0.00     0.031 C 
ATOM     47  C   UNL A   1      39.698  30.503  34.308  1.00  0.00     0.029 A 
ATOM     48  C   UNL A   1      40.180  31.572  35.183  1.00  0.00     0.049 A 
ATOM     49  H   UNL A   1      41.857  31.525  36.416  1.00  0.00     0.167 HD
ATOM     50  C   UNL A   1      45.374  31.300  39.010  1.00  0.00     0.037 A 
ATOM     51  C   UNL A   1      39.611  32.786  35.330  1.00  0.00     0.037 A 
ATOM     52  C   UNL A   1      44.879  32.643  39.169  1.00  0.00     0.049 A 
ATOM     53  C   UNL A   1      40.238  33.792  36.266  1.00  0.00     0.074 A 
ATOM     54  C   UNL A   1      45.408  33.668  39.935  1.00  0.00     0.029 A 
ATOM     55  N   UNL A   1      43.739  33.147  38.561  1.00  0.00    -0.354 N 
ATOM     56  N   UNL A   1      41.321  33.677  36.998  1.00  0.00    -0.248 NA
ATOM     57  C   UNL A   1      39.568  35.095  36.388  1.00  0.00     0.031 C 
ATOM     58  C   UNL A   1      44.557  34.773  39.834  1.00  0.00     0.029 A 
ATOM     59  C   UNL A   1      43.535  34.460  38.953  1.00  0.00     0.049 A 
ATOM     60  H   UNL A   1      43.160  32.645  37.943  1.00  0.00     0.167 HD
ATOM     61  C   UNL A   1      41.481  34.905  37.637  1.00  0.00     0.074 A 
ATOM     62  C   UNL A   1      40.389  35.747  37.200  1.00  0.00     0.031 C 
ATOM     63  C   UNL A   1      42.451  35.298  38.502  1.00  0.00     0.037 A 
BRANCH  50  64
ATOM     64  C   UNL A   1      46.602  30.895  39.779  1.00  0.00     0.058 A 
ATOM     65  C   UNL A   1      47.894  31.057  39.253  1.00  0.00     0.135 A 
ATOM     66  C   UNL A   1      46.487  30.363  41.074  1.00  0.00     0.135 A 
ATOM     67  F   UNL A   1      48.064  31.544  38.013  1.00  0.00    -0.206 F 
ATOM     68  C   UNL A   1      49.025  30.679  39.970  1.00  0.00     0.059 A 
ATOM     69  C   UNL A   1      47.606  30.007  41.821  1.00  0.00     0.059 A 
ATOM     70  F   UNL A   1      45.276  30.186  41.626  1.00  0.00    -0.206 F 
ATOM     71  C   UNL A   1      48.870  30.153  41.254  1.00  0.00     0.060 A 
BRANCH  71  72
ATOM     72  S   UNL A   1      50.347  29.668  42.171  1.00  0.00     0.124 S 
ATOM     73  O   UNL A   1      51.298  29.436  41.089  1.00  0.00    -0.237 OA
ATOM     74  O   UNL A   1      50.602  30.844  42.998  1.00  0.00    -0.237 OA
ATOM     75  O   UNL A   1      49.920  28.476  42.898  1.00  0.00    -0.744 OA
ENDBRANCH  71  72
ENDBRANCH  50  64
BRANCH  51  76
ATOM     76  C   UNL A   1      38.373  33.127  34.575  1.00  0.00     0.058 A 
ATOM     77  C   UNL A   1      38.414  33.399  33.200  1.00  0.00     0.135 A 
ATOM     78  C   UNL A   1      37.127  33.198  35.217  1.00  0.00     0.135 A 
ATOM     79  F   UNL A   1      39.582  33.358  32.541  1.00  0.00    -0.206 F 
ATOM     80  C   UNL A   1      37.267  33.743  32.490  1.00  0.00     0.059 A 
ATOM     81  C   UNL A   1      35.962  33.512  34.525  1.00  0.00     0.059 A 
ATOM     82  F   UNL A   1      37.033  32.941  36.531  1.00  0.00    -0.206 F 
ATOM     83  C   UNL A   1      36.044  33.792  33.161  1.00  0.00     0.060 A 
BRANCH  83  84
ATOM     84  S   UNL A   1      34.556  34.186  32.219  1.00  0.00     0.124 S 
ATOM     85  O   UNL A   1      33.734  33.005  32.457  1.00  0.00    -0.237 OA
ATOM     86  O   UNL A   1      34.107  35.418  32.861  1.00  0.00    -0.237 OA
ATOM     87  O   UNL A   1      35.054  34.344  30.856  1.00  0.00    -0.744 OA
ENDBRANCH  83  84
ENDBRANCH  51  76
BRANCH  63  88
ATOM     88  C   UNL A   1      42.415  36.722  38.994  1.00  0.00     0.058 A 
ATOM     89  C   UNL A   1      41.600  37.123  40.064  1.00  0.00     0.135 A 
ATOM     90  C   UNL A   1      43.255  37.690  38.416  1.00  0.00     0.135 A 
ATOM     91  F   UNL A   1      40.775  36.242  40.652  1.00  0.00    -0.206 F 
ATOM     92  C   UNL A   1      41.596  38.437  40.524  1.00  0.00     0.059 A 
ATOM     93  C   UNL A   1      43.290  39.001  38.880  1.00  0.00     0.059 A 
ATOM     94  F   UNL A   1      44.066  37.360  37.398  1.00  0.00    -0.206 F 
ATOM     95  C   UNL A   1      42.447  39.369  39.926  1.00  0.00     0.060 A 
BRANCH  95  96
ATOM     96  S   UNL A   1      42.450  41.064  40.548  1.00  0.00     0.124 S 
ATOM     97  O   UNL A   1      43.724  41.562  40.040  1.00  0.00    -0.237 OA
ATOM     98  O   UNL A   1      41.256  41.628  39.927  1.00  0.00    -0.237 OA
ATOM     99  O   UNL A   1      42.376  40.896  41.997  1.00  0.00    -0.744 OA
ENDBRANCH  95  96
ENDBRANCH  63  88
ENDBRANCH  37  38
ENDBRANCH  30  32
ENDBRANCH  29  30
ENDBRANCH  28  29
ENDBRANCH  27  28
ENDBRANCH  26  27
ENDBRANCH  25  26
ENDBRANCH   1  25
TORSDOF 25
ENDMDL
