MODEL 1
REMARK VINA RESULT:     -10.8      0.000      0.000
REMARK SMILES CS(=O)(=O)c1ccc(/C=C(/C(=O)OCCOCCOCCOC(=O)c2ccc(-c3c4nc(c(-c5c(F)cc(S(=O)(=O)[O-])cc5F)c5ccc([nH]5)c(-c5c(F)cc(S(=O)(=O)[O-])cc5F)c5nc(c(-c6c(F)cc(S(=O)(=O)[O-])cc6F)c6ccc3[nH]6)C=C5)C=C4)cc2)c2ccc(F)cc2)cc1
REMARK SMILES IDX 18 1 17 2 16 3 15 4 14 5 13 6 11 7 12 8 10 9 9 10 8 11 5 12
REMARK SMILES IDX 6 13 99 14 7 15 98 16 2 17 1 18 3 19 4 20 91 21 92 22 97 23
REMARK SMILES IDX 93 24 96 25 94 26 95 27 19 28 20 29 21 30 22 31 23 32 24 33
REMARK SMILES IDX 25 34 26 35 90 36 27 37 89 38 28 39 29 40 30 41 83 42 31 43
REMARK SMILES IDX 88 44 82 45 84 46 32 47 87 48 81 49 80 50 33 52 67 53 46 54
REMARK SMILES IDX 66 55 47 56 50 57 65 58 85 59 48 60 49 61 64 63 86 64 51 65
REMARK SMILES IDX 34 66 35 67 44 68 36 69 37 70 43 71 45 72 38 73 39 74 40 75
REMARK SMILES IDX 41 76 42 77 68 78 69 79 78 80 70 81 71 82 77 83 79 84 72 85
REMARK SMILES IDX 73 86 74 87 75 88 76 89 52 90 53 91 62 92 54 93 55 94 61 95
REMARK SMILES IDX 63 96 56 97 57 98 58 99 59 100 60 101
REMARK H PARENT 84 51 50 62
REMARK Flexibility Score: inf
ROOT
ATOM      1  C   UNL A   1      34.327  32.028  27.711  1.00  0.00     0.188 C 
ENDROOT
BRANCH   1   2
ATOM      2  C   UNL A   1      33.294  30.973  27.264  1.00  0.00     0.188 C 
BRANCH   2   3
ATOM      3  O   UNL A   1      33.769  29.651  27.407  1.00  0.00    -0.376 OA
BRANCH   3   4
ATOM      4  C   UNL A   1      33.016  28.624  26.787  1.00  0.00     0.202 C 
BRANCH   4   5
ATOM      5  C   UNL A   1      33.730  27.419  26.139  1.00  0.00     0.261 C 
BRANCH   5   6
ATOM      6  O   UNL A   1      32.911  26.455  25.458  1.00  0.00    -0.460 OA
BRANCH   6   7
ATOM      7  C   UNL A   1      33.387  25.916  24.306  1.00  0.00     0.338 C 
ATOM      8  O   UNL A   1      33.711  26.556  23.318  1.00  0.00    -0.246 OA
BRANCH   7   9
ATOM      9  C   UNL A   1      33.561  24.426  24.437  1.00  0.00     0.067 C 
ATOM     10  C   UNL A   1      32.467  23.622  24.446  1.00  0.00     0.024 C 
BRANCH  10  11
ATOM     11  C   UNL A   1      32.395  22.136  24.406  1.00  0.00    -0.025 A 
ATOM     12  C   UNL A   1      32.660  19.355  24.083  1.00  0.00     0.067 A 
ATOM     13  C   UNL A   1      32.804  19.920  25.347  1.00  0.00     0.021 A 
ATOM     14  C   UNL A   1      32.257  20.141  23.004  1.00  0.00     0.021 A 
ATOM     15  C   UNL A   1      32.629  21.299  25.507  1.00  0.00     0.009 A 
ATOM     16  C   UNL A   1      32.131  21.526  23.168  1.00  0.00     0.009 A 
BRANCH  12  17
ATOM     17  S   UNL A   1      33.032  17.638  23.823  1.00  0.00     0.175 S 
ATOM     18  C   UNL A   1      34.737  17.504  24.306  1.00  0.00     0.163 C 
ATOM     19  O   UNL A   1      32.946  17.393  22.396  1.00  0.00    -0.224 OA
ATOM     20  O   UNL A   1      32.255  16.860  24.766  1.00  0.00    -0.224 OA
ENDBRANCH  12  17
ENDBRANCH  10  11
BRANCH   9  21
ATOM     21  C   UNL A   1      34.940  23.899  24.529  1.00  0.00    -0.011 A 
ATOM     22  C   UNL A   1      35.616  23.947  25.763  1.00  0.00     0.012 A 
ATOM     23  C   UNL A   1      35.536  23.232  23.450  1.00  0.00     0.012 A 
ATOM     24  C   UNL A   1      36.844  23.305  25.923  1.00  0.00     0.040 A 
ATOM     25  C   UNL A   1      36.761  22.580  23.620  1.00  0.00     0.040 A 
ATOM     26  C   UNL A   1      37.398  22.617  24.854  1.00  0.00     0.123 A 
ATOM     27  F   UNL A   1      38.548  21.954  25.023  1.00  0.00    -0.207 F 
ENDBRANCH   9  21
ENDBRANCH   7   9
ENDBRANCH   6   7
ENDBRANCH   5   6
ENDBRANCH   4   5
ENDBRANCH   3   4
ENDBRANCH   2   3
ENDBRANCH   1   2
BRANCH   1  28
ATOM     28  O   UNL A   1      33.953  33.064  28.609  1.00  0.00    -0.376 OA
BRANCH  28  29
ATOM     29  C   UNL A   1      34.943  33.668  29.428  1.00  0.00     0.202 C 
BRANCH  29  30
ATOM     30  C   UNL A   1      36.431  33.293  29.282  1.00  0.00     0.261 C 
BRANCH  30  31
ATOM     31  O   UNL A   1      37.071  32.710  30.426  1.00  0.00    -0.460 OA
BRANCH  31  32
ATOM     32  C   UNL A   1      36.969  31.358  30.525  1.00  0.00     0.338 C 
ATOM     33  O   UNL A   1      35.979  30.716  30.802  1.00  0.00    -0.246 OA
BRANCH  32  34
ATOM     34  C   UNL A   1      38.234  30.743  30.056  1.00  0.00     0.060 A 
ATOM     35  C   UNL A   1      39.301  30.639  30.959  1.00  0.00     0.016 A 
ATOM     36  C   UNL A   1      38.384  30.313  28.736  1.00  0.00     0.016 A 
ATOM     37  C   UNL A   1      40.524  30.112  30.545  1.00  0.00     0.010 A 
ATOM     38  C   UNL A   1      39.622  29.813  28.313  1.00  0.00     0.010 A 
ATOM     39  C   UNL A   1      40.703  29.729  29.209  1.00  0.00    -0.014 A 
BRANCH  39  40
ATOM     40  C   UNL A   1      42.065  29.411  28.711  1.00  0.00     0.031 A 
ATOM     41  C   UNL A   1      42.359  28.002  28.274  1.00  0.00     0.074 A 
ATOM     42  C   UNL A   1      43.019  30.355  28.631  1.00  0.00     0.049 A 
ATOM     43  N   UNL A   1      43.480  27.484  27.844  1.00  0.00    -0.248 NA
ATOM     44  C   UNL A   1      41.237  27.052  28.335  1.00  0.00     0.031 C 
ATOM     45  C   UNL A   1      42.847  31.761  28.989  1.00  0.00     0.029 A 
ATOM     46  N   UNL A   1      44.328  30.268  28.226  1.00  0.00    -0.354 N 
ATOM     47  C   UNL A   1      43.203  26.146  27.590  1.00  0.00     0.074 A 
ATOM     48  C   UNL A   1      41.814  25.928  27.935  1.00  0.00     0.031 C 
ATOM     49  C   UNL A   1      44.009  32.407  28.786  1.00  0.00     0.029 A 
ATOM     50  C   UNL A   1      45.019  31.453  28.329  1.00  0.00     0.049 A 
ATOM     51  H   UNL A   1      44.733  29.435  27.894  1.00  0.00     0.167 HD
ATOM     52  C   UNL A   1      44.029  25.185  27.112  1.00  0.00     0.037 A 
ATOM     53  C   UNL A   1      46.322  31.725  28.107  1.00  0.00     0.037 A 
ATOM     54  C   UNL A   1      45.417  25.399  26.790  1.00  0.00     0.049 A 
ATOM     55  C   UNL A   1      47.244  30.620  27.651  1.00  0.00     0.074 A 
ATOM     56  C   UNL A   1      46.336  24.489  26.299  1.00  0.00     0.029 A 
ATOM     57  N   UNL A   1      46.090  26.603  26.944  1.00  0.00    -0.354 N 
ATOM     58  N   UNL A   1      46.966  29.363  27.397  1.00  0.00    -0.248 NA
ATOM     59  C   UNL A   1      48.660  30.969  27.460  1.00  0.00     0.031 C 
ATOM     60  C   UNL A   1      47.578  25.126  26.211  1.00  0.00     0.029 A 
ATOM     61  C   UNL A   1      47.420  26.451  26.584  1.00  0.00     0.049 A 
ATOM     62  H   UNL A   1      45.683  27.441  27.260  1.00  0.00     0.167 HD
ATOM     63  C   UNL A   1      48.164  28.782  26.986  1.00  0.00     0.074 A 
ATOM     64  C   UNL A   1      49.166  29.826  27.018  1.00  0.00     0.031 C 
ATOM     65  C   UNL A   1      48.410  27.500  26.613  1.00  0.00     0.037 A 
BRANCH  52  66
ATOM     66  C   UNL A   1      43.461  23.802  26.951  1.00  0.00     0.058 A 
ATOM     67  C   UNL A   1      43.103  23.288  25.694  1.00  0.00     0.135 A 
ATOM     68  C   UNL A   1      43.285  22.972  28.072  1.00  0.00     0.135 A 
ATOM     69  F   UNL A   1      43.232  24.044  24.593  1.00  0.00    -0.206 F 
ATOM     70  C   UNL A   1      42.559  22.015  25.558  1.00  0.00     0.059 A 
ATOM     71  C   UNL A   1      42.770  21.685  27.955  1.00  0.00     0.059 A 
ATOM     72  F   UNL A   1      43.608  23.414  29.297  1.00  0.00    -0.206 F 
ATOM     73  C   UNL A   1      42.394  21.222  26.695  1.00  0.00     0.060 A 
BRANCH  73  74
ATOM     74  S   UNL A   1      41.676  19.577  26.503  1.00  0.00     0.124 S 
ATOM     75  O   UNL A   1      42.315  19.123  25.273  1.00  0.00    -0.237 OA
ATOM     76  O   UNL A   1      42.104  18.905  27.726  1.00  0.00    -0.237 OA
ATOM     77  O   UNL A   1      40.243  19.840  26.404  1.00  0.00    -0.744 OA
ENDBRANCH  73  74
ENDBRANCH  52  66
BRANCH  53  78
ATOM     78  C   UNL A   1      46.844  33.102  28.331  1.00  0.00     0.058 A 
ATOM     79  C   UNL A   1      47.371  33.486  29.574  1.00  0.00     0.135 A 
ATOM     80  C   UNL A   1      46.817  34.066  27.310  1.00  0.00     0.135 A 
ATOM     81  F   UNL A   1      47.402  32.609  30.588  1.00  0.00    -0.206 F 
ATOM     82  C   UNL A   1      47.842  34.775  29.800  1.00  0.00     0.059 A 
ATOM     83  C   UNL A   1      47.308  35.353  27.503  1.00  0.00     0.059 A 
ATOM     84  F   UNL A   1      46.326  33.750  26.101  1.00  0.00    -0.206 F 
ATOM     85  C   UNL A   1      47.811  35.702  28.756  1.00  0.00     0.060 A 
BRANCH  85  86
ATOM     86  S   UNL A   1      48.470  37.358  29.045  1.00  0.00     0.124 S 
ATOM     87  O   UNL A   1      49.398  37.505  27.929  1.00  0.00    -0.237 OA
ATOM     88  O   UNL A   1      47.266  38.181  28.987  1.00  0.00    -0.237 OA
ATOM     89  O   UNL A   1      49.084  37.251  30.366  1.00  0.00    -0.744 OA
ENDBRANCH  85  86
ENDBRANCH  53  78
BRANCH  65  90
ATOM     90  C   UNL A   1      49.808  27.153  26.169  1.00  0.00     0.058 A 
ATOM     91  C   UNL A   1      50.798  26.746  27.077  1.00  0.00     0.135 A 
ATOM     92  C   UNL A   1      50.141  27.168  24.804  1.00  0.00     0.135 A 
ATOM     93  F   UNL A   1      50.536  26.717  28.394  1.00  0.00    -0.206 F 
ATOM     94  C   UNL A   1      52.073  26.388  26.651  1.00  0.00     0.059 A 
ATOM     95  C   UNL A   1      51.400  26.784  24.352  1.00  0.00     0.059 A 
ATOM     96  F   UNL A   1      49.231  27.537  23.889  1.00  0.00    -0.206 F 
ATOM     97  C   UNL A   1      52.364  26.406  25.285  1.00  0.00     0.060 A 
BRANCH  97  98
ATOM     98  S   UNL A   1      54.011  25.902  24.743  1.00  0.00     0.124 S 
ATOM     99  O   UNL A   1      54.858  26.508  25.765  1.00  0.00    -0.237 OA
ATOM    100  O   UNL A   1      53.920  24.445  24.779  1.00  0.00    -0.237 OA
ATOM    101  O   UNL A   1      54.124  26.483  23.409  1.00  0.00    -0.744 OA
ENDBRANCH  97  98
ENDBRANCH  65  90
ENDBRANCH  39  40
ENDBRANCH  32  34
ENDBRANCH  31  32
ENDBRANCH  30  31
ENDBRANCH  29  30
ENDBRANCH  28  29
ENDBRANCH   1  28
TORSDOF 23
ENDMDL
MODEL 2
REMARK VINA RESULT:      -9.3      6.453     12.043
REMARK SMILES CS(=O)(=O)c1ccc(/C=C(/C(=O)OCCOCCOCCOC(=O)c2ccc(-c3c4nc(c(-c5c(F)cc(S(=O)(=O)[O-])cc5F)c5ccc([nH]5)c(-c5c(F)cc(S(=O)(=O)[O-])cc5F)c5nc(c(-c6c(F)cc(S(=O)(=O)[O-])cc6F)c6ccc3[nH]6)C=C5)C=C4)cc2)c2ccc(F)cc2)cc1
REMARK SMILES IDX 18 1 17 2 16 3 15 4 14 5 13 6 11 7 12 8 10 9 9 10 8 11 5 12
REMARK SMILES IDX 6 13 99 14 7 15 98 16 2 17 1 18 3 19 4 20 91 21 92 22 97 23
REMARK SMILES IDX 93 24 96 25 94 26 95 27 19 28 20 29 21 30 22 31 23 32 24 33
REMARK SMILES IDX 25 34 26 35 90 36 27 37 89 38 28 39 29 40 30 41 83 42 31 43
REMARK SMILES IDX 88 44 82 45 84 46 32 47 87 48 81 49 80 50 33 52 67 53 46 54
REMARK SMILES IDX 66 55 47 56 50 57 65 58 85 59 48 60 49 61 64 63 86 64 51 65
REMARK SMILES IDX 34 66 35 67 44 68 36 69 37 70 43 71 45 72 38 73 39 74 40 75
REMARK SMILES IDX 41 76 42 77 68 78 69 79 78 80 70 81 71 82 77 83 79 84 72 85
REMARK SMILES IDX 73 86 74 87 75 88 76 89 52 90 53 91 62 92 54 93 55 94 61 95
REMARK SMILES IDX 63 96 56 97 57 98 58 99 59 100 60 101
REMARK H PARENT 84 51 50 62
REMARK Flexibility Score: inf
ROOT
ATOM      1  C   UNL A   1      39.296  23.573  26.826  1.00  0.00     0.188 C 
ENDROOT
BRANCH   1   2
ATOM      2  C   UNL A   1      38.720  22.427  25.969  1.00  0.00     0.188 C 
BRANCH   2   3
ATOM      3  O   UNL A   1      37.573  22.815  25.241  1.00  0.00    -0.376 OA
BRANCH   3   4
ATOM      4  C   UNL A   1      36.363  22.142  25.536  1.00  0.00     0.202 C 
BRANCH   4   5
ATOM      5  C   UNL A   1      35.007  22.821  25.254  1.00  0.00     0.261 C 
BRANCH   5   6
ATOM      6  O   UNL A   1      35.030  24.201  24.854  1.00  0.00    -0.460 OA
BRANCH   6   7
ATOM      7  C   UNL A   1      34.387  24.543  23.709  1.00  0.00     0.338 C 
ATOM      8  O   UNL A   1      34.735  24.211  22.587  1.00  0.00    -0.246 OA
BRANCH   7   9
ATOM      9  C   UNL A   1      33.122  25.306  24.005  1.00  0.00     0.067 C 
ATOM     10  C   UNL A   1      32.945  26.541  23.470  1.00  0.00     0.024 C 
BRANCH  10  11
ATOM     11  C   UNL A   1      31.735  27.407  23.490  1.00  0.00    -0.025 A 
ATOM     12  C   UNL A   1      29.730  29.374  23.342  1.00  0.00     0.067 A 
ATOM     13  C   UNL A   1      29.658  28.253  22.521  1.00  0.00     0.021 A 
ATOM     14  C   UNL A   1      30.715  29.464  24.326  1.00  0.00     0.021 A 
ATOM     15  C   UNL A   1      30.636  27.258  22.630  1.00  0.00     0.009 A 
ATOM     16  C   UNL A   1      31.715  28.484  24.392  1.00  0.00     0.009 A 
BRANCH  12  17
ATOM     17  S   UNL A   1      28.597  30.723  23.116  1.00  0.00     0.175 S 
ATOM     18  C   UNL A   1      28.529  30.918  21.351  1.00  0.00     0.163 C 
ATOM     19  O   UNL A   1      29.222  31.905  23.678  1.00  0.00    -0.224 OA
ATOM     20  O   UNL A   1      27.285  30.288  23.552  1.00  0.00    -0.224 OA
ENDBRANCH  12  17
ENDBRANCH  10  11
BRANCH   9  21
ATOM     21  C   UNL A   1      32.108  24.654  24.861  1.00  0.00    -0.011 A 
ATOM     22  C   UNL A   1      31.610  23.388  24.499  1.00  0.00     0.012 A 
ATOM     23  C   UNL A   1      31.734  25.207  26.094  1.00  0.00     0.012 A 
ATOM     24  C   UNL A   1      30.788  22.674  25.371  1.00  0.00     0.040 A 
ATOM     25  C   UNL A   1      30.919  24.483  26.969  1.00  0.00     0.040 A 
ATOM     26  C   UNL A   1      30.461  23.223  26.603  1.00  0.00     0.123 A 
ATOM     27  F   UNL A   1      29.719  22.515  27.463  1.00  0.00    -0.207 F 
ENDBRANCH   9  21
ENDBRANCH   7   9
ENDBRANCH   6   7
ENDBRANCH   5   6
ENDBRANCH   4   5
ENDBRANCH   3   4
ENDBRANCH   2   3
ENDBRANCH   1   2
BRANCH   1  28
ATOM     28  O   UNL A   1      39.474  24.868  26.267  1.00  0.00    -0.376 OA
BRANCH  28  29
ATOM     29  C   UNL A   1      40.744  25.496  26.353  1.00  0.00     0.202 C 
BRANCH  29  30
ATOM     30  C   UNL A   1      41.908  25.061  25.441  1.00  0.00     0.261 C 
BRANCH  30  31
ATOM     31  O   UNL A   1      43.198  25.625  25.716  1.00  0.00    -0.460 OA
BRANCH  31  32
ATOM     32  C   UNL A   1      43.816  25.153  26.831  1.00  0.00     0.338 C 
ATOM     33  O   UNL A   1      44.512  24.165  26.920  1.00  0.00    -0.246 OA
BRANCH  32  34
ATOM     34  C   UNL A   1      43.665  26.144  27.923  1.00  0.00     0.060 A 
ATOM     35  C   UNL A   1      43.114  25.719  29.140  1.00  0.00     0.016 A 
ATOM     36  C   UNL A   1      44.019  27.482  27.740  1.00  0.00     0.016 A 
ATOM     37  C   UNL A   1      42.909  26.629  30.177  1.00  0.00     0.010 A 
ATOM     38  C   UNL A   1      43.784  28.402  28.770  1.00  0.00     0.010 A 
ATOM     39  C   UNL A   1      43.209  27.984  29.985  1.00  0.00    -0.014 A 
BRANCH  39  40
ATOM     40  C   UNL A   1      42.759  28.986  30.983  1.00  0.00     0.031 A 
ATOM     41  C   UNL A   1      43.575  29.171  32.233  1.00  0.00     0.074 A 
ATOM     42  C   UNL A   1      41.658  29.730  30.780  1.00  0.00     0.049 A 
ATOM     43  N   UNL A   1      43.356  29.953  33.258  1.00  0.00    -0.248 NA
ATOM     44  C   UNL A   1      44.799  28.362  32.341  1.00  0.00     0.031 C 
ATOM     45  C   UNL A   1      40.805  29.670  29.595  1.00  0.00     0.029 A 
ATOM     46  N   UNL A   1      41.065  30.681  31.574  1.00  0.00    -0.354 N 
ATOM     47  C   UNL A   1      44.409  29.726  34.136  1.00  0.00     0.074 A 
ATOM     48  C   UNL A   1      45.254  28.717  33.533  1.00  0.00     0.031 C 
ATOM     49  C   UNL A   1      39.797  30.549  29.739  1.00  0.00     0.029 A 
ATOM     50  C   UNL A   1      39.907  31.200  31.044  1.00  0.00     0.049 A 
ATOM     51  H   UNL A   1      41.435  30.965  32.440  1.00  0.00     0.167 HD
ATOM     52  C   UNL A   1      44.652  30.305  35.336  1.00  0.00     0.037 A 
ATOM     53  C   UNL A   1      39.024  32.076  31.567  1.00  0.00     0.037 A 
ATOM     54  C   UNL A   1      43.798  31.293  35.944  1.00  0.00     0.049 A 
ATOM     55  C   UNL A   1      39.273  32.649  32.941  1.00  0.00     0.074 A 
ATOM     56  C   UNL A   1      43.960  31.940  37.157  1.00  0.00     0.029 A 
ATOM     57  N   UNL A   1      42.614  31.765  35.395  1.00  0.00    -0.354 N 
ATOM     58  N   UNL A   1      40.281  32.441  33.754  1.00  0.00    -0.248 NA
ATOM     59  C   UNL A   1      38.258  33.571  33.473  1.00  0.00     0.031 C 
ATOM     60  C   UNL A   1      42.845  32.759  37.368  1.00  0.00     0.029 A 
ATOM     61  C   UNL A   1      42.020  32.673  36.258  1.00  0.00     0.049 A 
ATOM     62  H   UNL A   1      42.251  31.496  34.521  1.00  0.00     0.167 HD
ATOM     63  C   UNL A   1      40.038  33.229  34.877  1.00  0.00     0.074 A 
ATOM     64  C   UNL A   1      38.791  33.924  34.635  1.00  0.00     0.031 C 
ATOM     65  C   UNL A   1      40.781  33.366  36.004  1.00  0.00     0.037 A 
BRANCH  52  66
ATOM     66  C   UNL A   1      45.871  29.849  36.090  1.00  0.00     0.058 A 
ATOM     67  C   UNL A   1      47.114  30.487  35.948  1.00  0.00     0.135 A 
ATOM     68  C   UNL A   1      45.790  28.763  36.978  1.00  0.00     0.135 A 
ATOM     69  F   UNL A   1      47.251  31.517  35.099  1.00  0.00    -0.206 F 
ATOM     70  C   UNL A   1      48.240  30.045  36.635  1.00  0.00     0.059 A 
ATOM     71  C   UNL A   1      46.897  28.323  37.697  1.00  0.00     0.059 A 
ATOM     72  F   UNL A   1      44.628  28.115  37.149  1.00  0.00    -0.206 F 
ATOM     73  C   UNL A   1      48.122  28.960  37.505  1.00  0.00     0.060 A 
BRANCH  73  74
ATOM     74  S   UNL A   1      49.596  28.391  38.379  1.00  0.00     0.124 S 
ATOM     75  O   UNL A   1      49.175  27.067  38.826  1.00  0.00    -0.237 OA
ATOM     76  O   UNL A   1      50.608  28.412  37.328  1.00  0.00    -0.237 OA
ATOM     77  O   UNL A   1      49.770  29.383  39.434  1.00  0.00    -0.744 OA
ENDBRANCH  73  74
ENDBRANCH  52  66
BRANCH  53  78
ATOM     78  C   UNL A   1      37.805  32.455  30.799  1.00  0.00     0.058 A 
ATOM     79  C   UNL A   1      37.846  33.459  29.819  1.00  0.00     0.135 A 
ATOM     80  C   UNL A   1      36.571  31.829  31.037  1.00  0.00     0.135 A 
ATOM     81  F   UNL A   1      38.996  34.102  29.567  1.00  0.00    -0.206 F 
ATOM     82  C   UNL A   1      36.709  33.835  29.112  1.00  0.00     0.059 A 
ATOM     83  C   UNL A   1      35.427  32.167  30.322  1.00  0.00     0.059 A 
ATOM     84  F   UNL A   1      36.476  30.859  31.961  1.00  0.00    -0.206 F 
ATOM     85  C   UNL A   1      35.503  33.180  29.367  1.00  0.00     0.060 A 
BRANCH  85  86
ATOM     86  S   UNL A   1      34.044  33.640  28.408  1.00  0.00     0.124 S 
ATOM     87  O   UNL A   1      33.213  34.277  29.423  1.00  0.00    -0.237 OA
ATOM     88  O   UNL A   1      34.611  34.529  27.397  1.00  0.00    -0.237 OA
ATOM     89  O   UNL A   1      33.555  32.360  27.903  1.00  0.00    -0.744 OA
ENDBRANCH  85  86
ENDBRANCH  53  78
BRANCH  65  90
ATOM     90  C   UNL A   1      40.295  34.333  37.053  1.00  0.00     0.058 A 
ATOM     91  C   UNL A   1      39.555  33.911  38.169  1.00  0.00     0.135 A 
ATOM     92  C   UNL A   1      40.631  35.695  36.971  1.00  0.00     0.135 A 
ATOM     93  F   UNL A   1      39.202  32.621  38.297  1.00  0.00    -0.206 F 
ATOM     94  C   UNL A   1      39.147  34.807  39.153  1.00  0.00     0.059 A 
ATOM     95  C   UNL A   1      40.261  36.603  37.959  1.00  0.00     0.059 A 
ATOM     96  F   UNL A   1      41.348  36.154  35.932  1.00  0.00    -0.206 F 
ATOM     97  C   UNL A   1      39.508  36.151  39.042  1.00  0.00     0.060 A 
BRANCH  97  98
ATOM     98  S   UNL A   1      39.006  37.295  40.345  1.00  0.00     0.124 S 
ATOM     99  O   UNL A   1      38.096  36.467  41.130  1.00  0.00    -0.237 OA
ATOM    100  O   UNL A   1      40.278  37.618  40.985  1.00  0.00    -0.237 OA
ATOM    101  O   UNL A   1      38.382  38.393  39.614  1.00  0.00    -0.744 OA
ENDBRANCH  97  98
ENDBRANCH  65  90
ENDBRANCH  39  40
ENDBRANCH  32  34
ENDBRANCH  31  32
ENDBRANCH  30  31
ENDBRANCH  29  30
ENDBRANCH  28  29
ENDBRANCH   1  28
TORSDOF 23
ENDMDL
MODEL 3
REMARK VINA RESULT:      -9.2      4.306     11.222
REMARK SMILES CS(=O)(=O)c1ccc(/C=C(/C(=O)OCCOCCOCCOC(=O)c2ccc(-c3c4nc(c(-c5c(F)cc(S(=O)(=O)[O-])cc5F)c5ccc([nH]5)c(-c5c(F)cc(S(=O)(=O)[O-])cc5F)c5nc(c(-c6c(F)cc(S(=O)(=O)[O-])cc6F)c6ccc3[nH]6)C=C5)C=C4)cc2)c2ccc(F)cc2)cc1
REMARK SMILES IDX 18 1 17 2 16 3 15 4 14 5 13 6 11 7 12 8 10 9 9 10 8 11 5 12
REMARK SMILES IDX 6 13 99 14 7 15 98 16 2 17 1 18 3 19 4 20 91 21 92 22 97 23
REMARK SMILES IDX 93 24 96 25 94 26 95 27 19 28 20 29 21 30 22 31 23 32 24 33
REMARK SMILES IDX 25 34 26 35 90 36 27 37 89 38 28 39 29 40 30 41 83 42 31 43
REMARK SMILES IDX 88 44 82 45 84 46 32 47 87 48 81 49 80 50 33 52 67 53 46 54
REMARK SMILES IDX 66 55 47 56 50 57 65 58 85 59 48 60 49 61 64 63 86 64 51 65
REMARK SMILES IDX 34 66 35 67 44 68 36 69 37 70 43 71 45 72 38 73 39 74 40 75
REMARK SMILES IDX 41 76 42 77 68 78 69 79 78 80 70 81 71 82 77 83 79 84 72 85
REMARK SMILES IDX 73 86 74 87 75 88 76 89 52 90 53 91 62 92 54 93 55 94 61 95
REMARK SMILES IDX 63 96 56 97 57 98 58 99 59 100 60 101
REMARK H PARENT 84 51 50 62
REMARK Flexibility Score: inf
ROOT
ATOM      1  C   UNL A   1      41.305  34.485  31.802  1.00  0.00     0.188 C 
ENDROOT
BRANCH   1   2
ATOM      2  C   UNL A   1      41.161  34.661  30.276  1.00  0.00     0.188 C 
BRANCH   2   3
ATOM      3  O   UNL A   1      42.309  35.232  29.684  1.00  0.00    -0.376 OA
BRANCH   3   4
ATOM      4  C   UNL A   1      42.400  35.180  28.271  1.00  0.00     0.202 C 
BRANCH   4   5
ATOM      5  C   UNL A   1      43.114  36.307  27.497  1.00  0.00     0.261 C 
BRANCH   5   6
ATOM      6  O   UNL A   1      44.336  36.819  28.054  1.00  0.00    -0.460 OA
BRANCH   6   7
ATOM      7  C   UNL A   1      44.863  37.944  27.507  1.00  0.00     0.338 C 
ATOM      8  O   UNL A   1      45.688  37.963  26.608  1.00  0.00    -0.246 OA
BRANCH   7   9
ATOM      9  C   UNL A   1      44.221  39.179  28.085  1.00  0.00     0.067 C 
ATOM     10  C   UNL A   1      44.398  39.473  29.398  1.00  0.00     0.024 C 
BRANCH  10  11
ATOM     11  C   UNL A   1      44.002  40.697  30.146  1.00  0.00    -0.025 A 
ATOM     12  C   UNL A   1      43.573  42.870  31.880  1.00  0.00     0.067 A 
ATOM     13  C   UNL A   1      44.163  43.084  30.638  1.00  0.00     0.021 A 
ATOM     14  C   UNL A   1      43.077  41.610  32.215  1.00  0.00     0.021 A 
ATOM     15  C   UNL A   1      44.334  42.005  29.764  1.00  0.00     0.009 A 
ATOM     16  C   UNL A   1      43.298  40.530  31.351  1.00  0.00     0.009 A 
BRANCH  12  17
ATOM     17  S   UNL A   1      43.489  44.185  33.070  1.00  0.00     0.175 S 
ATOM     18  C   UNL A   1      42.416  43.540  34.330  1.00  0.00     0.163 C 
ATOM     19  O   UNL A   1      42.816  45.299  32.429  1.00  0.00    -0.224 OA
ATOM     20  O   UNL A   1      44.803  44.343  33.662  1.00  0.00    -0.224 OA
ENDBRANCH  12  17
ENDBRANCH  10  11
BRANCH   9  21
ATOM     21  C   UNL A   1      43.434  40.037  27.173  1.00  0.00    -0.011 A 
ATOM     22  C   UNL A   1      44.105  40.904  26.290  1.00  0.00     0.012 A 
ATOM     23  C   UNL A   1      42.041  39.906  27.074  1.00  0.00     0.012 A 
ATOM     24  C   UNL A   1      43.401  41.594  25.303  1.00  0.00     0.040 A 
ATOM     25  C   UNL A   1      41.343  40.591  26.076  1.00  0.00     0.040 A 
ATOM     26  C   UNL A   1      42.029  41.421  25.198  1.00  0.00     0.123 A 
ATOM     27  F   UNL A   1      41.361  42.038  24.216  1.00  0.00    -0.207 F 
ENDBRANCH   9  21
ENDBRANCH   7   9
ENDBRANCH   6   7
ENDBRANCH   5   6
ENDBRANCH   4   5
ENDBRANCH   3   4
ENDBRANCH   2   3
ENDBRANCH   1   2
BRANCH   1  28
ATOM     28  O   UNL A   1      40.154  34.302  32.616  1.00  0.00    -0.376 OA
BRANCH  28  29
ATOM     29  C   UNL A   1      38.879  34.182  32.003  1.00  0.00     0.202 C 
BRANCH  29  30
ATOM     30  C   UNL A   1      37.873  33.110  32.468  1.00  0.00     0.261 C 
BRANCH  30  31
ATOM     31  O   UNL A   1      37.261  32.306  31.449  1.00  0.00    -0.460 OA
BRANCH  31  32
ATOM     32  C   UNL A   1      37.296  30.964  31.667  1.00  0.00     0.338 C 
ATOM     33  O   UNL A   1      36.451  30.288  32.211  1.00  0.00    -0.246 OA
BRANCH  32  34
ATOM     34  C   UNL A   1      38.468  30.392  30.962  1.00  0.00     0.060 A 
ATOM     35  C   UNL A   1      39.490  29.810  31.727  1.00  0.00     0.016 A 
ATOM     36  C   UNL A   1      38.583  30.462  29.573  1.00  0.00     0.016 A 
ATOM     37  C   UNL A   1      40.632  29.304  31.107  1.00  0.00     0.010 A 
ATOM     38  C   UNL A   1      39.745  29.982  28.954  1.00  0.00     0.010 A 
ATOM     39  C   UNL A   1      40.783  29.420  29.719  1.00  0.00    -0.014 A 
BRANCH  39  40
ATOM     40  C   UNL A   1      42.094  29.117  29.094  1.00  0.00     0.031 A 
ATOM     41  C   UNL A   1      42.340  27.726  28.577  1.00  0.00     0.074 A 
ATOM     42  C   UNL A   1      43.045  30.060  28.971  1.00  0.00     0.049 A 
ATOM     43  N   UNL A   1      43.416  27.221  28.032  1.00  0.00    -0.248 NA
ATOM     44  C   UNL A   1      41.220  26.778  28.695  1.00  0.00     0.031 C 
ATOM     45  C   UNL A   1      42.915  31.451  29.398  1.00  0.00     0.029 A 
ATOM     46  N   UNL A   1      44.314  29.984  28.452  1.00  0.00    -0.354 N 
ATOM     47  C   UNL A   1      43.108  25.896  27.749  1.00  0.00     0.074 A 
ATOM     48  C   UNL A   1      41.752  25.670  28.203  1.00  0.00     0.031 C 
ATOM     49  C   UNL A   1      44.060  32.100  29.122  1.00  0.00     0.029 A 
ATOM     50  C   UNL A   1      45.020  31.161  28.542  1.00  0.00     0.049 A 
ATOM     51  H   UNL A   1      44.683  29.164  28.052  1.00  0.00     0.167 HD
ATOM     52  C   UNL A   1      43.884  24.952  27.164  1.00  0.00     0.037 A 
ATOM     53  C   UNL A   1      46.301  31.438  28.220  1.00  0.00     0.037 A 
ATOM     54  C   UNL A   1      45.240  25.174  26.734  1.00  0.00     0.049 A 
ATOM     55  C   UNL A   1      47.172  30.348  27.643  1.00  0.00     0.074 A 
ATOM     56  C   UNL A   1      46.107  24.281  26.129  1.00  0.00     0.029 A 
ATOM     57  N   UNL A   1      45.933  26.367  26.877  1.00  0.00    -0.354 N 
ATOM     58  N   UNL A   1      46.865  29.104  27.363  1.00  0.00    -0.248 NA
ATOM     59  C   UNL A   1      48.569  30.700  27.346  1.00  0.00     0.031 C 
ATOM     60  C   UNL A   1      47.342  24.916  25.960  1.00  0.00     0.029 A 
ATOM     61  C   UNL A   1      47.226  26.225  26.399  1.00  0.00     0.049 A 
ATOM     62  H   UNL A   1      45.560  27.194  27.260  1.00  0.00     0.167 HD
ATOM     63  C   UNL A   1      48.019  28.535  26.829  1.00  0.00     0.074 A 
ATOM     64  C   UNL A   1      49.027  29.573  26.817  1.00  0.00     0.031 C 
ATOM     65  C   UNL A   1      48.223  27.269  26.385  1.00  0.00     0.037 A 
BRANCH  52  66
ATOM     66  C   UNL A   1      43.294  23.579  26.997  1.00  0.00     0.058 A 
ATOM     67  C   UNL A   1      43.242  22.659  28.057  1.00  0.00     0.135 A 
ATOM     68  C   UNL A   1      42.760  23.182  25.759  1.00  0.00     0.135 A 
ATOM     69  F   UNL A   1      43.755  22.978  29.255  1.00  0.00    -0.206 F 
ATOM     70  C   UNL A   1      42.713  21.383  27.887  1.00  0.00     0.059 A 
ATOM     71  C   UNL A   1      42.200  21.922  25.575  1.00  0.00     0.059 A 
ATOM     72  F   UNL A   1      42.787  24.020  24.712  1.00  0.00    -0.206 F 
ATOM     73  C   UNL A   1      42.197  21.024  26.641  1.00  0.00     0.060 A 
BRANCH  73  74
ATOM     74  S   UNL A   1      41.525  19.361  26.433  1.00  0.00     0.124 S 
ATOM     75  O   UNL A   1      42.585  18.713  25.667  1.00  0.00    -0.237 OA
ATOM     76  O   UNL A   1      41.374  18.911  27.813  1.00  0.00    -0.237 OA
ATOM     77  O   UNL A   1      40.277  19.586  25.710  1.00  0.00    -0.744 OA
ENDBRANCH  73  74
ENDBRANCH  52  66
BRANCH  53  78
ATOM     78  C   UNL A   1      46.851  32.802  28.454  1.00  0.00     0.058 A 
ATOM     79  C   UNL A   1      46.854  33.769  27.437  1.00  0.00     0.135 A 
ATOM     80  C   UNL A   1      47.395  33.163  29.698  1.00  0.00     0.135 A 
ATOM     81  F   UNL A   1      46.364  33.468  26.226  1.00  0.00    -0.206 F 
ATOM     82  C   UNL A   1      47.385  35.038  27.640  1.00  0.00     0.059 A 
ATOM     83  C   UNL A   1      47.905  34.436  29.933  1.00  0.00     0.059 A 
ATOM     84  F   UNL A   1      47.414  32.278  30.706  1.00  0.00    -0.206 F 
ATOM     85  C   UNL A   1      47.904  35.365  28.893  1.00  0.00     0.060 A 
BRANCH  85  86
ATOM     86  S   UNL A   1      48.545  37.033  29.161  1.00  0.00     0.124 S 
ATOM     87  O   UNL A   1      49.796  36.759  29.859  1.00  0.00    -0.237 OA
ATOM     88  O   UNL A   1      48.672  37.534  27.795  1.00  0.00    -0.237 OA
ATOM     89  O   UNL A   1      47.502  37.670  29.959  1.00  0.00    -0.744 OA
ENDBRANCH  85  86
ENDBRANCH  53  78
BRANCH  65  90
ATOM     90  C   UNL A   1      49.575  26.934  25.809  1.00  0.00     0.058 A 
ATOM     91  C   UNL A   1      49.895  27.187  24.466  1.00  0.00     0.135 A 
ATOM     92  C   UNL A   1      50.585  26.411  26.633  1.00  0.00     0.135 A 
ATOM     93  F   UNL A   1      48.966  27.682  23.631  1.00  0.00    -0.206 F 
ATOM     94  C   UNL A   1      51.160  26.912  23.955  1.00  0.00     0.059 A 
ATOM     95  C   UNL A   1      51.867  26.158  26.152  1.00  0.00     0.059 A 
ATOM     96  F   UNL A   1      50.340  26.161  27.929  1.00  0.00    -0.206 F 
ATOM     97  C   UNL A   1      52.141  26.401  24.807  1.00  0.00     0.060 A 
BRANCH  97  98
ATOM     98  S   UNL A   1      53.790  26.086  24.141  1.00  0.00     0.124 S 
ATOM     99  O   UNL A   1      54.543  27.219  24.669  1.00  0.00    -0.237 OA
ATOM    100  O   UNL A   1      54.116  24.785  24.717  1.00  0.00    -0.237 OA
ATOM    101  O   UNL A   1      53.581  26.089  22.696  1.00  0.00    -0.744 OA
ENDBRANCH  97  98
ENDBRANCH  65  90
ENDBRANCH  39  40
ENDBRANCH  32  34
ENDBRANCH  31  32
ENDBRANCH  30  31
ENDBRANCH  29  30
ENDBRANCH  28  29
ENDBRANCH   1  28
TORSDOF 23
ENDMDL
