MODEL 1
REMARK VINA RESULT:      -9.3      0.000      0.000
REMARK SMILES Cc1sc(NC(=O)[C@@H]2[C@@H](C(=O)OCCOCCOCCOC(=O)c3ccc(-c4c5nc(c(-c6c(F)cc(S(=O)(=O)[O-])cc6F)c6ccc([nH]6)c(-c6c(F)cc(S(=O)(=O)[O-])cc6F)c6nc(c(-c7c(F)cc(S(=O)(=O)[O-])cc7F)c7ccc4[nH]7)C=C6)C=C5)cc3)[C@@H]3C=C[C@H]2C3)c(C#N)c1C
REMARK SMILES IDX 16 1 15 2 14 3 13 4 12 5 10 6 11 7 9 8 8 9 93 10 90 11 92 12
REMARK SMILES IDX 94 13 91 14 6 15 5 16 7 18 4 19 1 20 2 21 3 22 98 23 95 24
REMARK SMILES IDX 99 25 96 26 97 27 17 28 18 29 19 30 20 31 21 32 22 33 23 34
REMARK SMILES IDX 24 35 25 36 89 37 26 38 88 39 27 40 28 41 29 42 82 43 30 44
REMARK SMILES IDX 87 45 81 46 83 47 31 48 86 49 80 50 79 51 32 53 66 54 45 55
REMARK SMILES IDX 65 56 46 57 49 58 64 59 84 60 47 61 48 62 63 64 85 65 50 66
REMARK SMILES IDX 33 67 34 68 43 69 35 70 36 71 42 72 44 73 37 74 38 75 39 76
REMARK SMILES IDX 40 77 41 78 67 79 68 80 77 81 69 82 70 83 76 84 78 85 71 86
REMARK SMILES IDX 72 87 73 88 74 89 75 90 51 91 52 92 61 93 53 94 54 95 60 96
REMARK SMILES IDX 62 97 55 98 56 99 57 100 58 101 59 102
REMARK H PARENT 5 17 83 52 49 63
REMARK Flexibility Score: inf
ROOT
ATOM      1  C   UNL A   1      33.110  30.688  27.007  1.00  0.00     0.188 C 
ENDROOT
BRANCH   1   2
ATOM      2  O   UNL A   1      32.262  29.553  26.992  1.00  0.00    -0.376 OA
BRANCH   2   3
ATOM      3  C   UNL A   1      32.289  28.721  25.843  1.00  0.00     0.202 C 
BRANCH   3   4
ATOM      4  C   UNL A   1      33.517  27.824  25.539  1.00  0.00     0.261 C 
BRANCH   4   5
ATOM      5  O   UNL A   1      33.389  26.392  25.755  1.00  0.00    -0.463 OA
BRANCH   5   6
ATOM      6  C   UNL A   1      33.847  25.597  24.750  1.00  0.00     0.310 C 
ATOM      7  O   UNL A   1      34.073  26.051  23.631  1.00  0.00    -0.252 OA
BRANCH   6   8
ATOM      8  C   UNL A   1      34.067  24.096  25.148  1.00  0.00     0.119 C 
ATOM      9  C   UNL A   1      34.232  23.528  26.712  1.00  0.00     0.100 C 
ATOM     10  C   UNL A   1      35.720  23.052  26.683  1.00  0.00     0.025 C 
ATOM     11  C   UNL A   1      35.501  23.830  24.586  1.00  0.00     0.027 C 
ATOM     12  C   UNL A   1      35.892  21.892  25.725  1.00  0.00    -0.027 C 
ATOM     13  C   UNL A   1      36.367  24.140  25.817  1.00  0.00     0.017 C 
ATOM     14  C   UNL A   1      35.736  22.357  24.479  1.00  0.00    -0.027 C 
BRANCH   9  15
ATOM     15  C   UNL A   1      33.264  22.373  27.112  1.00  0.00     0.229 C 
ATOM     16  N   UNL A   1      32.654  21.401  26.350  1.00  0.00    -0.316 N 
ATOM     17  H   UNL A   1      31.959  20.956  26.886  1.00  0.00     0.170 HD
ATOM     18  O   UNL A   1      32.937  22.304  28.312  1.00  0.00    -0.274 OA
BRANCH  16  19
ATOM     19  C   UNL A   1      32.689  20.830  25.070  1.00  0.00     0.113 A 
ATOM     20  C   UNL A   1      32.121  17.898  22.559  1.00  0.00     0.057 C 
ATOM     21  C   UNL A   1      32.524  19.151  23.278  1.00  0.00     0.008 A 
ATOM     22  S   UNL A   1      33.409  19.340  24.745  1.00  0.00    -0.122 S 
ATOM     23  C   UNL A   1      32.240  20.393  22.764  1.00  0.00    -0.017 A 
ATOM     24  C   UNL A   1      32.137  21.316  23.870  1.00  0.00     0.090 A 
ATOM     25  C   UNL A   1      31.847  20.549  21.319  1.00  0.00     0.047 C 
BRANCH  24  26
ATOM     26  C   UNL A   1      31.413  22.538  23.732  1.00  0.00     0.103 C 
ATOM     27  N   UNL A   1      30.776  23.503  23.572  1.00  0.00    -0.192 NA
ENDBRANCH  24  26
ENDBRANCH  16  19
ENDBRANCH   9  15
ENDBRANCH   6   8
ENDBRANCH   5   6
ENDBRANCH   4   5
ENDBRANCH   3   4
ENDBRANCH   2   3
ENDBRANCH   1   2
BRANCH   1  28
ATOM     28  C   UNL A   1      34.251  30.807  28.066  1.00  0.00     0.188 C 
BRANCH  28  29
ATOM     29  O   UNL A   1      34.798  32.096  28.169  1.00  0.00    -0.376 OA
BRANCH  29  30
ATOM     30  C   UNL A   1      34.796  32.760  29.414  1.00  0.00     0.202 C 
BRANCH  30  31
ATOM     31  C   UNL A   1      35.616  32.368  30.663  1.00  0.00     0.261 C 
BRANCH  31  32
ATOM     32  O   UNL A   1      35.528  31.072  31.288  1.00  0.00    -0.460 OA
BRANCH  32  33
ATOM     33  C   UNL A   1      36.664  30.373  31.059  1.00  0.00     0.338 C 
ATOM     34  O   UNL A   1      36.901  29.910  29.957  1.00  0.00    -0.246 OA
BRANCH  33  35
ATOM     35  C   UNL A   1      37.541  29.965  32.185  1.00  0.00     0.060 A 
ATOM     36  C   UNL A   1      38.587  30.865  32.465  1.00  0.00     0.016 A 
ATOM     37  C   UNL A   1      37.805  28.604  32.190  1.00  0.00     0.016 A 
ATOM     38  C   UNL A   1      39.897  30.442  32.269  1.00  0.00     0.010 A 
ATOM     39  C   UNL A   1      39.116  28.175  32.011  1.00  0.00     0.010 A 
ATOM     40  C   UNL A   1      40.158  29.102  31.912  1.00  0.00    -0.014 A 
BRANCH  40  41
ATOM     41  C   UNL A   1      41.563  28.633  31.840  1.00  0.00     0.031 A 
ATOM     42  C   UNL A   1      42.148  28.763  33.211  1.00  0.00     0.074 A 
ATOM     43  C   UNL A   1      42.160  28.049  30.758  1.00  0.00     0.049 A 
ATOM     44  N   UNL A   1      43.198  29.432  33.560  1.00  0.00    -0.248 NA
ATOM     45  C   UNL A   1      41.298  28.379  34.368  1.00  0.00     0.031 C 
ATOM     46  C   UNL A   1      41.598  27.910  29.407  1.00  0.00     0.029 A 
ATOM     47  N   UNL A   1      43.355  27.350  30.630  1.00  0.00    -0.354 N 
ATOM     48  C   UNL A   1      43.290  29.241  34.939  1.00  0.00     0.074 A 
ATOM     49  C   UNL A   1      41.985  28.873  35.396  1.00  0.00     0.031 C 
ATOM     50  C   UNL A   1      42.288  26.983  28.701  1.00  0.00     0.029 A 
ATOM     51  C   UNL A   1      43.406  26.502  29.489  1.00  0.00     0.049 A 
ATOM     52  H   UNL A   1      44.098  27.435  31.271  1.00  0.00     0.167 HD
ATOM     53  C   UNL A   1      44.497  28.945  35.487  1.00  0.00     0.037 A 
ATOM     54  C   UNL A   1      44.267  25.462  29.228  1.00  0.00     0.037 A 
ATOM     55  C   UNL A   1      45.552  29.471  34.659  1.00  0.00     0.049 A 
ATOM     56  C   UNL A   1      45.450  25.671  30.090  1.00  0.00     0.074 A 
ATOM     57  C   UNL A   1      45.932  30.728  34.237  1.00  0.00     0.029 A 
ATOM     58  N   UNL A   1      46.097  28.571  33.787  1.00  0.00    -0.354 N 
ATOM     59  N   UNL A   1      46.287  26.654  29.928  1.00  0.00    -0.248 NA
ATOM     60  C   UNL A   1      45.395  25.086  31.415  1.00  0.00     0.031 C 
ATOM     61  C   UNL A   1      46.451  30.550  32.923  1.00  0.00     0.029 A 
ATOM     62  C   UNL A   1      46.481  29.186  32.632  1.00  0.00     0.049 A 
ATOM     63  H   UNL A   1      46.197  27.608  33.967  1.00  0.00     0.167 HD
ATOM     64  C   UNL A   1      46.476  27.136  31.212  1.00  0.00     0.074 A 
ATOM     65  C   UNL A   1      45.965  26.083  32.092  1.00  0.00     0.031 C 
ATOM     66  C   UNL A   1      46.739  28.461  31.408  1.00  0.00     0.037 A 
BRANCH  53  67
ATOM     67  C   UNL A   1      44.693  27.746  36.401  1.00  0.00     0.058 A 
ATOM     68  C   UNL A   1      45.439  27.906  37.584  1.00  0.00     0.135 A 
ATOM     69  C   UNL A   1      44.416  26.399  36.048  1.00  0.00     0.135 A 
ATOM     70  F   UNL A   1      45.805  29.130  37.994  1.00  0.00    -0.206 F 
ATOM     71  C   UNL A   1      45.885  26.819  38.342  1.00  0.00     0.059 A 
ATOM     72  C   UNL A   1      44.804  25.309  36.815  1.00  0.00     0.059 A 
ATOM     73  F   UNL A   1      43.834  26.051  34.897  1.00  0.00    -0.206 F 
ATOM     74  C   UNL A   1      45.554  25.525  37.953  1.00  0.00     0.060 A 
BRANCH  74  75
ATOM     75  S   UNL A   1      46.108  24.124  38.935  1.00  0.00     0.124 S 
ATOM     76  O   UNL A   1      47.444  24.552  39.332  1.00  0.00    -0.237 OA
ATOM     77  O   UNL A   1      45.103  24.091  39.992  1.00  0.00    -0.237 OA
ATOM     78  O   UNL A   1      46.055  23.009  37.994  1.00  0.00    -0.744 OA
ENDBRANCH  74  75
ENDBRANCH  53  67
BRANCH  54  79
ATOM     79  C   UNL A   1      44.044  24.120  28.573  1.00  0.00     0.058 A 
ATOM     80  C   UNL A   1      43.327  23.065  29.202  1.00  0.00     0.135 A 
ATOM     81  C   UNL A   1      44.247  23.950  27.193  1.00  0.00     0.135 A 
ATOM     82  F   UNL A   1      43.060  23.118  30.517  1.00  0.00    -0.206 F 
ATOM     83  C   UNL A   1      42.796  21.967  28.494  1.00  0.00     0.059 A 
ATOM     84  C   UNL A   1      43.731  22.868  26.470  1.00  0.00     0.059 A 
ATOM     85  F   UNL A   1      44.876  24.890  26.475  1.00  0.00    -0.206 F 
ATOM     86  C   UNL A   1      42.981  21.893  27.115  1.00  0.00     0.060 A 
BRANCH  86  87
ATOM     87  S   UNL A   1      42.146  20.610  26.138  1.00  0.00     0.124 S 
ATOM     88  O   UNL A   1      41.966  19.544  27.116  1.00  0.00    -0.237 OA
ATOM     89  O   UNL A   1      40.930  21.288  25.703  1.00  0.00    -0.237 OA
ATOM     90  O   UNL A   1      43.105  20.321  25.074  1.00  0.00    -0.744 OA
ENDBRANCH  86  87
ENDBRANCH  54  79
BRANCH  66  91
ATOM     91  C   UNL A   1      47.249  29.270  30.244  1.00  0.00     0.058 A 
ATOM     92  C   UNL A   1      46.459  29.944  29.295  1.00  0.00     0.135 A 
ATOM     93  C   UNL A   1      48.637  29.477  30.190  1.00  0.00     0.135 A 
ATOM     94  F   UNL A   1      45.119  29.870  29.335  1.00  0.00    -0.206 F 
ATOM     95  C   UNL A   1      47.036  30.765  28.319  1.00  0.00     0.059 A 
ATOM     96  C   UNL A   1      49.225  30.316  29.255  1.00  0.00     0.059 A 
ATOM     97  F   UNL A   1      49.437  28.900  31.101  1.00  0.00    -0.206 F 
ATOM     98  C   UNL A   1      48.422  30.946  28.311  1.00  0.00     0.060 A 
BRANCH  98  99
ATOM     99  S   UNL A   1      49.176  32.046  27.093  1.00  0.00     0.124 S 
ATOM    100  O   UNL A   1      50.122  31.159  26.425  1.00  0.00    -0.237 OA
ATOM    101  O   UNL A   1      48.026  32.466  26.297  1.00  0.00    -0.237 OA
ATOM    102  O   UNL A   1      49.778  33.098  27.908  1.00  0.00    -0.744 OA
ENDBRANCH  98  99
ENDBRANCH  66  91
ENDBRANCH  40  41
ENDBRANCH  33  35
ENDBRANCH  32  33
ENDBRANCH  31  32
ENDBRANCH  30  31
ENDBRANCH  29  30
ENDBRANCH  28  29
ENDBRANCH   1  28
TORSDOF 23
ENDMDL
MODEL 2
REMARK VINA RESULT:      -9.2      5.092      9.495
REMARK SMILES Cc1sc(NC(=O)[C@@H]2[C@@H](C(=O)OCCOCCOCCOC(=O)c3ccc(-c4c5nc(c(-c6c(F)cc(S(=O)(=O)[O-])cc6F)c6ccc([nH]6)c(-c6c(F)cc(S(=O)(=O)[O-])cc6F)c6nc(c(-c7c(F)cc(S(=O)(=O)[O-])cc7F)c7ccc4[nH]7)C=C6)C=C5)cc3)[C@@H]3C=C[C@H]2C3)c(C#N)c1C
REMARK SMILES IDX 16 1 15 2 14 3 13 4 12 5 10 6 11 7 9 8 8 9 93 10 90 11 92 12
REMARK SMILES IDX 94 13 91 14 6 15 5 16 7 18 4 19 1 20 2 21 3 22 98 23 95 24
REMARK SMILES IDX 99 25 96 26 97 27 17 28 18 29 19 30 20 31 21 32 22 33 23 34
REMARK SMILES IDX 24 35 25 36 89 37 26 38 88 39 27 40 28 41 29 42 82 43 30 44
REMARK SMILES IDX 87 45 81 46 83 47 31 48 86 49 80 50 79 51 32 53 66 54 45 55
REMARK SMILES IDX 65 56 46 57 49 58 64 59 84 60 47 61 48 62 63 64 85 65 50 66
REMARK SMILES IDX 33 67 34 68 43 69 35 70 36 71 42 72 44 73 37 74 38 75 39 76
REMARK SMILES IDX 40 77 41 78 67 79 68 80 77 81 69 82 70 83 76 84 78 85 71 86
REMARK SMILES IDX 72 87 73 88 74 89 75 90 51 91 52 92 61 93 53 94 54 95 60 96
REMARK SMILES IDX 62 97 55 98 56 99 57 100 58 101 59 102
REMARK H PARENT 5 17 83 52 49 63
REMARK Flexibility Score: inf
ROOT
ATOM      1  C   UNL A   1      41.159  25.908  27.351  1.00  0.00     0.188 C 
ENDROOT
BRANCH   1   2
ATOM      2  O   UNL A   1      40.305  26.714  28.144  1.00  0.00    -0.376 OA
BRANCH   2   3
ATOM      3  C   UNL A   1      40.191  28.088  27.808  1.00  0.00     0.202 C 
BRANCH   3   4
ATOM      4  C   UNL A   1      38.834  28.828  27.936  1.00  0.00     0.261 C 
BRANCH   4   5
ATOM      5  O   UNL A   1      38.584  29.596  29.145  1.00  0.00    -0.463 OA
BRANCH   5   6
ATOM      6  C   UNL A   1      37.297  29.987  29.344  1.00  0.00     0.310 C 
ATOM      7  O   UNL A   1      36.358  29.364  28.855  1.00  0.00    -0.252 OA
BRANCH   6   8
ATOM      8  C   UNL A   1      37.128  31.261  30.244  1.00  0.00     0.119 C 
ATOM      9  C   UNL A   1      35.686  32.063  30.518  1.00  0.00     0.100 C 
ATOM     10  C   UNL A   1      35.976  33.419  29.796  1.00  0.00     0.025 C 
ATOM     11  C   UNL A   1      37.908  32.334  29.416  1.00  0.00     0.027 C 
ATOM     12  C   UNL A   1      37.089  34.169  30.497  1.00  0.00    -0.027 C 
ATOM     13  C   UNL A   1      36.776  32.946  28.576  1.00  0.00     0.017 C 
ATOM     14  C   UNL A   1      38.233  33.505  30.288  1.00  0.00    -0.027 C 
BRANCH   9  15
ATOM     15  C   UNL A   1      35.311  32.274  32.016  1.00  0.00     0.229 C 
ATOM     16  N   UNL A   1      36.062  32.141  33.163  1.00  0.00    -0.316 N 
ATOM     17  H   UNL A   1      35.466  32.160  33.946  1.00  0.00     0.170 HD
ATOM     18  O   UNL A   1      34.129  32.586  32.260  1.00  0.00    -0.274 OA
BRANCH  16  19
ATOM     19  C   UNL A   1      37.387  31.988  33.593  1.00  0.00     0.113 A 
ATOM     20  C   UNL A   1      40.276  32.450  36.175  1.00  0.00     0.057 C 
ATOM     21  C   UNL A   1      39.414  32.204  34.973  1.00  0.00     0.008 A 
ATOM     22  S   UNL A   1      38.323  33.269  34.167  1.00  0.00    -0.122 S 
ATOM     23  C   UNL A   1      39.448  31.006  34.301  1.00  0.00    -0.017 A 
ATOM     24  C   UNL A   1      38.161  30.815  33.674  1.00  0.00     0.090 A 
ATOM     25  C   UNL A   1      40.584  30.043  34.516  1.00  0.00     0.047 C 
BRANCH  24  26
ATOM     26  C   UNL A   1      37.716  29.508  33.311  1.00  0.00     0.103 C 
ATOM     27  N   UNL A   1      37.400  28.442  32.957  1.00  0.00    -0.192 NA
ENDBRANCH  24  26
ENDBRANCH  16  19
ENDBRANCH   9  15
ENDBRANCH   6   8
ENDBRANCH   5   6
ENDBRANCH   4   5
ENDBRANCH   3   4
ENDBRANCH   2   3
ENDBRANCH   1   2
BRANCH   1  28
ATOM     28  C   UNL A   1      40.742  24.452  26.971  1.00  0.00     0.188 C 
BRANCH  28  29
ATOM     29  O   UNL A   1      40.810  23.544  28.041  1.00  0.00    -0.376 OA
BRANCH  29  30
ATOM     30  C   UNL A   1      41.723  22.470  27.991  1.00  0.00     0.202 C 
BRANCH  30  31
ATOM     31  C   UNL A   1      41.624  21.224  27.083  1.00  0.00     0.261 C 
BRANCH  31  32
ATOM     32  O   UNL A   1      41.893  21.258  25.667  1.00  0.00    -0.460 OA
BRANCH  32  33
ATOM     33  C   UNL A   1      43.163  20.859  25.431  1.00  0.00     0.338 C 
ATOM     34  O   UNL A   1      43.529  19.735  25.726  1.00  0.00    -0.246 OA
BRANCH  33  35
ATOM     35  C   UNL A   1      44.199  21.837  25.012  1.00  0.00     0.060 A 
ATOM     36  C   UNL A   1      45.404  21.754  25.735  1.00  0.00     0.016 A 
ATOM     37  C   UNL A   1      43.669  23.085  24.726  1.00  0.00     0.016 A 
ATOM     38  C   UNL A   1      45.774  22.831  26.533  1.00  0.00     0.010 A 
ATOM     39  C   UNL A   1      44.048  24.169  25.510  1.00  0.00     0.010 A 
ATOM     40  C   UNL A   1      45.008  24.017  26.515  1.00  0.00    -0.014 A 
BRANCH  40  41
ATOM     41  C   UNL A   1      45.490  25.201  27.267  1.00  0.00     0.031 A 
ATOM     42  C   UNL A   1      44.929  25.109  28.651  1.00  0.00     0.074 A 
ATOM     43  C   UNL A   1      46.400  26.118  26.822  1.00  0.00     0.049 A 
ATOM     44  N   UNL A   1      44.194  25.980  29.263  1.00  0.00    -0.248 NA
ATOM     45  C   UNL A   1      44.908  23.775  29.305  1.00  0.00     0.031 C 
ATOM     46  C   UNL A   1      46.964  26.220  25.468  1.00  0.00     0.029 A 
ATOM     47  N   UNL A   1      47.115  27.106  27.490  1.00  0.00    -0.354 N 
ATOM     48  C   UNL A   1      43.929  25.400  30.504  1.00  0.00     0.074 A 
ATOM     49  C   UNL A   1      44.116  23.990  30.352  1.00  0.00     0.031 C 
ATOM     50  C   UNL A   1      48.077  26.991  25.476  1.00  0.00     0.029 A 
ATOM     51  C   UNL A   1      48.289  27.529  26.804  1.00  0.00     0.049 A 
ATOM     52  H   UNL A   1      46.836  27.477  28.357  1.00  0.00     0.167 HD
ATOM     53  C   UNL A   1      44.045  26.157  31.626  1.00  0.00     0.037 A 
ATOM     54  C   UNL A   1      49.366  28.229  27.295  1.00  0.00     0.037 A 
ATOM     55  C   UNL A   1      43.827  27.544  31.305  1.00  0.00     0.049 A 
ATOM     56  C   UNL A   1      48.902  28.905  28.525  1.00  0.00     0.074 A 
ATOM     57  C   UNL A   1      42.779  28.278  30.789  1.00  0.00     0.029 A 
ATOM     58  N   UNL A   1      44.967  28.268  31.096  1.00  0.00    -0.354 N 
ATOM     59  N   UNL A   1      48.034  29.874  28.524  1.00  0.00    -0.248 NA
ATOM     60  C   UNL A   1      49.025  28.155  29.760  1.00  0.00     0.031 C 
ATOM     61  C   UNL A   1      43.380  29.300  30.001  1.00  0.00     0.029 A 
ATOM     62  C   UNL A   1      44.764  29.233  30.154  1.00  0.00     0.049 A 
ATOM     63  H   UNL A   1      45.821  28.114  31.562  1.00  0.00     0.167 HD
ATOM     64  C   UNL A   1      47.163  29.534  29.545  1.00  0.00     0.074 A 
ATOM     65  C   UNL A   1      47.868  28.511  30.320  1.00  0.00     0.031 C 
ATOM     66  C   UNL A   1      45.849  29.895  29.466  1.00  0.00     0.037 A 
BRANCH  53  67
ATOM     67  C   UNL A   1      44.885  25.712  32.813  1.00  0.00     0.058 A 
ATOM     68  C   UNL A   1      46.253  25.445  32.617  1.00  0.00     0.135 A 
ATOM     69  C   UNL A   1      44.366  25.278  34.060  1.00  0.00     0.135 A 
ATOM     70  F   UNL A   1      46.847  25.763  31.456  1.00  0.00    -0.206 F 
ATOM     71  C   UNL A   1      47.035  24.790  33.574  1.00  0.00     0.059 A 
ATOM     72  C   UNL A   1      45.135  24.674  35.045  1.00  0.00     0.059 A 
ATOM     73  F   UNL A   1      43.067  25.330  34.368  1.00  0.00    -0.206 F 
ATOM     74  C   UNL A   1      46.467  24.417  34.789  1.00  0.00     0.060 A 
BRANCH  74  75
ATOM     75  S   UNL A   1      47.472  23.592  36.031  1.00  0.00     0.124 S 
ATOM     76  O   UNL A   1      47.783  24.692  36.936  1.00  0.00    -0.237 OA
ATOM     77  O   UNL A   1      46.545  22.586  36.537  1.00  0.00    -0.237 OA
ATOM     78  O   UNL A   1      48.597  23.069  35.262  1.00  0.00    -0.744 OA
ENDBRANCH  74  75
ENDBRANCH  53  67
BRANCH  54  79
ATOM     79  C   UNL A   1      50.846  28.108  27.018  1.00  0.00     0.058 A 
ATOM     80  C   UNL A   1      51.706  29.236  26.919  1.00  0.00     0.135 A 
ATOM     81  C   UNL A   1      51.507  26.877  27.165  1.00  0.00     0.135 A 
ATOM     82  F   UNL A   1      51.192  30.470  26.787  1.00  0.00    -0.206 F 
ATOM     83  C   UNL A   1      53.109  29.146  27.030  1.00  0.00     0.059 A 
ATOM     84  C   UNL A   1      52.897  26.763  27.275  1.00  0.00     0.059 A 
ATOM     85  F   UNL A   1      50.811  25.741  27.306  1.00  0.00    -0.206 F 
ATOM     86  C   UNL A   1      53.695  27.899  27.237  1.00  0.00     0.060 A 
BRANCH  86  87
ATOM     87  S   UNL A   1      55.472  27.760  27.587  1.00  0.00     0.124 S 
ATOM     88  O   UNL A   1      55.919  29.144  27.477  1.00  0.00    -0.237 OA
ATOM     89  O   UNL A   1      55.485  27.192  28.931  1.00  0.00    -0.237 OA
ATOM     90  O   UNL A   1      55.953  26.867  26.536  1.00  0.00    -0.744 OA
ENDBRANCH  86  87
ENDBRANCH  54  79
BRANCH  66  91
ATOM     91  C   UNL A   1      45.468  31.006  28.523  1.00  0.00     0.058 A 
ATOM     92  C   UNL A   1      45.610  32.384  28.766  1.00  0.00     0.135 A 
ATOM     93  C   UNL A   1      45.064  30.618  27.235  1.00  0.00     0.135 A 
ATOM     94  F   UNL A   1      46.078  32.833  29.942  1.00  0.00    -0.206 F 
ATOM     95  C   UNL A   1      45.332  33.331  27.774  1.00  0.00     0.059 A 
ATOM     96  C   UNL A   1      44.820  31.538  26.226  1.00  0.00     0.059 A 
ATOM     97  F   UNL A   1      44.960  29.314  26.929  1.00  0.00    -0.206 F 
ATOM     98  C   UNL A   1      44.940  32.895  26.505  1.00  0.00     0.060 A 
BRANCH  98  99
ATOM     99  S   UNL A   1      44.632  34.102  25.197  1.00  0.00     0.124 S 
ATOM    100  O   UNL A   1      44.207  33.252  24.090  1.00  0.00    -0.237 OA
ATOM    101  O   UNL A   1      43.594  34.944  25.786  1.00  0.00    -0.237 OA
ATOM    102  O   UNL A   1      45.927  34.754  25.020  1.00  0.00    -0.744 OA
ENDBRANCH  98  99
ENDBRANCH  66  91
ENDBRANCH  40  41
ENDBRANCH  33  35
ENDBRANCH  32  33
ENDBRANCH  31  32
ENDBRANCH  30  31
ENDBRANCH  29  30
ENDBRANCH  28  29
ENDBRANCH   1  28
TORSDOF 23
ENDMDL
MODEL 3
REMARK VINA RESULT:      -9.1     10.089     16.440
REMARK SMILES Cc1sc(NC(=O)[C@@H]2[C@@H](C(=O)OCCOCCOCCOC(=O)c3ccc(-c4c5nc(c(-c6c(F)cc(S(=O)(=O)[O-])cc6F)c6ccc([nH]6)c(-c6c(F)cc(S(=O)(=O)[O-])cc6F)c6nc(c(-c7c(F)cc(S(=O)(=O)[O-])cc7F)c7ccc4[nH]7)C=C6)C=C5)cc3)[C@@H]3C=C[C@H]2C3)c(C#N)c1C
REMARK SMILES IDX 16 1 15 2 14 3 13 4 12 5 10 6 11 7 9 8 8 9 93 10 90 11 92 12
REMARK SMILES IDX 94 13 91 14 6 15 5 16 7 18 4 19 1 20 2 21 3 22 98 23 95 24
REMARK SMILES IDX 99 25 96 26 97 27 17 28 18 29 19 30 20 31 21 32 22 33 23 34
REMARK SMILES IDX 24 35 25 36 89 37 26 38 88 39 27 40 28 41 29 42 82 43 30 44
REMARK SMILES IDX 87 45 81 46 83 47 31 48 86 49 80 50 79 51 32 53 66 54 45 55
REMARK SMILES IDX 65 56 46 57 49 58 64 59 84 60 47 61 48 62 63 64 85 65 50 66
REMARK SMILES IDX 33 67 34 68 43 69 35 70 36 71 42 72 44 73 37 74 38 75 39 76
REMARK SMILES IDX 40 77 41 78 67 79 68 80 77 81 69 82 70 83 76 84 78 85 71 86
REMARK SMILES IDX 72 87 73 88 74 89 75 90 51 91 52 92 61 93 53 94 54 95 60 96
REMARK SMILES IDX 62 97 55 98 56 99 57 100 58 101 59 102
REMARK H PARENT 5 17 83 52 49 63
REMARK Flexibility Score: inf
ROOT
ATOM      1  C   UNL A   1      45.516  42.619  29.317  1.00  0.00     0.188 C 
ENDROOT
BRANCH   1   2
ATOM      2  O   UNL A   1      44.979  42.809  28.020  1.00  0.00    -0.376 OA
BRANCH   2   3
ATOM      3  C   UNL A   1      45.261  44.031  27.358  1.00  0.00     0.202 C 
BRANCH   3   4
ATOM      4  C   UNL A   1      45.453  44.076  25.819  1.00  0.00     0.261 C 
BRANCH   4   5
ATOM      5  O   UNL A   1      44.280  43.903  24.978  1.00  0.00    -0.463 OA
BRANCH   5   6
ATOM      6  C   UNL A   1      44.197  42.722  24.309  1.00  0.00     0.310 C 
ATOM      7  O   UNL A   1      44.140  41.651  24.910  1.00  0.00    -0.252 OA
BRANCH   6   8
ATOM      8  C   UNL A   1      44.165  42.852  22.746  1.00  0.00     0.119 C 
ATOM      9  C   UNL A   1      44.133  44.294  21.900  1.00  0.00     0.100 C 
ATOM     10  C   UNL A   1      42.708  44.216  21.263  1.00  0.00     0.025 C 
ATOM     11  C   UNL A   1      42.747  42.285  22.414  1.00  0.00     0.027 C 
ATOM     12  C   UNL A   1      42.627  43.071  20.274  1.00  0.00    -0.027 C 
ATOM     13  C   UNL A   1      41.906  43.571  22.400  1.00  0.00     0.017 C 
ATOM     14  C   UNL A   1      42.675  41.924  20.964  1.00  0.00    -0.027 C 
BRANCH   9  15
ATOM     15  C   UNL A   1      45.242  44.460  20.816  1.00  0.00     0.229 C 
ATOM     16  N   UNL A   1      45.301  45.266  19.701  1.00  0.00    -0.316 N 
ATOM     17  H   UNL A   1      46.052  44.981  19.132  1.00  0.00     0.170 HD
ATOM     18  O   UNL A   1      46.247  43.732  20.925  1.00  0.00    -0.274 OA
BRANCH  16  19
ATOM     19  C   UNL A   1      44.654  46.356  19.102  1.00  0.00     0.113 A 
ATOM     20  C   UNL A   1      44.620  49.869  17.402  1.00  0.00     0.057 C 
ATOM     21  C   UNL A   1      44.307  48.573  18.091  1.00  0.00     0.008 A 
ATOM     22  S   UNL A   1      44.899  47.953  19.586  1.00  0.00    -0.122 S 
ATOM     23  C   UNL A   1      43.393  47.689  17.570  1.00  0.00    -0.017 A 
ATOM     24  C   UNL A   1      43.756  46.365  18.018  1.00  0.00     0.090 A 
ATOM     25  C   UNL A   1      42.424  48.132  16.507  1.00  0.00     0.047 C 
BRANCH  24  26
ATOM     26  C   UNL A   1      43.317  45.210  17.303  1.00  0.00     0.103 C 
ATOM     27  N   UNL A   1      42.888  44.293  16.722  1.00  0.00    -0.192 NA
ENDBRANCH  24  26
ENDBRANCH  16  19
ENDBRANCH   9  15
ENDBRANCH   6   8
ENDBRANCH   5   6
ENDBRANCH   4   5
ENDBRANCH   3   4
ENDBRANCH   2   3
ENDBRANCH   1   2
BRANCH   1  28
ATOM     28  C   UNL A   1      44.646  41.983  30.447  1.00  0.00     0.188 C 
BRANCH  28  29
ATOM     29  O   UNL A   1      45.125  40.744  30.903  1.00  0.00    -0.376 OA
BRANCH  29  30
ATOM     30  C   UNL A   1      46.324  40.686  31.644  1.00  0.00     0.202 C 
BRANCH  30  31
ATOM     31  C   UNL A   1      46.504  40.072  33.050  1.00  0.00     0.261 C 
BRANCH  31  32
ATOM     32  O   UNL A   1      47.111  38.785  33.276  1.00  0.00    -0.460 OA
BRANCH  32  33
ATOM     33  C   UNL A   1      46.174  37.813  33.192  1.00  0.00     0.338 C 
ATOM     34  O   UNL A   1      46.193  37.006  32.279  1.00  0.00    -0.246 OA
BRANCH  33  35
ATOM     35  C   UNL A   1      44.980  37.833  34.074  1.00  0.00     0.060 A 
ATOM     36  C   UNL A   1      44.963  36.822  35.053  1.00  0.00     0.016 A 
ATOM     37  C   UNL A   1      43.813  38.124  33.385  1.00  0.00     0.016 A 
ATOM     38  C   UNL A   1      43.973  35.849  34.985  1.00  0.00     0.010 A 
ATOM     39  C   UNL A   1      42.812  37.160  33.327  1.00  0.00     0.010 A 
ATOM     40  C   UNL A   1      42.948  35.954  34.020  1.00  0.00    -0.014 A 
BRANCH  40  41
ATOM     41  C   UNL A   1      41.827  34.983  34.047  1.00  0.00     0.031 A 
ATOM     42  C   UNL A   1      42.147  33.904  33.060  1.00  0.00     0.074 A 
ATOM     43  C   UNL A   1      40.777  34.994  34.921  1.00  0.00     0.049 A 
ATOM     44  N   UNL A   1      41.436  33.526  32.048  1.00  0.00    -0.248 NA
ATOM     45  C   UNL A   1      43.549  33.416  32.995  1.00  0.00     0.031 C 
ATOM     46  C   UNL A   1      40.451  36.042  35.898  1.00  0.00     0.029 A 
ATOM     47  N   UNL A   1      39.816  34.033  35.220  1.00  0.00    -0.354 N 
ATOM     48  C   UNL A   1      42.191  32.515  31.451  1.00  0.00     0.074 A 
ATOM     49  C   UNL A   1      43.546  32.707  31.868  1.00  0.00     0.031 C 
ATOM     50  C   UNL A   1      39.583  35.572  36.825  1.00  0.00     0.029 A 
ATOM     51  C   UNL A   1      39.198  34.215  36.489  1.00  0.00     0.049 A 
ATOM     52  H   UNL A   1      39.587  33.296  34.610  1.00  0.00     0.167 HD
ATOM     53  C   UNL A   1      41.574  31.368  31.069  1.00  0.00     0.037 A 
ATOM     54  C   UNL A   1      38.464  33.314  37.225  1.00  0.00     0.037 A 
ATOM     55  C   UNL A   1      40.186  31.628  30.789  1.00  0.00     0.049 A 
ATOM     56  C   UNL A   1      37.997  32.280  36.277  1.00  0.00     0.074 A 
ATOM     57  C   UNL A   1      39.498  32.422  29.895  1.00  0.00     0.029 A 
ATOM     58  N   UNL A   1      39.333  31.353  31.821  1.00  0.00    -0.354 N 
ATOM     59  N   UNL A   1      37.125  32.512  35.340  1.00  0.00    -0.248 NA
ATOM     60  C   UNL A   1      38.881  31.151  36.066  1.00  0.00     0.031 C 
ATOM     61  C   UNL A   1      38.331  32.854  30.586  1.00  0.00     0.029 A 
ATOM     62  C   UNL A   1      38.282  32.222  31.828  1.00  0.00     0.049 A 
ATOM     63  H   UNL A   1      39.461  30.627  32.474  1.00  0.00     0.167 HD
ATOM     64  C   UNL A   1      37.674  31.902  34.224  1.00  0.00     0.074 A 
ATOM     65  C   UNL A   1      38.713  31.015  34.750  1.00  0.00     0.031 C 
ATOM     66  C   UNL A   1      37.436  32.417  32.983  1.00  0.00     0.037 A 
BRANCH  53  67
ATOM     67  C   UNL A   1      42.082  30.000  31.499  1.00  0.00     0.058 A 
ATOM     68  C   UNL A   1      42.227  29.729  32.872  1.00  0.00     0.135 A 
ATOM     69  C   UNL A   1      42.681  29.047  30.636  1.00  0.00     0.135 A 
ATOM     70  F   UNL A   1      41.746  30.584  33.787  1.00  0.00    -0.206 F 
ATOM     71  C   UNL A   1      42.923  28.612  33.347  1.00  0.00     0.059 A 
ATOM     72  C   UNL A   1      43.330  27.904  31.085  1.00  0.00     0.059 A 
ATOM     73  F   UNL A   1      42.756  29.205  29.311  1.00  0.00    -0.206 F 
ATOM     74  C   UNL A   1      43.462  27.701  32.443  1.00  0.00     0.060 A 
BRANCH  74  75
ATOM     75  S   UNL A   1      44.341  26.253  33.048  1.00  0.00     0.124 S 
ATOM     76  O   UNL A   1      44.307  25.380  31.882  1.00  0.00    -0.237 OA
ATOM     77  O   UNL A   1      45.641  26.820  33.390  1.00  0.00    -0.237 OA
ATOM     78  O   UNL A   1      43.534  25.820  34.186  1.00  0.00    -0.744 OA
ENDBRANCH  74  75
ENDBRANCH  53  67
BRANCH  54  79
ATOM     79  C   UNL A   1      38.404  33.052  38.711  1.00  0.00     0.058 A 
ATOM     80  C   UNL A   1      37.281  32.451  39.343  1.00  0.00     0.135 A 
ATOM     81  C   UNL A   1      39.570  33.085  39.495  1.00  0.00     0.135 A 
ATOM     82  F   UNL A   1      36.112  32.349  38.690  1.00  0.00    -0.206 F 
ATOM     83  C   UNL A   1      37.340  31.869  40.627  1.00  0.00     0.059 A 
ATOM     84  C   UNL A   1      39.652  32.517  40.771  1.00  0.00     0.059 A 
ATOM     85  F   UNL A   1      40.709  33.592  39.003  1.00  0.00    -0.206 F 
ATOM     86  C   UNL A   1      38.546  31.884  41.324  1.00  0.00     0.060 A 
BRANCH  86  87
ATOM     87  S   UNL A   1      38.721  30.972  42.885  1.00  0.00     0.124 S 
ATOM     88  O   UNL A   1      40.145  31.110  43.166  1.00  0.00    -0.237 OA
ATOM     89  O   UNL A   1      37.822  31.698  43.776  1.00  0.00    -0.237 OA
ATOM     90  O   UNL A   1      38.285  29.622  42.536  1.00  0.00    -0.744 OA
ENDBRANCH  86  87
ENDBRANCH  54  79
BRANCH  66  91
ATOM     91  C   UNL A   1      36.257  33.338  32.804  1.00  0.00     0.058 A 
ATOM     92  C   UNL A   1      36.173  34.670  33.246  1.00  0.00     0.135 A 
ATOM     93  C   UNL A   1      35.208  32.858  32.001  1.00  0.00     0.135 A 
ATOM     94  F   UNL A   1      37.175  35.231  33.942  1.00  0.00    -0.206 F 
ATOM     95  C   UNL A   1      35.075  35.476  32.924  1.00  0.00     0.059 A 
ATOM     96  C   UNL A   1      34.130  33.652  31.639  1.00  0.00     0.059 A 
ATOM     97  F   UNL A   1      35.258  31.611  31.507  1.00  0.00    -0.206 F 
ATOM     98  C   UNL A   1      34.059  34.956  32.116  1.00  0.00     0.060 A 
BRANCH  98  99
ATOM     99  S   UNL A   1      32.663  36.001  31.646  1.00  0.00     0.124 S 
ATOM    100  O   UNL A   1      32.227  35.384  30.398  1.00  0.00    -0.237 OA
ATOM    101  O   UNL A   1      31.759  35.846  32.782  1.00  0.00    -0.237 OA
ATOM    102  O   UNL A   1      33.259  37.328  31.510  1.00  0.00    -0.744 OA
ENDBRANCH  98  99
ENDBRANCH  66  91
ENDBRANCH  40  41
ENDBRANCH  33  35
ENDBRANCH  32  33
ENDBRANCH  31  32
ENDBRANCH  30  31
ENDBRANCH  29  30
ENDBRANCH  28  29
ENDBRANCH   1  28
TORSDOF 23
ENDMDL
