MODEL 1
REMARK VINA RESULT:      -9.1      0.000      0.000
REMARK SMILES O=C(OCCOCCOCCOC(=O)[C@H]1CC2(CC[NH+](C(=O)c3cccc(O)c3)CC2)CN1C(=O)C1CC1)c1ccc(-c2c3nc(c(-c4c(F)cc(S(=O)(=O)[O-])cc4F)c4ccc([nH]4)c(-c4c(F)cc(S(=O)(=O)[O-])cc4F)c4nc(c(-c5c(F)cc(S(=O)(=O)[O-])cc5F)c5ccc2[nH]5)C=C4)C=C3)cc1
REMARK SMILES IDX 7 1 6 2 5 3 4 4 3 5 2 6 1 7 39 8 40 9 104 10 41 11 103 12
REMARK SMILES IDX 42 13 43 14 44 15 97 16 45 17 102 18 96 19 98 20 46 21
REMARK SMILES IDX 101 22 95 23 94 24 47 26 81 27 60 28 80 29 61 30 64 31 79 32
REMARK SMILES IDX 99 33 62 34 63 35 78 37 100 38 65 39 48 40 49 41 58 42 50 43
REMARK SMILES IDX 51 44 57 45 59 46 52 47 53 48 54 49 55 50 56 51 82 52 83 53
REMARK SMILES IDX 92 54 84 55 85 56 91 57 93 58 86 59 87 60 88 61 89 62 90 63
REMARK SMILES IDX 66 64 67 65 76 66 68 67 69 68 75 69 77 70 70 71 71 72 72 73
REMARK SMILES IDX 73 74 74 75 8 76 9 77 10 78 11 79 12 80 13 81 14 82 15 83
REMARK SMILES IDX 16 84 33 85 17 86 32 87 18 88 31 89 19 90 30 91 20 92 34 94
REMARK SMILES IDX 35 95 36 96 37 97 38 98 21 99 22 100 23 101 24 102 29 103
REMARK SMILES IDX 25 104 27 105 26 106 28 107
REMARK H PARENT 98 25 64 36 20 93 28 108
REMARK Flexibility Score: inf
ROOT
ATOM      1  C   UNL A   1      34.607  33.010  28.433  1.00  0.00     0.188 C 
ENDROOT
BRANCH   1   2
ATOM      2  O   UNL A   1      33.951  31.742  28.472  1.00  0.00    -0.376 OA
BRANCH   2   3
ATOM      3  C   UNL A   1      34.266  30.990  27.297  1.00  0.00     0.202 C 
BRANCH   3   4
ATOM      4  C   UNL A   1      34.673  29.562  27.665  1.00  0.00     0.261 C 
BRANCH   4   5
ATOM      5  O   UNL A   1      36.107  29.441  27.830  1.00  0.00    -0.460 OA
BRANCH   5   6
ATOM      6  C   UNL A   1      36.704  29.372  29.052  1.00  0.00     0.338 C 
ATOM      7  O   UNL A   1      36.091  29.572  30.092  1.00  0.00    -0.246 OA
BRANCH   6   8
ATOM      8  C   UNL A   1      38.187  29.480  29.013  1.00  0.00     0.060 A 
ATOM      9  C   UNL A   1      38.885  29.413  27.812  1.00  0.00     0.016 A 
ATOM     10  C   UNL A   1      38.896  29.663  30.219  1.00  0.00     0.016 A 
ATOM     11  C   UNL A   1      40.258  29.590  27.790  1.00  0.00     0.010 A 
ATOM     12  C   UNL A   1      40.289  29.799  30.211  1.00  0.00     0.010 A 
ATOM     13  C   UNL A   1      40.969  29.720  28.989  1.00  0.00    -0.014 A 
BRANCH  13  14
ATOM     14  C   UNL A   1      42.391  29.330  28.890  1.00  0.00     0.031 A 
ATOM     15  C   UNL A   1      42.634  27.897  28.497  1.00  0.00     0.074 A 
ATOM     16  C   UNL A   1      43.359  30.260  28.828  1.00  0.00     0.049 A 
ATOM     17  N   UNL A   1      43.703  27.342  27.999  1.00  0.00    -0.248 NA
ATOM     18  C   UNL A   1      41.477  26.986  28.602  1.00  0.00     0.031 C 
ATOM     19  C   UNL A   1      43.164  31.695  29.043  1.00  0.00     0.029 A 
ATOM     20  N   UNL A   1      44.682  30.147  28.490  1.00  0.00    -0.354 N 
ATOM     21  C   UNL A   1      43.333  26.036  27.698  1.00  0.00     0.074 A 
ATOM     22  C   UNL A   1      41.953  25.872  28.079  1.00  0.00     0.031 C 
ATOM     23  C   UNL A   1      44.322  32.333  28.798  1.00  0.00     0.029 A 
ATOM     24  C   UNL A   1      45.344  31.352  28.438  1.00  0.00     0.049 A 
ATOM     25  H   UNL A   1      45.118  29.285  28.301  1.00  0.00     0.167 HD
ATOM     26  C   UNL A   1      44.083  25.051  27.157  1.00  0.00     0.037 A 
ATOM     27  C   UNL A   1      46.630  31.615  28.128  1.00  0.00     0.037 A 
ATOM     28  C   UNL A   1      45.479  25.212  26.874  1.00  0.00     0.049 A 
ATOM     29  C   UNL A   1      47.503  30.455  27.709  1.00  0.00     0.074 A 
ATOM     30  C   UNL A   1      46.395  24.262  26.474  1.00  0.00     0.029 A 
ATOM     31  N   UNL A   1      46.165  26.413  27.006  1.00  0.00    -0.354 N 
ATOM     32  N   UNL A   1      47.161  29.208  27.476  1.00  0.00    -0.248 NA
ATOM     33  C   UNL A   1      48.933  30.731  27.520  1.00  0.00     0.031 C 
ATOM     34  C   UNL A   1      47.652  24.876  26.429  1.00  0.00     0.029 A 
ATOM     35  C   UNL A   1      47.505  26.224  26.731  1.00  0.00     0.049 A 
ATOM     36  H   UNL A   1      45.757  27.273  27.258  1.00  0.00     0.167 HD
ATOM     37  C   UNL A   1      48.327  28.553  27.095  1.00  0.00     0.074 A 
ATOM     38  C   UNL A   1      49.381  29.550  27.115  1.00  0.00     0.031 C 
ATOM     39  C   UNL A   1      48.517  27.252  26.760  1.00  0.00     0.037 A 
BRANCH  26  40
ATOM     40  C   UNL A   1      43.415  23.717  26.988  1.00  0.00     0.058 A 
ATOM     41  C   UNL A   1      43.246  22.825  28.061  1.00  0.00     0.135 A 
ATOM     42  C   UNL A   1      43.050  23.278  25.706  1.00  0.00     0.135 A 
ATOM     43  F   UNL A   1      43.623  23.178  29.301  1.00  0.00    -0.206 F 
ATOM     44  C   UNL A   1      42.778  21.528  27.860  1.00  0.00     0.059 A 
ATOM     45  C   UNL A   1      42.559  21.995  25.487  1.00  0.00     0.059 A 
ATOM     46  F   UNL A   1      43.216  24.081  24.645  1.00  0.00    -0.206 F 
ATOM     47  C   UNL A   1      42.449  21.120  26.566  1.00  0.00     0.060 A 
BRANCH  47  48
ATOM     48  S   UNL A   1      41.906  19.417  26.305  1.00  0.00     0.124 S 
ATOM     49  O   UNL A   1      42.615  19.071  25.078  1.00  0.00    -0.237 OA
ATOM     50  O   UNL A   1      42.372  18.753  27.517  1.00  0.00    -0.237 OA
ATOM     51  O   UNL A   1      40.457  19.540  26.179  1.00  0.00    -0.744 OA
ENDBRANCH  47  48
ENDBRANCH  26  40
BRANCH  27  52
ATOM     52  C   UNL A   1      47.171  33.002  28.231  1.00  0.00     0.058 A 
ATOM     53  C   UNL A   1      47.666  33.516  29.438  1.00  0.00     0.135 A 
ATOM     54  C   UNL A   1      47.188  33.855  27.111  1.00  0.00     0.135 A 
ATOM     55  F   UNL A   1      47.668  32.755  30.542  1.00  0.00    -0.206 F 
ATOM     56  C   UNL A   1      48.147  34.820  29.536  1.00  0.00     0.059 A 
ATOM     57  C   UNL A   1      47.687  35.152  27.177  1.00  0.00     0.059 A 
ATOM     58  F   UNL A   1      46.733  33.416  25.926  1.00  0.00    -0.206 F 
ATOM     59  C   UNL A   1      48.158  35.630  28.398  1.00  0.00     0.060 A 
BRANCH  59  60
ATOM     60  S   UNL A   1      48.834  37.300  28.532  1.00  0.00     0.124 S 
ATOM     61  O   UNL A   1      49.150  37.603  27.141  1.00  0.00    -0.237 OA
ATOM     62  O   UNL A   1      47.711  38.033  29.108  1.00  0.00    -0.237 OA
ATOM     63  O   UNL A   1      49.978  37.128  29.420  1.00  0.00    -0.744 OA
ENDBRANCH  59  60
ENDBRANCH  27  52
BRANCH  39  64
ATOM     64  C   UNL A   1      49.904  26.835  26.364  1.00  0.00     0.058 A 
ATOM     65  C   UNL A   1      50.795  26.265  27.286  1.00  0.00     0.135 A 
ATOM     66  C   UNL A   1      50.306  26.919  25.021  1.00  0.00     0.135 A 
ATOM     67  F   UNL A   1      50.455  26.165  28.580  1.00  0.00    -0.206 F 
ATOM     68  C   UNL A   1      52.045  25.805  26.891  1.00  0.00     0.059 A 
ATOM     69  C   UNL A   1      51.538  26.437  24.599  1.00  0.00     0.059 A 
ATOM     70  F   UNL A   1      49.481  27.443  24.100  1.00  0.00    -0.206 F 
ATOM     71  C   UNL A   1      52.404  25.889  25.544  1.00  0.00     0.060 A 
BRANCH  71  72
ATOM     72  S   UNL A   1      54.007  25.235  25.035  1.00  0.00     0.124 S 
ATOM     73  O   UNL A   1      54.245  25.970  23.799  1.00  0.00    -0.237 OA
ATOM     74  O   UNL A   1      54.862  25.594  26.163  1.00  0.00    -0.237 OA
ATOM     75  O   UNL A   1      53.755  23.805  24.879  1.00  0.00    -0.744 OA
ENDBRANCH  71  72
ENDBRANCH  39  64
ENDBRANCH  13  14
ENDBRANCH   6   8
ENDBRANCH   5   6
ENDBRANCH   4   5
ENDBRANCH   3   4
ENDBRANCH   2   3
ENDBRANCH   1   2
BRANCH   1  76
ATOM     76  C   UNL A   1      34.208  33.871  29.642  1.00  0.00     0.188 C 
BRANCH  76  77
ATOM     77  O   UNL A   1      35.144  34.030  30.703  1.00  0.00    -0.376 OA
BRANCH  77  78
ATOM     78  C   UNL A   1      34.809  34.954  31.723  1.00  0.00     0.202 C 
BRANCH  78  79
ATOM     79  C   UNL A   1      35.801  35.047  32.893  1.00  0.00     0.261 C 
BRANCH  79  80
ATOM     80  O   UNL A   1      36.815  34.016  32.911  1.00  0.00    -0.462 OA
BRANCH  80  81
ATOM     81  C   UNL A   1      36.634  33.029  33.848  1.00  0.00     0.328 C 
ATOM     82  O   UNL A   1      35.561  32.747  34.339  1.00  0.00    -0.250 OA
BRANCH  81  83
ATOM     83  C   UNL A   1      37.976  32.325  34.194  1.00  0.00     0.195 C 
ATOM     84  C   UNL A   1      38.988  33.115  33.354  1.00  0.00     0.046 C 
ATOM     85  N   UNL A   1      38.637  32.343  35.525  1.00  0.00    -0.328 N 
ATOM     86  C   UNL A   1      40.374  32.827  33.953  1.00  0.00     0.001 C 
ATOM     87  C   UNL A   1      40.053  32.092  35.255  1.00  0.00     0.128 C 
ATOM     88  C   UNL A   1      41.124  34.126  34.297  1.00  0.00     0.071 C 
ATOM     89  C   UNL A   1      41.216  32.009  32.950  1.00  0.00     0.071 C 
ATOM     90  C   UNL A   1      41.416  34.933  33.044  1.00  0.00     0.271 C 
ATOM     91  C   UNL A   1      41.613  32.845  31.719  1.00  0.00     0.271 C 
ATOM     92  N   UNL A   1      42.199  34.128  32.111  1.00  0.00    -0.267 N 
ATOM     93  H   UNL A   1      41.989  34.118  31.150  1.00  0.00     0.357 HD
BRANCH  85  94
ATOM     94  C   UNL A   1      38.181  31.541  36.568  1.00  0.00     0.226 C 
ATOM     95  O   UNL A   1      38.143  30.321  36.445  1.00  0.00    -0.275 OA
BRANCH  94  96
ATOM     96  C   UNL A   1      37.927  32.195  37.910  1.00  0.00     0.079 C 
ATOM     97  C   UNL A   1      38.223  33.640  38.321  1.00  0.00     0.014 C 
ATOM     98  C   UNL A   1      36.854  33.266  37.912  1.00  0.00     0.014 C 
ENDBRANCH  94  96
ENDBRANCH  85  94
BRANCH  92  99
ATOM     99  C   UNL A   1      43.335  34.578  31.448  1.00  0.00     0.344 C 
ATOM    100  O   UNL A   1      44.482  34.241  31.717  1.00  0.00    -0.226 OA
BRANCH  99 101
ATOM    101  C   UNL A   1      43.159  35.550  30.354  1.00  0.00     0.083 A 
ATOM    102  C   UNL A   1      42.152  35.351  29.400  1.00  0.00     0.018 A 
ATOM    103  C   UNL A   1      43.990  36.669  30.298  1.00  0.00     0.064 A 
ATOM    104  C   UNL A   1      42.006  36.260  28.355  1.00  0.00     0.005 A 
ATOM    105  C   UNL A   1      43.821  37.574  29.259  1.00  0.00     0.116 A 
ATOM    106  C   UNL A   1      42.844  37.376  28.283  1.00  0.00     0.046 A 
BRANCH 105 107
ATOM    107  O   UNL A   1      44.641  38.662  29.223  1.00  0.00    -0.508 OA
ATOM    108  H   UNL A   1      45.342  38.701  28.602  1.00  0.00     0.293 HD
ENDBRANCH 105 107
ENDBRANCH  99 101
ENDBRANCH  92  99
ENDBRANCH  81  83
ENDBRANCH  80  81
ENDBRANCH  79  80
ENDBRANCH  78  79
ENDBRANCH  77  78
ENDBRANCH  76  77
ENDBRANCH   1  76
TORSDOF 25
ENDMDL
MODEL 2
REMARK VINA RESULT:      -8.9      6.608     14.305
REMARK SMILES O=C(OCCOCCOCCOC(=O)[C@H]1CC2(CC[NH+](C(=O)c3cccc(O)c3)CC2)CN1C(=O)C1CC1)c1ccc(-c2c3nc(c(-c4c(F)cc(S(=O)(=O)[O-])cc4F)c4ccc([nH]4)c(-c4c(F)cc(S(=O)(=O)[O-])cc4F)c4nc(c(-c5c(F)cc(S(=O)(=O)[O-])cc5F)c5ccc2[nH]5)C=C4)C=C3)cc1
REMARK SMILES IDX 7 1 6 2 5 3 4 4 3 5 2 6 1 7 39 8 40 9 104 10 41 11 103 12
REMARK SMILES IDX 42 13 43 14 44 15 97 16 45 17 102 18 96 19 98 20 46 21
REMARK SMILES IDX 101 22 95 23 94 24 47 26 81 27 60 28 80 29 61 30 64 31 79 32
REMARK SMILES IDX 99 33 62 34 63 35 78 37 100 38 65 39 48 40 49 41 58 42 50 43
REMARK SMILES IDX 51 44 57 45 59 46 52 47 53 48 54 49 55 50 56 51 82 52 83 53
REMARK SMILES IDX 92 54 84 55 85 56 91 57 93 58 86 59 87 60 88 61 89 62 90 63
REMARK SMILES IDX 66 64 67 65 76 66 68 67 69 68 75 69 77 70 70 71 71 72 72 73
REMARK SMILES IDX 73 74 74 75 8 76 9 77 10 78 11 79 12 80 13 81 14 82 15 83
REMARK SMILES IDX 16 84 33 85 17 86 32 87 18 88 31 89 19 90 30 91 20 92 34 94
REMARK SMILES IDX 35 95 36 96 37 97 38 98 21 99 22 100 23 101 24 102 29 103
REMARK SMILES IDX 25 104 27 105 26 106 28 107
REMARK H PARENT 98 25 64 36 20 93 28 108
REMARK Flexibility Score: inf
ROOT
ATOM      1  C   UNL A   1      39.729  23.847  27.640  1.00  0.00     0.188 C 
ENDROOT
BRANCH   1   2
ATOM      2  O   UNL A   1      41.031  23.630  27.096  1.00  0.00    -0.376 OA
BRANCH   2   3
ATOM      3  C   UNL A   1      41.352  24.666  26.163  1.00  0.00     0.202 C 
BRANCH   3   4
ATOM      4  C   UNL A   1      42.745  25.232  26.444  1.00  0.00     0.261 C 
BRANCH   4   5
ATOM      5  O   UNL A   1      42.987  26.450  25.700  1.00  0.00    -0.460 OA
BRANCH   5   6
ATOM      6  C   UNL A   1      42.284  27.596  25.915  1.00  0.00     0.338 C 
ATOM      7  O   UNL A   1      41.883  28.300  24.998  1.00  0.00    -0.246 OA
BRANCH   6   8
ATOM      8  C   UNL A   1      42.423  28.149  27.290  1.00  0.00     0.060 A 
ATOM      9  C   UNL A   1      41.515  27.827  28.292  1.00  0.00     0.016 A 
ATOM     10  C   UNL A   1      43.503  29.009  27.580  1.00  0.00     0.016 A 
ATOM     11  C   UNL A   1      41.704  28.293  29.582  1.00  0.00     0.010 A 
ATOM     12  C   UNL A   1      43.677  29.519  28.871  1.00  0.00     0.010 A 
ATOM     13  C   UNL A   1      42.745  29.186  29.862  1.00  0.00    -0.014 A 
BRANCH  13  14
ATOM     14  C   UNL A   1      42.511  30.028  31.054  1.00  0.00     0.031 A 
ATOM     15  C   UNL A   1      41.195  30.760  31.071  1.00  0.00     0.074 A 
ATOM     16  C   UNL A   1      43.258  29.879  32.161  1.00  0.00     0.049 A 
ATOM     17  N   UNL A   1      40.547  31.280  32.074  1.00  0.00    -0.248 NA
ATOM     18  C   UNL A   1      40.475  30.836  29.785  1.00  0.00     0.031 C 
ATOM     19  C   UNL A   1      44.464  29.054  32.259  1.00  0.00     0.029 A 
ATOM     20  N   UNL A   1      43.069  30.353  33.433  1.00  0.00    -0.354 N 
ATOM     21  C   UNL A   1      39.333  31.705  31.547  1.00  0.00     0.074 A 
ATOM     22  C   UNL A   1      39.335  31.401  30.139  1.00  0.00     0.031 C 
ATOM     23  C   UNL A   1      44.888  29.053  33.535  1.00  0.00     0.029 A 
ATOM     24  C   UNL A   1      44.003  29.898  34.336  1.00  0.00     0.049 A 
ATOM     25  H   UNL A   1      42.334  30.959  33.678  1.00  0.00     0.167 HD
ATOM     26  C   UNL A   1      38.304  32.309  32.182  1.00  0.00     0.037 A 
ATOM     27  C   UNL A   1      44.113  30.144  35.657  1.00  0.00     0.037 A 
ATOM     28  C   UNL A   1      38.365  32.687  33.563  1.00  0.00     0.049 A 
ATOM     29  C   UNL A   1      43.043  30.990  36.306  1.00  0.00     0.074 A 
ATOM     30  C   UNL A   1      37.468  33.437  34.295  1.00  0.00     0.029 A 
ATOM     31  N   UNL A   1      39.417  32.364  34.411  1.00  0.00    -0.354 N 
ATOM     32  N   UNL A   1      41.920  31.437  35.790  1.00  0.00    -0.248 NA
ATOM     33  C   UNL A   1      43.253  31.374  37.708  1.00  0.00     0.031 C 
ATOM     34  C   UNL A   1      38.013  33.627  35.570  1.00  0.00     0.029 A 
ATOM     35  C   UNL A   1      39.213  32.932  35.653  1.00  0.00     0.049 A 
ATOM     36  H   UNL A   1      40.194  31.812  34.164  1.00  0.00     0.167 HD
ATOM     37  C   UNL A   1      41.280  32.138  36.806  1.00  0.00     0.074 A 
ATOM     38  C   UNL A   1      42.138  32.042  37.973  1.00  0.00     0.031 C 
ATOM     39  C   UNL A   1      40.098  32.803  36.786  1.00  0.00     0.037 A 
BRANCH  26  40
ATOM     40  C   UNL A   1      37.129  32.697  31.331  1.00  0.00     0.058 A 
ATOM     41  C   UNL A   1      36.026  31.845  31.146  1.00  0.00     0.135 A 
ATOM     42  C   UNL A   1      37.166  33.890  30.593  1.00  0.00     0.135 A 
ATOM     43  F   UNL A   1      35.963  30.669  31.792  1.00  0.00    -0.206 F 
ATOM     44  C   UNL A   1      35.024  32.144  30.226  1.00  0.00     0.059 A 
ATOM     45  C   UNL A   1      36.164  34.219  29.687  1.00  0.00     0.059 A 
ATOM     46  F   UNL A   1      38.209  34.725  30.713  1.00  0.00    -0.206 F 
ATOM     47  C   UNL A   1      35.110  33.328  29.492  1.00  0.00     0.060 A 
BRANCH  47  48
ATOM     48  S   UNL A   1      33.841  33.676  28.255  1.00  0.00     0.124 S 
ATOM     49  O   UNL A   1      33.489  32.330  27.813  1.00  0.00    -0.237 OA
ATOM     50  O   UNL A   1      32.826  34.372  29.038  1.00  0.00    -0.237 OA
ATOM     51  O   UNL A   1      34.542  34.496  27.272  1.00  0.00    -0.744 OA
ENDBRANCH  47  48
ENDBRANCH  26  40
BRANCH  27  52
ATOM     52  C   UNL A   1      45.274  29.623  36.436  1.00  0.00     0.058 A 
ATOM     53  C   UNL A   1      46.496  30.310  36.494  1.00  0.00     0.135 A 
ATOM     54  C   UNL A   1      45.187  28.403  37.133  1.00  0.00     0.135 A 
ATOM     55  F   UNL A   1      46.644  31.473  35.843  1.00  0.00    -0.206 F 
ATOM     56  C   UNL A   1      47.586  29.807  37.201  1.00  0.00     0.059 A 
ATOM     57  C   UNL A   1      46.253  27.893  37.868  1.00  0.00     0.059 A 
ATOM     58  F   UNL A   1      44.041  27.704  37.120  1.00  0.00    -0.206 F 
ATOM     59  C   UNL A   1      47.453  28.599  37.890  1.00  0.00     0.060 A 
BRANCH  59  60
ATOM     60  S   UNL A   1      48.861  27.989  38.844  1.00  0.00     0.124 S 
ATOM     61  O   UNL A   1      48.734  28.755  40.079  1.00  0.00    -0.237 OA
ATOM     62  O   UNL A   1      48.562  26.565  38.942  1.00  0.00    -0.237 OA
ATOM     63  O   UNL A   1      50.005  28.324  38.005  1.00  0.00    -0.744 OA
ENDBRANCH  59  60
ENDBRANCH  27  52
BRANCH  39  64
ATOM     64  C   UNL A   1      39.647  33.453  38.063  1.00  0.00     0.058 A 
ATOM     65  C   UNL A   1      38.670  32.870  38.883  1.00  0.00     0.135 A 
ATOM     66  C   UNL A   1      40.277  34.624  38.514  1.00  0.00     0.135 A 
ATOM     67  F   UNL A   1      38.040  31.751  38.493  1.00  0.00    -0.206 F 
ATOM     68  C   UNL A   1      38.322  33.436  40.103  1.00  0.00     0.059 A 
ATOM     69  C   UNL A   1      39.967  35.189  39.744  1.00  0.00     0.059 A 
ATOM     70  F   UNL A   1      41.230  35.209  37.771  1.00  0.00    -0.206 F 
ATOM     71  C   UNL A   1      38.981  34.592  40.528  1.00  0.00     0.060 A 
BRANCH  71  72
ATOM     72  S   UNL A   1      38.559  35.283  42.140  1.00  0.00     0.124 S 
ATOM     73  O   UNL A   1      37.119  35.059  42.187  1.00  0.00    -0.237 OA
ATOM     74  O   UNL A   1      39.359  34.465  43.048  1.00  0.00    -0.237 OA
ATOM     75  O   UNL A   1      38.977  36.677  42.030  1.00  0.00    -0.744 OA
ENDBRANCH  71  72
ENDBRANCH  39  64
ENDBRANCH  13  14
ENDBRANCH   6   8
ENDBRANCH   5   6
ENDBRANCH   4   5
ENDBRANCH   3   4
ENDBRANCH   2   3
ENDBRANCH   1   2
BRANCH   1  76
ATOM     76  C   UNL A   1      38.671  23.890  26.526  1.00  0.00     0.188 C 
BRANCH  76  77
ATOM     77  O   UNL A   1      38.152  22.660  26.031  1.00  0.00    -0.376 OA
BRANCH  77  78
ATOM     78  C   UNL A   1      37.321  22.727  24.886  1.00  0.00     0.202 C 
BRANCH  78  79
ATOM     79  C   UNL A   1      36.490  21.468  24.590  1.00  0.00     0.261 C 
BRANCH  79  80
ATOM     80  O   UNL A   1      35.932  20.821  25.756  1.00  0.00    -0.462 OA
BRANCH  80  81
ATOM     81  C   UNL A   1      34.872  21.472  26.339  1.00  0.00     0.328 C 
ATOM     82  O   UNL A   1      34.951  22.116  27.364  1.00  0.00    -0.250 OA
BRANCH  81  83
ATOM     83  C   UNL A   1      33.568  21.275  25.517  1.00  0.00     0.195 C 
ATOM     84  C   UNL A   1      33.416  22.627  24.810  1.00  0.00     0.046 C 
ATOM     85  N   UNL A   1      33.406  20.338  24.375  1.00  0.00    -0.328 N 
ATOM     86  C   UNL A   1      32.449  22.402  23.637  1.00  0.00     0.001 C 
ATOM     87  C   UNL A   1      32.300  20.881  23.585  1.00  0.00     0.128 C 
ATOM     88  C   UNL A   1      33.053  22.880  22.304  1.00  0.00     0.071 C 
ATOM     89  C   UNL A   1      31.130  23.163  23.894  1.00  0.00     0.071 C 
ATOM     90  C   UNL A   1      33.284  24.380  22.320  1.00  0.00     0.271 C 
ATOM     91  C   UNL A   1      31.323  24.689  23.807  1.00  0.00     0.271 C 
ATOM     92  N   UNL A   1      32.023  25.069  22.579  1.00  0.00    -0.267 N 
ATOM     93  H   UNL A   1      31.979  25.827  23.206  1.00  0.00     0.357 HD
BRANCH  85  94
ATOM     94  C   UNL A   1      33.243  18.970  24.581  1.00  0.00     0.226 C 
ATOM     95  O   UNL A   1      32.148  18.512  24.890  1.00  0.00    -0.275 OA
BRANCH  94  96
ATOM     96  C   UNL A   1      34.394  18.054  24.220  1.00  0.00     0.079 C 
ATOM     97  C   UNL A   1      34.580  16.583  24.604  1.00  0.00     0.014 C 
ATOM     98  C   UNL A   1      34.045  16.924  23.271  1.00  0.00     0.014 C 
ENDBRANCH  94  96
ENDBRANCH  85  94
BRANCH  92  99
ATOM     99  C   UNL A   1      31.564  26.164  21.856  1.00  0.00     0.344 C 
ATOM    100  O   UNL A   1      31.426  26.190  20.638  1.00  0.00    -0.226 OA
BRANCH  99 101
ATOM    101  C   UNL A   1      31.237  27.396  22.595  1.00  0.00     0.083 A 
ATOM    102  C   UNL A   1      32.237  28.060  23.319  1.00  0.00     0.018 A 
ATOM    103  C   UNL A   1      29.936  27.895  22.546  1.00  0.00     0.064 A 
ATOM    104  C   UNL A   1      31.917  29.210  24.036  1.00  0.00     0.005 A 
ATOM    105  C   UNL A   1      29.637  29.053  23.252  1.00  0.00     0.116 A 
ATOM    106  C   UNL A   1      30.613  29.709  24.003  1.00  0.00     0.046 A 
BRANCH 105 107
ATOM    107  O   UNL A   1      28.361  29.526  23.189  1.00  0.00    -0.508 OA
ATOM    108  H   UNL A   1      27.658  29.033  23.565  1.00  0.00     0.293 HD
ENDBRANCH 105 107
ENDBRANCH  99 101
ENDBRANCH  92  99
ENDBRANCH  81  83
ENDBRANCH  80  81
ENDBRANCH  79  80
ENDBRANCH  78  79
ENDBRANCH  77  78
ENDBRANCH  76  77
ENDBRANCH   1  76
TORSDOF 25
ENDMDL
MODEL 3
REMARK VINA RESULT:      -8.8      5.672     11.140
REMARK SMILES O=C(OCCOCCOCCOC(=O)[C@H]1CC2(CC[NH+](C(=O)c3cccc(O)c3)CC2)CN1C(=O)C1CC1)c1ccc(-c2c3nc(c(-c4c(F)cc(S(=O)(=O)[O-])cc4F)c4ccc([nH]4)c(-c4c(F)cc(S(=O)(=O)[O-])cc4F)c4nc(c(-c5c(F)cc(S(=O)(=O)[O-])cc5F)c5ccc2[nH]5)C=C4)C=C3)cc1
REMARK SMILES IDX 7 1 6 2 5 3 4 4 3 5 2 6 1 7 39 8 40 9 104 10 41 11 103 12
REMARK SMILES IDX 42 13 43 14 44 15 97 16 45 17 102 18 96 19 98 20 46 21
REMARK SMILES IDX 101 22 95 23 94 24 47 26 81 27 60 28 80 29 61 30 64 31 79 32
REMARK SMILES IDX 99 33 62 34 63 35 78 37 100 38 65 39 48 40 49 41 58 42 50 43
REMARK SMILES IDX 51 44 57 45 59 46 52 47 53 48 54 49 55 50 56 51 82 52 83 53
REMARK SMILES IDX 92 54 84 55 85 56 91 57 93 58 86 59 87 60 88 61 89 62 90 63
REMARK SMILES IDX 66 64 67 65 76 66 68 67 69 68 75 69 77 70 70 71 71 72 72 73
REMARK SMILES IDX 73 74 74 75 8 76 9 77 10 78 11 79 12 80 13 81 14 82 15 83
REMARK SMILES IDX 16 84 33 85 17 86 32 87 18 88 31 89 19 90 30 91 20 92 34 94
REMARK SMILES IDX 35 95 36 96 37 97 38 98 21 99 22 100 23 101 24 102 29 103
REMARK SMILES IDX 25 104 27 105 26 106 28 107
REMARK H PARENT 98 25 64 36 20 93 28 108
REMARK Flexibility Score: inf
ROOT
ATOM      1  C   UNL A   1      33.908  28.463  26.493  1.00  0.00     0.188 C 
ENDROOT
BRANCH   1   2
ATOM      2  O   UNL A   1      34.677  29.446  27.186  1.00  0.00    -0.376 OA
BRANCH   2   3
ATOM      3  C   UNL A   1      33.917  30.650  27.331  1.00  0.00     0.202 C 
BRANCH   3   4
ATOM      4  C   UNL A   1      34.824  31.813  27.739  1.00  0.00     0.261 C 
BRANCH   4   5
ATOM      5  O   UNL A   1      34.089  33.057  27.827  1.00  0.00    -0.460 OA
BRANCH   5   6
ATOM      6  C   UNL A   1      33.810  33.665  29.013  1.00  0.00     0.338 C 
ATOM      7  O   UNL A   1      33.023  34.597  29.102  1.00  0.00    -0.246 OA
BRANCH   6   8
ATOM      8  C   UNL A   1      34.826  33.427  30.075  1.00  0.00     0.060 A 
ATOM      9  C   UNL A   1      36.082  34.021  30.018  1.00  0.00     0.016 A 
ATOM     10  C   UNL A   1      34.501  32.589  31.163  1.00  0.00     0.016 A 
ATOM     11  C   UNL A   1      36.985  33.846  31.053  1.00  0.00     0.010 A 
ATOM     12  C   UNL A   1      35.425  32.371  32.191  1.00  0.00     0.010 A 
ATOM     13  C   UNL A   1      36.686  32.975  32.108  1.00  0.00    -0.014 A 
BRANCH  13  14
ATOM     14  C   UNL A   1      37.876  32.438  32.800  1.00  0.00     0.031 A 
ATOM     15  C   UNL A   1      38.784  31.593  31.947  1.00  0.00     0.074 A 
ATOM     16  C   UNL A   1      38.273  32.942  33.981  1.00  0.00     0.049 A 
ATOM     17  N   UNL A   1      40.034  31.272  32.128  1.00  0.00    -0.248 NA
ATOM     18  C   UNL A   1      38.222  31.117  30.668  1.00  0.00     0.031 C 
ATOM     19  C   UNL A   1      37.509  33.893  34.790  1.00  0.00     0.029 A 
ATOM     20  N   UNL A   1      39.449  32.784  34.666  1.00  0.00    -0.354 N 
ATOM     21  C   UNL A   1      40.412  30.596  30.974  1.00  0.00     0.074 A 
ATOM     22  C   UNL A   1      39.264  30.536  30.104  1.00  0.00     0.031 C 
ATOM     23  C   UNL A   1      38.253  34.260  35.848  1.00  0.00     0.029 A 
ATOM     24  C   UNL A   1      39.531  33.550  35.806  1.00  0.00     0.049 A 
ATOM     25  H   UNL A   1      40.168  32.180  34.371  1.00  0.00     0.167 HD
ATOM     26  C   UNL A   1      41.614  30.060  30.667  1.00  0.00     0.037 A 
ATOM     27  C   UNL A   1      40.534  33.657  36.701  1.00  0.00     0.037 A 
ATOM     28  C   UNL A   1      42.712  30.050  31.588  1.00  0.00     0.049 A 
ATOM     29  C   UNL A   1      41.805  32.887  36.427  1.00  0.00     0.074 A 
ATOM     30  C   UNL A   1      43.930  29.412  31.475  1.00  0.00     0.029 A 
ATOM     31  N   UNL A   1      42.697  30.689  32.822  1.00  0.00    -0.354 N 
ATOM     32  N   UNL A   1      42.140  32.203  35.355  1.00  0.00    -0.248 NA
ATOM     33  C   UNL A   1      42.829  32.893  37.479  1.00  0.00     0.031 C 
ATOM     34  C   UNL A   1      44.626  29.609  32.673  1.00  0.00     0.029 A 
ATOM     35  C   UNL A   1      43.871  30.431  33.500  1.00  0.00     0.049 A 
ATOM     36  H   UNL A   1      41.959  31.244  33.162  1.00  0.00     0.167 HD
ATOM     37  C   UNL A   1      43.419  31.713  35.595  1.00  0.00     0.074 A 
ATOM     38  C   UNL A   1      43.802  32.193  36.910  1.00  0.00     0.031 C 
ATOM     39  C   UNL A   1      44.208  30.938  34.810  1.00  0.00     0.037 A 
BRANCH  26  40
ATOM     40  C   UNL A   1      41.710  29.344  29.350  1.00  0.00     0.058 A 
ATOM     41  C   UNL A   1      41.242  28.030  29.178  1.00  0.00     0.135 A 
ATOM     42  C   UNL A   1      42.394  29.942  28.280  1.00  0.00     0.135 A 
ATOM     43  F   UNL A   1      40.623  27.394  30.186  1.00  0.00    -0.206 F 
ATOM     44  C   UNL A   1      41.486  27.320  28.005  1.00  0.00     0.059 A 
ATOM     45  C   UNL A   1      42.628  29.259  27.091  1.00  0.00     0.059 A 
ATOM     46  F   UNL A   1      42.884  31.184  28.403  1.00  0.00    -0.206 F 
ATOM     47  C   UNL A   1      42.192  27.940  26.972  1.00  0.00     0.060 A 
BRANCH  47  48
ATOM     48  S   UNL A   1      42.561  26.991  25.481  1.00  0.00     0.124 S 
ATOM     49  O   UNL A   1      43.827  26.361  25.844  1.00  0.00    -0.237 OA
ATOM     50  O   UNL A   1      41.412  26.098  25.388  1.00  0.00    -0.237 OA
ATOM     51  O   UNL A   1      42.644  28.012  24.442  1.00  0.00    -0.744 OA
ENDBRANCH  47  48
ENDBRANCH  26  40
BRANCH  27  52
ATOM     52  C   UNL A   1      40.372  34.482  37.933  1.00  0.00     0.058 A 
ATOM     53  C   UNL A   1      40.837  35.803  38.008  1.00  0.00     0.135 A 
ATOM     54  C   UNL A   1      39.753  33.951  39.081  1.00  0.00     0.135 A 
ATOM     55  F   UNL A   1      41.444  36.362  36.950  1.00  0.00    -0.206 F 
ATOM     56  C   UNL A   1      40.707  36.562  39.169  1.00  0.00     0.059 A 
ATOM     57  C   UNL A   1      39.588  34.697  40.244  1.00  0.00     0.059 A 
ATOM     58  F   UNL A   1      39.281  32.694  39.068  1.00  0.00    -0.206 F 
ATOM     59  C   UNL A   1      40.076  36.001  40.281  1.00  0.00     0.060 A 
BRANCH  59  60
ATOM     60  S   UNL A   1      39.869  37.017  41.760  1.00  0.00     0.124 S 
ATOM     61  O   UNL A   1      39.034  36.159  42.594  1.00  0.00    -0.237 OA
ATOM     62  O   UNL A   1      41.249  37.191  42.201  1.00  0.00    -0.237 OA
ATOM     63  O   UNL A   1      39.227  38.224  41.251  1.00  0.00    -0.744 OA
ENDBRANCH  59  60
ENDBRANCH  27  52
BRANCH  39  64
ATOM     64  C   UNL A   1      45.570  30.582  35.334  1.00  0.00     0.058 A 
ATOM     65  C   UNL A   1      45.789  29.417  36.084  1.00  0.00     0.135 A 
ATOM     66  C   UNL A   1      46.682  31.368  34.992  1.00  0.00     0.135 A 
ATOM     67  F   UNL A   1      44.757  28.634  36.436  1.00  0.00    -0.206 F 
ATOM     68  C   UNL A   1      47.066  29.052  36.493  1.00  0.00     0.059 A 
ATOM     69  C   UNL A   1      47.970  31.005  35.363  1.00  0.00     0.059 A 
ATOM     70  F   UNL A   1      46.522  32.483  34.261  1.00  0.00    -0.206 F 
ATOM     71  C   UNL A   1      48.151  29.850  36.120  1.00  0.00     0.060 A 
BRANCH  71  72
ATOM     72  S   UNL A   1      49.809  29.333  36.608  1.00  0.00     0.124 S 
ATOM     73  O   UNL A   1      50.525  30.604  36.604  1.00  0.00    -0.237 OA
ATOM     74  O   UNL A   1      49.577  28.739  37.921  1.00  0.00    -0.237 OA
ATOM     75  O   UNL A   1      50.193  28.392  35.559  1.00  0.00    -0.744 OA
ENDBRANCH  71  72
ENDBRANCH  39  64
ENDBRANCH  13  14
ENDBRANCH   6   8
ENDBRANCH   5   6
ENDBRANCH   4   5
ENDBRANCH   3   4
ENDBRANCH   2   3
ENDBRANCH   1   2
BRANCH   1  76
ATOM     76  C   UNL A   1      33.620  28.910  25.051  1.00  0.00     0.188 C 
BRANCH  76  77
ATOM     77  O   UNL A   1      32.362  28.576  24.473  1.00  0.00    -0.376 OA
BRANCH  77  78
ATOM     78  C   UNL A   1      32.379  28.032  23.166  1.00  0.00     0.202 C 
BRANCH  78  79
ATOM     79  C   UNL A   1      33.616  27.193  22.806  1.00  0.00     0.261 C 
BRANCH  79  80
ATOM     80  O   UNL A   1      33.960  26.175  23.774  1.00  0.00    -0.462 OA
BRANCH  80  81
ATOM     81  C   UNL A   1      34.006  24.892  23.287  1.00  0.00     0.328 C 
ATOM     82  O   UNL A   1      34.031  24.614  22.106  1.00  0.00    -0.250 OA
BRANCH  81  83
ATOM     83  C   UNL A   1      34.021  23.851  24.441  1.00  0.00     0.195 C 
ATOM     84  C   UNL A   1      35.494  23.428  24.485  1.00  0.00     0.046 C 
ATOM     85  N   UNL A   1      33.770  24.153  25.874  1.00  0.00    -0.328 N 
ATOM     86  C   UNL A   1      35.721  22.770  25.854  1.00  0.00     0.001 C 
ATOM     87  C   UNL A   1      34.431  23.079  26.616  1.00  0.00     0.128 C 
ATOM     88  C   UNL A   1      36.899  23.415  26.606  1.00  0.00     0.071 C 
ATOM     89  C   UNL A   1      36.005  21.263  25.669  1.00  0.00     0.071 C 
ATOM     90  C   UNL A   1      38.204  23.194  25.862  1.00  0.00     0.271 C 
ATOM     91  C   UNL A   1      37.375  21.015  25.011  1.00  0.00     0.271 C 
ATOM     92  N   UNL A   1      38.436  21.763  25.690  1.00  0.00    -0.267 N 
ATOM     93  H   UNL A   1      38.756  21.400  24.833  1.00  0.00     0.357 HD
BRANCH  85  94
ATOM     94  C   UNL A   1      32.479  24.365  26.352  1.00  0.00     0.226 C 
ATOM     95  O   UNL A   1      32.137  25.472  26.754  1.00  0.00    -0.275 OA
BRANCH  94  96
ATOM     96  C   UNL A   1      31.464  23.255  26.176  1.00  0.00     0.079 C 
ATOM     97  C   UNL A   1      30.213  22.985  27.017  1.00  0.00     0.014 C 
ATOM     98  C   UNL A   1      30.085  23.707  25.736  1.00  0.00     0.014 C 
ENDBRANCH  94  96
ENDBRANCH  85  94
BRANCH  92  99
ATOM     99  C   UNL A   1      39.645  21.127  25.948  1.00  0.00     0.344 C 
ATOM    100  O   UNL A   1      39.866  19.938  25.750  1.00  0.00    -0.226 OA
BRANCH  99 101
ATOM    101  C   UNL A   1      40.740  21.927  26.526  1.00  0.00     0.083 A 
ATOM    102  C   UNL A   1      40.711  22.269  27.885  1.00  0.00     0.018 A 
ATOM    103  C   UNL A   1      41.803  22.314  25.711  1.00  0.00     0.064 A 
ATOM    104  C   UNL A   1      41.736  23.045  28.420  1.00  0.00     0.005 A 
ATOM    105  C   UNL A   1      42.825  23.074  26.263  1.00  0.00     0.116 A 
ATOM    106  C   UNL A   1      42.797  23.450  27.606  1.00  0.00     0.046 A 
BRANCH 105 107
ATOM    107  O   UNL A   1      43.856  23.441  25.450  1.00  0.00    -0.508 OA
ATOM    108  H   UNL A   1      44.695  23.035  25.545  1.00  0.00     0.293 HD
ENDBRANCH 105 107
ENDBRANCH  99 101
ENDBRANCH  92  99
ENDBRANCH  81  83
ENDBRANCH  80  81
ENDBRANCH  79  80
ENDBRANCH  78  79
ENDBRANCH  77  78
ENDBRANCH  76  77
ENDBRANCH   1  76
TORSDOF 25
ENDMDL
