MODEL 1
REMARK VINA RESULT:     -11.6      0.000      0.000
REMARK SMILES O=C(OCCOCCOCCOC(=O)c1cc(-c2cccc(C(F)(F)F)c2)nc2c(F)cccc12)c1ccc(-c2c3nc(c(-c4c(F)cc(S(=O)(=O)[O-])cc4F)c4ccc([nH]4)c(-c4c(F)cc(S(=O)(=O)[O-])cc4F)c4nc(c(-c5c(F)cc(S(=O)(=O)[O-])cc5F)c5ccc2[nH]5)C=C4)C=C3)cc1
REMARK SMILES IDX 7 1 6 2 5 3 4 4 3 5 2 6 1 7 36 8 37 9 101 10 38 11 100 12
REMARK SMILES IDX 39 13 40 14 41 15 94 16 42 17 99 18 93 19 95 20 43 21 98 22
REMARK SMILES IDX 92 23 91 24 44 26 78 27 57 28 77 29 58 30 61 31 76 32 96 33
REMARK SMILES IDX 59 34 60 35 75 37 97 38 62 39 45 40 46 41 55 42 47 43 48 44
REMARK SMILES IDX 54 45 56 46 49 47 50 48 51 49 52 50 53 51 79 52 80 53 89 54
REMARK SMILES IDX 81 55 82 56 88 57 90 58 83 59 84 60 85 61 86 62 87 63 63 64
REMARK SMILES IDX 64 65 73 66 65 67 66 68 72 69 74 70 67 71 68 72 69 73 70 74
REMARK SMILES IDX 71 75 8 76 9 77 10 78 11 79 12 80 13 81 14 82 15 83 16 84
REMARK SMILES IDX 35 85 17 86 29 87 34 88 28 89 30 90 33 91 31 92 32 93 18 94
REMARK SMILES IDX 19 95 27 96 20 97 22 98 21 99 23 100 24 101 25 102 26 103
REMARK H PARENT 95 25 61 36
REMARK Flexibility Score: inf
ROOT
ATOM      1  C   UNL A   1      33.755  34.056  28.538  1.00  0.00     0.188 C 
ENDROOT
BRANCH   1   2
ATOM      2  O   UNL A   1      33.723  34.064  29.970  1.00  0.00    -0.376 OA
BRANCH   2   3
ATOM      3  C   UNL A   1      34.978  33.746  30.580  1.00  0.00     0.202 C 
BRANCH   3   4
ATOM      4  C   UNL A   1      34.935  32.519  31.499  1.00  0.00     0.261 C 
BRANCH   4   5
ATOM      5  O   UNL A   1      36.215  31.865  31.570  1.00  0.00    -0.460 OA
BRANCH   5   6
ATOM      6  C   UNL A   1      36.555  30.676  31.011  1.00  0.00     0.338 C 
ATOM      7  O   UNL A   1      35.708  29.790  30.924  1.00  0.00    -0.246 OA
BRANCH   6   8
ATOM      8  C   UNL A   1      37.907  30.406  30.440  1.00  0.00     0.060 A 
ATOM      9  C   UNL A   1      38.199  30.386  29.076  1.00  0.00     0.016 A 
ATOM     10  C   UNL A   1      38.967  30.249  31.346  1.00  0.00     0.016 A 
ATOM     11  C   UNL A   1      39.476  30.074  28.621  1.00  0.00     0.010 A 
ATOM     12  C   UNL A   1      40.274  30.035  30.892  1.00  0.00     0.010 A 
ATOM     13  C   UNL A   1      40.526  29.889  29.522  1.00  0.00    -0.014 A 
BRANCH  13  14
ATOM     14  C   UNL A   1      41.835  29.414  29.013  1.00  0.00     0.031 A 
ATOM     15  C   UNL A   1      43.011  30.353  29.046  1.00  0.00     0.074 A 
ATOM     16  C   UNL A   1      41.999  28.129  28.639  1.00  0.00     0.049 A 
ATOM     17  N   UNL A   1      44.234  30.165  28.626  1.00  0.00    -0.248 NA
ATOM     18  C   UNL A   1      42.776  31.683  29.634  1.00  0.00     0.031 C 
ATOM     19  C   UNL A   1      40.947  27.110  28.619  1.00  0.00     0.029 A 
ATOM     20  N   UNL A   1      43.121  27.453  28.233  1.00  0.00    -0.354 N 
ATOM     21  C   UNL A   1      44.905  31.356  28.876  1.00  0.00     0.074 A 
ATOM     22  C   UNL A   1      43.948  32.273  29.454  1.00  0.00     0.031 C 
ATOM     23  C   UNL A   1      41.482  25.933  28.255  1.00  0.00     0.029 A 
ATOM     24  C   UNL A   1      42.895  26.126  27.957  1.00  0.00     0.049 A 
ATOM     25  H   UNL A   1      44.005  27.879  28.148  1.00  0.00     0.167 HD
ATOM     26  C   UNL A   1      46.207  31.655  28.661  1.00  0.00     0.037 A 
ATOM     27  C   UNL A   1      43.729  25.178  27.490  1.00  0.00     0.037 A 
ATOM     28  C   UNL A   1      47.156  30.731  28.103  1.00  0.00     0.049 A 
ATOM     29  C   UNL A   1      45.158  25.544  27.219  1.00  0.00     0.074 A 
ATOM     30  C   UNL A   1      48.483  30.944  27.776  1.00  0.00     0.029 A 
ATOM     31  N   UNL A   1      46.876  29.406  27.806  1.00  0.00    -0.354 N 
ATOM     32  N   UNL A   1      45.756  26.698  27.386  1.00  0.00    -0.248 NA
ATOM     33  C   UNL A   1      46.024  24.481  26.691  1.00  0.00     0.031 C 
ATOM     34  C   UNL A   1      49.002  29.748  27.268  1.00  0.00     0.029 A 
ATOM     35  C   UNL A   1      48.006  28.784  27.308  1.00  0.00     0.049 A 
ATOM     36  H   UNL A   1      46.001  28.971  27.930  1.00  0.00     0.167 HD
ATOM     37  C   UNL A   1      47.070  26.505  26.980  1.00  0.00     0.074 A 
ATOM     38  C   UNL A   1      47.185  25.114  26.589  1.00  0.00     0.031 C 
ATOM     39  C   UNL A   1      48.087  27.397  26.926  1.00  0.00     0.037 A 
BRANCH  26  40
ATOM     40  C   UNL A   1      46.651  33.045  29.014  1.00  0.00     0.058 A 
ATOM     41  C   UNL A   1      46.545  34.105  28.099  1.00  0.00     0.135 A 
ATOM     42  C   UNL A   1      47.228  33.313  30.266  1.00  0.00     0.135 A 
ATOM     43  F   UNL A   1      46.031  33.894  26.877  1.00  0.00    -0.206 F 
ATOM     44  C   UNL A   1      47.030  35.373  28.397  1.00  0.00     0.059 A 
ATOM     45  C   UNL A   1      47.701  34.580  30.594  1.00  0.00     0.059 A 
ATOM     46  F   UNL A   1      47.362  32.333  31.172  1.00  0.00    -0.206 F 
ATOM     47  C   UNL A   1      47.615  35.600  29.645  1.00  0.00     0.060 A 
BRANCH  47  48
ATOM     48  S   UNL A   1      48.276  37.239  30.005  1.00  0.00     0.124 S 
ATOM     49  O   UNL A   1      48.531  37.750  28.661  1.00  0.00    -0.237 OA
ATOM     50  O   UNL A   1      47.173  37.872  30.724  1.00  0.00    -0.237 OA
ATOM     51  O   UNL A   1      49.462  36.958  30.807  1.00  0.00    -0.744 OA
ENDBRANCH  47  48
ENDBRANCH  26  40
BRANCH  27  52
ATOM     52  C   UNL A   1      43.229  23.809  27.201  1.00  0.00     0.058 A 
ATOM     53  C   UNL A   1      42.810  23.440  25.916  1.00  0.00     0.135 A 
ATOM     54  C   UNL A   1      43.145  22.850  28.221  1.00  0.00     0.135 A 
ATOM     55  F   UNL A   1      42.859  24.329  24.911  1.00  0.00    -0.206 F 
ATOM     56  C   UNL A   1      42.321  22.165  25.649  1.00  0.00     0.059 A 
ATOM     57  C   UNL A   1      42.672  21.565  27.976  1.00  0.00     0.059 A 
ATOM     58  F   UNL A   1      43.544  23.155  29.464  1.00  0.00    -0.206 F 
ATOM     59  C   UNL A   1      42.258  21.233  26.686  1.00  0.00     0.060 A 
BRANCH  59  60
ATOM     60  S   UNL A   1      41.736  19.543  26.317  1.00  0.00     0.124 S 
ATOM     61  O   UNL A   1      42.529  19.239  25.133  1.00  0.00    -0.237 OA
ATOM     62  O   UNL A   1      42.103  18.830  27.537  1.00  0.00    -0.237 OA
ATOM     63  O   UNL A   1      40.298  19.687  26.106  1.00  0.00    -0.744 OA
ENDBRANCH  59  60
ENDBRANCH  27  52
BRANCH  39  64
ATOM     64  C   UNL A   1      49.408  26.883  26.443  1.00  0.00     0.058 A 
ATOM     65  C   UNL A   1      50.304  26.244  27.314  1.00  0.00     0.135 A 
ATOM     66  C   UNL A   1      49.767  27.008  25.093  1.00  0.00     0.135 A 
ATOM     67  F   UNL A   1      50.005  26.113  28.616  1.00  0.00    -0.206 F 
ATOM     68  C   UNL A   1      51.526  25.762  26.862  1.00  0.00     0.059 A 
ATOM     69  C   UNL A   1      50.975  26.515  24.617  1.00  0.00     0.059 A 
ATOM     70  F   UNL A   1      48.937  27.609  24.226  1.00  0.00    -0.206 F 
ATOM     71  C   UNL A   1      51.853  25.903  25.513  1.00  0.00     0.060 A 
BRANCH  71  72
ATOM     72  S   UNL A   1      53.429  25.250  24.928  1.00  0.00     0.124 S 
ATOM     73  O   UNL A   1      53.279  23.826  25.208  1.00  0.00    -0.237 OA
ATOM     74  O   UNL A   1      53.422  25.623  23.516  1.00  0.00    -0.237 OA
ATOM     75  O   UNL A   1      54.411  25.953  25.749  1.00  0.00    -0.744 OA
ENDBRANCH  71  72
ENDBRANCH  39  64
ENDBRANCH  13  14
ENDBRANCH   6   8
ENDBRANCH   5   6
ENDBRANCH   4   5
ENDBRANCH   3   4
ENDBRANCH   2   3
ENDBRANCH   1   2
BRANCH   1  76
ATOM     76  C   UNL A   1      34.592  32.880  28.027  1.00  0.00     0.188 C 
BRANCH  76  77
ATOM     77  O   UNL A   1      34.032  31.590  28.279  1.00  0.00    -0.376 OA
BRANCH  77  78
ATOM     78  C   UNL A   1      34.385  30.543  27.377  1.00  0.00     0.202 C 
BRANCH  78  79
ATOM     79  C   UNL A   1      33.238  29.682  26.834  1.00  0.00     0.261 C 
BRANCH  79  80
ATOM     80  O   UNL A   1      33.323  28.277  27.130  1.00  0.00    -0.460 OA
BRANCH  80  81
ATOM     81  C   UNL A   1      32.127  27.645  27.144  1.00  0.00     0.338 C 
ATOM     82  O   UNL A   1      31.214  27.806  27.944  1.00  0.00    -0.246 OA
BRANCH  81  83
ATOM     83  C   UNL A   1      32.036  26.640  26.078  1.00  0.00     0.071 A 
ATOM     84  C   UNL A   1      32.707  25.430  26.257  1.00  0.00     0.045 A 
ATOM     85  C   UNL A   1      31.511  27.016  24.825  1.00  0.00     0.018 A 
ATOM     86  C   UNL A   1      32.886  24.621  25.149  1.00  0.00     0.072 A 
ATOM     87  C   UNL A   1      31.781  26.150  23.751  1.00  0.00     0.107 A 
ATOM     88  C   UNL A   1      30.770  28.205  24.601  1.00  0.00     0.011 A 
ATOM     89  N   UNL A   1      32.451  24.988  23.923  1.00  0.00    -0.245 NA
ATOM     90  C   UNL A   1      31.352  26.542  22.482  1.00  0.00     0.149 A 
ATOM     91  C   UNL A   1      30.334  28.551  23.326  1.00  0.00     0.004 A 
ATOM     92  F   UNL A   1      31.621  25.762  21.423  1.00  0.00    -0.205 F 
ATOM     93  C   UNL A   1      30.651  27.726  22.258  1.00  0.00     0.041 A 
BRANCH  86  94
ATOM     94  C   UNL A   1      33.603  23.337  25.203  1.00  0.00     0.001 A 
ATOM     95  C   UNL A   1      34.897  23.249  25.736  1.00  0.00     0.010 A 
ATOM     96  C   UNL A   1      33.008  22.151  24.736  1.00  0.00     0.023 A 
ATOM     97  C   UNL A   1      35.572  22.029  25.817  1.00  0.00     0.001 A 
ATOM     98  C   UNL A   1      33.683  20.917  24.783  1.00  0.00     0.056 A 
ATOM     99  C   UNL A   1      34.968  20.869  25.339  1.00  0.00     0.013 A 
BRANCH  98 100
ATOM    100  C   UNL A   1      33.059  19.661  24.230  1.00  0.00     0.416 C 
ATOM    101  F   UNL A   1      32.285  19.026  25.159  1.00  0.00    -0.166 F 
ATOM    102  F   UNL A   1      32.235  19.898  23.172  1.00  0.00    -0.166 F 
ATOM    103  F   UNL A   1      33.957  18.730  23.808  1.00  0.00    -0.166 F 
ENDBRANCH  98 100
ENDBRANCH  86  94
ENDBRANCH  81  83
ENDBRANCH  80  81
ENDBRANCH  79  80
ENDBRANCH  78  79
ENDBRANCH  77  78
ENDBRANCH  76  77
ENDBRANCH   1  76
TORSDOF 22
ENDMDL
MODEL 2
REMARK VINA RESULT:     -11.2      4.733      7.033
REMARK SMILES O=C(OCCOCCOCCOC(=O)c1cc(-c2cccc(C(F)(F)F)c2)nc2c(F)cccc12)c1ccc(-c2c3nc(c(-c4c(F)cc(S(=O)(=O)[O-])cc4F)c4ccc([nH]4)c(-c4c(F)cc(S(=O)(=O)[O-])cc4F)c4nc(c(-c5c(F)cc(S(=O)(=O)[O-])cc5F)c5ccc2[nH]5)C=C4)C=C3)cc1
REMARK SMILES IDX 7 1 6 2 5 3 4 4 3 5 2 6 1 7 36 8 37 9 101 10 38 11 100 12
REMARK SMILES IDX 39 13 40 14 41 15 94 16 42 17 99 18 93 19 95 20 43 21 98 22
REMARK SMILES IDX 92 23 91 24 44 26 78 27 57 28 77 29 58 30 61 31 76 32 96 33
REMARK SMILES IDX 59 34 60 35 75 37 97 38 62 39 45 40 46 41 55 42 47 43 48 44
REMARK SMILES IDX 54 45 56 46 49 47 50 48 51 49 52 50 53 51 79 52 80 53 89 54
REMARK SMILES IDX 81 55 82 56 88 57 90 58 83 59 84 60 85 61 86 62 87 63 63 64
REMARK SMILES IDX 64 65 73 66 65 67 66 68 72 69 74 70 67 71 68 72 69 73 70 74
REMARK SMILES IDX 71 75 8 76 9 77 10 78 11 79 12 80 13 81 14 82 15 83 16 84
REMARK SMILES IDX 35 85 17 86 29 87 34 88 28 89 30 90 33 91 31 92 32 93 18 94
REMARK SMILES IDX 19 95 27 96 20 97 22 98 21 99 23 100 24 101 25 102 26 103
REMARK H PARENT 95 25 61 36
REMARK Flexibility Score: inf
ROOT
ATOM      1  C   UNL A   1      31.047  29.265  23.512  1.00  0.00     0.188 C 
ENDROOT
BRANCH   1   2
ATOM      2  O   UNL A   1      32.202  29.161  24.353  1.00  0.00    -0.376 OA
BRANCH   2   3
ATOM      3  C   UNL A   1      32.138  29.975  25.528  1.00  0.00     0.202 C 
BRANCH   3   4
ATOM      4  C   UNL A   1      32.900  29.403  26.730  1.00  0.00     0.261 C 
BRANCH   4   5
ATOM      5  O   UNL A   1      33.208  30.422  27.696  1.00  0.00    -0.460 OA
BRANCH   5   6
ATOM      6  C   UNL A   1      34.293  31.238  27.704  1.00  0.00     0.338 C 
ATOM      7  O   UNL A   1      34.165  32.409  27.352  1.00  0.00    -0.246 OA
BRANCH   6   8
ATOM      8  C   UNL A   1      35.638  30.796  28.174  1.00  0.00     0.060 A 
ATOM      9  C   UNL A   1      36.001  29.467  28.393  1.00  0.00     0.016 A 
ATOM     10  C   UNL A   1      36.625  31.784  28.317  1.00  0.00     0.016 A 
ATOM     11  C   UNL A   1      37.261  29.140  28.883  1.00  0.00     0.010 A 
ATOM     12  C   UNL A   1      37.925  31.447  28.712  1.00  0.00     0.010 A 
ATOM     13  C   UNL A   1      38.236  30.125  29.054  1.00  0.00    -0.014 A 
BRANCH  13  14
ATOM     14  C   UNL A   1      39.514  29.766  29.714  1.00  0.00     0.031 A 
ATOM     15  C   UNL A   1      39.832  30.370  31.054  1.00  0.00     0.074 A 
ATOM     16  C   UNL A   1      40.319  28.824  29.181  1.00  0.00     0.049 A 
ATOM     17  N   UNL A   1      40.899  30.226  31.796  1.00  0.00    -0.248 NA
ATOM     18  C   UNL A   1      38.811  31.256  31.639  1.00  0.00     0.031 C 
ATOM     19  C   UNL A   1      40.085  28.125  27.916  1.00  0.00     0.029 A 
ATOM     20  N   UNL A   1      41.481  28.271  29.655  1.00  0.00    -0.354 N 
ATOM     21  C   UNL A   1      40.687  31.018  32.918  1.00  0.00     0.074 A 
ATOM     22  C   UNL A   1      39.406  31.667  32.747  1.00  0.00     0.031 C 
ATOM     23  C   UNL A   1      41.055  27.214  27.732  1.00  0.00     0.029 A 
ATOM     24  C   UNL A   1      42.008  27.306  28.830  1.00  0.00     0.049 A 
ATOM     25  H   UNL A   1      41.898  28.540  30.505  1.00  0.00     0.167 HD
ATOM     26  C   UNL A   1      41.479  31.178  34.003  1.00  0.00     0.037 A 
ATOM     27  C   UNL A   1      43.146  26.595  28.936  1.00  0.00     0.037 A 
ATOM     28  C   UNL A   1      42.743  30.515  34.173  1.00  0.00     0.049 A 
ATOM     29  C   UNL A   1      44.030  26.820  30.127  1.00  0.00     0.074 A 
ATOM     30  C   UNL A   1      43.662  30.651  35.197  1.00  0.00     0.029 A 
ATOM     31  N   UNL A   1      43.254  29.570  33.296  1.00  0.00    -0.354 N 
ATOM     32  N   UNL A   1      43.851  27.633  31.139  1.00  0.00    -0.248 NA
ATOM     33  C   UNL A   1      45.270  26.036  30.187  1.00  0.00     0.031 C 
ATOM     34  C   UNL A   1      44.739  29.797  34.931  1.00  0.00     0.029 A 
ATOM     35  C   UNL A   1      44.473  29.107  33.759  1.00  0.00     0.049 A 
ATOM     36  H   UNL A   1      42.815  29.272  32.467  1.00  0.00     0.167 HD
ATOM     37  C   UNL A   1      44.959  27.463  31.958  1.00  0.00     0.074 A 
ATOM     38  C   UNL A   1      45.786  26.447  31.337  1.00  0.00     0.031 C 
ATOM     39  C   UNL A   1      45.271  28.096  33.115  1.00  0.00     0.037 A 
BRANCH  26  40
ATOM     40  C   UNL A   1      40.995  32.125  35.063  1.00  0.00     0.058 A 
ATOM     41  C   UNL A   1      41.432  33.458  35.112  1.00  0.00     0.135 A 
ATOM     42  C   UNL A   1      40.118  31.684  36.067  1.00  0.00     0.135 A 
ATOM     43  F   UNL A   1      42.296  33.920  34.194  1.00  0.00    -0.206 F 
ATOM     44  C   UNL A   1      41.046  34.312  36.139  1.00  0.00     0.059 A 
ATOM     45  C   UNL A   1      39.701  32.527  37.093  1.00  0.00     0.059 A 
ATOM     46  F   UNL A   1      39.679  30.416  36.072  1.00  0.00    -0.206 F 
ATOM     47  C   UNL A   1      40.187  33.835  37.131  1.00  0.00     0.060 A 
BRANCH  47  48
ATOM     48  S   UNL A   1      39.726  34.940  38.480  1.00  0.00     0.124 S 
ATOM     49  O   UNL A   1      40.087  36.241  37.925  1.00  0.00    -0.237 OA
ATOM     50  O   UNL A   1      38.295  34.686  38.620  1.00  0.00    -0.237 OA
ATOM     51  O   UNL A   1      40.551  34.480  39.593  1.00  0.00    -0.744 OA
ENDBRANCH  47  48
ENDBRANCH  26  40
BRANCH  27  52
ATOM     52  C   UNL A   1      43.543  25.643  27.867  1.00  0.00     0.058 A 
ATOM     53  C   UNL A   1      43.426  24.257  28.041  1.00  0.00     0.135 A 
ATOM     54  C   UNL A   1      44.067  26.112  26.653  1.00  0.00     0.135 A 
ATOM     55  F   UNL A   1      42.943  23.762  29.191  1.00  0.00    -0.206 F 
ATOM     56  C   UNL A   1      43.818  23.365  27.048  1.00  0.00     0.059 A 
ATOM     57  C   UNL A   1      44.454  25.239  25.641  1.00  0.00     0.059 A 
ATOM     58  F   UNL A   1      44.188  27.430  26.438  1.00  0.00    -0.206 F 
ATOM     59  C   UNL A   1      44.329  23.866  25.849  1.00  0.00     0.060 A 
BRANCH  59  60
ATOM     60  S   UNL A   1      44.727  22.714  24.515  1.00  0.00     0.124 S 
ATOM     61  O   UNL A   1      45.101  21.518  25.257  1.00  0.00    -0.237 OA
ATOM     62  O   UNL A   1      43.469  22.646  23.777  1.00  0.00    -0.237 OA
ATOM     63  O   UNL A   1      45.809  23.397  23.811  1.00  0.00    -0.744 OA
ENDBRANCH  59  60
ENDBRANCH  27  52
BRANCH  39  64
ATOM     64  C   UNL A   1      46.549  27.688  33.781  1.00  0.00     0.058 A 
ATOM     65  C   UNL A   1      46.586  26.631  34.702  1.00  0.00     0.135 A 
ATOM     66  C   UNL A   1      47.750  28.345  33.473  1.00  0.00     0.135 A 
ATOM     67  F   UNL A   1      45.458  25.982  35.034  1.00  0.00    -0.206 F 
ATOM     68  C   UNL A   1      47.774  26.250  35.314  1.00  0.00     0.059 A 
ATOM     69  C   UNL A   1      48.951  27.967  34.058  1.00  0.00     0.059 A 
ATOM     70  F   UNL A   1      47.760  29.360  32.594  1.00  0.00    -0.206 F 
ATOM     71  C   UNL A   1      48.951  26.925  34.987  1.00  0.00     0.060 A 
BRANCH  71  72
ATOM     72  S   UNL A   1      50.494  26.407  35.764  1.00  0.00     0.124 S 
ATOM     73  O   UNL A   1      50.198  25.022  36.110  1.00  0.00    -0.237 OA
ATOM     74  O   UNL A   1      51.467  26.598  34.692  1.00  0.00    -0.237 OA
ATOM     75  O   UNL A   1      50.628  27.323  36.892  1.00  0.00    -0.744 OA
ENDBRANCH  71  72
ENDBRANCH  39  64
ENDBRANCH  13  14
ENDBRANCH   6   8
ENDBRANCH   5   6
ENDBRANCH   4   5
ENDBRANCH   3   4
ENDBRANCH   2   3
ENDBRANCH   1   2
BRANCH   1  76
ATOM     76  C   UNL A   1      30.429  27.884  23.277  1.00  0.00     0.188 C 
BRANCH  76  77
ATOM     77  O   UNL A   1      30.585  26.964  24.359  1.00  0.00    -0.376 OA
BRANCH  77  78
ATOM     78  C   UNL A   1      30.348  25.587  24.078  1.00  0.00     0.202 C 
BRANCH  78  79
ATOM     79  C   UNL A   1      31.407  24.858  23.243  1.00  0.00     0.261 C 
BRANCH  79  80
ATOM     80  O   UNL A   1      32.681  24.669  23.885  1.00  0.00    -0.460 OA
BRANCH  80  81
ATOM     81  C   UNL A   1      33.539  23.892  23.186  1.00  0.00     0.338 C 
ATOM     82  O   UNL A   1      33.709  23.884  21.973  1.00  0.00    -0.246 OA
BRANCH  81  83
ATOM     83  C   UNL A   1      34.253  22.954  24.060  1.00  0.00     0.071 A 
ATOM     84  C   UNL A   1      35.462  23.368  24.619  1.00  0.00     0.045 A 
ATOM     85  C   UNL A   1      33.846  21.604  24.096  1.00  0.00     0.018 A 
ATOM     86  C   UNL A   1      36.281  22.401  25.175  1.00  0.00     0.072 A 
ATOM     87  C   UNL A   1      34.763  20.690  24.643  1.00  0.00     0.107 A 
ATOM     88  C   UNL A   1      32.601  21.139  23.597  1.00  0.00     0.011 A 
ATOM     89  N   UNL A   1      35.945  21.092  25.164  1.00  0.00    -0.245 NA
ATOM     90  C   UNL A   1      34.424  19.337  24.608  1.00  0.00     0.149 A 
ATOM     91  C   UNL A   1      32.285  19.784  23.604  1.00  0.00     0.004 A 
ATOM     92  F   UNL A   1      35.288  18.427  25.086  1.00  0.00    -0.205 F 
ATOM     93  C   UNL A   1      33.214  18.878  24.088  1.00  0.00     0.041 A 
BRANCH  86  94
ATOM     94  C   UNL A   1      37.593  22.707  25.768  1.00  0.00     0.001 A 
ATOM     95  C   UNL A   1      37.917  24.006  26.183  1.00  0.00     0.010 A 
ATOM     96  C   UNL A   1      38.560  21.702  25.952  1.00  0.00     0.023 A 
ATOM     97  C   UNL A   1      39.149  24.297  26.773  1.00  0.00     0.001 A 
ATOM     98  C   UNL A   1      39.817  21.982  26.518  1.00  0.00     0.056 A 
ATOM     99  C   UNL A   1      40.096  23.290  26.937  1.00  0.00     0.013 A 
BRANCH  98 100
ATOM    100  C   UNL A   1      40.868  20.911  26.661  1.00  0.00     0.416 C 
ATOM    101  F   UNL A   1      40.342  19.659  26.516  1.00  0.00    -0.166 F 
ATOM    102  F   UNL A   1      41.852  21.003  25.723  1.00  0.00    -0.166 F 
ATOM    103  F   UNL A   1      41.497  20.903  27.868  1.00  0.00    -0.166 F 
ENDBRANCH  98 100
ENDBRANCH  86  94
ENDBRANCH  81  83
ENDBRANCH  80  81
ENDBRANCH  79  80
ENDBRANCH  78  79
ENDBRANCH  77  78
ENDBRANCH  76  77
ENDBRANCH   1  76
TORSDOF 22
ENDMDL
MODEL 3
REMARK VINA RESULT:     -11.1      4.670      9.585
REMARK SMILES O=C(OCCOCCOCCOC(=O)c1cc(-c2cccc(C(F)(F)F)c2)nc2c(F)cccc12)c1ccc(-c2c3nc(c(-c4c(F)cc(S(=O)(=O)[O-])cc4F)c4ccc([nH]4)c(-c4c(F)cc(S(=O)(=O)[O-])cc4F)c4nc(c(-c5c(F)cc(S(=O)(=O)[O-])cc5F)c5ccc2[nH]5)C=C4)C=C3)cc1
REMARK SMILES IDX 7 1 6 2 5 3 4 4 3 5 2 6 1 7 36 8 37 9 101 10 38 11 100 12
REMARK SMILES IDX 39 13 40 14 41 15 94 16 42 17 99 18 93 19 95 20 43 21 98 22
REMARK SMILES IDX 92 23 91 24 44 26 78 27 57 28 77 29 58 30 61 31 76 32 96 33
REMARK SMILES IDX 59 34 60 35 75 37 97 38 62 39 45 40 46 41 55 42 47 43 48 44
REMARK SMILES IDX 54 45 56 46 49 47 50 48 51 49 52 50 53 51 79 52 80 53 89 54
REMARK SMILES IDX 81 55 82 56 88 57 90 58 83 59 84 60 85 61 86 62 87 63 63 64
REMARK SMILES IDX 64 65 73 66 65 67 66 68 72 69 74 70 67 71 68 72 69 73 70 74
REMARK SMILES IDX 71 75 8 76 9 77 10 78 11 79 12 80 13 81 14 82 15 83 16 84
REMARK SMILES IDX 35 85 17 86 29 87 34 88 28 89 30 90 33 91 31 92 32 93 18 94
REMARK SMILES IDX 19 95 27 96 20 97 22 98 21 99 23 100 24 101 25 102 26 103
REMARK H PARENT 95 25 61 36
REMARK Flexibility Score: inf
ROOT
ATOM      1  C   UNL A   1      30.556  28.848  23.633  1.00  0.00     0.188 C 
ENDROOT
BRANCH   1   2
ATOM      2  O   UNL A   1      30.998  28.713  24.990  1.00  0.00    -0.376 OA
BRANCH   2   3
ATOM      3  C   UNL A   1      31.963  29.692  25.385  1.00  0.00     0.202 C 
BRANCH   3   4
ATOM      4  C   UNL A   1      32.624  29.410  26.739  1.00  0.00     0.261 C 
BRANCH   4   5
ATOM      5  O   UNL A   1      34.051  29.581  26.679  1.00  0.00    -0.460 OA
BRANCH   5   6
ATOM      6  C   UNL A   1      34.801  30.446  27.408  1.00  0.00     0.338 C 
ATOM      7  O   UNL A   1      34.420  31.607  27.538  1.00  0.00    -0.246 OA
BRANCH   6   8
ATOM      8  C   UNL A   1      36.051  30.040  28.115  1.00  0.00     0.060 A 
ATOM      9  C   UNL A   1      36.086  29.374  29.339  1.00  0.00     0.016 A 
ATOM     10  C   UNL A   1      37.267  30.270  27.451  1.00  0.00     0.016 A 
ATOM     11  C   UNL A   1      37.295  29.076  29.960  1.00  0.00     0.010 A 
ATOM     12  C   UNL A   1      38.482  29.880  28.026  1.00  0.00     0.010 A 
ATOM     13  C   UNL A   1      38.507  29.329  29.314  1.00  0.00    -0.014 A 
BRANCH  13  14
ATOM     14  C   UNL A   1      39.773  29.137  30.060  1.00  0.00     0.031 A 
ATOM     15  C   UNL A   1      40.763  28.122  29.559  1.00  0.00     0.074 A 
ATOM     16  C   UNL A   1      40.085  29.940  31.098  1.00  0.00     0.049 A 
ATOM     17  N   UNL A   1      41.913  27.764  30.067  1.00  0.00    -0.248 NA
ATOM     18  C   UNL A   1      40.410  27.413  28.317  1.00  0.00     0.031 C 
ATOM     19  C   UNL A   1      39.231  31.000  31.638  1.00  0.00     0.029 A 
ATOM     20  N   UNL A   1      41.221  30.009  31.863  1.00  0.00    -0.354 N 
ATOM     21  C   UNL A   1      42.407  26.777  29.222  1.00  0.00     0.074 A 
ATOM     22  C   UNL A   1      41.420  26.567  28.188  1.00  0.00     0.031 C 
ATOM     23  C   UNL A   1      39.887  31.634  32.623  1.00  0.00     0.029 A 
ATOM     24  C   UNL A   1      41.178  30.990  32.825  1.00  0.00     0.049 A 
ATOM     25  H   UNL A   1      41.994  29.413  31.734  1.00  0.00     0.167 HD
ATOM     26  C   UNL A   1      43.587  26.117  29.291  1.00  0.00     0.037 A 
ATOM     27  C   UNL A   1      42.070  31.314  33.780  1.00  0.00     0.037 A 
ATOM     28  C   UNL A   1      44.570  26.345  30.313  1.00  0.00     0.049 A 
ATOM     29  C   UNL A   1      43.352  30.540  33.864  1.00  0.00     0.074 A 
ATOM     30  C   UNL A   1      45.770  25.690  30.524  1.00  0.00     0.029 A 
ATOM     31  N   UNL A   1      44.471  27.326  31.290  1.00  0.00    -0.354 N 
ATOM     32  N   UNL A   1      43.767  29.555  33.105  1.00  0.00    -0.248 NA
ATOM     33  C   UNL A   1      44.283  30.916  34.935  1.00  0.00     0.031 C 
ATOM     34  C   UNL A   1      46.390  26.265  31.639  1.00  0.00     0.029 A 
ATOM     35  C   UNL A   1      45.591  27.300  32.101  1.00  0.00     0.049 A 
ATOM     36  H   UNL A   1      43.715  27.948  31.391  1.00  0.00     0.167 HD
ATOM     37  C   UNL A   1      45.008  29.189  33.608  1.00  0.00     0.074 A 
ATOM     38  C   UNL A   1      45.288  30.079  34.717  1.00  0.00     0.031 C 
ATOM     39  C   UNL A   1      45.838  28.200  33.198  1.00  0.00     0.037 A 
BRANCH  26  40
ATOM     40  C   UNL A   1      43.844  25.077  28.239  1.00  0.00     0.058 A 
ATOM     41  C   UNL A   1      43.556  23.720  28.462  1.00  0.00     0.135 A 
ATOM     42  C   UNL A   1      44.423  25.433  27.011  1.00  0.00     0.135 A 
ATOM     43  F   UNL A   1      43.032  23.324  29.632  1.00  0.00    -0.206 F 
ATOM     44  C   UNL A   1      43.869  22.747  27.519  1.00  0.00     0.059 A 
ATOM     45  C   UNL A   1      44.725  24.478  26.044  1.00  0.00     0.059 A 
ATOM     46  F   UNL A   1      44.727  26.714  26.753  1.00  0.00    -0.206 F 
ATOM     47  C   UNL A   1      44.462  23.135  26.316  1.00  0.00     0.060 A 
BRANCH  47  48
ATOM     48  S   UNL A   1      44.899  21.859  25.117  1.00  0.00     0.124 S 
ATOM     49  O   UNL A   1      46.357  21.883  25.188  1.00  0.00    -0.237 OA
ATOM     50  O   UNL A   1      44.257  20.672  25.674  1.00  0.00    -0.237 OA
ATOM     51  O   UNL A   1      44.322  22.352  23.871  1.00  0.00    -0.744 OA
ENDBRANCH  47  48
ENDBRANCH  26  40
BRANCH  27  52
ATOM     52  C   UNL A   1      41.765  32.384  34.764  1.00  0.00     0.058 A 
ATOM     53  C   UNL A   1      42.117  33.720  34.524  1.00  0.00     0.135 A 
ATOM     54  C   UNL A   1      41.131  32.079  35.978  1.00  0.00     0.135 A 
ATOM     55  F   UNL A   1      42.738  34.057  33.384  1.00  0.00    -0.206 F 
ATOM     56  C   UNL A   1      41.851  34.719  35.455  1.00  0.00     0.059 A 
ATOM     57  C   UNL A   1      40.844  33.063  36.918  1.00  0.00     0.059 A 
ATOM     58  F   UNL A   1      40.768  30.816  36.246  1.00  0.00    -0.206 F 
ATOM     59  C   UNL A   1      41.212  34.381  36.649  1.00  0.00     0.060 A 
BRANCH  59  60
ATOM     60  S   UNL A   1      40.760  35.694  37.805  1.00  0.00     0.124 S 
ATOM     61  O   UNL A   1      39.955  36.568  36.963  1.00  0.00    -0.237 OA
ATOM     62  O   UNL A   1      40.042  34.961  38.844  1.00  0.00    -0.237 OA
ATOM     63  O   UNL A   1      42.058  36.221  38.220  1.00  0.00    -0.744 OA
ENDBRANCH  59  60
ENDBRANCH  27  52
BRANCH  39  64
ATOM     64  C   UNL A   1      47.127  28.051  33.945  1.00  0.00     0.058 A 
ATOM     65  C   UNL A   1      48.276  28.760  33.565  1.00  0.00     0.135 A 
ATOM     66  C   UNL A   1      47.204  27.211  35.066  1.00  0.00     0.135 A 
ATOM     67  F   UNL A   1      48.250  29.567  32.492  1.00  0.00    -0.206 F 
ATOM     68  C   UNL A   1      49.470  28.626  34.264  1.00  0.00     0.059 A 
ATOM     69  C   UNL A   1      48.381  27.077  35.790  1.00  0.00     0.059 A 
ATOM     70  F   UNL A   1      46.127  26.516  35.466  1.00  0.00    -0.206 F 
ATOM     71  C   UNL A   1      49.513  27.781  35.374  1.00  0.00     0.060 A 
BRANCH  71  72
ATOM     72  S   UNL A   1      51.058  27.632  36.293  1.00  0.00     0.124 S 
ATOM     73  O   UNL A   1      51.386  26.226  36.089  1.00  0.00    -0.237 OA
ATOM     74  O   UNL A   1      51.923  28.591  35.612  1.00  0.00    -0.237 OA
ATOM     75  O   UNL A   1      50.678  27.999  37.653  1.00  0.00    -0.744 OA
ENDBRANCH  71  72
ENDBRANCH  39  64
ENDBRANCH  13  14
ENDBRANCH   6   8
ENDBRANCH   5   6
ENDBRANCH   4   5
ENDBRANCH   3   4
ENDBRANCH   2   3
ENDBRANCH   1   2
BRANCH   1  76
ATOM     76  C   UNL A   1      30.076  27.500  23.090  1.00  0.00     0.188 C 
BRANCH  76  77
ATOM     77  O   UNL A   1      29.982  26.458  24.063  1.00  0.00    -0.376 OA
BRANCH  77  78
ATOM     78  C   UNL A   1      30.298  25.137  23.631  1.00  0.00     0.202 C 
BRANCH  78  79
ATOM     79  C   UNL A   1      31.288  24.345  24.493  1.00  0.00     0.261 C 
BRANCH  79  80
ATOM     80  O   UNL A   1      31.408  22.947  24.174  1.00  0.00    -0.460 OA
BRANCH  80  81
ATOM     81  C   UNL A   1      32.487  22.647  23.415  1.00  0.00     0.338 C 
ATOM     82  O   UNL A   1      32.657  22.915  22.232  1.00  0.00    -0.246 OA
BRANCH  81  83
ATOM     83  C   UNL A   1      33.478  21.870  24.169  1.00  0.00     0.071 A 
ATOM     84  C   UNL A   1      34.594  22.539  24.670  1.00  0.00     0.045 A 
ATOM     85  C   UNL A   1      33.413  20.462  24.136  1.00  0.00     0.018 A 
ATOM     86  C   UNL A   1      35.666  21.776  25.098  1.00  0.00     0.072 A 
ATOM     87  C   UNL A   1      34.566  19.775  24.552  1.00  0.00     0.107 A 
ATOM     88  C   UNL A   1      32.279  19.731  23.693  1.00  0.00     0.011 A 
ATOM     89  N   UNL A   1      35.656  20.427  25.017  1.00  0.00    -0.245 NA
ATOM     90  C   UNL A   1      34.563  18.383  24.444  1.00  0.00     0.149 A 
ATOM     91  C   UNL A   1      32.302  18.342  23.625  1.00  0.00     0.004 A 
ATOM     92  F   UNL A   1      35.658  17.690  24.795  1.00  0.00    -0.205 F 
ATOM     93  C   UNL A   1      33.460  17.668  23.978  1.00  0.00     0.041 A 
BRANCH  86  94
ATOM     94  C   UNL A   1      36.911  22.364  25.618  1.00  0.00     0.001 A 
ATOM     95  C   UNL A   1      36.981  23.718  25.974  1.00  0.00     0.010 A 
ATOM     96  C   UNL A   1      38.068  21.583  25.791  1.00  0.00     0.023 A 
ATOM     97  C   UNL A   1      38.151  24.276  26.496  1.00  0.00     0.001 A 
ATOM     98  C   UNL A   1      39.263  22.134  26.289  1.00  0.00     0.056 A 
ATOM     99  C   UNL A   1      39.287  23.488  26.650  1.00  0.00     0.013 A 
BRANCH  98 100
ATOM    100  C   UNL A   1      40.514  21.303  26.420  1.00  0.00     0.416 C 
ATOM    101  F   UNL A   1      40.336  20.036  25.942  1.00  0.00    -0.166 F 
ATOM    102  F   UNL A   1      41.565  21.811  25.718  1.00  0.00    -0.166 F 
ATOM    103  F   UNL A   1      40.953  21.150  27.699  1.00  0.00    -0.166 F 
ENDBRANCH  98 100
ENDBRANCH  86  94
ENDBRANCH  81  83
ENDBRANCH  80  81
ENDBRANCH  79  80
ENDBRANCH  78  79
ENDBRANCH  77  78
ENDBRANCH  76  77
ENDBRANCH   1  76
TORSDOF 22
ENDMDL
