MODEL 1
REMARK VINA RESULT:      -9.9      0.000      0.000
REMARK SMILES O=C(OCCOCCOCCOC(=O)[C@@H]1CC=CC[C@H]1C(=O)N1CC[NH+](Cc2ccc3c(c2)OCO3)CC1)c1ccc(-c2c3nc(c(-c4c(F)cc(S(=O)(=O)[O-])cc4F)c4ccc([nH]4)c(-c4c(F)cc(S(=O)(=O)[O-])cc4F)c4nc(c(-c5c(F)cc(S(=O)(=O)[O-])cc5F)c5ccc2[nH]5)C=C4)C=C3)cc1
REMARK SMILES IDX 7 1 6 2 5 3 4 4 3 5 2 6 1 7 39 8 40 9 104 10 41 11 103 12
REMARK SMILES IDX 42 13 43 14 44 15 97 16 45 17 102 18 96 19 98 20 46 21
REMARK SMILES IDX 101 22 95 23 94 24 47 26 81 27 60 28 80 29 61 30 64 31 79 32
REMARK SMILES IDX 99 33 62 34 63 35 78 37 100 38 65 39 48 40 49 41 58 42 50 43
REMARK SMILES IDX 51 44 57 45 59 46 52 47 53 48 54 49 55 50 56 51 82 52 83 53
REMARK SMILES IDX 92 54 84 55 85 56 91 57 93 58 86 59 87 60 88 61 89 62 90 63
REMARK SMILES IDX 66 64 67 65 76 66 68 67 69 68 75 69 77 70 70 71 71 72 72 73
REMARK SMILES IDX 73 74 74 75 8 76 9 77 10 78 11 79 12 80 13 81 14 82 15 83
REMARK SMILES IDX 16 84 20 85 17 86 19 87 18 88 21 89 22 90 23 91 24 92 38 93
REMARK SMILES IDX 25 94 37 95 26 96 27 98 28 99 29 100 33 101 30 102 32 103
REMARK SMILES IDX 31 104 34 105 36 106 35 107
REMARK H PARENT 98 25 64 36 26 97
REMARK Flexibility Score: inf
ROOT
ATOM      1  C   UNL A   1      37.321  22.379  24.912  1.00  0.00     0.188 C 
ENDROOT
BRANCH   1   2
ATOM      2  O   UNL A   1      37.939  21.933  26.119  1.00  0.00    -0.376 OA
BRANCH   2   3
ATOM      3  C   UNL A   1      39.343  21.712  26.054  1.00  0.00     0.202 C 
BRANCH   3   4
ATOM      4  C   UNL A   1      39.804  20.254  26.116  1.00  0.00     0.261 C 
BRANCH   4   5
ATOM      5  O   UNL A   1      41.090  20.080  26.684  1.00  0.00    -0.460 OA
BRANCH   5   6
ATOM      6  C   UNL A   1      42.235  20.393  26.032  1.00  0.00     0.338 C 
ATOM      7  O   UNL A   1      42.594  19.609  25.148  1.00  0.00    -0.246 OA
BRANCH   6   8
ATOM      8  C   UNL A   1      42.991  21.683  26.265  1.00  0.00     0.060 A 
ATOM      9  C   UNL A   1      43.368  22.739  25.433  1.00  0.00     0.016 A 
ATOM     10  C   UNL A   1      43.315  21.842  27.595  1.00  0.00     0.016 A 
ATOM     11  C   UNL A   1      44.080  23.864  25.938  1.00  0.00     0.010 A 
ATOM     12  C   UNL A   1      44.034  22.911  28.099  1.00  0.00     0.010 A 
ATOM     13  C   UNL A   1      44.426  23.952  27.287  1.00  0.00    -0.014 A 
BRANCH  13  14
ATOM     14  C   UNL A   1      45.033  25.107  27.997  1.00  0.00     0.031 A 
ATOM     15  C   UNL A   1      44.178  26.209  28.576  1.00  0.00     0.074 A 
ATOM     16  C   UNL A   1      46.338  25.355  27.787  1.00  0.00     0.049 A 
ATOM     17  N   UNL A   1      44.492  27.333  29.164  1.00  0.00    -0.248 NA
ATOM     18  C   UNL A   1      42.738  26.035  28.402  1.00  0.00     0.031 C 
ATOM     19  C   UNL A   1      47.249  24.518  27.006  1.00  0.00     0.029 A 
ATOM     20  N   UNL A   1      47.092  26.437  28.139  1.00  0.00    -0.354 N 
ATOM     21  C   UNL A   1      43.274  27.923  29.507  1.00  0.00     0.074 A 
ATOM     22  C   UNL A   1      42.233  27.172  28.863  1.00  0.00     0.031 C 
ATOM     23  C   UNL A   1      48.430  25.148  26.890  1.00  0.00     0.029 A 
ATOM     24  C   UNL A   1      48.362  26.403  27.628  1.00  0.00     0.049 A 
ATOM     25  H   UNL A   1      46.756  27.170  28.703  1.00  0.00     0.167 HD
ATOM     26  C   UNL A   1      43.039  28.919  30.398  1.00  0.00     0.037 A 
ATOM     27  C   UNL A   1      49.362  27.285  27.781  1.00  0.00     0.037 A 
ATOM     28  C   UNL A   1      44.110  29.668  30.987  1.00  0.00     0.049 A 
ATOM     29  C   UNL A   1      49.155  28.406  28.763  1.00  0.00     0.074 A 
ATOM     30  C   UNL A   1      44.084  30.636  31.971  1.00  0.00     0.029 A 
ATOM     31  N   UNL A   1      45.432  29.517  30.598  1.00  0.00    -0.354 N 
ATOM     32  N   UNL A   1      48.045  28.801  29.346  1.00  0.00    -0.248 NA
ATOM     33  C   UNL A   1      50.352  29.138  29.184  1.00  0.00     0.031 C 
ATOM     34  C   UNL A   1      45.396  31.101  32.141  1.00  0.00     0.029 A 
ATOM     35  C   UNL A   1      46.236  30.387  31.296  1.00  0.00     0.049 A 
ATOM     36  H   UNL A   1      45.751  28.878  29.920  1.00  0.00     0.167 HD
ATOM     37  C   UNL A   1      48.423  29.778  30.260  1.00  0.00     0.074 A 
ATOM     38  C   UNL A   1      49.861  29.920  30.136  1.00  0.00     0.031 C 
ATOM     39  C   UNL A   1      47.664  30.479  31.140  1.00  0.00     0.037 A 
BRANCH  26  40
ATOM     40  C   UNL A   1      41.616  29.124  30.852  1.00  0.00     0.058 A 
ATOM     41  C   UNL A   1      41.123  28.418  31.969  1.00  0.00     0.135 A 
ATOM     42  C   UNL A   1      40.736  30.008  30.213  1.00  0.00     0.135 A 
ATOM     43  F   UNL A   1      41.914  27.554  32.626  1.00  0.00    -0.206 F 
ATOM     44  C   UNL A   1      39.808  28.543  32.401  1.00  0.00     0.059 A 
ATOM     45  C   UNL A   1      39.418  30.171  30.647  1.00  0.00     0.059 A 
ATOM     46  F   UNL A   1      41.141  30.713  29.146  1.00  0.00    -0.206 F 
ATOM     47  C   UNL A   1      38.959  29.423  31.732  1.00  0.00     0.060 A 
BRANCH  47  48
ATOM     48  S   UNL A   1      37.257  29.569  32.319  1.00  0.00     0.124 S 
ATOM     49  O   UNL A   1      37.215  30.959  32.758  1.00  0.00    -0.237 OA
ATOM     50  O   UNL A   1      36.486  29.257  31.123  1.00  0.00    -0.237 OA
ATOM     51  O   UNL A   1      37.181  28.573  33.389  1.00  0.00    -0.744 OA
ENDBRANCH  47  48
ENDBRANCH  26  40
BRANCH  27  52
ATOM     52  C   UNL A   1      50.665  27.038  27.121  1.00  0.00     0.058 A 
ATOM     53  C   UNL A   1      51.674  26.314  27.772  1.00  0.00     0.135 A 
ATOM     54  C   UNL A   1      50.914  27.481  25.813  1.00  0.00     0.135 A 
ATOM     55  F   UNL A   1      51.467  25.840  29.010  1.00  0.00    -0.206 F 
ATOM     56  C   UNL A   1      52.908  26.089  27.174  1.00  0.00     0.059 A 
ATOM     57  C   UNL A   1      52.135  27.252  25.186  1.00  0.00     0.059 A 
ATOM     58  F   UNL A   1      49.957  28.127  25.127  1.00  0.00    -0.206 F 
ATOM     59  C   UNL A   1      53.133  26.572  25.884  1.00  0.00     0.060 A 
BRANCH  59  60
ATOM     60  S   UNL A   1      54.751  26.293  25.137  1.00  0.00     0.124 S 
ATOM     61  O   UNL A   1      55.634  26.431  26.290  1.00  0.00    -0.237 OA
ATOM     62  O   UNL A   1      54.608  24.944  24.600  1.00  0.00    -0.237 OA
ATOM     63  O   UNL A   1      54.849  27.354  24.139  1.00  0.00    -0.744 OA
ENDBRANCH  59  60
ENDBRANCH  27  52
BRANCH  39  64
ATOM     64  C   UNL A   1      48.382  31.415  32.061  1.00  0.00     0.058 A 
ATOM     65  C   UNL A   1      48.943  30.970  33.265  1.00  0.00     0.135 A 
ATOM     66  C   UNL A   1      48.556  32.758  31.696  1.00  0.00     0.135 A 
ATOM     67  F   UNL A   1      48.798  29.692  33.651  1.00  0.00    -0.206 F 
ATOM     68  C   UNL A   1      49.627  31.840  34.100  1.00  0.00     0.059 A 
ATOM     69  C   UNL A   1      49.267  33.638  32.500  1.00  0.00     0.059 A 
ATOM     70  F   UNL A   1      48.049  33.221  30.542  1.00  0.00    -0.206 F 
ATOM     71  C   UNL A   1      49.785  33.172  33.708  1.00  0.00     0.060 A 
BRANCH  71  72
ATOM     72  S   UNL A   1      50.702  34.284  34.789  1.00  0.00     0.124 S 
ATOM     73  O   UNL A   1      52.079  33.999  34.397  1.00  0.00    -0.237 OA
ATOM     74  O   UNL A   1      50.189  35.593  34.397  1.00  0.00    -0.237 OA
ATOM     75  O   UNL A   1      50.323  33.843  36.128  1.00  0.00    -0.744 OA
ENDBRANCH  71  72
ENDBRANCH  39  64
ENDBRANCH  13  14
ENDBRANCH   6   8
ENDBRANCH   5   6
ENDBRANCH   4   5
ENDBRANCH   3   4
ENDBRANCH   2   3
ENDBRANCH   1   2
BRANCH   1  76
ATOM     76  C   UNL A   1      36.430  23.629  24.918  1.00  0.00     0.188 C 
BRANCH  76  77
ATOM     77  O   UNL A   1      35.617  23.987  23.818  1.00  0.00    -0.376 OA
BRANCH  77  78
ATOM     78  C   UNL A   1      34.279  24.382  24.050  1.00  0.00     0.202 C 
BRANCH  78  79
ATOM     79  C   UNL A   1      33.606  24.132  25.413  1.00  0.00     0.261 C 
BRANCH  79  80
ATOM     80  O   UNL A   1      32.711  25.150  25.912  1.00  0.00    -0.463 OA
BRANCH  80  81
ATOM     81  C   UNL A   1      31.575  25.321  25.184  1.00  0.00     0.310 C 
ATOM     82  O   UNL A   1      30.789  24.398  24.982  1.00  0.00    -0.252 OA
BRANCH  81  83
ATOM     83  C   UNL A   1      31.278  26.793  24.797  1.00  0.00     0.115 C 
ATOM     84  C   UNL A   1      29.750  26.869  24.569  1.00  0.00     0.043 C 
ATOM     85  C   UNL A   1      32.159  27.404  23.662  1.00  0.00     0.097 C 
ATOM     86  C   UNL A   1      29.250  27.799  23.523  1.00  0.00    -0.030 C 
ATOM     87  C   UNL A   1      31.469  27.957  22.410  1.00  0.00     0.041 C 
ATOM     88  C   UNL A   1      30.019  28.273  22.541  1.00  0.00    -0.030 C 
BRANCH  85  89
ATOM     89  C   UNL A   1      33.177  28.396  24.266  1.00  0.00     0.227 C 
ATOM     90  O   UNL A   1      34.088  28.753  23.516  1.00  0.00    -0.275 OA
ATOM     91  N   UNL A   1      33.203  28.706  25.637  1.00  0.00    -0.331 N 
ATOM     92  C   UNL A   1      32.740  30.055  26.064  1.00  0.00     0.181 C 
ATOM     93  C   UNL A   1      34.328  28.132  26.390  1.00  0.00     0.181 C 
ATOM     94  C   UNL A   1      33.633  30.869  27.094  1.00  0.00     0.284 C 
ATOM     95  C   UNL A   1      35.034  29.015  27.464  1.00  0.00     0.284 C 
ATOM     96  N   UNL A   1      35.038  30.438  27.119  1.00  0.00    -0.328 N 
ATOM     97  H   UNL A   1      35.417  30.590  26.184  1.00  0.00     0.348 HD
BRANCH  96  98
ATOM     98  C   UNL A   1      36.059  31.283  27.790  1.00  0.00     0.299 C 
BRANCH  98  99
ATOM     99  C   UNL A   1      35.489  32.435  28.673  1.00  0.00     0.010 A 
ATOM    100  C   UNL A   1      35.212  32.209  30.043  1.00  0.00     0.013 A 
ATOM    101  C   UNL A   1      35.113  33.696  28.145  1.00  0.00     0.060 A 
ATOM    102  C   UNL A   1      34.467  33.127  30.816  1.00  0.00     0.051 A 
ATOM    103  C   UNL A   1      34.342  34.566  28.925  1.00  0.00     0.166 A 
ATOM    104  C   UNL A   1      33.982  34.256  30.209  1.00  0.00     0.165 A 
ATOM    105  O   UNL A   1      33.769  35.740  28.524  1.00  0.00    -0.454 OA
ATOM    106  O   UNL A   1      33.092  35.129  30.751  1.00  0.00    -0.454 OA
ATOM    107  C   UNL A   1      32.922  36.046  29.658  1.00  0.00     0.468 C 
ENDBRANCH  98  99
ENDBRANCH  96  98
ENDBRANCH  85  89
ENDBRANCH  81  83
ENDBRANCH  80  81
ENDBRANCH  79  80
ENDBRANCH  78  79
ENDBRANCH  77  78
ENDBRANCH  76  77
ENDBRANCH   1  76
TORSDOF 23
ENDMDL
MODEL 2
REMARK VINA RESULT:      -9.4      4.031      5.685
REMARK SMILES O=C(OCCOCCOCCOC(=O)[C@@H]1CC=CC[C@H]1C(=O)N1CC[NH+](Cc2ccc3c(c2)OCO3)CC1)c1ccc(-c2c3nc(c(-c4c(F)cc(S(=O)(=O)[O-])cc4F)c4ccc([nH]4)c(-c4c(F)cc(S(=O)(=O)[O-])cc4F)c4nc(c(-c5c(F)cc(S(=O)(=O)[O-])cc5F)c5ccc2[nH]5)C=C4)C=C3)cc1
REMARK SMILES IDX 7 1 6 2 5 3 4 4 3 5 2 6 1 7 39 8 40 9 104 10 41 11 103 12
REMARK SMILES IDX 42 13 43 14 44 15 97 16 45 17 102 18 96 19 98 20 46 21
REMARK SMILES IDX 101 22 95 23 94 24 47 26 81 27 60 28 80 29 61 30 64 31 79 32
REMARK SMILES IDX 99 33 62 34 63 35 78 37 100 38 65 39 48 40 49 41 58 42 50 43
REMARK SMILES IDX 51 44 57 45 59 46 52 47 53 48 54 49 55 50 56 51 82 52 83 53
REMARK SMILES IDX 92 54 84 55 85 56 91 57 93 58 86 59 87 60 88 61 89 62 90 63
REMARK SMILES IDX 66 64 67 65 76 66 68 67 69 68 75 69 77 70 70 71 71 72 72 73
REMARK SMILES IDX 73 74 74 75 8 76 9 77 10 78 11 79 12 80 13 81 14 82 15 83
REMARK SMILES IDX 16 84 20 85 17 86 19 87 18 88 21 89 22 90 23 91 24 92 38 93
REMARK SMILES IDX 25 94 37 95 26 96 27 98 28 99 29 100 33 101 30 102 32 103
REMARK SMILES IDX 31 104 34 105 36 106 35 107
REMARK H PARENT 98 25 64 36 26 97
REMARK Flexibility Score: inf
ROOT
ATOM      1  C   UNL A   1      36.730  23.279  24.782  1.00  0.00     0.188 C 
ENDROOT
BRANCH   1   2
ATOM      2  O   UNL A   1      36.839  23.783  26.114  1.00  0.00    -0.376 OA
BRANCH   2   3
ATOM      3  C   UNL A   1      38.147  24.153  26.534  1.00  0.00     0.202 C 
BRANCH   3   4
ATOM      4  C   UNL A   1      39.219  23.064  26.453  1.00  0.00     0.261 C 
BRANCH   4   5
ATOM      5  O   UNL A   1      40.545  23.562  26.426  1.00  0.00    -0.460 OA
BRANCH   5   6
ATOM      6  C   UNL A   1      41.545  23.042  27.175  1.00  0.00     0.338 C 
ATOM      7  O   UNL A   1      41.426  21.857  27.501  1.00  0.00    -0.246 OA
BRANCH   6   8
ATOM      8  C   UNL A   1      42.808  23.805  27.510  1.00  0.00     0.060 A 
ATOM      9  C   UNL A   1      43.171  25.151  27.415  1.00  0.00     0.016 A 
ATOM     10  C   UNL A   1      43.759  22.981  28.072  1.00  0.00     0.016 A 
ATOM     11  C   UNL A   1      44.455  25.604  27.830  1.00  0.00     0.010 A 
ATOM     12  C   UNL A   1      45.024  23.396  28.450  1.00  0.00     0.010 A 
ATOM     13  C   UNL A   1      45.401  24.717  28.347  1.00  0.00    -0.014 A 
BRANCH  13  14
ATOM     14  C   UNL A   1      46.717  25.043  28.952  1.00  0.00     0.031 A 
ATOM     15  C   UNL A   1      46.827  25.520  30.381  1.00  0.00     0.074 A 
ATOM     16  C   UNL A   1      47.748  25.275  28.121  1.00  0.00     0.049 A 
ATOM     17  N   UNL A   1      47.852  25.926  31.084  1.00  0.00    -0.248 NA
ATOM     18  C   UNL A   1      45.562  25.611  31.105  1.00  0.00     0.031 C 
ATOM     19  C   UNL A   1      47.718  25.125  26.665  1.00  0.00     0.029 A 
ATOM     20  N   UNL A   1      48.989  25.779  28.382  1.00  0.00    -0.354 N 
ATOM     21  C   UNL A   1      47.340  26.213  32.351  1.00  0.00     0.074 A 
ATOM     22  C   UNL A   1      45.907  26.170  32.259  1.00  0.00     0.031 C 
ATOM     23  C   UNL A   1      48.874  25.583  26.155  1.00  0.00     0.029 A 
ATOM     24  C   UNL A   1      49.731  26.010  27.254  1.00  0.00     0.049 A 
ATOM     25  H   UNL A   1      49.319  25.960  29.292  1.00  0.00     0.167 HD
ATOM     26  C   UNL A   1      48.012  26.358  33.520  1.00  0.00     0.037 A 
ATOM     27  C   UNL A   1      50.982  26.484  27.143  1.00  0.00     0.037 A 
ATOM     28  C   UNL A   1      49.443  26.435  33.560  1.00  0.00     0.049 A 
ATOM     29  C   UNL A   1      51.773  26.658  28.411  1.00  0.00     0.074 A 
ATOM     30  C   UNL A   1      50.303  26.482  34.639  1.00  0.00     0.029 A 
ATOM     31  N   UNL A   1      50.222  26.494  32.414  1.00  0.00    -0.354 N 
ATOM     32  N   UNL A   1      51.356  26.631  29.657  1.00  0.00    -0.248 NA
ATOM     33  C   UNL A   1      53.221  26.826  28.261  1.00  0.00     0.031 C 
ATOM     34  C   UNL A   1      51.605  26.616  34.136  1.00  0.00     0.029 A 
ATOM     35  C   UNL A   1      51.551  26.605  32.748  1.00  0.00     0.049 A 
ATOM     36  H   UNL A   1      49.874  26.461  31.494  1.00  0.00     0.167 HD
ATOM     37  C   UNL A   1      52.500  26.704  30.442  1.00  0.00     0.074 A 
ATOM     38  C   UNL A   1      53.622  26.792  29.525  1.00  0.00     0.031 C 
ATOM     39  C   UNL A   1      52.626  26.677  31.794  1.00  0.00     0.037 A 
BRANCH  26  40
ATOM     40  C   UNL A   1      47.209  26.301  34.796  1.00  0.00     0.058 A 
ATOM     41  C   UNL A   1      46.682  27.486  35.349  1.00  0.00     0.135 A 
ATOM     42  C   UNL A   1      46.946  25.103  35.474  1.00  0.00     0.135 A 
ATOM     43  F   UNL A   1      46.900  28.668  34.751  1.00  0.00    -0.206 F 
ATOM     44  C   UNL A   1      45.970  27.491  36.544  1.00  0.00     0.059 A 
ATOM     45  C   UNL A   1      46.209  25.081  36.660  1.00  0.00     0.059 A 
ATOM     46  F   UNL A   1      47.415  23.940  35.000  1.00  0.00    -0.206 F 
ATOM     47  C   UNL A   1      45.738  26.281  37.195  1.00  0.00     0.060 A 
BRANCH  47  48
ATOM     48  S   UNL A   1      44.806  26.316  38.742  1.00  0.00     0.124 S 
ATOM     49  O   UNL A   1      43.520  26.841  38.298  1.00  0.00    -0.237 OA
ATOM     50  O   UNL A   1      44.816  24.916  39.145  1.00  0.00    -0.237 OA
ATOM     51  O   UNL A   1      45.590  27.217  39.589  1.00  0.00    -0.744 OA
ENDBRANCH  47  48
ENDBRANCH  26  40
BRANCH  27  52
ATOM     52  C   UNL A   1      51.583  26.657  25.800  1.00  0.00     0.058 A 
ATOM     53  C   UNL A   1      52.300  25.615  25.195  1.00  0.00     0.135 A 
ATOM     54  C   UNL A   1      51.419  27.849  25.078  1.00  0.00     0.135 A 
ATOM     55  F   UNL A   1      52.452  24.446  25.835  1.00  0.00    -0.206 F 
ATOM     56  C   UNL A   1      52.886  25.768  23.944  1.00  0.00     0.059 A 
ATOM     57  C   UNL A   1      51.980  28.019  23.816  1.00  0.00     0.059 A 
ATOM     58  F   UNL A   1      50.691  28.853  25.592  1.00  0.00    -0.206 F 
ATOM     59  C   UNL A   1      52.730  26.978  23.268  1.00  0.00     0.060 A 
BRANCH  59  60
ATOM     60  S   UNL A   1      53.522  27.165  21.657  1.00  0.00     0.124 S 
ATOM     61  O   UNL A   1      53.199  28.550  21.331  1.00  0.00    -0.237 OA
ATOM     62  O   UNL A   1      54.921  26.893  21.974  1.00  0.00    -0.237 OA
ATOM     63  O   UNL A   1      52.861  26.154  20.837  1.00  0.00    -0.744 OA
ENDBRANCH  59  60
ENDBRANCH  27  52
BRANCH  39  64
ATOM     64  C   UNL A   1      54.017  26.691  32.346  1.00  0.00     0.058 A 
ATOM     65  C   UNL A   1      54.733  25.506  32.558  1.00  0.00     0.135 A 
ATOM     66  C   UNL A   1      54.652  27.915  32.610  1.00  0.00     0.135 A 
ATOM     67  F   UNL A   1      54.160  24.315  32.320  1.00  0.00    -0.206 F 
ATOM     68  C   UNL A   1      56.030  25.531  33.049  1.00  0.00     0.059 A 
ATOM     69  C   UNL A   1      55.961  27.964  33.068  1.00  0.00     0.059 A 
ATOM     70  F   UNL A   1      54.007  29.074  32.405  1.00  0.00    -0.206 F 
ATOM     71  C   UNL A   1      56.635  26.766  33.299  1.00  0.00     0.060 A 
BRANCH  71  72
ATOM     72  S   UNL A   1      58.331  26.784  33.908  1.00  0.00     0.124 S 
ATOM     73  O   UNL A   1      58.180  26.130  35.205  1.00  0.00    -0.237 OA
ATOM     74  O   UNL A   1      59.036  26.015  32.888  1.00  0.00    -0.237 OA
ATOM     75  O   UNL A   1      58.659  28.205  33.953  1.00  0.00    -0.744 OA
ENDBRANCH  71  72
ENDBRANCH  39  64
ENDBRANCH  13  14
ENDBRANCH   6   8
ENDBRANCH   5   6
ENDBRANCH   4   5
ENDBRANCH   3   4
ENDBRANCH   2   3
ENDBRANCH   1   2
BRANCH   1  76
ATOM     76  C   UNL A   1      35.576  22.341  24.405  1.00  0.00     0.188 C 
BRANCH  76  77
ATOM     77  O   UNL A   1      34.226  22.761  24.401  1.00  0.00    -0.376 OA
BRANCH  77  78
ATOM     78  C   UNL A   1      33.392  22.390  23.321  1.00  0.00     0.202 C 
BRANCH  78  79
ATOM     79  C   UNL A   1      33.334  23.241  22.039  1.00  0.00     0.261 C 
BRANCH  79  80
ATOM     80  O   UNL A   1      32.374  24.320  21.995  1.00  0.00    -0.463 OA
BRANCH  80  81
ATOM     81  C   UNL A   1      32.886  25.554  22.250  1.00  0.00     0.310 C 
ATOM     82  O   UNL A   1      33.832  26.008  21.610  1.00  0.00    -0.252 OA
BRANCH  81  83
ATOM     83  C   UNL A   1      32.071  26.387  23.273  1.00  0.00     0.115 C 
ATOM     84  C   UNL A   1      30.817  25.542  23.601  1.00  0.00     0.043 C 
ATOM     85  C   UNL A   1      31.798  27.877  22.894  1.00  0.00     0.097 C 
ATOM     86  C   UNL A   1      29.549  26.264  23.881  1.00  0.00    -0.030 C 
ATOM     87  C   UNL A   1      30.347  28.363  22.811  1.00  0.00     0.041 C 
ATOM     88  C   UNL A   1      29.330  27.527  23.509  1.00  0.00    -0.030 C 
BRANCH  85  89
ATOM     89  C   UNL A   1      32.688  28.806  23.750  1.00  0.00     0.227 C 
ATOM     90  O   UNL A   1      33.659  29.300  23.173  1.00  0.00    -0.275 OA
ATOM     91  N   UNL A   1      32.540  28.914  25.144  1.00  0.00    -0.331 N 
ATOM     92  C   UNL A   1      31.961  30.168  25.697  1.00  0.00     0.181 C 
ATOM     93  C   UNL A   1      33.601  28.276  25.939  1.00  0.00     0.181 C 
ATOM     94  C   UNL A   1      32.686  30.855  26.931  1.00  0.00     0.284 C 
ATOM     95  C   UNL A   1      34.131  29.018  27.203  1.00  0.00     0.284 C 
ATOM     96  N   UNL A   1      34.100  30.476  27.065  1.00  0.00    -0.328 N 
ATOM     97  H   UNL A   1      34.575  30.775  26.213  1.00  0.00     0.348 HD
BRANCH  96  98
ATOM     98  C   UNL A   1      34.991  31.250  27.967  1.00  0.00     0.299 C 
BRANCH  98  99
ATOM     99  C   UNL A   1      36.258  30.488  28.459  1.00  0.00     0.010 A 
ATOM    100  C   UNL A   1      37.220  30.030  27.526  1.00  0.00     0.013 A 
ATOM    101  C   UNL A   1      36.455  30.115  29.813  1.00  0.00     0.060 A 
ATOM    102  C   UNL A   1      38.242  29.126  27.888  1.00  0.00     0.051 A 
ATOM    103  C   UNL A   1      37.453  29.187  30.133  1.00  0.00     0.166 A 
ATOM    104  C   UNL A   1      38.285  28.665  29.179  1.00  0.00     0.165 A 
ATOM    105  O   UNL A   1      37.676  28.605  31.350  1.00  0.00    -0.454 OA
ATOM    106  O   UNL A   1      39.070  27.653  29.634  1.00  0.00    -0.454 OA
ATOM    107  C   UNL A   1      38.645  27.587  31.006  1.00  0.00     0.468 C 
ENDBRANCH  98  99
ENDBRANCH  96  98
ENDBRANCH  85  89
ENDBRANCH  81  83
ENDBRANCH  80  81
ENDBRANCH  79  80
ENDBRANCH  78  79
ENDBRANCH  77  78
ENDBRANCH  76  77
ENDBRANCH   1  76
TORSDOF 23
ENDMDL
MODEL 3
REMARK VINA RESULT:      -9.2      4.475     10.895
REMARK SMILES O=C(OCCOCCOCCOC(=O)[C@@H]1CC=CC[C@H]1C(=O)N1CC[NH+](Cc2ccc3c(c2)OCO3)CC1)c1ccc(-c2c3nc(c(-c4c(F)cc(S(=O)(=O)[O-])cc4F)c4ccc([nH]4)c(-c4c(F)cc(S(=O)(=O)[O-])cc4F)c4nc(c(-c5c(F)cc(S(=O)(=O)[O-])cc5F)c5ccc2[nH]5)C=C4)C=C3)cc1
REMARK SMILES IDX 7 1 6 2 5 3 4 4 3 5 2 6 1 7 39 8 40 9 104 10 41 11 103 12
REMARK SMILES IDX 42 13 43 14 44 15 97 16 45 17 102 18 96 19 98 20 46 21
REMARK SMILES IDX 101 22 95 23 94 24 47 26 81 27 60 28 80 29 61 30 64 31 79 32
REMARK SMILES IDX 99 33 62 34 63 35 78 37 100 38 65 39 48 40 49 41 58 42 50 43
REMARK SMILES IDX 51 44 57 45 59 46 52 47 53 48 54 49 55 50 56 51 82 52 83 53
REMARK SMILES IDX 92 54 84 55 85 56 91 57 93 58 86 59 87 60 88 61 89 62 90 63
REMARK SMILES IDX 66 64 67 65 76 66 68 67 69 68 75 69 77 70 70 71 71 72 72 73
REMARK SMILES IDX 73 74 74 75 8 76 9 77 10 78 11 79 12 80 13 81 14 82 15 83
REMARK SMILES IDX 16 84 20 85 17 86 19 87 18 88 21 89 22 90 23 91 24 92 38 93
REMARK SMILES IDX 25 94 37 95 26 96 27 98 28 99 29 100 33 101 30 102 32 103
REMARK SMILES IDX 31 104 34 105 36 106 35 107
REMARK H PARENT 98 25 64 36 26 97
REMARK Flexibility Score: inf
ROOT
ATOM      1  C   UNL A   1      43.536  38.806  30.600  1.00  0.00     0.188 C 
ENDROOT
BRANCH   1   2
ATOM      2  O   UNL A   1      44.479  38.882  29.529  1.00  0.00    -0.376 OA
BRANCH   2   3
ATOM      3  C   UNL A   1      44.042  38.366  28.277  1.00  0.00     0.202 C 
BRANCH   3   4
ATOM      4  C   UNL A   1      44.875  38.756  27.054  1.00  0.00     0.261 C 
BRANCH   4   5
ATOM      5  O   UNL A   1      45.668  37.701  26.538  1.00  0.00    -0.460 OA
BRANCH   5   6
ATOM      6  C   UNL A   1      46.600  37.051  27.272  1.00  0.00     0.338 C 
ATOM      7  O   UNL A   1      47.503  37.744  27.751  1.00  0.00    -0.246 OA
BRANCH   6   8
ATOM      8  C   UNL A   1      46.507  35.578  27.607  1.00  0.00     0.060 A 
ATOM      9  C   UNL A   1      46.665  34.849  28.788  1.00  0.00     0.016 A 
ATOM     10  C   UNL A   1      46.137  34.835  26.506  1.00  0.00     0.016 A 
ATOM     11  C   UNL A   1      46.499  33.435  28.815  1.00  0.00     0.010 A 
ATOM     12  C   UNL A   1      46.003  33.458  26.505  1.00  0.00     0.010 A 
ATOM     13  C   UNL A   1      46.171  32.725  27.659  1.00  0.00    -0.014 A 
BRANCH  13  14
ATOM     14  C   UNL A   1      45.825  31.286  27.544  1.00  0.00     0.031 A 
ATOM     15  C   UNL A   1      44.488  30.761  28.011  1.00  0.00     0.074 A 
ATOM     16  C   UNL A   1      46.832  30.410  27.382  1.00  0.00     0.049 A 
ATOM     17  N   UNL A   1      44.004  29.548  28.074  1.00  0.00    -0.248 NA
ATOM     18  C   UNL A   1      43.579  31.769  28.552  1.00  0.00     0.031 C 
ATOM     19  C   UNL A   1      48.241  30.758  27.195  1.00  0.00     0.029 A 
ATOM     20  N   UNL A   1      46.827  29.047  27.447  1.00  0.00    -0.354 N 
ATOM     21  C   UNL A   1      42.705  29.693  28.566  1.00  0.00     0.074 A 
ATOM     22  C   UNL A   1      42.558  31.052  29.005  1.00  0.00     0.031 C 
ATOM     23  C   UNL A   1      48.975  29.633  27.215  1.00  0.00     0.029 A 
ATOM     24  C   UNL A   1      48.079  28.495  27.370  1.00  0.00     0.049 A 
ATOM     25  H   UNL A   1      46.006  28.512  27.541  1.00  0.00     0.167 HD
ATOM     26  C   UNL A   1      41.682  28.804  28.520  1.00  0.00     0.037 A 
ATOM     27  C   UNL A   1      48.439  27.202  27.389  1.00  0.00     0.037 A 
ATOM     28  C   UNL A   1      41.884  27.445  28.111  1.00  0.00     0.049 A 
ATOM     29  C   UNL A   1      47.341  26.175  27.334  1.00  0.00     0.074 A 
ATOM     30  C   UNL A   1      40.970  26.431  27.907  1.00  0.00     0.029 A 
ATOM     31  N   UNL A   1      43.141  26.918  27.859  1.00  0.00    -0.354 N 
ATOM     32  N   UNL A   1      46.046  26.337  27.499  1.00  0.00    -0.248 NA
ATOM     33  C   UNL A   1      47.740  24.806  26.998  1.00  0.00     0.031 C 
ATOM     34  C   UNL A   1      41.689  25.274  27.574  1.00  0.00     0.029 A 
ATOM     35  C   UNL A   1      43.042  25.588  27.527  1.00  0.00     0.049 A 
ATOM     36  H   UNL A   1      43.985  27.424  27.910  1.00  0.00     0.167 HD
ATOM     37  C   UNL A   1      45.470  25.106  27.211  1.00  0.00     0.074 A 
ATOM     38  C   UNL A   1      46.562  24.210  26.879  1.00  0.00     0.031 C 
ATOM     39  C   UNL A   1      44.161  24.745  27.195  1.00  0.00     0.037 A 
BRANCH  26  40
ATOM     40  C   UNL A   1      40.293  29.328  28.788  1.00  0.00     0.058 A 
ATOM     41  C   UNL A   1      39.412  29.568  27.714  1.00  0.00     0.135 A 
ATOM     42  C   UNL A   1      39.817  29.590  30.080  1.00  0.00     0.135 A 
ATOM     43  F   UNL A   1      39.805  29.341  26.451  1.00  0.00    -0.206 F 
ATOM     44  C   UNL A   1      38.136  30.088  27.907  1.00  0.00     0.059 A 
ATOM     45  C   UNL A   1      38.530  30.086  30.299  1.00  0.00     0.059 A 
ATOM     46  F   UNL A   1      40.604  29.381  31.146  1.00  0.00    -0.206 F 
ATOM     47  C   UNL A   1      37.703  30.347  29.206  1.00  0.00     0.060 A 
BRANCH  47  48
ATOM     48  S   UNL A   1      36.041  31.018  29.426  1.00  0.00     0.124 S 
ATOM     49  O   UNL A   1      35.239  30.080  28.650  1.00  0.00    -0.237 OA
ATOM     50  O   UNL A   1      35.868  30.956  30.872  1.00  0.00    -0.237 OA
ATOM     51  O   UNL A   1      36.143  32.366  28.866  1.00  0.00    -0.744 OA
ENDBRANCH  47  48
ENDBRANCH  26  40
BRANCH  27  52
ATOM     52  C   UNL A   1      49.872  26.839  27.297  1.00  0.00     0.058 A 
ATOM     53  C   UNL A   1      50.481  26.627  26.051  1.00  0.00     0.135 A 
ATOM     54  C   UNL A   1      50.672  26.738  28.445  1.00  0.00     0.135 A 
ATOM     55  F   UNL A   1      49.762  26.747  24.925  1.00  0.00    -0.206 F 
ATOM     56  C   UNL A   1      51.819  26.268  25.948  1.00  0.00     0.059 A 
ATOM     57  C   UNL A   1      52.019  26.398  28.366  1.00  0.00     0.059 A 
ATOM     58  F   UNL A   1      50.148  26.990  29.655  1.00  0.00    -0.206 F 
ATOM     59  C   UNL A   1      52.577  26.145  27.113  1.00  0.00     0.060 A 
BRANCH  59  60
ATOM     60  S   UNL A   1      54.306  25.651  26.959  1.00  0.00     0.124 S 
ATOM     61  O   UNL A   1      54.865  26.772  26.211  1.00  0.00    -0.237 OA
ATOM     62  O   UNL A   1      54.717  25.546  28.355  1.00  0.00    -0.237 OA
ATOM     63  O   UNL A   1      54.231  24.386  26.234  1.00  0.00    -0.744 OA
ENDBRANCH  59  60
ENDBRANCH  27  52
BRANCH  39  64
ATOM     64  C   UNL A   1      43.847  23.349  26.760  1.00  0.00     0.058 A 
ATOM     65  C   UNL A   1      44.021  22.938  25.432  1.00  0.00     0.135 A 
ATOM     66  C   UNL A   1      43.421  22.401  27.704  1.00  0.00     0.135 A 
ATOM     67  F   UNL A   1      44.424  23.815  24.499  1.00  0.00    -0.206 F 
ATOM     68  C   UNL A   1      43.748  21.635  25.044  1.00  0.00     0.059 A 
ATOM     69  C   UNL A   1      43.178  21.084  27.345  1.00  0.00     0.059 A 
ATOM     70  F   UNL A   1      43.258  22.749  28.991  1.00  0.00    -0.206 F 
ATOM     71  C   UNL A   1      43.329  20.716  26.008  1.00  0.00     0.060 A 
BRANCH  71  72
ATOM     72  S   UNL A   1      43.008  19.018  25.495  1.00  0.00     0.124 S 
ATOM     73  O   UNL A   1      41.555  18.948  25.618  1.00  0.00    -0.237 OA
ATOM     74  O   UNL A   1      43.532  19.000  24.133  1.00  0.00    -0.237 OA
ATOM     75  O   UNL A   1      43.762  18.225  26.461  1.00  0.00    -0.744 OA
ENDBRANCH  71  72
ENDBRANCH  39  64
ENDBRANCH  13  14
ENDBRANCH   6   8
ENDBRANCH   5   6
ENDBRANCH   4   5
ENDBRANCH   3   4
ENDBRANCH   2   3
ENDBRANCH   1   2
BRANCH   1  76
ATOM     76  C   UNL A   1      43.816  39.525  31.926  1.00  0.00     0.188 C 
BRANCH  76  77
ATOM     77  O   UNL A   1      45.044  39.396  32.615  1.00  0.00    -0.376 OA
BRANCH  77  78
ATOM     78  C   UNL A   1      45.280  38.237  33.391  1.00  0.00     0.202 C 
BRANCH  78  79
ATOM     79  C   UNL A   1      44.179  37.653  34.296  1.00  0.00     0.261 C 
BRANCH  79  80
ATOM     80  O   UNL A   1      43.827  36.264  34.108  1.00  0.00    -0.463 OA
BRANCH  80  81
ATOM     81  C   UNL A   1      42.680  35.876  34.727  1.00  0.00     0.310 C 
ATOM     82  O   UNL A   1      41.988  36.666  35.365  1.00  0.00    -0.252 OA
BRANCH  81  83
ATOM     83  C   UNL A   1      42.241  34.423  34.409  1.00  0.00     0.115 C 
ATOM     84  C   UNL A   1      43.283  33.508  35.095  1.00  0.00     0.043 C 
ATOM     85  C   UNL A   1      41.945  34.099  32.911  1.00  0.00     0.097 C 
ATOM     86  C   UNL A   1      43.629  32.228  34.425  1.00  0.00    -0.030 C 
ATOM     87  C   UNL A   1      42.733  32.976  32.229  1.00  0.00     0.041 C 
ATOM     88  C   UNL A   1      43.399  31.995  33.132  1.00  0.00    -0.030 C 
BRANCH  85  89
ATOM     89  C   UNL A   1      40.420  33.971  32.694  1.00  0.00     0.227 C 
ATOM     90  O   UNL A   1      39.977  34.500  31.672  1.00  0.00    -0.275 OA
ATOM     91  N   UNL A   1      39.558  33.483  33.691  1.00  0.00    -0.331 N 
ATOM     92  C   UNL A   1      38.961  32.132  33.507  1.00  0.00     0.181 C 
ATOM     93  C   UNL A   1      38.704  34.494  34.334  1.00  0.00     0.181 C 
ATOM     94  C   UNL A   1      37.404  31.953  33.765  1.00  0.00     0.284 C 
ATOM     95  C   UNL A   1      37.220  34.129  34.640  1.00  0.00     0.284 C 
ATOM     96  N   UNL A   1      36.645  33.207  33.659  1.00  0.00    -0.328 N 
ATOM     97  H   UNL A   1      36.769  33.556  32.708  1.00  0.00     0.348 HD
BRANCH  96  98
ATOM     98  C   UNL A   1      35.162  33.169  33.570  1.00  0.00     0.299 C 
BRANCH  98  99
ATOM     99  C   UNL A   1      34.527  34.234  32.626  1.00  0.00     0.010 A 
ATOM    100  C   UNL A   1      33.531  35.114  33.116  1.00  0.00     0.013 A 
ATOM    101  C   UNL A   1      34.811  34.302  31.238  1.00  0.00     0.060 A 
ATOM    102  C   UNL A   1      32.751  35.915  32.254  1.00  0.00     0.051 A 
ATOM    103  C   UNL A   1      33.995  35.076  30.406  1.00  0.00     0.166 A 
ATOM    104  C   UNL A   1      32.955  35.816  30.902  1.00  0.00     0.165 A 
ATOM    105  O   UNL A   1      34.030  35.131  29.041  1.00  0.00    -0.454 OA
ATOM    106  O   UNL A   1      32.165  36.360  29.938  1.00  0.00    -0.454 OA
ATOM    107  C   UNL A   1      32.825  35.882  28.755  1.00  0.00     0.468 C 
ENDBRANCH  98  99
ENDBRANCH  96  98
ENDBRANCH  85  89
ENDBRANCH  81  83
ENDBRANCH  80  81
ENDBRANCH  79  80
ENDBRANCH  78  79
ENDBRANCH  77  78
ENDBRANCH  76  77
ENDBRANCH   1  76
TORSDOF 23
ENDMDL
