MODEL 1
REMARK VINA RESULT:      -6.2      0.000      0.000
REMARK SMILES O=C(N[C@@H](Cc1ccccc1)C(=O)N[C@@H](CS)C(=O)N[C@@H](CO)C(=O)OCCOCCOCCOC(=O)c1ccc(-c2c3nc(c(-c4c(F)cc(S(=O)(=O)[O-])cc4F)c4ccc([nH]4)c(-c4c(F)cc(S(=O)(=O)[O-])cc4F)c4nc(c(-c5c(F)cc(S(=O)(=O)[O-])cc5F)c5ccc2[nH]5)C=C4)C=C3)cc1)c1ccc(F)cc1
REMARK SMILES IDX 29 1 28 2 27 3 26 4 24 5 25 6 21 7 20 8 18 9 19 10 15 12
REMARK SMILES IDX 14 13 12 14 13 15 4 17 3 18 1 19 2 20 104 22 105 23 110 24
REMARK SMILES IDX 106 25 109 26 107 27 108 28 5 29 6 30 7 31 11 32 8 33 10 34
REMARK SMILES IDX 9 35 16 36 17 37 22 39 23 40 30 42 31 43 32 44 33 45 34 46
REMARK SMILES IDX 35 47 36 48 37 49 38 50 39 51 103 52 40 53 102 54 41 55
REMARK SMILES IDX 42 56 43 57 96 58 44 59 101 60 95 61 97 62 45 63 100 64
REMARK SMILES IDX 94 65 93 66 46 68 80 69 59 70 79 71 60 72 63 73 78 74 98 75
REMARK SMILES IDX 61 76 62 77 77 79 99 80 64 81 47 82 48 83 57 84 49 85 50 86
REMARK SMILES IDX 56 87 58 88 51 89 52 90 53 91 54 92 55 93 81 94 82 95 91 96
REMARK SMILES IDX 83 97 84 98 90 99 92 100 85 101 86 102 87 103 88 104 89 105
REMARK SMILES IDX 65 106 66 107 75 108 67 109 68 110 74 111 76 112 69 113
REMARK SMILES IDX 70 114 71 115 72 116 73 117
REMARK H PARENT 20 11 14 16 3 21 17 38 23 41 97 67 63 78
REMARK Flexibility Score: inf
ROOT
ATOM      1  O   UNL A   1      50.219  29.613  25.689  1.00  0.00    -0.376 OA
ENDROOT
BRANCH   1   2
ATOM      2  C   UNL A   1      50.067  28.200  25.685  1.00  0.00     0.202 C 
BRANCH   2   3
ATOM      3  C   UNL A   1      48.677  27.620  25.973  1.00  0.00     0.261 C 
BRANCH   3   4
ATOM      4  O   UNL A   1      48.592  26.192  25.822  1.00  0.00    -0.462 OA
BRANCH   4   5
ATOM      5  C   UNL A   1      47.411  25.743  25.311  1.00  0.00     0.331 C 
ATOM      6  O   UNL A   1      46.691  26.394  24.561  1.00  0.00    -0.250 OA
BRANCH   5   7
ATOM      7  C   UNL A   1      47.038  24.333  25.797  1.00  0.00     0.218 C 
BRANCH   7   8
ATOM      8  N   UNL A   1      46.259  24.251  27.059  1.00  0.00    -0.339 N 
ATOM      9  C   UNL A   1      46.244  25.316  27.918  1.00  0.00     0.244 C 
ATOM     10  O   UNL A   1      47.234  25.470  28.642  1.00  0.00    -0.273 OA
ATOM     11  H   UNL A   1      45.756  23.433  27.275  1.00  0.00     0.164 HD
BRANCH   9  12
ATOM     12  C   UNL A   1      44.961  26.204  28.071  1.00  0.00     0.181 C 
BRANCH  12  13
ATOM     13  N   UNL A   1      44.832  26.959  26.815  1.00  0.00    -0.342 N 
ATOM     14  C   UNL A   1      44.373  28.225  26.597  1.00  0.00     0.243 C 
ATOM     15  O   UNL A   1      44.969  28.878  25.731  1.00  0.00    -0.273 OA
ATOM     16  H   UNL A   1      45.120  26.476  26.006  1.00  0.00     0.164 HD
BRANCH  14  17
ATOM     17  C   UNL A   1      43.190  28.875  27.357  1.00  0.00     0.176 C 
BRANCH  17  18
ATOM     18  N   UNL A   1      43.509  30.160  27.971  1.00  0.00    -0.340 N 
ATOM     19  O   UNL A   1      43.296  31.870  29.408  1.00  0.00    -0.269 OA
ATOM     20  C   UNL A   1      42.945  30.740  29.086  1.00  0.00     0.251 C 
ATOM     21  H   UNL A   1      44.218  30.683  27.529  1.00  0.00     0.164 HD
BRANCH  20  22
ATOM     22  C   UNL A   1      41.865  30.047  29.839  1.00  0.00     0.040 A 
ATOM     23  C   UNL A   1      42.107  28.871  30.563  1.00  0.00     0.017 A 
ATOM     24  C   UNL A   1      40.570  30.583  29.791  1.00  0.00     0.017 A 
ATOM     25  C   UNL A   1      41.042  28.191  31.163  1.00  0.00     0.040 A 
ATOM     26  C   UNL A   1      39.510  29.904  30.402  1.00  0.00     0.040 A 
ATOM     27  C   UNL A   1      39.753  28.706  31.067  1.00  0.00     0.123 A 
ATOM     28  F   UNL A   1      38.733  28.036  31.618  1.00  0.00    -0.207 F 
ENDBRANCH  20  22
ENDBRANCH  17  18
BRANCH  17  29
ATOM     29  C   UNL A   1      41.800  28.800  26.693  1.00  0.00     0.070 C 
BRANCH  29  30
ATOM     30  C   UNL A   1      41.007  27.521  26.812  1.00  0.00    -0.045 A 
ATOM     31  C   UNL A   1      40.036  27.366  27.811  1.00  0.00     0.004 A 
ATOM     32  C   UNL A   1      41.271  26.441  25.964  1.00  0.00     0.004 A 
ATOM     33  C   UNL A   1      39.309  26.178  27.917  1.00  0.00     0.000 A 
ATOM     34  C   UNL A   1      40.509  25.273  26.035  1.00  0.00     0.000 A 
ATOM     35  C   UNL A   1      39.525  25.143  27.011  1.00  0.00     0.000 A 
ENDBRANCH  29  30
ENDBRANCH  17  29
ENDBRANCH  14  17
ENDBRANCH  12  13
BRANCH  12  36
ATOM     36  C   UNL A   1      43.666  25.531  28.530  1.00  0.00     0.101 C 
BRANCH  36  37
ATOM     37  S   UNL A   1      43.725  24.585  30.077  1.00  0.00    -0.177 SA
ATOM     38  H   UNL A   1      44.933  24.769  30.674  1.00  0.00     0.102 HD
ENDBRANCH  36  37
ENDBRANCH  12  36
ENDBRANCH   9  12
ENDBRANCH   7   8
BRANCH   7  39
ATOM     39  C   UNL A   1      46.314  23.632  24.633  1.00  0.00     0.193 C 
BRANCH  39  40
ATOM     40  O   UNL A   1      47.094  23.709  23.437  1.00  0.00    -0.394 OA
ATOM     41  H   UNL A   1      48.021  23.507  23.640  1.00  0.00     0.210 HD
ENDBRANCH  39  40
ENDBRANCH   7  39
ENDBRANCH   5   7
ENDBRANCH   4   5
ENDBRANCH   3   4
ENDBRANCH   2   3
ENDBRANCH   1   2
BRANCH   1  42
ATOM     42  C   UNL A   1      51.517  30.163  25.885  1.00  0.00     0.188 C 
BRANCH  42  43
ATOM     43  C   UNL A   1      51.867  30.810  27.243  1.00  0.00     0.188 C 
BRANCH  43  44
ATOM     44  O   UNL A   1      51.323  30.165  28.379  1.00  0.00    -0.376 OA
BRANCH  44  45
ATOM     45  C   UNL A   1      50.400  30.935  29.138  1.00  0.00     0.202 C 
BRANCH  45  46
ATOM     46  C   UNL A   1      48.919  30.624  28.879  1.00  0.00     0.261 C 
BRANCH  46  47
ATOM     47  O   UNL A   1      48.159  30.237  30.038  1.00  0.00    -0.460 OA
BRANCH  47  48
ATOM     48  C   UNL A   1      46.925  29.722  29.825  1.00  0.00     0.338 C 
ATOM     49  O   UNL A   1      46.577  29.019  28.898  1.00  0.00    -0.246 OA
BRANCH  48  50
ATOM     50  C   UNL A   1      46.115  30.001  31.033  1.00  0.00     0.060 A 
ATOM     51  C   UNL A   1      46.002  31.322  31.485  1.00  0.00     0.016 A 
ATOM     52  C   UNL A   1      45.460  28.967  31.706  1.00  0.00     0.016 A 
ATOM     53  C   UNL A   1      45.214  31.612  32.603  1.00  0.00     0.010 A 
ATOM     54  C   UNL A   1      44.688  29.259  32.836  1.00  0.00     0.010 A 
ATOM     55  C   UNL A   1      44.559  30.583  33.293  1.00  0.00    -0.014 A 
BRANCH  55  56
ATOM     56  C   UNL A   1      43.848  30.871  34.565  1.00  0.00     0.031 A 
ATOM     57  C   UNL A   1      42.425  31.351  34.508  1.00  0.00     0.074 A 
ATOM     58  C   UNL A   1      44.444  30.691  35.758  1.00  0.00     0.049 A 
ATOM     59  N   UNL A   1      41.654  31.790  35.468  1.00  0.00    -0.248 NA
ATOM     60  C   UNL A   1      41.791  31.337  33.181  1.00  0.00     0.031 C 
ATOM     61  C   UNL A   1      45.780  30.137  35.964  1.00  0.00     0.029 A 
ATOM     62  N   UNL A   1      43.991  30.959  37.028  1.00  0.00    -0.354 N 
ATOM     63  C   UNL A   1      40.445  32.112  34.863  1.00  0.00     0.074 A 
ATOM     64  C   UNL A   1      40.596  31.839  33.449  1.00  0.00     0.031 C 
ATOM     65  C   UNL A   1      46.038  30.102  37.284  1.00  0.00     0.029 A 
ATOM     66  C   UNL A   1      44.911  30.684  38.013  1.00  0.00     0.049 A 
ATOM     67  H   UNL A   1      43.093  31.315  37.215  1.00  0.00     0.167 HD
ATOM     68  C   UNL A   1      39.315  32.597  35.432  1.00  0.00     0.037 A 
ATOM     69  C   UNL A   1      44.860  30.908  39.342  1.00  0.00     0.037 A 
ATOM     70  C   UNL A   1      39.169  32.869  36.837  1.00  0.00     0.049 A 
ATOM     71  C   UNL A   1      43.643  31.573  39.938  1.00  0.00     0.074 A 
ATOM     72  C   UNL A   1      38.071  33.381  37.508  1.00  0.00     0.029 A 
ATOM     73  N   UNL A   1      40.155  32.656  37.792  1.00  0.00    -0.354 N 
ATOM     74  N   UNL A   1      42.521  31.920  39.354  1.00  0.00    -0.248 NA
ATOM     75  C   UNL A   1      43.696  31.900  41.372  1.00  0.00     0.031 C 
ATOM     76  C   UNL A   1      38.412  33.527  38.857  1.00  0.00     0.029 A 
ATOM     77  C   UNL A   1      39.704  33.059  39.037  1.00  0.00     0.049 A 
ATOM     78  H   UNL A   1      41.044  32.275  37.609  1.00  0.00     0.167 HD
ATOM     79  C   UNL A   1      41.727  32.482  40.350  1.00  0.00     0.074 A 
ATOM     80  C   UNL A   1      42.495  32.424  41.577  1.00  0.00     0.031 C 
ATOM     81  C   UNL A   1      40.475  32.995  40.256  1.00  0.00     0.037 A 
BRANCH  68  82
ATOM     82  C   UNL A   1      38.177  32.931  34.508  1.00  0.00     0.058 A 
ATOM     83  C   UNL A   1      37.273  31.957  34.057  1.00  0.00     0.135 A 
ATOM     84  C   UNL A   1      38.010  34.245  34.044  1.00  0.00     0.135 A 
ATOM     85  F   UNL A   1      37.395  30.680  34.455  1.00  0.00    -0.206 F 
ATOM     86  C   UNL A   1      36.274  32.265  33.137  1.00  0.00     0.059 A 
ATOM     87  C   UNL A   1      37.002  34.582  33.146  1.00  0.00     0.059 A 
ATOM     88  F   UNL A   1      38.846  35.215  34.445  1.00  0.00    -0.206 F 
ATOM     89  C   UNL A   1      36.155  33.578  32.679  1.00  0.00     0.060 A 
BRANCH  89  90
ATOM     90  S   UNL A   1      34.894  33.954  31.443  1.00  0.00     0.124 S 
ATOM     91  O   UNL A   1      34.306  35.172  31.993  1.00  0.00    -0.237 OA
ATOM     92  O   UNL A   1      35.686  34.127  30.229  1.00  0.00    -0.237 OA
ATOM     93  O   UNL A   1      34.034  32.776  31.464  1.00  0.00    -0.744 OA
ENDBRANCH  89  90
ENDBRANCH  68  82
BRANCH  69  94
ATOM     94  C   UNL A   1      46.010  30.530  40.209  1.00  0.00     0.058 A 
ATOM     95  C   UNL A   1      46.141  29.224  40.704  1.00  0.00     0.135 A 
ATOM     96  C   UNL A   1      46.997  31.462  40.565  1.00  0.00     0.135 A 
ATOM     97  F   UNL A   1      45.212  28.300  40.413  1.00  0.00    -0.206 F 
ATOM     98  C   UNL A   1      47.207  28.855  41.519  1.00  0.00     0.059 A 
ATOM     99  C   UNL A   1      48.086  31.111  41.357  1.00  0.00     0.059 A 
ATOM    100  F   UNL A   1      46.918  32.727  40.122  1.00  0.00    -0.206 F 
ATOM    101  C   UNL A   1      48.179  29.805  41.834  1.00  0.00     0.060 A 
BRANCH 101 102
ATOM    102  S   UNL A   1      49.592  29.297  42.839  1.00  0.00     0.124 S 
ATOM    103  O   UNL A   1      48.956  28.439  43.831  1.00  0.00    -0.237 OA
ATOM    104  O   UNL A   1      50.437  28.623  41.859  1.00  0.00    -0.237 OA
ATOM    105  O   UNL A   1      50.117  30.563  43.343  1.00  0.00    -0.744 OA
ENDBRANCH 101 102
ENDBRANCH  69  94
BRANCH  81 106
ATOM    106  C   UNL A   1      39.833  33.515  41.515  1.00  0.00     0.058 A 
ATOM    107  C   UNL A   1      39.034  32.696  42.328  1.00  0.00     0.135 A 
ATOM    108  C   UNL A   1      40.082  34.827  41.952  1.00  0.00     0.135 A 
ATOM    109  F   UNL A   1      38.757  31.437  41.956  1.00  0.00    -0.206 F 
ATOM    110  C   UNL A   1      38.496  33.163  43.525  1.00  0.00     0.059 A 
ATOM    111  C   UNL A   1      39.575  35.306  43.156  1.00  0.00     0.059 A 
ATOM    112  F   UNL A   1      40.847  35.650  41.217  1.00  0.00    -0.206 F 
ATOM    113  C   UNL A   1      38.777  34.468  43.933  1.00  0.00     0.060 A 
BRANCH 113 114
ATOM    114  S   UNL A   1      38.120  35.042  45.515  1.00  0.00     0.124 S 
ATOM    115  O   UNL A   1      37.222  33.950  45.875  1.00  0.00    -0.237 OA
ATOM    116  O   UNL A   1      39.325  35.166  46.329  1.00  0.00    -0.237 OA
ATOM    117  O   UNL A   1      37.469  36.304  45.175  1.00  0.00    -0.744 OA
ENDBRANCH 113 114
ENDBRANCH  81 106
ENDBRANCH  55  56
ENDBRANCH  48  50
ENDBRANCH  47  48
ENDBRANCH  46  47
ENDBRANCH  45  46
ENDBRANCH  44  45
ENDBRANCH  43  44
ENDBRANCH  42  43
ENDBRANCH   1  42
TORSDOF 32
ENDMDL
MODEL 2
REMARK VINA RESULT:      -6.1      2.091      2.417
REMARK SMILES O=C(N[C@@H](Cc1ccccc1)C(=O)N[C@@H](CS)C(=O)N[C@@H](CO)C(=O)OCCOCCOCCOC(=O)c1ccc(-c2c3nc(c(-c4c(F)cc(S(=O)(=O)[O-])cc4F)c4ccc([nH]4)c(-c4c(F)cc(S(=O)(=O)[O-])cc4F)c4nc(c(-c5c(F)cc(S(=O)(=O)[O-])cc5F)c5ccc2[nH]5)C=C4)C=C3)cc1)c1ccc(F)cc1
REMARK SMILES IDX 29 1 28 2 27 3 26 4 24 5 25 6 21 7 20 8 18 9 19 10 15 12
REMARK SMILES IDX 14 13 12 14 13 15 4 17 3 18 1 19 2 20 104 22 105 23 110 24
REMARK SMILES IDX 106 25 109 26 107 27 108 28 5 29 6 30 7 31 11 32 8 33 10 34
REMARK SMILES IDX 9 35 16 36 17 37 22 39 23 40 30 42 31 43 32 44 33 45 34 46
REMARK SMILES IDX 35 47 36 48 37 49 38 50 39 51 103 52 40 53 102 54 41 55
REMARK SMILES IDX 42 56 43 57 96 58 44 59 101 60 95 61 97 62 45 63 100 64
REMARK SMILES IDX 94 65 93 66 46 68 80 69 59 70 79 71 60 72 63 73 78 74 98 75
REMARK SMILES IDX 61 76 62 77 77 79 99 80 64 81 47 82 48 83 57 84 49 85 50 86
REMARK SMILES IDX 56 87 58 88 51 89 52 90 53 91 54 92 55 93 81 94 82 95 91 96
REMARK SMILES IDX 83 97 84 98 90 99 92 100 85 101 86 102 87 103 88 104 89 105
REMARK SMILES IDX 65 106 66 107 75 108 67 109 68 110 74 111 76 112 69 113
REMARK SMILES IDX 70 114 71 115 72 116 73 117
REMARK H PARENT 20 11 14 16 3 21 17 38 23 41 97 67 63 78
REMARK Flexibility Score: inf
ROOT
ATOM      1  O   UNL A   1      50.166  28.447  24.882  1.00  0.00    -0.376 OA
ENDROOT
BRANCH   1   2
ATOM      2  C   UNL A   1      49.865  27.069  25.057  1.00  0.00     0.202 C 
BRANCH   2   3
ATOM      3  C   UNL A   1      48.466  26.691  25.558  1.00  0.00     0.261 C 
BRANCH   3   4
ATOM      4  O   UNL A   1      48.204  25.277  25.558  1.00  0.00    -0.462 OA
BRANCH   4   5
ATOM      5  C   UNL A   1      46.928  24.934  25.220  1.00  0.00     0.331 C 
ATOM      6  O   UNL A   1      46.183  25.632  24.541  1.00  0.00    -0.250 OA
BRANCH   5   7
ATOM      7  C   UNL A   1      46.487  23.585  25.810  1.00  0.00     0.218 C 
BRANCH   7   8
ATOM      8  N   UNL A   1      45.785  23.631  27.118  1.00  0.00    -0.339 N 
ATOM      9  C   UNL A   1      45.865  24.755  27.894  1.00  0.00     0.244 C 
ATOM     10  O   UNL A   1      46.903  24.919  28.544  1.00  0.00    -0.273 OA
ATOM     11  H   UNL A   1      45.264  22.854  27.426  1.00  0.00     0.164 HD
BRANCH   9  12
ATOM     12  C   UNL A   1      44.630  25.709  28.053  1.00  0.00     0.181 C 
BRANCH  12  13
ATOM     13  N   UNL A   1      44.434  26.349  26.743  1.00  0.00    -0.342 N 
ATOM     14  C   UNL A   1      44.027  27.616  26.440  1.00  0.00     0.243 C 
ATOM     15  O   UNL A   1      44.580  28.147  25.469  1.00  0.00    -0.273 OA
ATOM     16  H   UNL A   1      44.625  25.776  25.965  1.00  0.00     0.164 HD
BRANCH  14  17
ATOM     17  C   UNL A   1      42.949  28.405  27.225  1.00  0.00     0.176 C 
BRANCH  17  18
ATOM     18  N   UNL A   1      43.359  29.751  27.612  1.00  0.00    -0.340 N 
ATOM     19  O   UNL A   1      43.387  31.625  28.847  1.00  0.00    -0.269 OA
ATOM     20  C   UNL A   1      42.995  30.469  28.731  1.00  0.00     0.251 C 
ATOM     21  H   UNL A   1      43.975  30.206  26.993  1.00  0.00     0.164 HD
BRANCH  20  22
ATOM     22  C   UNL A   1      42.070  29.885  29.739  1.00  0.00     0.040 A 
ATOM     23  C   UNL A   1      42.478  28.870  30.616  1.00  0.00     0.017 A 
ATOM     24  C   UNL A   1      40.750  30.357  29.784  1.00  0.00     0.017 A 
ATOM     25  C   UNL A   1      41.546  28.273  31.472  1.00  0.00     0.040 A 
ATOM     26  C   UNL A   1      39.825  29.763  30.650  1.00  0.00     0.040 A 
ATOM     27  C   UNL A   1      40.227  28.716  31.472  1.00  0.00     0.123 A 
ATOM     28  F   UNL A   1      39.333  28.121  32.272  1.00  0.00    -0.207 F 
ENDBRANCH  20  22
ENDBRANCH  17  18
BRANCH  17  29
ATOM     29  C   UNL A   1      41.492  28.286  26.734  1.00  0.00     0.070 C 
BRANCH  29  30
ATOM     30  C   UNL A   1      40.703  27.051  27.094  1.00  0.00    -0.045 A 
ATOM     31  C   UNL A   1      40.121  26.913  28.363  1.00  0.00     0.004 A 
ATOM     32  C   UNL A   1      40.588  25.993  26.188  1.00  0.00     0.004 A 
ATOM     33  C   UNL A   1      39.396  25.764  28.690  1.00  0.00     0.000 A 
ATOM     34  C   UNL A   1      39.819  24.868  26.494  1.00  0.00     0.000 A 
ATOM     35  C   UNL A   1      39.220  24.756  27.746  1.00  0.00     0.000 A 
ENDBRANCH  29  30
ENDBRANCH  17  29
ENDBRANCH  14  17
ENDBRANCH  12  13
BRANCH  12  36
ATOM     36  C   UNL A   1      43.350  25.138  28.666  1.00  0.00     0.101 C 
BRANCH  36  37
ATOM     37  S   UNL A   1      43.489  23.570  29.566  1.00  0.00    -0.177 SA
ATOM     38  H   UNL A   1      42.681  22.641  28.988  1.00  0.00     0.102 HD
ENDBRANCH  36  37
ENDBRANCH  12  36
ENDBRANCH   9  12
ENDBRANCH   7   8
BRANCH   7  39
ATOM     39  C   UNL A   1      45.643  22.877  24.735  1.00  0.00     0.193 C 
BRANCH  39  40
ATOM     40  O   UNL A   1      46.236  23.042  23.443  1.00  0.00    -0.394 OA
ATOM     41  H   UNL A   1      46.797  23.833  23.442  1.00  0.00     0.210 HD
ENDBRANCH  39  40
ENDBRANCH   7  39
ENDBRANCH   5   7
ENDBRANCH   4   5
ENDBRANCH   3   4
ENDBRANCH   2   3
ENDBRANCH   1   2
BRANCH   1  42
ATOM     42  C   UNL A   1      51.510  28.884  25.058  1.00  0.00     0.188 C 
BRANCH  42  43
ATOM     43  C   UNL A   1      51.899  29.630  26.353  1.00  0.00     0.188 C 
BRANCH  43  44
ATOM     44  O   UNL A   1      51.297  29.142  27.538  1.00  0.00    -0.376 OA
BRANCH  44  45
ATOM     45  C   UNL A   1      50.440  30.055  28.212  1.00  0.00     0.202 C 
BRANCH  45  46
ATOM     46  C   UNL A   1      48.952  29.676  28.214  1.00  0.00     0.261 C 
BRANCH  46  47
ATOM     47  O   UNL A   1      48.323  29.663  29.509  1.00  0.00    -0.460 OA
BRANCH  47  48
ATOM     48  C   UNL A   1      47.062  29.176  29.579  1.00  0.00     0.338 C 
ATOM     49  O   UNL A   1      46.595  28.261  28.930  1.00  0.00    -0.246 OA
BRANCH  48  50
ATOM     50  C   UNL A   1      46.400  29.824  30.734  1.00  0.00     0.060 A 
ATOM     51  C   UNL A   1      46.237  31.215  30.731  1.00  0.00     0.016 A 
ATOM     52  C   UNL A   1      45.932  29.061  31.807  1.00  0.00     0.016 A 
ATOM     53  C   UNL A   1      45.584  31.843  31.797  1.00  0.00     0.010 A 
ATOM     54  C   UNL A   1      45.298  29.696  32.880  1.00  0.00     0.010 A 
ATOM     55  C   UNL A   1      45.118  31.091  32.883  1.00  0.00    -0.014 A 
BRANCH  55  56
ATOM     56  C   UNL A   1      44.562  31.772  34.080  1.00  0.00     0.031 A 
ATOM     57  C   UNL A   1      43.101  32.122  34.104  1.00  0.00     0.074 A 
ATOM     58  C   UNL A   1      45.334  32.062  35.144  1.00  0.00     0.049 A 
ATOM     59  N   UNL A   1      42.426  32.830  34.971  1.00  0.00    -0.248 NA
ATOM     60  C   UNL A   1      42.295  31.600  32.988  1.00  0.00     0.031 C 
ATOM     61  C   UNL A   1      46.739  31.694  35.298  1.00  0.00     0.029 A 
ATOM     62  N   UNL A   1      45.035  32.740  36.302  1.00  0.00    -0.354 N 
ATOM     63  C   UNL A   1      41.117  32.848  34.505  1.00  0.00     0.074 A 
ATOM     64  C   UNL A   1      41.100  32.098  33.267  1.00  0.00     0.031 C 
ATOM     65  C   UNL A   1      47.180  32.145  36.486  1.00  0.00     0.029 A 
ATOM     66  C   UNL A   1      46.108  32.884  37.151  1.00  0.00     0.049 A 
ATOM     67  H   UNL A   1      44.138  33.088  36.505  1.00  0.00     0.167 HD
ATOM     68  C   UNL A   1      40.030  33.439  35.056  1.00  0.00     0.037 A 
ATOM     69  C   UNL A   1      46.217  33.563  38.311  1.00  0.00     0.037 A 
ATOM     70  C   UNL A   1      40.050  34.186  36.286  1.00  0.00     0.049 A 
ATOM     71  C   UNL A   1      45.027  34.328  38.840  1.00  0.00     0.074 A 
ATOM     72  C   UNL A   1      39.006  34.840  36.916  1.00  0.00     0.029 A 
ATOM     73  N   UNL A   1      41.176  34.381  37.075  1.00  0.00    -0.354 N 
ATOM     74  N   UNL A   1      43.803  34.381  38.371  1.00  0.00    -0.248 NA
ATOM     75  C   UNL A   1      45.242  35.146  40.044  1.00  0.00     0.031 C 
ATOM     76  C   UNL A   1      39.512  35.475  38.055  1.00  0.00     0.029 A 
ATOM     77  C   UNL A   1      40.860  35.175  38.164  1.00  0.00     0.049 A 
ATOM     78  H   UNL A   1      42.068  34.010  36.886  1.00  0.00     0.167 HD
ATOM     79  C   UNL A   1      43.097  35.216  39.233  1.00  0.00     0.074 A 
ATOM     80  C   UNL A   1      44.030  35.641  40.257  1.00  0.00     0.031 C 
ATOM     81  C   UNL A   1      41.795  35.592  39.182  1.00  0.00     0.037 A 
BRANCH  68  82
ATOM     82  C   UNL A   1      38.744  33.359  34.280  1.00  0.00     0.058 A 
ATOM     83  C   UNL A   1      37.755  32.407  34.573  1.00  0.00     0.135 A 
ATOM     84  C   UNL A   1      38.516  34.232  33.205  1.00  0.00     0.135 A 
ATOM     85  F   UNL A   1      37.929  31.535  35.580  1.00  0.00    -0.206 F 
ATOM     86  C   UNL A   1      36.608  32.291  33.793  1.00  0.00     0.059 A 
ATOM     87  C   UNL A   1      37.364  34.152  32.430  1.00  0.00     0.059 A 
ATOM     88  F   UNL A   1      39.429  35.161  32.883  1.00  0.00    -0.206 F 
ATOM     89  C   UNL A   1      36.427  33.160  32.717  1.00  0.00     0.060 A 
BRANCH  89  90
ATOM     90  S   UNL A   1      34.964  32.963  31.678  1.00  0.00     0.124 S 
ATOM     91  O   UNL A   1      33.917  32.799  32.683  1.00  0.00    -0.237 OA
ATOM     92  O   UNL A   1      34.935  34.219  30.935  1.00  0.00    -0.237 OA
ATOM     93  O   UNL A   1      35.266  31.776  30.886  1.00  0.00    -0.744 OA
ENDBRANCH  89  90
ENDBRANCH  68  82
BRANCH  69  94
ATOM     94  C   UNL A   1      47.510  33.583  39.048  1.00  0.00     0.058 A 
ATOM     95  C   UNL A   1      47.809  32.603  40.007  1.00  0.00     0.135 A 
ATOM     96  C   UNL A   1      48.471  34.580  38.815  1.00  0.00     0.135 A 
ATOM     97  F   UNL A   1      46.915  31.641  40.284  1.00  0.00    -0.206 F 
ATOM     98  C   UNL A   1      49.012  32.609  40.707  1.00  0.00     0.059 A 
ATOM     99  C   UNL A   1      49.691  34.593  39.484  1.00  0.00     0.059 A 
ATOM    100  F   UNL A   1      48.234  35.544  37.912  1.00  0.00    -0.206 F 
ATOM    101  C   UNL A   1      49.951  33.605  40.433  1.00  0.00     0.060 A 
BRANCH 101 102
ATOM    102  S   UNL A   1      51.534  33.565  41.302  1.00  0.00     0.124 S 
ATOM    103  O   UNL A   1      51.569  32.191  41.787  1.00  0.00    -0.237 OA
ATOM    104  O   UNL A   1      52.476  33.890  40.236  1.00  0.00    -0.237 OA
ATOM    105  O   UNL A   1      51.380  34.593  42.327  1.00  0.00    -0.744 OA
ENDBRANCH 101 102
ENDBRANCH  69  94
BRANCH  81 106
ATOM    106  C   UNL A   1      41.280  36.489  40.276  1.00  0.00     0.058 A 
ATOM    107  C   UNL A   1      40.589  35.978  41.386  1.00  0.00     0.135 A 
ATOM    108  C   UNL A   1      41.546  37.868  40.250  1.00  0.00     0.135 A 
ATOM    109  F   UNL A   1      40.301  34.669  41.459  1.00  0.00    -0.206 F 
ATOM    110  C   UNL A   1      40.172  36.803  42.427  1.00  0.00     0.059 A 
ATOM    111  C   UNL A   1      41.160  38.708  41.290  1.00  0.00     0.059 A 
ATOM    112  F   UNL A   1      42.211  38.409  39.216  1.00  0.00    -0.206 F 
ATOM    113  C   UNL A   1      40.467  38.167  42.373  1.00  0.00     0.060 A 
BRANCH 113 114
ATOM    114  S   UNL A   1      39.970  39.217  43.756  1.00  0.00     0.124 S 
ATOM    115  O   UNL A   1      39.366  38.246  44.661  1.00  0.00    -0.237 OA
ATOM    116  O   UNL A   1      41.242  39.785  44.191  1.00  0.00    -0.237 OA
ATOM    117  O   UNL A   1      39.044  40.167  43.146  1.00  0.00    -0.744 OA
ENDBRANCH 113 114
ENDBRANCH  81 106
ENDBRANCH  55  56
ENDBRANCH  48  50
ENDBRANCH  47  48
ENDBRANCH  46  47
ENDBRANCH  45  46
ENDBRANCH  44  45
ENDBRANCH  43  44
ENDBRANCH  42  43
ENDBRANCH   1  42
TORSDOF 32
ENDMDL
MODEL 3
REMARK VINA RESULT:      -5.6     10.707     13.833
REMARK SMILES O=C(N[C@@H](Cc1ccccc1)C(=O)N[C@@H](CS)C(=O)N[C@@H](CO)C(=O)OCCOCCOCCOC(=O)c1ccc(-c2c3nc(c(-c4c(F)cc(S(=O)(=O)[O-])cc4F)c4ccc([nH]4)c(-c4c(F)cc(S(=O)(=O)[O-])cc4F)c4nc(c(-c5c(F)cc(S(=O)(=O)[O-])cc5F)c5ccc2[nH]5)C=C4)C=C3)cc1)c1ccc(F)cc1
REMARK SMILES IDX 29 1 28 2 27 3 26 4 24 5 25 6 21 7 20 8 18 9 19 10 15 12
REMARK SMILES IDX 14 13 12 14 13 15 4 17 3 18 1 19 2 20 104 22 105 23 110 24
REMARK SMILES IDX 106 25 109 26 107 27 108 28 5 29 6 30 7 31 11 32 8 33 10 34
REMARK SMILES IDX 9 35 16 36 17 37 22 39 23 40 30 42 31 43 32 44 33 45 34 46
REMARK SMILES IDX 35 47 36 48 37 49 38 50 39 51 103 52 40 53 102 54 41 55
REMARK SMILES IDX 42 56 43 57 96 58 44 59 101 60 95 61 97 62 45 63 100 64
REMARK SMILES IDX 94 65 93 66 46 68 80 69 59 70 79 71 60 72 63 73 78 74 98 75
REMARK SMILES IDX 61 76 62 77 77 79 99 80 64 81 47 82 48 83 57 84 49 85 50 86
REMARK SMILES IDX 56 87 58 88 51 89 52 90 53 91 54 92 55 93 81 94 82 95 91 96
REMARK SMILES IDX 83 97 84 98 90 99 92 100 85 101 86 102 87 103 88 104 89 105
REMARK SMILES IDX 65 106 66 107 75 108 67 109 68 110 74 111 76 112 69 113
REMARK SMILES IDX 70 114 71 115 72 116 73 117
REMARK H PARENT 20 11 14 16 3 21 17 38 23 41 97 67 63 78
REMARK Flexibility Score: inf
ROOT
ATOM      1  O   UNL A   1      48.992  43.879  29.226  1.00  0.00    -0.376 OA
ENDROOT
BRANCH   1   2
ATOM      2  C   UNL A   1      47.828  43.073  29.352  1.00  0.00     0.202 C 
BRANCH   2   3
ATOM      3  C   UNL A   1      46.471  43.705  29.020  1.00  0.00     0.261 C 
BRANCH   3   4
ATOM      4  O   UNL A   1      46.456  44.457  27.794  1.00  0.00    -0.462 OA
BRANCH   4   5
ATOM      5  C   UNL A   1      45.682  43.923  26.808  1.00  0.00     0.331 C 
ATOM      6  O   UNL A   1      44.761  43.136  27.002  1.00  0.00    -0.250 OA
BRANCH   5   7
ATOM      7  C   UNL A   1      46.098  44.376  25.399  1.00  0.00     0.218 C 
BRANCH   7   8
ATOM      8  N   UNL A   1      45.118  45.204  24.651  1.00  0.00    -0.339 N 
ATOM      9  C   UNL A   1      45.099  45.166  23.283  1.00  0.00     0.244 C 
ATOM     10  O   UNL A   1      45.967  45.813  22.689  1.00  0.00    -0.273 OA
ATOM     11  H   UNL A   1      44.485  45.779  25.139  1.00  0.00     0.164 HD
BRANCH   9  12
ATOM     12  C   UNL A   1      43.934  44.447  22.518  1.00  0.00     0.181 C 
BRANCH  12  13
ATOM     13  N   UNL A   1      44.532  43.270  21.870  1.00  0.00    -0.342 N 
ATOM     14  C   UNL A   1      45.472  43.197  20.884  1.00  0.00     0.243 C 
ATOM     15  O   UNL A   1      46.300  42.283  20.988  1.00  0.00    -0.273 OA
ATOM     16  H   UNL A   1      44.204  42.401  22.198  1.00  0.00     0.164 HD
BRANCH  14  17
ATOM     17  C   UNL A   1      45.562  44.170  19.681  1.00  0.00     0.176 C 
BRANCH  17  18
ATOM     18  N   UNL A   1      46.874  44.785  19.509  1.00  0.00    -0.340 N 
ATOM     19  O   UNL A   1      48.346  46.386  18.955  1.00  0.00    -0.269 OA
ATOM     20  C   UNL A   1      47.172  46.072  19.117  1.00  0.00     0.251 C 
ATOM     21  H   UNL A   1      47.648  44.205  19.695  1.00  0.00     0.164 HD
BRANCH  20  22
ATOM     22  C   UNL A   1      46.086  47.042  18.809  1.00  0.00     0.040 A 
ATOM     23  C   UNL A   1      45.509  47.845  19.802  1.00  0.00     0.017 A 
ATOM     24  C   UNL A   1      45.622  47.124  17.488  1.00  0.00     0.017 A 
ATOM     25  C   UNL A   1      44.417  48.661  19.491  1.00  0.00     0.040 A 
ATOM     26  C   UNL A   1      44.536  47.951  17.180  1.00  0.00     0.040 A 
ATOM     27  C   UNL A   1      43.933  48.697  18.187  1.00  0.00     0.123 A 
ATOM     28  F   UNL A   1      42.868  49.458  17.900  1.00  0.00    -0.207 F 
ENDBRANCH  20  22
ENDBRANCH  17  18
BRANCH  17  29
ATOM     29  C   UNL A   1      44.871  43.736  18.372  1.00  0.00     0.070 C 
BRANCH  29  30
ATOM     30  C   UNL A   1      43.415  44.079  18.173  1.00  0.00    -0.045 A 
ATOM     31  C   UNL A   1      42.964  44.634  16.967  1.00  0.00     0.004 A 
ATOM     32  C   UNL A   1      42.496  43.904  19.212  1.00  0.00     0.004 A 
ATOM     33  C   UNL A   1      41.615  44.953  16.792  1.00  0.00     0.000 A 
ATOM     34  C   UNL A   1      41.139  44.171  19.021  1.00  0.00     0.000 A 
ATOM     35  C   UNL A   1      40.697  44.693  17.808  1.00  0.00     0.000 A 
ENDBRANCH  29  30
ENDBRANCH  17  29
ENDBRANCH  14  17
ENDBRANCH  12  13
BRANCH  12  36
ATOM     36  C   UNL A   1      42.642  44.149  23.283  1.00  0.00     0.101 C 
BRANCH  36  37
ATOM     37  S   UNL A   1      41.745  42.636  22.839  1.00  0.00    -0.177 SA
ATOM     38  H   UNL A   1      40.536  42.627  23.459  1.00  0.00     0.102 HD
ENDBRANCH  36  37
ENDBRANCH  12  36
ENDBRANCH   9  12
ENDBRANCH   7   8
BRANCH   7  39
ATOM     39  C   UNL A   1      47.457  45.087  25.537  1.00  0.00     0.193 C 
BRANCH  39  40
ATOM     40  O   UNL A   1      48.280  44.824  24.397  1.00  0.00    -0.394 OA
ATOM     41  H   UNL A   1      47.952  44.037  23.934  1.00  0.00     0.210 HD
ENDBRANCH  39  40
ENDBRANCH   7  39
ENDBRANCH   5   7
ENDBRANCH   4   5
ENDBRANCH   3   4
ENDBRANCH   2   3
ENDBRANCH   1   2
BRANCH   1  42
ATOM     42  C   UNL A   1      50.226  43.254  28.890  1.00  0.00     0.188 C 
BRANCH  42  43
ATOM     43  C   UNL A   1      50.375  41.728  29.073  1.00  0.00     0.188 C 
BRANCH  43  44
ATOM     44  O   UNL A   1      49.958  40.942  27.972  1.00  0.00    -0.376 OA
BRANCH  44  45
ATOM     45  C   UNL A   1      50.076  39.535  28.142  1.00  0.00     0.202 C 
BRANCH  45  46
ATOM     46  C   UNL A   1      48.797  38.732  27.864  1.00  0.00     0.261 C 
BRANCH  46  47
ATOM     47  O   UNL A   1      47.949  38.511  29.006  1.00  0.00    -0.460 OA
BRANCH  47  48
ATOM     48  C   UNL A   1      46.764  39.166  29.032  1.00  0.00     0.338 C 
ATOM     49  O   UNL A   1      46.322  39.911  28.181  1.00  0.00    -0.246 OA
BRANCH  48  50
ATOM     50  C   UNL A   1      46.004  38.658  30.197  1.00  0.00     0.060 A 
ATOM     51  C   UNL A   1      46.522  37.584  30.931  1.00  0.00     0.016 A 
ATOM     52  C   UNL A   1      44.794  39.249  30.570  1.00  0.00     0.016 A 
ATOM     53  C   UNL A   1      45.838  37.111  32.055  1.00  0.00     0.010 A 
ATOM     54  C   UNL A   1      44.102  38.760  31.684  1.00  0.00     0.010 A 
ATOM     55  C   UNL A   1      44.619  37.688  32.435  1.00  0.00    -0.014 A 
BRANCH  55  56
ATOM     56  C   UNL A   1      43.819  37.090  33.535  1.00  0.00     0.031 A 
ATOM     57  C   UNL A   1      43.982  37.630  34.927  1.00  0.00     0.074 A 
ATOM     58  C   UNL A   1      42.944  36.095  33.304  1.00  0.00     0.049 A 
ATOM     59  N   UNL A   1      43.498  37.185  36.057  1.00  0.00    -0.248 NA
ATOM     60  C   UNL A   1      44.812  38.839  35.058  1.00  0.00     0.031 C 
ATOM     61  C   UNL A   1      42.612  35.544  31.992  1.00  0.00     0.029 A 
ATOM     62  N   UNL A   1      42.170  35.369  34.179  1.00  0.00    -0.354 N 
ATOM     63  C   UNL A   1      43.969  38.051  37.036  1.00  0.00     0.074 A 
ATOM     64  C   UNL A   1      44.795  39.034  36.367  1.00  0.00     0.031 C 
ATOM     65  C   UNL A   1      41.698  34.569  32.148  1.00  0.00     0.029 A 
ATOM     66  C   UNL A   1      41.423  34.386  33.573  1.00  0.00     0.049 A 
ATOM     67  H   UNL A   1      42.153  35.538  35.148  1.00  0.00     0.167 HD
ATOM     68  C   UNL A   1      43.739  38.027  38.371  1.00  0.00     0.037 A 
ATOM     69  C   UNL A   1      40.637  33.431  34.110  1.00  0.00     0.037 A 
ATOM     70  C   UNL A   1      42.919  37.047  39.033  1.00  0.00     0.049 A 
ATOM     71  C   UNL A   1      40.500  33.339  35.612  1.00  0.00     0.074 A 
ATOM     72  C   UNL A   1      42.640  36.925  40.384  1.00  0.00     0.029 A 
ATOM     73  N   UNL A   1      42.246  36.015  38.393  1.00  0.00    -0.354 N 
ATOM     74  N   UNL A   1      40.986  34.132  36.537  1.00  0.00    -0.248 NA
ATOM     75  C   UNL A   1      39.727  32.205  36.142  1.00  0.00     0.031 C 
ATOM     76  C   UNL A   1      41.844  35.789  40.565  1.00  0.00     0.029 A 
ATOM     77  C   UNL A   1      41.583  35.232  39.324  1.00  0.00     0.049 A 
ATOM     78  H   UNL A   1      42.240  35.863  37.421  1.00  0.00     0.167 HD
ATOM     79  C   UNL A   1      40.558  33.608  37.754  1.00  0.00     0.074 A 
ATOM     80  C   UNL A   1      39.770  32.433  37.448  1.00  0.00     0.031 C 
ATOM     81  C   UNL A   1      40.796  34.063  39.010  1.00  0.00     0.037 A 
BRANCH  68  82
ATOM     82  C   UNL A   1      44.452  39.056  39.204  1.00  0.00     0.058 A 
ATOM     83  C   UNL A   1      43.831  40.247  39.609  1.00  0.00     0.135 A 
ATOM     84  C   UNL A   1      45.791  38.855  39.575  1.00  0.00     0.135 A 
ATOM     85  F   UNL A   1      42.557  40.499  39.268  1.00  0.00    -0.206 F 
ATOM     86  C   UNL A   1      44.530  41.227  40.310  1.00  0.00     0.059 A 
ATOM     87  C   UNL A   1      46.500  39.808  40.299  1.00  0.00     0.059 A 
ATOM     88  F   UNL A   1      46.431  37.732  39.214  1.00  0.00    -0.206 F 
ATOM     89  C   UNL A   1      45.867  41.002  40.639  1.00  0.00     0.060 A 
BRANCH  89  90
ATOM     90  S   UNL A   1      46.779  42.303  41.496  1.00  0.00     0.124 S 
ATOM     91  O   UNL A   1      48.027  42.329  40.737  1.00  0.00    -0.237 OA
ATOM     92  O   UNL A   1      45.910  43.463  41.322  1.00  0.00    -0.237 OA
ATOM     93  O   UNL A   1      46.884  41.802  42.862  1.00  0.00    -0.744 OA
ENDBRANCH  89  90
ENDBRANCH  68  82
BRANCH  69  94
ATOM     94  C   UNL A   1      39.934  32.457  33.231  1.00  0.00     0.058 A 
ATOM     95  C   UNL A   1      40.567  31.277  32.812  1.00  0.00     0.135 A 
ATOM     96  C   UNL A   1      38.622  32.685  32.787  1.00  0.00     0.135 A 
ATOM     97  F   UNL A   1      41.829  31.023  33.188  1.00  0.00    -0.206 F 
ATOM     98  C   UNL A   1      39.926  30.359  31.986  1.00  0.00     0.059 A 
ATOM     99  C   UNL A   1      37.951  31.769  31.982  1.00  0.00     0.059 A 
ATOM    100  F   UNL A   1      37.972  33.800  33.155  1.00  0.00    -0.206 F 
ATOM    101  C   UNL A   1      38.613  30.611  31.582  1.00  0.00     0.060 A 
BRANCH 101 102
ATOM    102  S   UNL A   1      37.770  29.380  30.564  1.00  0.00     0.124 S 
ATOM    103  O   UNL A   1      37.966  29.920  29.224  1.00  0.00    -0.237 OA
ATOM    104  O   UNL A   1      38.513  28.163  30.877  1.00  0.00    -0.237 OA
ATOM    105  O   UNL A   1      36.399  29.414  31.064  1.00  0.00    -0.744 OA
ENDBRANCH 101 102
ENDBRANCH  69  94
BRANCH  81 106
ATOM    106  C   UNL A   1      40.178  33.311  40.158  1.00  0.00     0.058 A 
ATOM    107  C   UNL A   1      40.909  32.376  40.906  1.00  0.00     0.135 A 
ATOM    108  C   UNL A   1      38.860  33.583  40.560  1.00  0.00     0.135 A 
ATOM    109  F   UNL A   1      42.170  32.071  40.562  1.00  0.00    -0.206 F 
ATOM    110  C   UNL A   1      40.353  31.731  42.008  1.00  0.00     0.059 A 
ATOM    111  C   UNL A   1      38.292  32.968  41.671  1.00  0.00     0.059 A 
ATOM    112  F   UNL A   1      38.117  34.476  39.885  1.00  0.00    -0.206 F 
ATOM    113  C   UNL A   1      39.044  32.037  42.386  1.00  0.00     0.060 A 
BRANCH 113 114
ATOM    114  S   UNL A   1      38.354  31.236  43.850  1.00  0.00     0.124 S 
ATOM    115  O   UNL A   1      38.370  29.832  43.453  1.00  0.00    -0.237 OA
ATOM    116  O   UNL A   1      39.306  31.611  44.891  1.00  0.00    -0.237 OA
ATOM    117  O   UNL A   1      37.030  31.837  43.975  1.00  0.00    -0.744 OA
ENDBRANCH 113 114
ENDBRANCH  81 106
ENDBRANCH  55  56
ENDBRANCH  48  50
ENDBRANCH  47  48
ENDBRANCH  46  47
ENDBRANCH  45  46
ENDBRANCH  44  45
ENDBRANCH  43  44
ENDBRANCH  42  43
ENDBRANCH   1  42
TORSDOF 32
ENDMDL
