MODEL 1
REMARK VINA RESULT:     -12.8      0.000      0.000
REMARK SMILES C[C@]12C(=O)N(c3ccc(C(=O)OCCOCCOCCOC(=O)c4ccc(-c5c6nc(c(-c7c(F)cc(S(=O)(=O)[O-])cc7F)c7ccc([nH]7)c(-c7c(F)cc(S(=O)(=O)[O-])cc7F)c7nc(c(-c8c(F)cc(S(=O)(=O)[O-])cc8F)c8ccc5[nH]8)C=C7)C=C6)cc4)cc3)C(=O)[C@H]1[C@H]1c3ccccc3[C@@H]2c2ccccc21
REMARK SMILES IDX 17 1 16 2 15 3 14 4 13 5 12 6 10 7 11 8 9 9 6 10 7 11 91 12
REMARK SMILES IDX 8 13 90 14 5 15 1 16 2 17 3 18 94 19 102 20 4 21 92 22 95 23
REMARK SMILES IDX 101 24 103 25 93 26 96 27 108 28 100 29 104 30 97 31 107 32
REMARK SMILES IDX 99 33 105 34 98 35 106 36 18 37 19 38 20 39 21 40 22 41
REMARK SMILES IDX 23 42 24 43 25 44 89 45 26 46 88 47 27 48 28 49 29 50 82 51
REMARK SMILES IDX 30 52 87 53 81 54 83 55 31 56 86 57 80 58 79 59 32 61 66 62
REMARK SMILES IDX 45 63 65 64 46 65 49 66 64 67 84 68 47 69 48 70 63 72 85 73
REMARK SMILES IDX 50 74 33 75 34 76 43 77 35 78 36 79 42 80 44 81 37 82 38 83
REMARK SMILES IDX 39 84 40 85 41 86 67 87 68 88 77 89 69 90 70 91 76 92 78 93
REMARK SMILES IDX 71 94 72 95 73 96 74 97 75 98 51 99 52 100 61 101 53 102
REMARK SMILES IDX 54 103 60 104 62 105 55 106 56 107 57 108 58 109 59 110
REMARK H PARENT 83 60 49 71
REMARK Flexibility Score: inf
ROOT
ATOM      1  C   UNL A   1      42.046  21.763  26.644  1.00  0.00     0.188 C 
ENDROOT
BRANCH   1   2
ATOM      2  C   UNL A   1      40.944  20.716  26.916  1.00  0.00     0.188 C 
BRANCH   2   3
ATOM      3  O   UNL A   1      39.750  20.731  26.151  1.00  0.00    -0.376 OA
BRANCH   3   4
ATOM      4  C   UNL A   1      39.059  21.964  25.976  1.00  0.00     0.202 C 
BRANCH   4   5
ATOM      5  C   UNL A   1      37.728  21.911  25.229  1.00  0.00     0.261 C 
BRANCH   5   6
ATOM      6  O   UNL A   1      37.267  23.242  24.936  1.00  0.00    -0.460 OA
BRANCH   6   7
ATOM      7  C   UNL A   1      36.506  23.341  23.822  1.00  0.00     0.338 C 
ATOM      8  O   UNL A   1      36.792  22.972  22.697  1.00  0.00    -0.246 OA
BRANCH   7   9
ATOM      9  C   UNL A   1      35.156  23.794  24.194  1.00  0.00     0.060 A 
ATOM     10  C   UNL A   1      32.612  24.883  24.713  1.00  0.00     0.052 A 
ATOM     11  C   UNL A   1      32.922  24.314  23.463  1.00  0.00     0.028 A 
ATOM     12  C   UNL A   1      33.578  24.798  25.727  1.00  0.00     0.028 A 
ATOM     13  C   UNL A   1      34.192  23.812  23.189  1.00  0.00     0.018 A 
ATOM     14  C   UNL A   1      34.840  24.233  25.478  1.00  0.00     0.018 A 
BRANCH  10  15
ATOM     15  N   UNL A   1      31.436  25.682  24.828  1.00  0.00    -0.250 N 
ATOM     16  C   UNL A   1      28.186  26.751  23.985  1.00  0.00     0.024 C 
ATOM     17  C   UNL A   1      29.704  26.959  23.888  1.00  0.00     0.071 C 
ATOM     18  C   UNL A   1      30.402  25.626  23.920  1.00  0.00     0.241 C 
ATOM     19  C   UNL A   1      30.261  27.701  25.140  1.00  0.00     0.107 C 
ATOM     20  C   UNL A   1      30.149  27.704  22.578  1.00  0.00     0.066 C 
ATOM     21  O   UNL A   1      30.062  24.679  23.222  1.00  0.00    -0.273 OA
ATOM     22  C   UNL A   1      31.279  26.731  25.713  1.00  0.00     0.238 C 
ATOM     23  C   UNL A   1      30.947  29.041  24.707  1.00  0.00     0.063 C 
ATOM     24  C   UNL A   1      31.671  27.915  22.638  1.00  0.00    -0.036 A 
ATOM     25  C   UNL A   1      29.532  29.093  22.677  1.00  0.00    -0.036 A 
ATOM     26  O   UNL A   1      31.863  26.947  26.768  1.00  0.00    -0.274 OA
ATOM     27  C   UNL A   1      32.098  28.643  23.781  1.00  0.00    -0.036 A 
ATOM     28  C   UNL A   1      29.943  29.810  23.834  1.00  0.00    -0.036 A 
ATOM     29  C   UNL A   1      32.601  27.417  21.738  1.00  0.00     0.005 A 
ATOM     30  C   UNL A   1      28.702  29.664  21.725  1.00  0.00     0.005 A 
ATOM     31  C   UNL A   1      33.447  28.854  24.033  1.00  0.00     0.004 A 
ATOM     32  C   UNL A   1      29.521  31.118  24.018  1.00  0.00     0.004 A 
ATOM     33  C   UNL A   1      33.959  27.623  21.999  1.00  0.00     0.000 A 
ATOM     34  C   UNL A   1      28.279  30.976  21.921  1.00  0.00     0.000 A 
ATOM     35  C   UNL A   1      34.377  28.332  23.136  1.00  0.00     0.000 A 
ATOM     36  C   UNL A   1      28.685  31.697  23.055  1.00  0.00     0.000 A 
ENDBRANCH  10  15
ENDBRANCH   7   9
ENDBRANCH   6   7
ENDBRANCH   5   6
ENDBRANCH   4   5
ENDBRANCH   3   4
ENDBRANCH   2   3
ENDBRANCH   1   2
BRANCH   1  37
ATOM     37  O   UNL A   1      42.578  21.932  25.340  1.00  0.00    -0.376 OA
BRANCH  37  38
ATOM     38  C   UNL A   1      43.386  23.067  25.066  1.00  0.00     0.202 C 
BRANCH  38  39
ATOM     39  C   UNL A   1      43.525  24.130  26.154  1.00  0.00     0.261 C 
BRANCH  39  40
ATOM     40  O   UNL A   1      43.255  25.451  25.664  1.00  0.00    -0.460 OA
BRANCH  40  41
ATOM     41  C   UNL A   1      41.973  25.876  25.819  1.00  0.00     0.338 C 
ATOM     42  O   UNL A   1      41.024  25.631  25.108  1.00  0.00    -0.246 OA
BRANCH  41  43
ATOM     43  C   UNL A   1      41.864  26.566  27.120  1.00  0.00     0.060 A 
ATOM     44  C   UNL A   1      42.691  27.647  27.428  1.00  0.00     0.016 A 
ATOM     45  C   UNL A   1      40.892  26.126  28.027  1.00  0.00     0.016 A 
ATOM     46  C   UNL A   1      42.521  28.311  28.643  1.00  0.00     0.010 A 
ATOM     47  C   UNL A   1      40.733  26.784  29.247  1.00  0.00     0.010 A 
ATOM     48  C   UNL A   1      41.534  27.894  29.552  1.00  0.00    -0.014 A 
BRANCH  48  49
ATOM     49  C   UNL A   1      41.241  28.722  30.745  1.00  0.00     0.031 A 
ATOM     50  C   UNL A   1      42.069  28.630  31.989  1.00  0.00     0.074 A 
ATOM     51  C   UNL A   1      40.206  29.582  30.677  1.00  0.00     0.049 A 
ATOM     52  N   UNL A   1      42.005  29.363  33.070  1.00  0.00    -0.248 NA
ATOM     53  C   UNL A   1      43.099  27.583  32.029  1.00  0.00     0.031 C 
ATOM     54  C   UNL A   1      39.317  29.733  29.523  1.00  0.00     0.029 A 
ATOM     55  N   UNL A   1      39.735  30.494  31.584  1.00  0.00    -0.354 N 
ATOM     56  C   UNL A   1      43.003  28.891  33.911  1.00  0.00     0.074 A 
ATOM     57  C   UNL A   1      43.627  27.773  33.232  1.00  0.00     0.031 C 
ATOM     58  C   UNL A   1      38.424  30.699  29.782  1.00  0.00     0.029 A 
ATOM     59  C   UNL A   1      38.667  31.225  31.123  1.00  0.00     0.049 A 
ATOM     60  H   UNL A   1      40.125  30.613  32.482  1.00  0.00     0.167 HD
ATOM     61  C   UNL A   1      43.375  29.366  35.124  1.00  0.00     0.037 A 
ATOM     62  C   UNL A   1      37.971  32.219  31.707  1.00  0.00     0.037 A 
ATOM     63  C   UNL A   1      42.732  30.469  35.797  1.00  0.00     0.049 A 
ATOM     64  C   UNL A   1      38.374  32.694  33.073  1.00  0.00     0.074 A 
ATOM     65  C   UNL A   1      43.059  31.042  37.014  1.00  0.00     0.029 A 
ATOM     66  N   UNL A   1      41.623  31.156  35.322  1.00  0.00    -0.354 N 
ATOM     67  N   UNL A   1      39.367  32.285  33.826  1.00  0.00    -0.248 NA
ATOM     68  C   UNL A   1      37.570  33.769  33.666  1.00  0.00     0.031 C 
ATOM     69  C   UNL A   1      42.124  32.046  37.295  1.00  0.00     0.029 A 
ATOM     70  C   UNL A   1      41.239  32.128  36.232  1.00  0.00     0.049 A 
ATOM     71  H   UNL A   1      41.176  30.980  34.462  1.00  0.00     0.167 HD
ATOM     72  C   UNL A   1      39.317  33.064  34.975  1.00  0.00     0.074 A 
ATOM     73  C   UNL A   1      38.204  33.978  34.812  1.00  0.00     0.031 C 
ATOM     74  C   UNL A   1      40.122  33.026  36.065  1.00  0.00     0.037 A 
BRANCH  61  75
ATOM     75  C   UNL A   1      44.544  28.713  35.806  1.00  0.00     0.058 A 
ATOM     76  C   UNL A   1      45.859  29.139  35.559  1.00  0.00     0.135 A 
ATOM     77  C   UNL A   1      44.350  27.712  36.771  1.00  0.00     0.135 A 
ATOM     78  F   UNL A   1      46.102  30.086  34.640  1.00  0.00    -0.206 F 
ATOM     79  C   UNL A   1      46.941  28.588  36.239  1.00  0.00     0.059 A 
ATOM     80  C   UNL A   1      45.416  27.162  37.478  1.00  0.00     0.059 A 
ATOM     81  F   UNL A   1      43.112  27.270  37.046  1.00  0.00    -0.206 F 
ATOM     82  C   UNL A   1      46.710  27.602  37.200  1.00  0.00     0.060 A 
BRANCH  82  83
ATOM     83  S   UNL A   1      48.125  26.919  38.090  1.00  0.00     0.124 S 
ATOM     84  O   UNL A   1      49.236  27.614  37.447  1.00  0.00    -0.237 OA
ATOM     85  O   UNL A   1      47.845  27.313  39.467  1.00  0.00    -0.237 OA
ATOM     86  O   UNL A   1      48.039  25.488  37.819  1.00  0.00    -0.744 OA
ENDBRANCH  82  83
ENDBRANCH  61  75
BRANCH  62  87
ATOM     87  C   UNL A   1      36.849  32.854  30.972  1.00  0.00     0.058 A 
ATOM     88  C   UNL A   1      35.518  32.553  31.295  1.00  0.00     0.135 A 
ATOM     89  C   UNL A   1      37.083  33.803  29.966  1.00  0.00     0.135 A 
ATOM     90  F   UNL A   1      35.248  31.649  32.249  1.00  0.00    -0.206 F 
ATOM     91  C   UNL A   1      34.456  33.166  30.642  1.00  0.00     0.059 A 
ATOM     92  C   UNL A   1      36.038  34.446  29.313  1.00  0.00     0.059 A 
ATOM     93  F   UNL A   1      38.341  34.134  29.633  1.00  0.00    -0.206 F 
ATOM     94  C   UNL A   1      34.726  34.116  29.654  1.00  0.00     0.060 A 
BRANCH  94  95
ATOM     95  S   UNL A   1      33.339  34.949  28.854  1.00  0.00     0.124 S 
ATOM     96  O   UNL A   1      33.993  36.115  28.270  1.00  0.00    -0.237 OA
ATOM     97  O   UNL A   1      32.877  33.936  27.910  1.00  0.00    -0.237 OA
ATOM     98  O   UNL A   1      32.428  35.225  29.961  1.00  0.00    -0.744 OA
ENDBRANCH  94  95
ENDBRANCH  62  87
BRANCH  74  99
ATOM     99  C   UNL A   1      39.834  34.002  37.173  1.00  0.00     0.058 A 
ATOM    100  C   UNL A   1      39.038  33.645  38.272  1.00  0.00     0.135 A 
ATOM    101  C   UNL A   1      40.402  35.285  37.162  1.00  0.00     0.135 A 
ATOM    102  F   UNL A   1      38.463  32.433  38.326  1.00  0.00    -0.206 F 
ATOM    103  C   UNL A   1      38.805  34.532  39.318  1.00  0.00     0.059 A 
ATOM    104  C   UNL A   1      40.202  36.180  38.210  1.00  0.00     0.059 A 
ATOM    105  F   UNL A   1      41.177  35.673  36.137  1.00  0.00    -0.206 F 
ATOM    106  C   UNL A   1      39.395  35.797  39.279  1.00  0.00     0.060 A 
BRANCH 106 107
ATOM    107  S   UNL A   1      39.117  36.922  40.665  1.00  0.00     0.124 S 
ATOM    108  O   UNL A   1      40.479  37.329  40.991  1.00  0.00    -0.237 OA
ATOM    109  O   UNL A   1      38.274  37.952  40.067  1.00  0.00    -0.237 OA
ATOM    110  O   UNL A   1      38.458  36.080  41.659  1.00  0.00    -0.744 OA
ENDBRANCH 106 107
ENDBRANCH  74  99
ENDBRANCH  48  49
ENDBRANCH  41  43
ENDBRANCH  40  41
ENDBRANCH  39  40
ENDBRANCH  38  39
ENDBRANCH  37  38
ENDBRANCH   1  37
TORSDOF 21
ENDMDL
MODEL 2
REMARK VINA RESULT:     -12.3      5.828     12.007
REMARK SMILES C[C@]12C(=O)N(c3ccc(C(=O)OCCOCCOCCOC(=O)c4ccc(-c5c6nc(c(-c7c(F)cc(S(=O)(=O)[O-])cc7F)c7ccc([nH]7)c(-c7c(F)cc(S(=O)(=O)[O-])cc7F)c7nc(c(-c8c(F)cc(S(=O)(=O)[O-])cc8F)c8ccc5[nH]8)C=C7)C=C6)cc4)cc3)C(=O)[C@H]1[C@H]1c3ccccc3[C@@H]2c2ccccc21
REMARK SMILES IDX 17 1 16 2 15 3 14 4 13 5 12 6 10 7 11 8 9 9 6 10 7 11 91 12
REMARK SMILES IDX 8 13 90 14 5 15 1 16 2 17 3 18 94 19 102 20 4 21 92 22 95 23
REMARK SMILES IDX 101 24 103 25 93 26 96 27 108 28 100 29 104 30 97 31 107 32
REMARK SMILES IDX 99 33 105 34 98 35 106 36 18 37 19 38 20 39 21 40 22 41
REMARK SMILES IDX 23 42 24 43 25 44 89 45 26 46 88 47 27 48 28 49 29 50 82 51
REMARK SMILES IDX 30 52 87 53 81 54 83 55 31 56 86 57 80 58 79 59 32 61 66 62
REMARK SMILES IDX 45 63 65 64 46 65 49 66 64 67 84 68 47 69 48 70 63 72 85 73
REMARK SMILES IDX 50 74 33 75 34 76 43 77 35 78 36 79 42 80 44 81 37 82 38 83
REMARK SMILES IDX 39 84 40 85 41 86 67 87 68 88 77 89 69 90 70 91 76 92 78 93
REMARK SMILES IDX 71 94 72 95 73 96 74 97 75 98 51 99 52 100 61 101 53 102
REMARK SMILES IDX 54 103 60 104 62 105 55 106 56 107 57 108 58 109 59 110
REMARK H PARENT 83 60 49 71
REMARK Flexibility Score: inf
ROOT
ATOM      1  C   UNL A   1      34.438  34.576  28.909  1.00  0.00     0.188 C 
ENDROOT
BRANCH   1   2
ATOM      2  C   UNL A   1      34.528  33.310  28.030  1.00  0.00     0.188 C 
BRANCH   2   3
ATOM      3  O   UNL A   1      33.348  32.598  27.694  1.00  0.00    -0.376 OA
BRANCH   3   4
ATOM      4  C   UNL A   1      33.423  31.189  27.503  1.00  0.00     0.202 C 
BRANCH   4   5
ATOM      5  C   UNL A   1      32.110  30.455  27.241  1.00  0.00     0.261 C 
BRANCH   5   6
ATOM      6  O   UNL A   1      32.326  29.347  26.350  1.00  0.00    -0.460 OA
BRANCH   6   7
ATOM      7  C   UNL A   1      32.023  28.137  26.872  1.00  0.00     0.338 C 
ATOM      8  O   UNL A   1      31.381  27.908  27.881  1.00  0.00    -0.246 OA
BRANCH   7   9
ATOM      9  C   UNL A   1      32.417  27.084  25.922  1.00  0.00     0.060 A 
ATOM     10  C   UNL A   1      32.971  24.895  24.240  1.00  0.00     0.052 A 
ATOM     11  C   UNL A   1      31.730  25.559  24.190  1.00  0.00     0.028 A 
ATOM     12  C   UNL A   1      33.960  25.422  25.083  1.00  0.00     0.028 A 
ATOM     13  C   UNL A   1      31.438  26.616  25.049  1.00  0.00     0.018 A 
ATOM     14  C   UNL A   1      33.695  26.530  25.906  1.00  0.00     0.018 A 
BRANCH  10  15
ATOM     15  N   UNL A   1      33.094  23.626  23.600  1.00  0.00    -0.250 N 
ATOM     16  C   UNL A   1      31.923  20.627  22.166  1.00  0.00     0.024 C 
ATOM     17  C   UNL A   1      32.521  21.360  23.376  1.00  0.00     0.071 C 
ATOM     18  C   UNL A   1      32.024  22.780  23.406  1.00  0.00     0.241 C 
ATOM     19  C   UNL A   1      34.066  21.508  23.249  1.00  0.00     0.107 C 
ATOM     20  C   UNL A   1      32.155  20.694  24.751  1.00  0.00     0.066 C 
ATOM     21  O   UNL A   1      30.843  23.076  23.277  1.00  0.00    -0.273 OA
ATOM     22  C   UNL A   1      34.291  23.010  23.294  1.00  0.00     0.238 C 
ATOM     23  C   UNL A   1      34.773  20.801  24.454  1.00  0.00     0.063 C 
ATOM     24  C   UNL A   1      32.870  21.471  25.869  1.00  0.00    -0.036 A 
ATOM     25  C   UNL A   1      32.809  19.319  24.718  1.00  0.00    -0.036 A 
ATOM     26  O   UNL A   1      35.398  23.508  23.132  1.00  0.00    -0.274 OA
ATOM     27  C   UNL A   1      34.281  21.521  25.711  1.00  0.00    -0.036 A 
ATOM     28  C   UNL A   1      34.219  19.370  24.537  1.00  0.00    -0.036 A 
ATOM     29  C   UNL A   1      32.259  22.140  26.918  1.00  0.00     0.005 A 
ATOM     30  C   UNL A   1      32.144  18.117  24.906  1.00  0.00     0.005 A 
ATOM     31  C   UNL A   1      35.074  22.250  26.586  1.00  0.00     0.004 A 
ATOM     32  C   UNL A   1      34.958  18.197  24.562  1.00  0.00     0.004 A 
ATOM     33  C   UNL A   1      33.059  22.882  27.792  1.00  0.00     0.000 A 
ATOM     34  C   UNL A   1      32.894  16.943  24.924  1.00  0.00     0.000 A 
ATOM     35  C   UNL A   1      34.452  22.938  27.627  1.00  0.00     0.000 A 
ATOM     36  C   UNL A   1      34.288  16.983  24.756  1.00  0.00     0.000 A 
ENDBRANCH  10  15
ENDBRANCH   7   9
ENDBRANCH   6   7
ENDBRANCH   5   6
ENDBRANCH   4   5
ENDBRANCH   3   4
ENDBRANCH   2   3
ENDBRANCH   1   2
BRANCH   1  37
ATOM     37  O   UNL A   1      34.237  34.472  30.309  1.00  0.00    -0.376 OA
BRANCH  37  38
ATOM     38  C   UNL A   1      34.564  33.256  30.966  1.00  0.00     0.202 C 
BRANCH  38  39
ATOM     39  C   UNL A   1      36.030  32.994  31.306  1.00  0.00     0.261 C 
BRANCH  39  40
ATOM     40  O   UNL A   1      36.629  32.027  30.433  1.00  0.00    -0.460 OA
BRANCH  40  41
ATOM     41  C   UNL A   1      36.825  30.797  30.978  1.00  0.00     0.338 C 
ATOM     42  O   UNL A   1      36.071  30.178  31.694  1.00  0.00    -0.246 OA
BRANCH  41  43
ATOM     43  C   UNL A   1      38.066  30.229  30.412  1.00  0.00     0.060 A 
ATOM     44  C   UNL A   1      38.286  30.223  29.034  1.00  0.00     0.016 A 
ATOM     45  C   UNL A   1      39.028  29.721  31.294  1.00  0.00     0.016 A 
ATOM     46  C   UNL A   1      39.494  29.731  28.539  1.00  0.00     0.010 A 
ATOM     47  C   UNL A   1      40.230  29.217  30.795  1.00  0.00     0.010 A 
ATOM     48  C   UNL A   1      40.477  29.239  29.415  1.00  0.00    -0.014 A 
BRANCH  48  49
ATOM     49  C   UNL A   1      41.821  28.899  28.890  1.00  0.00     0.031 A 
ATOM     50  C   UNL A   1      42.927  29.906  28.850  1.00  0.00     0.074 A 
ATOM     51  C   UNL A   1      42.028  27.641  28.457  1.00  0.00     0.049 A 
ATOM     52  N   UNL A   1      44.181  29.730  28.523  1.00  0.00    -0.248 NA
ATOM     53  C   UNL A   1      42.587  31.287  29.223  1.00  0.00     0.031 C 
ATOM     54  C   UNL A   1      41.011  26.587  28.427  1.00  0.00     0.029 A 
ATOM     55  N   UNL A   1      43.156  27.031  27.975  1.00  0.00    -0.354 N 
ATOM     56  C   UNL A   1      44.792  30.966  28.676  1.00  0.00     0.074 A 
ATOM     57  C   UNL A   1      43.757  31.897  29.080  1.00  0.00     0.031 C 
ATOM     58  C   UNL A   1      41.568  25.454  27.974  1.00  0.00     0.029 A 
ATOM     59  C   UNL A   1      42.975  25.704  27.670  1.00  0.00     0.049 A 
ATOM     60  H   UNL A   1      44.014  27.500  27.857  1.00  0.00     0.167 HD
ATOM     61  C   UNL A   1      46.100  31.284  28.518  1.00  0.00     0.037 A 
ATOM     62  C   UNL A   1      43.846  24.785  27.213  1.00  0.00     0.037 A 
ATOM     63  C   UNL A   1      47.117  30.351  28.096  1.00  0.00     0.049 A 
ATOM     64  C   UNL A   1      45.280  25.176  26.999  1.00  0.00     0.074 A 
ATOM     65  C   UNL A   1      48.475  30.572  27.938  1.00  0.00     0.029 A 
ATOM     66  N   UNL A   1      46.890  29.026  27.751  1.00  0.00    -0.354 N 
ATOM     67  N   UNL A   1      45.859  26.332  27.217  1.00  0.00    -0.248 NA
ATOM     68  C   UNL A   1      46.182  24.137  26.484  1.00  0.00     0.031 C 
ATOM     69  C   UNL A   1      49.061  29.395  27.457  1.00  0.00     0.029 A 
ATOM     70  C   UNL A   1      48.076  28.426  27.356  1.00  0.00     0.049 A 
ATOM     71  H   UNL A   1      46.014  28.577  27.783  1.00  0.00     0.167 HD
ATOM     72  C   UNL A   1      47.196  26.157  26.883  1.00  0.00     0.074 A 
ATOM     73  C   UNL A   1      47.343  24.778  26.461  1.00  0.00     0.031 C 
ATOM     74  C   UNL A   1      48.209  27.056  26.926  1.00  0.00     0.037 A 
BRANCH  61  75
ATOM     75  C   UNL A   1      46.522  32.695  28.816  1.00  0.00     0.058 A 
ATOM     76  C   UNL A   1      46.818  33.103  30.127  1.00  0.00     0.135 A 
ATOM     77  C   UNL A   1      46.711  33.625  27.782  1.00  0.00     0.135 A 
ATOM     78  F   UNL A   1      46.646  32.256  31.153  1.00  0.00    -0.206 F 
ATOM     79  C   UNL A   1      47.278  34.387  30.402  1.00  0.00     0.059 A 
ATOM     80  C   UNL A   1      47.190  34.909  28.033  1.00  0.00     0.059 A 
ATOM     81  F   UNL A   1      46.444  33.286  26.511  1.00  0.00    -0.206 F 
ATOM     82  C   UNL A   1      47.464  35.282  29.348  1.00  0.00     0.060 A 
BRANCH  82  83
ATOM     83  S   UNL A   1      48.087  36.935  29.724  1.00  0.00     0.124 S 
ATOM     84  O   UNL A   1      48.729  37.298  28.464  1.00  0.00    -0.237 OA
ATOM     85  O   UNL A   1      46.862  37.664  30.042  1.00  0.00    -0.237 OA
ATOM     86  O   UNL A   1      48.991  36.712  30.847  1.00  0.00    -0.744 OA
ENDBRANCH  82  83
ENDBRANCH  61  75
BRANCH  62  87
ATOM     87  C   UNL A   1      43.384  23.396  26.971  1.00  0.00     0.058 A 
ATOM     88  C   UNL A   1      43.139  22.938  25.669  1.00  0.00     0.135 A 
ATOM     89  C   UNL A   1      43.220  22.489  28.029  1.00  0.00     0.135 A 
ATOM     90  F   UNL A   1      43.280  23.771  24.627  1.00  0.00    -0.206 F 
ATOM     91  C   UNL A   1      42.740  21.629  25.422  1.00  0.00     0.059 A 
ATOM     92  C   UNL A   1      42.843  21.170  27.807  1.00  0.00     0.059 A 
ATOM     93  F   UNL A   1      43.458  22.879  29.291  1.00  0.00    -0.206 F 
ATOM     94  C   UNL A   1      42.600  20.750  26.499  1.00  0.00     0.060 A 
BRANCH  94  95
ATOM     95  S   UNL A   1      42.140  19.038  26.161  1.00  0.00     0.124 S 
ATOM     96  O   UNL A   1      43.062  18.693  25.084  1.00  0.00    -0.237 OA
ATOM     97  O   UNL A   1      42.390  18.395  27.447  1.00  0.00    -0.237 OA
ATOM     98  O   UNL A   1      40.733  19.136  25.780  1.00  0.00    -0.744 OA
ENDBRANCH  94  95
ENDBRANCH  62  87
BRANCH  74  99
ATOM     99  C   UNL A   1      49.573  26.582  26.505  1.00  0.00     0.058 A 
ATOM    100  C   UNL A   1      50.071  26.838  25.218  1.00  0.00     0.135 A 
ATOM    101  C   UNL A   1      50.411  25.915  27.412  1.00  0.00     0.135 A 
ATOM    102  F   UNL A   1      49.305  27.464  24.309  1.00  0.00    -0.206 F 
ATOM    103  C   UNL A   1      51.348  26.437  24.840  1.00  0.00     0.059 A 
ATOM    104  C   UNL A   1      51.702  25.526  27.062  1.00  0.00     0.059 A 
ATOM    105  F   UNL A   1      49.986  25.651  28.657  1.00  0.00    -0.206 F 
ATOM    106  C   UNL A   1      52.158  25.784  25.771  1.00  0.00     0.060 A 
BRANCH 106 107
ATOM    107  S   UNL A   1      53.829  25.309  25.279  1.00  0.00     0.124 S 
ATOM    108  O   UNL A   1      53.604  23.983  24.714  1.00  0.00    -0.237 OA
ATOM    109  O   UNL A   1      54.181  26.354  24.322  1.00  0.00    -0.237 OA
ATOM    110  O   UNL A   1      54.575  25.339  26.533  1.00  0.00    -0.744 OA
ENDBRANCH 106 107
ENDBRANCH  74  99
ENDBRANCH  48  49
ENDBRANCH  41  43
ENDBRANCH  40  41
ENDBRANCH  39  40
ENDBRANCH  38  39
ENDBRANCH  37  38
ENDBRANCH   1  37
TORSDOF 21
ENDMDL
MODEL 3
REMARK VINA RESULT:     -11.7      5.892     11.945
REMARK SMILES C[C@]12C(=O)N(c3ccc(C(=O)OCCOCCOCCOC(=O)c4ccc(-c5c6nc(c(-c7c(F)cc(S(=O)(=O)[O-])cc7F)c7ccc([nH]7)c(-c7c(F)cc(S(=O)(=O)[O-])cc7F)c7nc(c(-c8c(F)cc(S(=O)(=O)[O-])cc8F)c8ccc5[nH]8)C=C7)C=C6)cc4)cc3)C(=O)[C@H]1[C@H]1c3ccccc3[C@@H]2c2ccccc21
REMARK SMILES IDX 17 1 16 2 15 3 14 4 13 5 12 6 10 7 11 8 9 9 6 10 7 11 91 12
REMARK SMILES IDX 8 13 90 14 5 15 1 16 2 17 3 18 94 19 102 20 4 21 92 22 95 23
REMARK SMILES IDX 101 24 103 25 93 26 96 27 108 28 100 29 104 30 97 31 107 32
REMARK SMILES IDX 99 33 105 34 98 35 106 36 18 37 19 38 20 39 21 40 22 41
REMARK SMILES IDX 23 42 24 43 25 44 89 45 26 46 88 47 27 48 28 49 29 50 82 51
REMARK SMILES IDX 30 52 87 53 81 54 83 55 31 56 86 57 80 58 79 59 32 61 66 62
REMARK SMILES IDX 45 63 65 64 46 65 49 66 64 67 84 68 47 69 48 70 63 72 85 73
REMARK SMILES IDX 50 74 33 75 34 76 43 77 35 78 36 79 42 80 44 81 37 82 38 83
REMARK SMILES IDX 39 84 40 85 41 86 67 87 68 88 77 89 69 90 70 91 76 92 78 93
REMARK SMILES IDX 71 94 72 95 73 96 74 97 75 98 51 99 52 100 61 101 53 102
REMARK SMILES IDX 54 103 60 104 62 105 55 106 56 107 57 108 58 109 59 110
REMARK H PARENT 83 60 49 71
REMARK Flexibility Score: inf
ROOT
ATOM      1  C   UNL A   1      34.339  34.332  28.968  1.00  0.00     0.188 C 
ENDROOT
BRANCH   1   2
ATOM      2  C   UNL A   1      34.376  33.103  28.034  1.00  0.00     0.188 C 
BRANCH   2   3
ATOM      3  O   UNL A   1      33.165  32.485  27.630  1.00  0.00    -0.376 OA
BRANCH   3   4
ATOM      4  C   UNL A   1      33.188  31.121  27.223  1.00  0.00     0.202 C 
BRANCH   4   5
ATOM      5  C   UNL A   1      31.847  30.480  26.875  1.00  0.00     0.261 C 
BRANCH   5   6
ATOM      6  O   UNL A   1      32.047  29.330  26.033  1.00  0.00    -0.460 OA
BRANCH   6   7
ATOM      7  C   UNL A   1      31.934  28.141  26.669  1.00  0.00     0.338 C 
ATOM      8  O   UNL A   1      31.418  27.929  27.752  1.00  0.00    -0.246 OA
BRANCH   7   9
ATOM      9  C   UNL A   1      32.356  27.062  25.762  1.00  0.00     0.060 A 
ATOM     10  C   UNL A   1      32.953  24.830  24.153  1.00  0.00     0.052 A 
ATOM     11  C   UNL A   1      31.734  25.521  24.020  1.00  0.00     0.028 A 
ATOM     12  C   UNL A   1      33.905  25.350  25.043  1.00  0.00     0.028 A 
ATOM     13  C   UNL A   1      31.418  26.600  24.843  1.00  0.00     0.018 A 
ATOM     14  C   UNL A   1      33.620  26.479  25.830  1.00  0.00     0.018 A 
BRANCH  10  15
ATOM     15  N   UNL A   1      33.082  23.547  23.544  1.00  0.00    -0.250 N 
ATOM     16  C   UNL A   1      31.925  20.510  22.179  1.00  0.00     0.024 C 
ATOM     17  C   UNL A   1      32.518  21.273  23.372  1.00  0.00     0.071 C 
ATOM     18  C   UNL A   1      32.016  22.692  23.368  1.00  0.00     0.241 C 
ATOM     19  C   UNL A   1      34.063  21.425  23.244  1.00  0.00     0.107 C 
ATOM     20  C   UNL A   1      32.152  20.639  24.762  1.00  0.00     0.066 C 
ATOM     21  O   UNL A   1      30.834  22.980  23.230  1.00  0.00    -0.273 OA
ATOM     22  C   UNL A   1      34.282  22.928  23.254  1.00  0.00     0.238 C 
ATOM     23  C   UNL A   1      34.771  20.749  24.467  1.00  0.00     0.063 C 
ATOM     24  C   UNL A   1      32.862  21.445  25.862  1.00  0.00    -0.036 A 
ATOM     25  C   UNL A   1      32.812  19.266  24.762  1.00  0.00    -0.036 A 
ATOM     26  O   UNL A   1      35.388  23.426  23.082  1.00  0.00    -0.274 OA
ATOM     27  C   UNL A   1      34.274  21.497  25.706  1.00  0.00    -0.036 A 
ATOM     28  C   UNL A   1      34.222  19.318  24.583  1.00  0.00    -0.036 A 
ATOM     29  C   UNL A   1      32.247  22.136  26.895  1.00  0.00     0.005 A 
ATOM     30  C   UNL A   1      32.151  18.066  24.978  1.00  0.00     0.005 A 
ATOM     31  C   UNL A   1      35.063  22.250  26.565  1.00  0.00     0.004 A 
ATOM     32  C   UNL A   1      34.966  18.149  24.637  1.00  0.00     0.004 A 
ATOM     33  C   UNL A   1      33.043  22.901  27.753  1.00  0.00     0.000 A 
ATOM     34  C   UNL A   1      32.906  16.897  25.025  1.00  0.00     0.000 A 
ATOM     35  C   UNL A   1      34.435  22.959  27.588  1.00  0.00     0.000 A 
ATOM     36  C   UNL A   1      34.300  16.938  24.858  1.00  0.00     0.000 A 
ENDBRANCH  10  15
ENDBRANCH   7   9
ENDBRANCH   6   7
ENDBRANCH   5   6
ENDBRANCH   4   5
ENDBRANCH   3   4
ENDBRANCH   2   3
ENDBRANCH   1   2
BRANCH   1  37
ATOM     37  O   UNL A   1      34.125  34.176  30.362  1.00  0.00    -0.376 OA
BRANCH  37  38
ATOM     38  C   UNL A   1      34.574  32.991  31.001  1.00  0.00     0.202 C 
BRANCH  38  39
ATOM     39  C   UNL A   1      35.949  33.010  31.667  1.00  0.00     0.261 C 
BRANCH  39  40
ATOM     40  O   UNL A   1      36.861  32.083  31.064  1.00  0.00    -0.460 OA
BRANCH  40  41
ATOM     41  C   UNL A   1      37.455  31.211  31.921  1.00  0.00     0.338 C 
ATOM     42  O   UNL A   1      37.046  30.842  32.999  1.00  0.00    -0.246 OA
BRANCH  41  43
ATOM     43  C   UNL A   1      38.633  30.626  31.250  1.00  0.00     0.060 A 
ATOM     44  C   UNL A   1      38.866  30.848  29.892  1.00  0.00     0.016 A 
ATOM     45  C   UNL A   1      39.525  29.864  32.015  1.00  0.00     0.016 A 
ATOM     46  C   UNL A   1      40.019  30.327  29.304  1.00  0.00     0.010 A 
ATOM     47  C   UNL A   1      40.671  29.333  31.421  1.00  0.00     0.010 A 
ATOM     48  C   UNL A   1      40.934  29.580  30.067  1.00  0.00    -0.014 A 
BRANCH  48  49
ATOM     49  C   UNL A   1      42.239  29.199  29.477  1.00  0.00     0.031 A 
ATOM     50  C   UNL A   1      42.494  27.818  28.959  1.00  0.00     0.074 A 
ATOM     51  C   UNL A   1      43.198  30.142  29.405  1.00  0.00     0.049 A 
ATOM     52  N   UNL A   1      43.541  27.365  28.320  1.00  0.00    -0.248 NA
ATOM     53  C   UNL A   1      41.444  26.815  29.187  1.00  0.00     0.031 C 
ATOM     54  C   UNL A   1      43.064  31.512  29.904  1.00  0.00     0.029 A 
ATOM     55  N   UNL A   1      44.461  30.100  28.877  1.00  0.00    -0.354 N 
ATOM     56  C   UNL A   1      43.271  26.033  28.039  1.00  0.00     0.074 A 
ATOM     57  C   UNL A   1      41.977  25.738  28.623  1.00  0.00     0.031 C 
ATOM     58  C   UNL A   1      44.191  32.188  29.636  1.00  0.00     0.029 A 
ATOM     59  C   UNL A   1      45.130  31.297  28.959  1.00  0.00     0.049 A 
ATOM     60  H   UNL A   1      44.852  29.289  28.476  1.00  0.00     0.167 HD
ATOM     61  C   UNL A   1      44.024  25.151  27.338  1.00  0.00     0.037 A 
ATOM     62  C   UNL A   1      46.356  31.645  28.526  1.00  0.00     0.037 A 
ATOM     63  C   UNL A   1      45.319  25.454  26.778  1.00  0.00     0.049 A 
ATOM     64  C   UNL A   1      47.191  30.633  27.793  1.00  0.00     0.074 A 
ATOM     65  C   UNL A   1      46.142  24.635  26.024  1.00  0.00     0.029 A 
ATOM     66  N   UNL A   1      45.987  26.662  26.921  1.00  0.00    -0.354 N 
ATOM     67  N   UNL A   1      46.891  29.397  27.473  1.00  0.00    -0.248 NA
ATOM     68  C   UNL A   1      48.525  31.063  27.358  1.00  0.00     0.031 C 
ATOM     69  C   UNL A   1      47.325  25.331  25.749  1.00  0.00     0.029 A 
ATOM     70  C   UNL A   1      47.221  26.601  26.294  1.00  0.00     0.049 A 
ATOM     71  H   UNL A   1      45.634  27.449  27.398  1.00  0.00     0.167 HD
ATOM     72  C   UNL A   1      47.992  28.907  26.782  1.00  0.00     0.074 A 
ATOM     73  C   UNL A   1      48.960  29.985  26.720  1.00  0.00     0.031 C 
ATOM     74  C   UNL A   1      48.182  27.676  26.247  1.00  0.00     0.037 A 
BRANCH  61  75
ATOM     75  C   UNL A   1      43.467  23.774  27.115  1.00  0.00     0.058 A 
ATOM     76  C   UNL A   1      43.501  22.804  28.130  1.00  0.00     0.135 A 
ATOM     77  C   UNL A   1      42.822  23.441  25.913  1.00  0.00     0.135 A 
ATOM     78  F   UNL A   1      44.113  23.066  29.295  1.00  0.00    -0.206 F 
ATOM     79  C   UNL A   1      42.924  21.550  27.957  1.00  0.00     0.059 A 
ATOM     80  C   UNL A   1      42.219  22.199  25.726  1.00  0.00     0.059 A 
ATOM     81  F   UNL A   1      42.760  24.332  24.911  1.00  0.00    -0.206 F 
ATOM     82  C   UNL A   1      42.282  21.257  26.753  1.00  0.00     0.060 A 
BRANCH  82  83
ATOM     83  S   UNL A   1      41.516  19.634  26.558  1.00  0.00     0.124 S 
ATOM     84  O   UNL A   1      42.058  19.208  25.271  1.00  0.00    -0.237 OA
ATOM     85  O   UNL A   1      42.016  18.912  27.724  1.00  0.00    -0.237 OA
ATOM     86  O   UNL A   1      40.087  19.927  26.570  1.00  0.00    -0.744 OA
ENDBRANCH  82  83
ENDBRANCH  61  75
BRANCH  62  87
ATOM     87  C   UNL A   1      46.841  33.031  28.740  1.00  0.00     0.058 A 
ATOM     88  C   UNL A   1      46.632  34.022  27.771  1.00  0.00     0.135 A 
ATOM     89  C   UNL A   1      47.483  33.401  29.932  1.00  0.00     0.135 A 
ATOM     90  F   UNL A   1      46.026  33.712  26.615  1.00  0.00    -0.206 F 
ATOM     91  C   UNL A   1      47.048  35.333  27.971  1.00  0.00     0.059 A 
ATOM     92  C   UNL A   1      47.888  34.710  30.165  1.00  0.00     0.059 A 
ATOM     93  F   UNL A   1      47.690  32.489  30.895  1.00  0.00    -0.206 F 
ATOM     94  C   UNL A   1      47.672  35.669  29.175  1.00  0.00     0.060 A 
BRANCH  94  95
ATOM     95  S   UNL A   1      48.153  37.386  29.448  1.00  0.00     0.124 S 
ATOM     96  O   UNL A   1      48.778  37.722  28.173  1.00  0.00    -0.237 OA
ATOM     97  O   UNL A   1      46.868  38.025  29.717  1.00  0.00    -0.237 OA
ATOM     98  O   UNL A   1      49.057  37.306  30.592  1.00  0.00    -0.744 OA
ENDBRANCH  94  95
ENDBRANCH  62  87
BRANCH  74  99
ATOM     99  C   UNL A   1      49.487  27.422  25.543  1.00  0.00     0.058 A 
ATOM    100  C   UNL A   1      50.638  27.047  26.252  1.00  0.00     0.135 A 
ATOM    101  C   UNL A   1      49.573  27.500  24.144  1.00  0.00     0.135 A 
ATOM    102  F   UNL A   1      50.612  26.967  27.592  1.00  0.00    -0.206 F 
ATOM    103  C   UNL A   1      51.835  26.770  25.599  1.00  0.00     0.059 A 
ATOM    104  C   UNL A   1      50.754  27.204  23.469  1.00  0.00     0.059 A 
ATOM    105  F   UNL A   1      48.499  27.848  23.419  1.00  0.00    -0.206 F 
ATOM    106  C   UNL A   1      51.882  26.848  24.205  1.00  0.00     0.060 A 
BRANCH 106 107
ATOM    107  S   UNL A   1      53.431  26.444  23.370  1.00  0.00     0.124 S 
ATOM    108  O   UNL A   1      52.952  25.954  22.082  1.00  0.00    -0.237 OA
ATOM    109  O   UNL A   1      54.116  27.733  23.342  1.00  0.00    -0.237 OA
ATOM    110  O   UNL A   1      54.035  25.439  24.240  1.00  0.00    -0.744 OA
ENDBRANCH 106 107
ENDBRANCH  74  99
ENDBRANCH  48  49
ENDBRANCH  41  43
ENDBRANCH  40  41
ENDBRANCH  39  40
ENDBRANCH  38  39
ENDBRANCH  37  38
ENDBRANCH   1  37
TORSDOF 21
ENDMDL
