MODEL 1
REMARK VINA RESULT:      -9.9      0.000      0.000
REMARK SMILES C/C(=N\Nc1nc(-c2ccc(Cl)cc2)cs1)c1nnn(-c2ccc(C(=O)OCCOCCOCCOC(=O)c3ccc(-c4c5nc(c(-c6c(F)cc(S(=O)(=O)[O-])cc6F)c6ccc([nH]6)c(-c6c(F)cc(S(=O)(=O)[O-])cc6F)c6nc(c(-c7c(F)cc(S(=O)(=O)[O-])cc7F)c7ccc4[nH]7)C=C6)C=C5)cc3)cc2)c1C
REMARK SMILES IDX 31 1 30 2 29 3 28 4 27 5 25 6 26 7 24 8 21 9 22 10 106 11
REMARK SMILES IDX 23 12 105 13 20 14 17 15 18 16 107 17 19 18 108 19 2 20 1 21
REMARK SMILES IDX 3 22 4 23 5 25 6 26 16 27 7 28 15 29 8 30 9 31 14 32 10 33
REMARK SMILES IDX 13 34 11 35 12 36 32 37 33 38 34 39 35 40 36 41 37 42 38 43
REMARK SMILES IDX 39 44 40 45 104 46 41 47 103 48 42 49 43 50 44 51 97 52
REMARK SMILES IDX 45 53 102 54 96 55 98 56 46 57 101 58 95 59 94 60 47 62
REMARK SMILES IDX 81 63 60 64 80 65 61 66 64 67 79 68 99 69 62 70 63 71 78 73
REMARK SMILES IDX 100 74 65 75 48 76 49 77 58 78 50 79 51 80 57 81 59 82 52 83
REMARK SMILES IDX 53 84 54 85 55 86 56 87 82 88 83 89 92 90 84 91 85 92 91 93
REMARK SMILES IDX 93 94 86 95 87 96 88 97 89 98 90 99 66 100 67 101 76 102
REMARK SMILES IDX 68 103 69 104 75 105 77 106 70 107 71 108 72 109 73 110
REMARK SMILES IDX 74 111
REMARK H PARENT 4 24 98 61 64 72
REMARK Flexibility Score: inf
ROOT
ATOM      1  C   UNL A   1      36.955  22.938  25.335  1.00  0.00     0.188 C 
ENDROOT
BRANCH   1   2
ATOM      2  O   UNL A   1      35.732  22.876  26.059  1.00  0.00    -0.376 OA
BRANCH   2   3
ATOM      3  C   UNL A   1      35.159  21.614  26.379  1.00  0.00     0.202 C 
BRANCH   3   4
ATOM      4  C   UNL A   1      34.649  20.708  25.245  1.00  0.00     0.261 C 
BRANCH   4   5
ATOM      5  O   UNL A   1      33.849  21.383  24.263  1.00  0.00    -0.460 OA
BRANCH   5   6
ATOM      6  C   UNL A   1      32.562  21.625  24.606  1.00  0.00     0.338 C 
ATOM      7  O   UNL A   1      31.800  20.868  25.181  1.00  0.00    -0.246 OA
BRANCH   6   8
ATOM      8  C   UNL A   1      32.212  23.033  24.300  1.00  0.00     0.060 A 
ATOM      9  C   UNL A   1      31.721  25.742  23.928  1.00  0.00     0.067 A 
ATOM     10  C   UNL A   1      32.988  25.234  23.626  1.00  0.00     0.029 A 
ATOM     11  C   UNL A   1      30.665  24.882  24.267  1.00  0.00     0.029 A 
ATOM     12  C   UNL A   1      33.234  23.879  23.838  1.00  0.00     0.018 A 
ATOM     13  C   UNL A   1      30.912  23.524  24.456  1.00  0.00     0.018 A 
BRANCH   9  14
ATOM     14  N   UNL A   1      31.593  27.128  24.173  1.00  0.00    -0.217 N 
ATOM     15  C   UNL A   1      31.964  29.060  25.117  1.00  0.00     0.132 A 
ATOM     16  N   UNL A   1      31.871  29.250  23.769  1.00  0.00    -0.128 NA
ATOM     17  C   UNL A   1      31.763  27.723  25.414  1.00  0.00     0.071 A 
ATOM     18  N   UNL A   1      31.714  28.060  23.199  1.00  0.00    -0.061 NA
ATOM     19  C   UNL A   1      31.955  26.990  26.693  1.00  0.00     0.069 C 
BRANCH  15  20
ATOM     20  C   UNL A   1      32.466  30.045  26.063  1.00  0.00     0.087 C 
ATOM     21  C   UNL A   1      31.476  31.131  26.409  1.00  0.00     0.071 C 
ATOM     22  N   UNL A   1      33.720  29.928  26.391  1.00  0.00    -0.176 NA
BRANCH  22  23
ATOM     23  N   UNL A   1      34.434  30.864  27.098  1.00  0.00    -0.252 N 
ATOM     24  H   UNL A   1      33.993  31.742  27.164  1.00  0.00     0.193 HD
BRANCH  23  25
ATOM     25  C   UNL A   1      35.636  30.800  27.722  1.00  0.00     0.203 A 
ATOM     26  N   UNL A   1      36.606  29.957  27.463  1.00  0.00    -0.219 NA
ATOM     27  S   UNL A   1      35.981  31.866  29.042  1.00  0.00    -0.103 S 
ATOM     28  C   UNL A   1      37.525  29.936  28.490  1.00  0.00     0.084 A 
ATOM     29  C   UNL A   1      37.349  30.909  29.449  1.00  0.00     0.097 A 
BRANCH  28  30
ATOM     30  C   UNL A   1      38.529  28.890  28.532  1.00  0.00     0.001 A 
ATOM     31  C   UNL A   1      39.450  28.780  27.481  1.00  0.00     0.012 A 
ATOM     32  C   UNL A   1      38.517  27.918  29.541  1.00  0.00     0.012 A 
ATOM     33  C   UNL A   1      40.363  27.725  27.450  1.00  0.00     0.021 A 
ATOM     34  C   UNL A   1      39.423  26.854  29.503  1.00  0.00     0.021 A 
ATOM     35  C   UNL A   1      40.345  26.765  28.460  1.00  0.00     0.041 A 
ATOM     36  Cl  UNL A   1      41.456  25.452  28.411  1.00  0.00    -0.084 Cl
ENDBRANCH  28  30
ENDBRANCH  23  25
ENDBRANCH  22  23
ENDBRANCH  15  20
ENDBRANCH   9  14
ENDBRANCH   6   8
ENDBRANCH   5   6
ENDBRANCH   4   5
ENDBRANCH   3   4
ENDBRANCH   2   3
ENDBRANCH   1   2
BRANCH   1  37
ATOM     37  C   UNL A   1      38.298  22.589  26.017  1.00  0.00     0.188 C 
BRANCH  37  38
ATOM     38  O   UNL A   1      38.802  21.296  25.721  1.00  0.00    -0.376 OA
BRANCH  38  39
ATOM     39  C   UNL A   1      40.038  20.938  26.327  1.00  0.00     0.202 C 
BRANCH  39  40
ATOM     40  C   UNL A   1      41.216  21.888  26.111  1.00  0.00     0.261 C 
BRANCH  40  41
ATOM     41  O   UNL A   1      42.483  21.375  26.496  1.00  0.00    -0.460 OA
BRANCH  41  42
ATOM     42  C   UNL A   1      43.452  21.435  25.557  1.00  0.00     0.338 C 
ATOM     43  O   UNL A   1      43.672  20.618  24.683  1.00  0.00    -0.246 OA
BRANCH  42  44
ATOM     44  C   UNL A   1      44.247  22.646  25.801  1.00  0.00     0.060 A 
ATOM     45  C   UNL A   1      45.478  22.495  26.443  1.00  0.00     0.016 A 
ATOM     46  C   UNL A   1      43.650  23.904  25.626  1.00  0.00     0.016 A 
ATOM     47  C   UNL A   1      46.014  23.588  27.094  1.00  0.00     0.010 A 
ATOM     48  C   UNL A   1      44.175  24.987  26.290  1.00  0.00     0.010 A 
ATOM     49  C   UNL A   1      45.300  24.790  27.088  1.00  0.00    -0.014 A 
BRANCH  49  50
ATOM     50  C   UNL A   1      45.693  25.810  28.037  1.00  0.00     0.031 A 
ATOM     51  C   UNL A   1      45.058  25.742  29.366  1.00  0.00     0.074 A 
ATOM     52  C   UNL A   1      46.669  26.689  27.740  1.00  0.00     0.049 A 
ATOM     53  N   UNL A   1      44.285  26.613  29.924  1.00  0.00    -0.248 NA
ATOM     54  C   UNL A   1      45.239  24.504  30.138  1.00  0.00     0.031 C 
ATOM     55  C   UNL A   1      47.588  26.649  26.598  1.00  0.00     0.029 A 
ATOM     56  N   UNL A   1      47.125  27.741  28.473  1.00  0.00    -0.354 N 
ATOM     57  C   UNL A   1      44.049  26.129  31.204  1.00  0.00     0.074 A 
ATOM     58  C   UNL A   1      44.521  24.768  31.228  1.00  0.00     0.031 C 
ATOM     59  C   UNL A   1      48.616  27.493  26.831  1.00  0.00     0.029 A 
ATOM     60  C   UNL A   1      48.369  28.206  28.074  1.00  0.00     0.049 A 
ATOM     61  H   UNL A   1      46.618  28.136  29.218  1.00  0.00     0.167 HD
ATOM     62  C   UNL A   1      43.697  26.949  32.229  1.00  0.00     0.037 A 
ATOM     63  C   UNL A   1      49.177  29.038  28.775  1.00  0.00     0.037 A 
ATOM     64  C   UNL A   1      43.224  28.228  31.770  1.00  0.00     0.049 A 
ATOM     65  C   UNL A   1      48.336  29.744  29.778  1.00  0.00     0.074 A 
ATOM     66  C   UNL A   1      42.198  28.642  30.944  1.00  0.00     0.029 A 
ATOM     67  N   UNL A   1      44.057  29.312  31.906  1.00  0.00    -0.354 N 
ATOM     68  N   UNL A   1      47.424  30.631  29.489  1.00  0.00    -0.248 NA
ATOM     69  C   UNL A   1      48.239  29.174  31.115  1.00  0.00     0.031 C 
ATOM     70  C   UNL A   1      42.696  29.794  30.270  1.00  0.00     0.029 A 
ATOM     71  C   UNL A   1      43.990  30.029  30.737  1.00  0.00     0.049 A 
ATOM     72  H   UNL A   1      44.602  29.534  32.695  1.00  0.00     0.167 HD
ATOM     73  C   UNL A   1      46.419  30.434  30.425  1.00  0.00     0.074 A 
ATOM     74  C   UNL A   1      47.027  29.613  31.465  1.00  0.00     0.031 C 
ATOM     75  C   UNL A   1      45.114  30.716  30.138  1.00  0.00     0.037 A 
BRANCH  62  76
ATOM     76  C   UNL A   1      44.110  26.698  33.653  1.00  0.00     0.058 A 
ATOM     77  C   UNL A   1      43.136  26.637  34.665  1.00  0.00     0.135 A 
ATOM     78  C   UNL A   1      45.452  26.782  34.088  1.00  0.00     0.135 A 
ATOM     79  F   UNL A   1      41.831  26.586  34.354  1.00  0.00    -0.206 F 
ATOM     80  C   UNL A   1      43.469  26.702  36.018  1.00  0.00     0.059 A 
ATOM     81  C   UNL A   1      45.810  26.787  35.429  1.00  0.00     0.059 A 
ATOM     82  F   UNL A   1      46.466  26.965  33.231  1.00  0.00    -0.206 F 
ATOM     83  C   UNL A   1      44.810  26.793  36.387  1.00  0.00     0.060 A 
BRANCH  83  84
ATOM     84  S   UNL A   1      45.243  27.003  38.122  1.00  0.00     0.124 S 
ATOM     85  O   UNL A   1      45.894  28.308  38.096  1.00  0.00    -0.237 OA
ATOM     86  O   UNL A   1      43.940  26.948  38.774  1.00  0.00    -0.237 OA
ATOM     87  O   UNL A   1      46.118  25.864  38.386  1.00  0.00    -0.744 OA
ENDBRANCH  83  84
ENDBRANCH  62  76
BRANCH  63  88
ATOM     88  C   UNL A   1      50.661  29.019  28.840  1.00  0.00     0.058 A 
ATOM     89  C   UNL A   1      51.346  27.939  29.422  1.00  0.00     0.135 A 
ATOM     90  C   UNL A   1      51.449  29.929  28.104  1.00  0.00     0.135 A 
ATOM     91  F   UNL A   1      50.674  27.008  30.116  1.00  0.00    -0.206 F 
ATOM     92  C   UNL A   1      52.721  27.747  29.247  1.00  0.00     0.059 A 
ATOM     93  C   UNL A   1      52.822  29.772  27.935  1.00  0.00     0.059 A 
ATOM     94  F   UNL A   1      50.896  30.955  27.441  1.00  0.00    -0.206 F 
ATOM     95  C   UNL A   1      53.448  28.663  28.486  1.00  0.00     0.060 A 
BRANCH  95  96
ATOM     96  S   UNL A   1      55.183  28.329  28.110  1.00  0.00     0.124 S 
ATOM     97  O   UNL A   1      55.190  26.877  27.978  1.00  0.00    -0.237 OA
ATOM     98  O   UNL A   1      55.381  29.083  26.876  1.00  0.00    -0.237 OA
ATOM     99  O   UNL A   1      55.889  28.854  29.276  1.00  0.00    -0.744 OA
ENDBRANCH  95  96
ENDBRANCH  63  88
BRANCH  75 100
ATOM    100  C   UNL A   1      44.822  31.586  28.944  1.00  0.00     0.058 A 
ATOM    101  C   UNL A   1      44.817  32.991  28.971  1.00  0.00     0.135 A 
ATOM    102  C   UNL A   1      44.681  30.970  27.690  1.00  0.00     0.135 A 
ATOM    103  F   UNL A   1      45.058  33.658  30.109  1.00  0.00    -0.206 F 
ATOM    104  C   UNL A   1      44.630  33.748  27.814  1.00  0.00     0.059 A 
ATOM    105  C   UNL A   1      44.525  31.705  26.517  1.00  0.00     0.059 A 
ATOM    106  F   UNL A   1      44.743  29.632  27.587  1.00  0.00    -0.206 F 
ATOM    107  C   UNL A   1      44.484  33.096  26.590  1.00  0.00     0.060 A 
BRANCH 107 108
ATOM    108  S   UNL A   1      44.327  34.079  25.082  1.00  0.00     0.124 S 
ATOM    109  O   UNL A   1      43.231  34.982  25.419  1.00  0.00    -0.237 OA
ATOM    110  O   UNL A   1      45.644  34.700  24.965  1.00  0.00    -0.237 OA
ATOM    111  O   UNL A   1      44.025  33.084  24.056  1.00  0.00    -0.744 OA
ENDBRANCH 107 108
ENDBRANCH  75 100
ENDBRANCH  49  50
ENDBRANCH  42  44
ENDBRANCH  41  42
ENDBRANCH  40  41
ENDBRANCH  39  40
ENDBRANCH  38  39
ENDBRANCH  37  38
ENDBRANCH   1  37
TORSDOF 25
ENDMDL
MODEL 2
REMARK VINA RESULT:      -9.4      2.585      3.467
REMARK SMILES C/C(=N\Nc1nc(-c2ccc(Cl)cc2)cs1)c1nnn(-c2ccc(C(=O)OCCOCCOCCOC(=O)c3ccc(-c4c5nc(c(-c6c(F)cc(S(=O)(=O)[O-])cc6F)c6ccc([nH]6)c(-c6c(F)cc(S(=O)(=O)[O-])cc6F)c6nc(c(-c7c(F)cc(S(=O)(=O)[O-])cc7F)c7ccc4[nH]7)C=C6)C=C5)cc3)cc2)c1C
REMARK SMILES IDX 31 1 30 2 29 3 28 4 27 5 25 6 26 7 24 8 21 9 22 10 106 11
REMARK SMILES IDX 23 12 105 13 20 14 17 15 18 16 107 17 19 18 108 19 2 20 1 21
REMARK SMILES IDX 3 22 4 23 5 25 6 26 16 27 7 28 15 29 8 30 9 31 14 32 10 33
REMARK SMILES IDX 13 34 11 35 12 36 32 37 33 38 34 39 35 40 36 41 37 42 38 43
REMARK SMILES IDX 39 44 40 45 104 46 41 47 103 48 42 49 43 50 44 51 97 52
REMARK SMILES IDX 45 53 102 54 96 55 98 56 46 57 101 58 95 59 94 60 47 62
REMARK SMILES IDX 81 63 60 64 80 65 61 66 64 67 79 68 99 69 62 70 63 71 78 73
REMARK SMILES IDX 100 74 65 75 48 76 49 77 58 78 50 79 51 80 57 81 59 82 52 83
REMARK SMILES IDX 53 84 54 85 55 86 56 87 82 88 83 89 92 90 84 91 85 92 91 93
REMARK SMILES IDX 93 94 86 95 87 96 88 97 89 98 90 99 66 100 67 101 76 102
REMARK SMILES IDX 68 103 69 104 75 105 77 106 70 107 71 108 72 109 73 110
REMARK SMILES IDX 74 111
REMARK H PARENT 4 24 98 61 64 72
REMARK Flexibility Score: inf
ROOT
ATOM      1  C   UNL A   1      37.502  23.118  25.432  1.00  0.00     0.188 C 
ENDROOT
BRANCH   1   2
ATOM      2  O   UNL A   1      36.141  23.121  25.849  1.00  0.00    -0.376 OA
BRANCH   2   3
ATOM      3  C   UNL A   1      35.530  21.915  26.289  1.00  0.00     0.202 C 
BRANCH   3   4
ATOM      4  C   UNL A   1      34.941  20.945  25.250  1.00  0.00     0.261 C 
BRANCH   4   5
ATOM      5  O   UNL A   1      34.284  21.588  24.147  1.00  0.00    -0.460 OA
BRANCH   5   6
ATOM      6  C   UNL A   1      32.934  21.666  24.221  1.00  0.00     0.338 C 
ATOM      7  O   UNL A   1      32.172  20.821  24.657  1.00  0.00    -0.246 OA
BRANCH   6   8
ATOM      8  C   UNL A   1      32.481  23.015  23.809  1.00  0.00     0.060 A 
ATOM      9  C   UNL A   1      31.733  25.636  23.270  1.00  0.00     0.067 A 
ATOM     10  C   UNL A   1      33.091  25.308  23.285  1.00  0.00     0.029 A 
ATOM     11  C   UNL A   1      30.752  24.638  23.371  1.00  0.00     0.029 A 
ATOM     12  C   UNL A   1      33.460  23.996  23.580  1.00  0.00     0.018 A 
ATOM     13  C   UNL A   1      31.126  23.324  23.644  1.00  0.00     0.018 A 
BRANCH   9  14
ATOM     14  N   UNL A   1      31.367  26.990  23.446  1.00  0.00    -0.217 N 
ATOM     15  C   UNL A   1      31.283  28.960  24.380  1.00  0.00     0.132 A 
ATOM     16  N   UNL A   1      31.406  29.128  23.032  1.00  0.00    -0.128 NA
ATOM     17  C   UNL A   1      31.225  27.609  24.678  1.00  0.00     0.071 A 
ATOM     18  N   UNL A   1      31.525  27.925  22.479  1.00  0.00    -0.061 NA
ATOM     19  C   UNL A   1      31.288  26.919  25.993  1.00  0.00     0.069 C 
BRANCH  15  20
ATOM     20  C   UNL A   1      31.462  30.012  25.368  1.00  0.00     0.087 C 
ATOM     21  C   UNL A   1      30.539  31.193  25.189  1.00  0.00     0.071 C 
ATOM     22  N   UNL A   1      32.455  29.852  26.194  1.00  0.00    -0.176 NA
BRANCH  22  23
ATOM     23  N   UNL A   1      32.917  30.814  27.058  1.00  0.00    -0.252 N 
ATOM     24  H   UNL A   1      32.235  31.469  27.333  1.00  0.00     0.193 HD
BRANCH  23  25
ATOM     25  C   UNL A   1      34.142  31.028  27.600  1.00  0.00     0.203 A 
ATOM     26  N   UNL A   1      35.198  30.263  27.467  1.00  0.00    -0.219 NA
ATOM     27  S   UNL A   1      34.403  32.395  28.630  1.00  0.00    -0.103 S 
ATOM     28  C   UNL A   1      36.152  30.576  28.411  1.00  0.00     0.084 A 
ATOM     29  C   UNL A   1      35.894  31.714  29.144  1.00  0.00     0.097 A 
BRANCH  28  30
ATOM     30  C   UNL A   1      37.280  29.687  28.613  1.00  0.00     0.001 A 
ATOM     31  C   UNL A   1      37.453  29.071  29.859  1.00  0.00     0.012 A 
ATOM     32  C   UNL A   1      38.261  29.530  27.624  1.00  0.00     0.012 A 
ATOM     33  C   UNL A   1      38.582  28.287  30.109  1.00  0.00     0.021 A 
ATOM     34  C   UNL A   1      39.397  28.756  27.879  1.00  0.00     0.021 A 
ATOM     35  C   UNL A   1      39.550  28.135  29.118  1.00  0.00     0.041 A 
ATOM     36  Cl  UNL A   1      40.952  27.188  29.432  1.00  0.00    -0.084 Cl
ENDBRANCH  28  30
ENDBRANCH  23  25
ENDBRANCH  22  23
ENDBRANCH  15  20
ENDBRANCH   9  14
ENDBRANCH   6   8
ENDBRANCH   5   6
ENDBRANCH   4   5
ENDBRANCH   3   4
ENDBRANCH   2   3
ENDBRANCH   1   2
BRANCH   1  37
ATOM     37  C   UNL A   1      38.612  22.569  26.356  1.00  0.00     0.188 C 
BRANCH  37  38
ATOM     38  O   UNL A   1      39.494  21.638  25.747  1.00  0.00    -0.376 OA
BRANCH  38  39
ATOM     39  C   UNL A   1      40.788  21.511  26.323  1.00  0.00     0.202 C 
BRANCH  39  40
ATOM     40  C   UNL A   1      41.872  22.456  25.804  1.00  0.00     0.261 C 
BRANCH  40  41
ATOM     41  O   UNL A   1      43.096  21.830  25.447  1.00  0.00    -0.460 OA
BRANCH  41  42
ATOM     42  C   UNL A   1      43.816  22.451  24.489  1.00  0.00     0.338 C 
ATOM     43  O   UNL A   1      43.640  22.386  23.287  1.00  0.00    -0.246 OA
BRANCH  42  44
ATOM     44  C   UNL A   1      44.904  23.191  25.144  1.00  0.00     0.060 A 
ATOM     45  C   UNL A   1      45.649  22.522  26.117  1.00  0.00     0.016 A 
ATOM     46  C   UNL A   1      44.989  24.581  24.967  1.00  0.00     0.016 A 
ATOM     47  C   UNL A   1      46.328  23.276  27.052  1.00  0.00     0.010 A 
ATOM     48  C   UNL A   1      45.650  25.331  25.911  1.00  0.00     0.010 A 
ATOM     49  C   UNL A   1      46.232  24.670  26.990  1.00  0.00    -0.014 A 
BRANCH  49  50
ATOM     50  C   UNL A   1      46.657  25.426  28.149  1.00  0.00     0.031 A 
ATOM     51  C   UNL A   1      45.592  25.835  29.084  1.00  0.00     0.074 A 
ATOM     52  C   UNL A   1      47.964  25.631  28.398  1.00  0.00     0.049 A 
ATOM     53  N   UNL A   1      45.226  27.033  29.397  1.00  0.00    -0.248 NA
ATOM     54  C   UNL A   1      44.773  24.771  29.681  1.00  0.00     0.031 C 
ATOM     55  C   UNL A   1      49.108  25.002  27.731  1.00  0.00     0.029 A 
ATOM     56  N   UNL A   1      48.542  26.360  29.391  1.00  0.00    -0.354 N 
ATOM     57  C   UNL A   1      44.269  26.878  30.391  1.00  0.00     0.074 A 
ATOM     58  C   UNL A   1      43.916  25.482  30.413  1.00  0.00     0.031 C 
ATOM     59  C   UNL A   1      50.217  25.204  28.476  1.00  0.00     0.029 A 
ATOM     60  C   UNL A   1      49.880  26.063  29.599  1.00  0.00     0.049 A 
ATOM     61  H   UNL A   1      48.053  27.035  29.915  1.00  0.00     0.167 HD
ATOM     62  C   UNL A   1      44.000  27.861  31.290  1.00  0.00     0.037 A 
ATOM     63  C   UNL A   1      50.622  26.419  30.676  1.00  0.00     0.037 A 
ATOM     64  C   UNL A   1      44.491  29.144  30.862  1.00  0.00     0.049 A 
ATOM     65  C   UNL A   1      49.936  27.558  31.341  1.00  0.00     0.074 A 
ATOM     66  C   UNL A   1      44.275  29.945  29.758  1.00  0.00     0.029 A 
ATOM     67  N   UNL A   1      45.616  29.642  31.473  1.00  0.00    -0.354 N 
ATOM     68  N   UNL A   1      49.826  28.756  30.835  1.00  0.00    -0.248 NA
ATOM     69  C   UNL A   1      49.015  27.263  32.431  1.00  0.00     0.031 C 
ATOM     70  C   UNL A   1      45.520  30.592  29.512  1.00  0.00     0.029 A 
ATOM     71  C   UNL A   1      46.418  30.165  30.490  1.00  0.00     0.049 A 
ATOM     72  H   UNL A   1      45.811  29.626  32.438  1.00  0.00     0.167 HD
ATOM     73  C   UNL A   1      48.581  29.208  31.247  1.00  0.00     0.074 A 
ATOM     74  C   UNL A   1      48.184  28.303  32.318  1.00  0.00     0.031 C 
ATOM     75  C   UNL A   1      47.864  30.099  30.499  1.00  0.00     0.037 A 
BRANCH  62  76
ATOM     76  C   UNL A   1      43.589  27.579  32.708  1.00  0.00     0.058 A 
ATOM     77  C   UNL A   1      44.413  26.795  33.535  1.00  0.00     0.135 A 
ATOM     78  C   UNL A   1      42.286  27.833  33.194  1.00  0.00     0.135 A 
ATOM     79  F   UNL A   1      45.659  26.474  33.149  1.00  0.00    -0.206 F 
ATOM     80  C   UNL A   1      43.959  26.262  34.741  1.00  0.00     0.059 A 
ATOM     81  C   UNL A   1      41.833  27.363  34.418  1.00  0.00     0.059 A 
ATOM     82  F   UNL A   1      41.364  28.464  32.454  1.00  0.00    -0.206 F 
ATOM     83  C   UNL A   1      42.661  26.539  35.164  1.00  0.00     0.060 A 
BRANCH  83  84
ATOM     84  S   UNL A   1      42.023  25.754  36.654  1.00  0.00     0.124 S 
ATOM     85  O   UNL A   1      41.076  26.760  37.122  1.00  0.00    -0.237 OA
ATOM     86  O   UNL A   1      41.444  24.523  36.130  1.00  0.00    -0.237 OA
ATOM     87  O   UNL A   1      43.218  25.579  37.474  1.00  0.00    -0.744 OA
ENDBRANCH  83  84
ENDBRANCH  62  76
BRANCH  63  88
ATOM     88  C   UNL A   1      51.701  25.636  31.332  1.00  0.00     0.058 A 
ATOM     89  C   UNL A   1      53.008  26.142  31.426  1.00  0.00     0.135 A 
ATOM     90  C   UNL A   1      51.420  24.493  32.111  1.00  0.00     0.135 A 
ATOM     91  F   UNL A   1      53.357  27.243  30.744  1.00  0.00    -0.206 F 
ATOM     92  C   UNL A   1      53.966  25.578  32.275  1.00  0.00     0.059 A 
ATOM     93  C   UNL A   1      52.364  23.900  32.945  1.00  0.00     0.059 A 
ATOM     94  F   UNL A   1      50.189  23.967  32.162  1.00  0.00    -0.206 F 
ATOM     95  C   UNL A   1      53.628  24.465  33.044  1.00  0.00     0.060 A 
BRANCH  95  96
ATOM     96  S   UNL A   1      54.800  23.838  34.268  1.00  0.00     0.124 S 
ATOM     97  O   UNL A   1      55.719  24.962  34.410  1.00  0.00    -0.237 OA
ATOM     98  O   UNL A   1      53.936  23.572  35.414  1.00  0.00    -0.237 OA
ATOM     99  O   UNL A   1      55.360  22.652  33.626  1.00  0.00    -0.744 OA
ENDBRANCH  95  96
ENDBRANCH  63  88
BRANCH  75 100
ATOM    100  C   UNL A   1      48.587  30.866  29.423  1.00  0.00     0.058 A 
ATOM    101  C   UNL A   1      48.811  30.382  28.122  1.00  0.00     0.135 A 
ATOM    102  C   UNL A   1      48.943  32.200  29.680  1.00  0.00     0.135 A 
ATOM    103  F   UNL A   1      48.398  29.158  27.763  1.00  0.00    -0.206 F 
ATOM    104  C   UNL A   1      49.407  31.171  27.138  1.00  0.00     0.059 A 
ATOM    105  C   UNL A   1      49.508  33.016  28.704  1.00  0.00     0.059 A 
ATOM    106  F   UNL A   1      48.693  32.742  30.884  1.00  0.00    -0.206 F 
ATOM    107  C   UNL A   1      49.753  32.488  27.438  1.00  0.00     0.060 A 
BRANCH 107 108
ATOM    108  S   UNL A   1      50.446  33.534  26.137  1.00  0.00     0.124 S 
ATOM    109  O   UNL A   1      49.285  34.314  25.721  1.00  0.00    -0.237 OA
ATOM    110  O   UNL A   1      51.487  34.276  26.842  1.00  0.00    -0.237 OA
ATOM    111  O   UNL A   1      50.939  32.572  25.153  1.00  0.00    -0.744 OA
ENDBRANCH 107 108
ENDBRANCH  75 100
ENDBRANCH  49  50
ENDBRANCH  42  44
ENDBRANCH  41  42
ENDBRANCH  40  41
ENDBRANCH  39  40
ENDBRANCH  38  39
ENDBRANCH  37  38
ENDBRANCH   1  37
TORSDOF 25
ENDMDL
MODEL 3
REMARK VINA RESULT:      -8.8      4.766      9.430
REMARK SMILES C/C(=N\Nc1nc(-c2ccc(Cl)cc2)cs1)c1nnn(-c2ccc(C(=O)OCCOCCOCCOC(=O)c3ccc(-c4c5nc(c(-c6c(F)cc(S(=O)(=O)[O-])cc6F)c6ccc([nH]6)c(-c6c(F)cc(S(=O)(=O)[O-])cc6F)c6nc(c(-c7c(F)cc(S(=O)(=O)[O-])cc7F)c7ccc4[nH]7)C=C6)C=C5)cc3)cc2)c1C
REMARK SMILES IDX 31 1 30 2 29 3 28 4 27 5 25 6 26 7 24 8 21 9 22 10 106 11
REMARK SMILES IDX 23 12 105 13 20 14 17 15 18 16 107 17 19 18 108 19 2 20 1 21
REMARK SMILES IDX 3 22 4 23 5 25 6 26 16 27 7 28 15 29 8 30 9 31 14 32 10 33
REMARK SMILES IDX 13 34 11 35 12 36 32 37 33 38 34 39 35 40 36 41 37 42 38 43
REMARK SMILES IDX 39 44 40 45 104 46 41 47 103 48 42 49 43 50 44 51 97 52
REMARK SMILES IDX 45 53 102 54 96 55 98 56 46 57 101 58 95 59 94 60 47 62
REMARK SMILES IDX 81 63 60 64 80 65 61 66 64 67 79 68 99 69 62 70 63 71 78 73
REMARK SMILES IDX 100 74 65 75 48 76 49 77 58 78 50 79 51 80 57 81 59 82 52 83
REMARK SMILES IDX 53 84 54 85 55 86 56 87 82 88 83 89 92 90 84 91 85 92 91 93
REMARK SMILES IDX 93 94 86 95 87 96 88 97 89 98 90 99 66 100 67 101 76 102
REMARK SMILES IDX 68 103 69 104 75 105 77 106 70 107 71 108 72 109 73 110
REMARK SMILES IDX 74 111
REMARK H PARENT 4 24 98 61 64 72
REMARK Flexibility Score: inf
ROOT
ATOM      1  C   UNL A   1      42.679  33.256  32.217  1.00  0.00     0.188 C 
ENDROOT
BRANCH   1   2
ATOM      2  O   UNL A   1      43.122  32.129  31.469  1.00  0.00    -0.376 OA
BRANCH   2   3
ATOM      3  C   UNL A   1      43.498  32.284  30.107  1.00  0.00     0.202 C 
BRANCH   3   4
ATOM      4  C   UNL A   1      44.991  32.317  29.735  1.00  0.00     0.261 C 
BRANCH   4   5
ATOM      5  O   UNL A   1      45.412  31.242  28.882  1.00  0.00    -0.460 OA
BRANCH   5   6
ATOM      6  C   UNL A   1      44.849  31.202  27.652  1.00  0.00     0.338 C 
ATOM      7  O   UNL A   1      44.970  32.024  26.760  1.00  0.00    -0.246 OA
BRANCH   6   8
ATOM      8  C   UNL A   1      44.136  29.917  27.463  1.00  0.00     0.060 A 
ATOM      9  C   UNL A   1      42.740  27.516  27.372  1.00  0.00     0.067 A 
ATOM     10  C   UNL A   1      42.035  28.703  27.592  1.00  0.00     0.029 A 
ATOM     11  C   UNL A   1      44.105  27.541  27.049  1.00  0.00     0.029 A 
ATOM     12  C   UNL A   1      42.745  29.901  27.661  1.00  0.00     0.018 A 
ATOM     13  C   UNL A   1      44.806  28.744  27.097  1.00  0.00     0.018 A 
BRANCH   9  14
ATOM     14  N   UNL A   1      42.140  26.297  27.762  1.00  0.00    -0.217 N 
ATOM     15  C   UNL A   1      41.314  24.288  27.553  1.00  0.00     0.132 A 
ATOM     16  N   UNL A   1      42.066  24.328  28.691  1.00  0.00    -0.128 NA
ATOM     17  C   UNL A   1      41.315  25.534  26.950  1.00  0.00     0.071 A 
ATOM     18  N   UNL A   1      42.619  25.534  28.773  1.00  0.00    -0.061 NA
ATOM     19  C   UNL A   1      40.816  25.947  25.612  1.00  0.00     0.069 C 
BRANCH  15  20
ATOM     20  C   UNL A   1      40.821  23.072  26.926  1.00  0.00     0.087 C 
ATOM     21  C   UNL A   1      41.870  22.302  26.160  1.00  0.00     0.071 C 
ATOM     22  N   UNL A   1      39.538  22.871  27.010  1.00  0.00    -0.176 NA
BRANCH  22  23
ATOM     23  N   UNL A   1      38.852  21.904  26.317  1.00  0.00    -0.252 N 
ATOM     24  H   UNL A   1      39.317  21.038  26.266  1.00  0.00     0.193 HD
BRANCH  23  25
ATOM     25  C   UNL A   1      37.649  21.925  25.690  1.00  0.00     0.203 A 
ATOM     26  N   UNL A   1      36.836  22.949  25.594  1.00  0.00    -0.219 NA
ATOM     27  S   UNL A   1      37.028  20.479  24.968  1.00  0.00    -0.103 S 
ATOM     28  C   UNL A   1      35.578  22.541  25.208  1.00  0.00     0.084 A 
ATOM     29  C   UNL A   1      35.484  21.221  24.826  1.00  0.00     0.097 A 
BRANCH  28  30
ATOM     30  C   UNL A   1      34.466  23.469  25.297  1.00  0.00     0.001 A 
ATOM     31  C   UNL A   1      34.722  24.828  25.520  1.00  0.00     0.012 A 
ATOM     32  C   UNL A   1      33.142  23.011  25.283  1.00  0.00     0.012 A 
ATOM     33  C   UNL A   1      33.668  25.725  25.705  1.00  0.00     0.021 A 
ATOM     34  C   UNL A   1      32.087  23.906  25.482  1.00  0.00     0.021 A 
ATOM     35  C   UNL A   1      32.355  25.259  25.687  1.00  0.00     0.041 A 
ATOM     36  Cl  UNL A   1      31.055  26.360  25.936  1.00  0.00    -0.084 Cl
ENDBRANCH  28  30
ENDBRANCH  23  25
ENDBRANCH  22  23
ENDBRANCH  15  20
ENDBRANCH   9  14
ENDBRANCH   6   8
ENDBRANCH   5   6
ENDBRANCH   4   5
ENDBRANCH   3   4
ENDBRANCH   2   3
ENDBRANCH   1   2
BRANCH   1  37
ATOM     37  C   UNL A   1      41.849  34.375  31.547  1.00  0.00     0.188 C 
BRANCH  37  38
ATOM     38  O   UNL A   1      40.443  34.189  31.598  1.00  0.00    -0.376 OA
BRANCH  38  39
ATOM     39  C   UNL A   1      39.881  33.292  30.648  1.00  0.00     0.202 C 
BRANCH  39  40
ATOM     40  C   UNL A   1      38.564  32.616  31.028  1.00  0.00     0.261 C 
BRANCH  40  41
ATOM     41  O   UNL A   1      38.673  31.252  31.408  1.00  0.00    -0.460 OA
BRANCH  41  42
ATOM     42  C   UNL A   1      38.154  30.934  32.613  1.00  0.00     0.338 C 
ATOM     43  O   UNL A   1      37.175  31.429  33.139  1.00  0.00    -0.246 OA
BRANCH  42  44
ATOM     44  C   UNL A   1      39.014  29.910  33.222  1.00  0.00     0.060 A 
ATOM     45  C   UNL A   1      39.803  30.288  34.310  1.00  0.00     0.016 A 
ATOM     46  C   UNL A   1      39.208  28.692  32.551  1.00  0.00     0.016 A 
ATOM     47  C   UNL A   1      40.924  29.536  34.598  1.00  0.00     0.010 A 
ATOM     48  C   UNL A   1      40.335  27.955  32.826  1.00  0.00     0.010 A 
ATOM     49  C   UNL A   1      41.223  28.439  33.784  1.00  0.00    -0.014 A 
BRANCH  49  50
ATOM     50  C   UNL A   1      42.552  27.873  33.880  1.00  0.00     0.031 A 
ATOM     51  C   UNL A   1      42.831  27.070  35.086  1.00  0.00     0.074 A 
ATOM     52  C   UNL A   1      43.426  27.988  32.863  1.00  0.00     0.049 A 
ATOM     53  N   UNL A   1      43.700  27.302  36.012  1.00  0.00    -0.248 NA
ATOM     54  C   UNL A   1      41.970  25.905  35.335  1.00  0.00     0.031 C 
ATOM     55  C   UNL A   1      43.156  28.469  31.505  1.00  0.00     0.029 A 
ATOM     56  N   UNL A   1      44.723  27.579  32.798  1.00  0.00    -0.354 N 
ATOM     57  C   UNL A   1      43.643  26.201  36.855  1.00  0.00     0.074 A 
ATOM     58  C   UNL A   1      42.465  25.458  36.488  1.00  0.00     0.031 C 
ATOM     59  C   UNL A   1      44.185  28.120  30.702  1.00  0.00     0.029 A 
ATOM     60  C   UNL A   1      45.222  27.498  31.508  1.00  0.00     0.049 A 
ATOM     61  H   UNL A   1      45.256  27.360  33.596  1.00  0.00     0.167 HD
ATOM     62  C   UNL A   1      44.690  25.843  37.643  1.00  0.00     0.037 A 
ATOM     63  C   UNL A   1      46.361  26.870  31.127  1.00  0.00     0.037 A 
ATOM     64  C   UNL A   1      45.646  26.907  37.801  1.00  0.00     0.049 A 
ATOM     65  C   UNL A   1      47.216  26.713  32.334  1.00  0.00     0.074 A 
ATOM     66  C   UNL A   1      45.586  28.200  38.282  1.00  0.00     0.029 A 
ATOM     67  N   UNL A   1      46.833  26.816  37.115  1.00  0.00    -0.354 N 
ATOM     68  N   UNL A   1      47.794  27.697  32.966  1.00  0.00    -0.248 NA
ATOM     69  C   UNL A   1      47.120  25.469  33.086  1.00  0.00     0.031 C 
ATOM     70  C   UNL A   1      46.511  28.940  37.490  1.00  0.00     0.029 A 
ATOM     71  C   UNL A   1      47.096  28.054  36.585  1.00  0.00     0.049 A 
ATOM     72  H   UNL A   1      47.392  26.011  37.021  1.00  0.00     0.167 HD
ATOM     73  C   UNL A   1      47.761  27.334  34.304  1.00  0.00     0.074 A 
ATOM     74  C   UNL A   1      47.447  25.911  34.303  1.00  0.00     0.031 C 
ATOM     75  C   UNL A   1      47.715  28.273  35.296  1.00  0.00     0.037 A 
BRANCH  62  76
ATOM     76  C   UNL A   1      45.002  24.413  37.986  1.00  0.00     0.058 A 
ATOM     77  C   UNL A   1      45.151  24.030  39.331  1.00  0.00     0.135 A 
ATOM     78  C   UNL A   1      45.420  23.467  37.022  1.00  0.00     0.135 A 
ATOM     79  F   UNL A   1      44.811  24.870  40.321  1.00  0.00    -0.206 F 
ATOM     80  C   UNL A   1      45.720  22.810  39.694  1.00  0.00     0.059 A 
ATOM     81  C   UNL A   1      45.933  22.222  37.361  1.00  0.00     0.059 A 
ATOM     82  F   UNL A   1      45.442  23.751  35.713  1.00  0.00    -0.206 F 
ATOM     83  C   UNL A   1      46.122  21.921  38.699  1.00  0.00     0.060 A 
BRANCH  83  84
ATOM     84  S   UNL A   1      46.972  20.400  39.154  1.00  0.00     0.124 S 
ATOM     85  O   UNL A   1      47.905  20.251  38.043  1.00  0.00    -0.237 OA
ATOM     86  O   UNL A   1      47.559  20.747  40.443  1.00  0.00    -0.237 OA
ATOM     87  O   UNL A   1      45.891  19.419  39.210  1.00  0.00    -0.744 OA
ENDBRANCH  83  84
ENDBRANCH  62  76
BRANCH  63  88
ATOM     88  C   UNL A   1      46.607  26.125  29.865  1.00  0.00     0.058 A 
ATOM     89  C   UNL A   1      45.898  24.948  29.569  1.00  0.00     0.135 A 
ATOM     90  C   UNL A   1      47.348  26.686  28.803  1.00  0.00     0.135 A 
ATOM     91  F   UNL A   1      45.143  24.361  30.510  1.00  0.00    -0.206 F 
ATOM     92  C   UNL A   1      45.887  24.386  28.288  1.00  0.00     0.059 A 
ATOM     93  C   UNL A   1      47.371  26.132  27.526  1.00  0.00     0.059 A 
ATOM     94  F   UNL A   1      48.002  27.848  28.944  1.00  0.00    -0.206 F 
ATOM     95  C   UNL A   1      46.616  24.997  27.268  1.00  0.00     0.060 A 
BRANCH  95  96
ATOM     96  S   UNL A   1      46.467  24.381  25.576  1.00  0.00     0.124 S 
ATOM     97  O   UNL A   1      46.600  22.941  25.766  1.00  0.00    -0.237 OA
ATOM     98  O   UNL A   1      45.141  24.854  25.191  1.00  0.00    -0.237 OA
ATOM     99  O   UNL A   1      47.580  25.024  24.882  1.00  0.00    -0.744 OA
ENDBRANCH  95  96
ENDBRANCH  63  88
BRANCH  75 100
ATOM    100  C   UNL A   1      48.074  29.693  34.945  1.00  0.00     0.058 A 
ATOM    101  C   UNL A   1      49.382  30.207  34.969  1.00  0.00     0.135 A 
ATOM    102  C   UNL A   1      47.069  30.527  34.429  1.00  0.00     0.135 A 
ATOM    103  F   UNL A   1      50.417  29.439  35.341  1.00  0.00    -0.206 F 
ATOM    104  C   UNL A   1      49.670  31.505  34.547  1.00  0.00     0.059 A 
ATOM    105  C   UNL A   1      47.337  31.814  33.971  1.00  0.00     0.059 A 
ATOM    106  F   UNL A   1      45.809  30.071  34.318  1.00  0.00    -0.206 F 
ATOM    107  C   UNL A   1      48.639  32.303  34.049  1.00  0.00     0.060 A 
BRANCH 107 108
ATOM    108  S   UNL A   1      49.028  33.953  33.424  1.00  0.00     0.124 S 
ATOM    109  O   UNL A   1      48.549  34.810  34.504  1.00  0.00    -0.237 OA
ATOM    110  O   UNL A   1      50.478  33.900  33.255  1.00  0.00    -0.237 OA
ATOM    111  O   UNL A   1      48.269  34.034  32.178  1.00  0.00    -0.744 OA
ENDBRANCH 107 108
ENDBRANCH  75 100
ENDBRANCH  49  50
ENDBRANCH  42  44
ENDBRANCH  41  42
ENDBRANCH  40  41
ENDBRANCH  39  40
ENDBRANCH  38  39
ENDBRANCH  37  38
ENDBRANCH   1  37
TORSDOF 25
ENDMDL
