MODEL 1
REMARK VINA RESULT:      -8.6      0.000      0.000
REMARK SMILES CC[C@@H](C)[C@@H](C)Nc1cccc(F)c1C(=O)OCCOCCOCCOC(=O)c1ccc(-c2c3nc(c(-c4c(F)cc(S(=O)(=O)[O-])cc4F)c4ccc([nH]4)c(-c4c(F)cc(S(=O)(=O)[O-])cc4F)c4nc(c(-c5c(F)cc(S(=O)(=O)[O-])cc5F)c5ccc2[nH]5)C=C4)C=C3)cc1
REMARK SMILES IDX 21 1 20 2 19 3 18 4 17 5 15 6 16 7 14 8 8 9 9 10 10 11 12 12
REMARK SMILES IDX 11 13 13 14 7 15 5 17 6 18 3 19 4 20 2 21 1 22 22 23 23 24
REMARK SMILES IDX 24 25 25 26 26 27 27 28 28 29 29 30 30 31 94 32 31 33 93 34
REMARK SMILES IDX 32 35 33 36 34 37 87 38 35 39 92 40 86 41 88 42 36 43 91 44
REMARK SMILES IDX 85 45 84 46 37 48 71 49 50 50 70 51 51 52 54 53 69 54 89 55
REMARK SMILES IDX 52 56 53 57 68 59 90 60 55 61 38 62 39 63 48 64 40 65 41 66
REMARK SMILES IDX 47 67 49 68 42 69 43 70 44 71 45 72 46 73 72 74 73 75 82 76
REMARK SMILES IDX 74 77 75 78 81 79 83 80 76 81 77 82 78 83 79 84 80 85 56 86
REMARK SMILES IDX 57 87 66 88 58 89 59 90 65 91 67 92 60 93 61 94 62 95 63 96
REMARK SMILES IDX 64 97
REMARK H PARENT 7 16 88 47 54 58
REMARK Flexibility Score: inf
ROOT
ATOM      1  C   UNL A   1      46.013  21.848  25.276  1.00  0.00     0.188 C 
ENDROOT
BRANCH   1   2
ATOM      2  O   UNL A   1      45.625  20.569  24.796  1.00  0.00    -0.376 OA
BRANCH   2   3
ATOM      3  C   UNL A   1      44.225  20.358  24.668  1.00  0.00     0.202 C 
BRANCH   3   4
ATOM      4  C   UNL A   1      43.500  19.839  25.919  1.00  0.00     0.261 C 
BRANCH   4   5
ATOM      5  O   UNL A   1      42.836  20.846  26.702  1.00  0.00    -0.460 OA
BRANCH   5   6
ATOM      6  C   UNL A   1      41.586  20.557  27.147  1.00  0.00     0.343 C 
ATOM      7  O   UNL A   1      41.217  19.464  27.507  1.00  0.00    -0.246 OA
BRANCH   6   8
ATOM      8  C   UNL A   1      40.823  21.830  27.267  1.00  0.00     0.118 A 
ATOM      9  C   UNL A   1      41.257  22.898  28.090  1.00  0.00     0.052 A 
ATOM     10  C   UNL A   1      40.471  24.066  28.110  1.00  0.00     0.027 A 
ATOM     11  C   UNL A   1      39.318  24.193  27.331  1.00  0.00     0.005 A 
ATOM     12  C   UNL A   1      39.654  21.963  26.507  1.00  0.00     0.139 A 
ATOM     13  C   UNL A   1      38.910  23.138  26.528  1.00  0.00     0.040 A 
ATOM     14  F   UNL A   1      39.215  20.954  25.738  1.00  0.00    -0.206 F 
BRANCH   9  15
ATOM     15  N   UNL A   1      42.422  22.836  28.850  1.00  0.00    -0.382 N 
ATOM     16  H   UNL A   1      42.546  22.082  29.470  1.00  0.00     0.160 HD
BRANCH  15  17
ATOM     17  C   UNL A   1      43.479  23.865  28.757  1.00  0.00     0.079 C 
ATOM     18  C   UNL A   1      44.777  23.195  28.309  1.00  0.00     0.031 C 
BRANCH  17  19
ATOM     19  C   UNL A   1      43.596  24.539  30.161  1.00  0.00     0.008 C 
ATOM     20  C   UNL A   1      44.692  25.617  30.136  1.00  0.00     0.010 C 
BRANCH  19  21
ATOM     21  C   UNL A   1      43.876  23.552  31.311  1.00  0.00     0.002 C 
ATOM     22  C   UNL A   1      44.719  24.169  32.424  1.00  0.00     0.004 C 
ENDBRANCH  19  21
ENDBRANCH  17  19
ENDBRANCH  15  17
ENDBRANCH   9  15
ENDBRANCH   6   8
ENDBRANCH   5   6
ENDBRANCH   4   5
ENDBRANCH   3   4
ENDBRANCH   2   3
ENDBRANCH   1   2
BRANCH   1  23
ATOM     23  C   UNL A   1      46.216  22.910  24.172  1.00  0.00     0.188 C 
BRANCH  23  24
ATOM     24  O   UNL A   1      46.133  24.295  24.478  1.00  0.00    -0.376 OA
BRANCH  24  25
ATOM     25  C   UNL A   1      44.923  24.812  25.009  1.00  0.00     0.202 C 
BRANCH  25  26
ATOM     26  C   UNL A   1      44.873  26.267  25.508  1.00  0.00     0.261 C 
BRANCH  26  27
ATOM     27  O   UNL A   1      43.763  27.057  25.046  1.00  0.00    -0.460 OA
BRANCH  27  28
ATOM     28  C   UNL A   1      42.577  26.811  25.658  1.00  0.00     0.338 C 
ATOM     29  O   UNL A   1      41.664  26.119  25.239  1.00  0.00    -0.246 OA
BRANCH  28  30
ATOM     30  C   UNL A   1      42.581  27.377  27.024  1.00  0.00     0.060 A 
ATOM     31  C   UNL A   1      41.715  26.828  27.981  1.00  0.00     0.016 A 
ATOM     32  C   UNL A   1      43.356  28.496  27.339  1.00  0.00     0.016 A 
ATOM     33  C   UNL A   1      41.601  27.409  29.243  1.00  0.00     0.010 A 
ATOM     34  C   UNL A   1      43.216  29.097  28.597  1.00  0.00     0.010 A 
ATOM     35  C   UNL A   1      42.315  28.577  29.541  1.00  0.00    -0.014 A 
BRANCH  35  36
ATOM     36  C   UNL A   1      41.966  29.342  30.766  1.00  0.00     0.031 A 
ATOM     37  C   UNL A   1      40.709  30.169  30.766  1.00  0.00     0.074 A 
ATOM     38  C   UNL A   1      42.717  29.259  31.879  1.00  0.00     0.049 A 
ATOM     39  N   UNL A   1      40.213  30.919  31.714  1.00  0.00    -0.248 NA
ATOM     40  C   UNL A   1      39.911  30.157  29.527  1.00  0.00     0.031 C 
ATOM     41  C   UNL A   1      43.944  28.478  32.001  1.00  0.00     0.029 A 
ATOM     42  N   UNL A   1      42.554  29.821  33.121  1.00  0.00    -0.354 N 
ATOM     43  C   UNL A   1      39.062  31.487  31.183  1.00  0.00     0.074 A 
ATOM     44  C   UNL A   1      38.936  31.004  29.826  1.00  0.00     0.031 C 
ATOM     45  C   UNL A   1      44.397  28.569  33.262  1.00  0.00     0.029 A 
ATOM     46  C   UNL A   1      43.527  29.463  34.025  1.00  0.00     0.049 A 
ATOM     47  H   UNL A   1      41.808  30.424  33.344  1.00  0.00     0.167 HD
ATOM     48  C   UNL A   1      38.192  32.337  31.775  1.00  0.00     0.037 A 
ATOM     49  C   UNL A   1      43.704  29.824  35.312  1.00  0.00     0.037 A 
ATOM     50  C   UNL A   1      38.318  32.806  33.131  1.00  0.00     0.049 A 
ATOM     51  C   UNL A   1      42.731  30.793  35.942  1.00  0.00     0.074 A 
ATOM     52  C   UNL A   1      37.487  33.672  33.818  1.00  0.00     0.029 A 
ATOM     53  N   UNL A   1      39.335  32.449  34.004  1.00  0.00    -0.354 N 
ATOM     54  N   UNL A   1      41.650  31.328  35.424  1.00  0.00    -0.248 NA
ATOM     55  C   UNL A   1      43.011  31.224  37.319  1.00  0.00     0.031 C 
ATOM     56  C   UNL A   1      38.026  33.876  35.091  1.00  0.00     0.029 A 
ATOM     57  C   UNL A   1      39.162  33.092  35.218  1.00  0.00     0.049 A 
ATOM     58  H   UNL A   1      40.071  31.830  33.793  1.00  0.00     0.167 HD
ATOM     59  C   UNL A   1      41.119  32.150  36.414  1.00  0.00     0.074 A 
ATOM     60  C   UNL A   1      41.981  32.022  37.570  1.00  0.00     0.031 C 
ATOM     61  C   UNL A   1      40.023  32.947  36.366  1.00  0.00     0.037 A 
BRANCH  48  62
ATOM     62  C   UNL A   1      37.032  32.840  30.963  1.00  0.00     0.058 A 
ATOM     63  C   UNL A   1      37.187  33.954  30.122  1.00  0.00     0.135 A 
ATOM     64  C   UNL A   1      35.753  32.274  31.075  1.00  0.00     0.135 A 
ATOM     65  F   UNL A   1      38.393  34.525  29.970  1.00  0.00    -0.206 F 
ATOM     66  C   UNL A   1      36.109  34.509  29.445  1.00  0.00     0.059 A 
ATOM     67  C   UNL A   1      34.663  32.798  30.384  1.00  0.00     0.059 A 
ATOM     68  F   UNL A   1      35.558  31.191  31.843  1.00  0.00    -0.206 F 
ATOM     69  C   UNL A   1      34.848  33.927  29.587  1.00  0.00     0.060 A 
BRANCH  69  70
ATOM     70  S   UNL A   1      33.458  34.664  28.702  1.00  0.00     0.124 S 
ATOM     71  O   UNL A   1      34.089  35.802  28.044  1.00  0.00    -0.237 OA
ATOM     72  O   UNL A   1      33.042  33.573  27.825  1.00  0.00    -0.237 OA
ATOM     73  O   UNL A   1      32.515  34.995  29.766  1.00  0.00    -0.744 OA
ENDBRANCH  69  70
ENDBRANCH  48  62
BRANCH  49  74
ATOM     74  C   UNL A   1      44.852  29.283  36.095  1.00  0.00     0.058 A 
ATOM     75  C   UNL A   1      44.729  28.112  36.859  1.00  0.00     0.135 A 
ATOM     76  C   UNL A   1      46.099  29.927  36.093  1.00  0.00     0.135 A 
ATOM     77  F   UNL A   1      43.561  27.453  36.899  1.00  0.00    -0.206 F 
ATOM     78  C   UNL A   1      45.789  27.615  37.611  1.00  0.00     0.059 A 
ATOM     79  C   UNL A   1      47.185  29.431  36.811  1.00  0.00     0.059 A 
ATOM     80  F   UNL A   1      46.276  31.040  35.364  1.00  0.00    -0.206 F 
ATOM     81  C   UNL A   1      47.015  28.281  37.579  1.00  0.00     0.060 A 
BRANCH  81  82
ATOM     82  S   UNL A   1      48.385  27.601  38.541  1.00  0.00     0.124 S 
ATOM     83  O   UNL A   1      49.513  28.372  38.031  1.00  0.00    -0.237 OA
ATOM     84  O   UNL A   1      47.977  27.902  39.909  1.00  0.00    -0.237 OA
ATOM     85  O   UNL A   1      48.378  26.186  38.181  1.00  0.00    -0.744 OA
ENDBRANCH  81  82
ENDBRANCH  49  74
BRANCH  61  86
ATOM     86  C   UNL A   1      39.666  33.736  37.597  1.00  0.00     0.058 A 
ATOM     87  C   UNL A   1      40.395  34.886  37.940  1.00  0.00     0.135 A 
ATOM     88  C   UNL A   1      38.671  33.302  38.487  1.00  0.00     0.135 A 
ATOM     89  F   UNL A   1      41.363  35.341  37.129  1.00  0.00    -0.206 F 
ATOM     90  C   UNL A   1      40.166  35.564  39.132  1.00  0.00     0.059 A 
ATOM     91  C   UNL A   1      38.406  33.981  39.672  1.00  0.00     0.059 A 
ATOM     92  F   UNL A   1      37.939  32.212  38.202  1.00  0.00    -0.206 F 
ATOM     93  C   UNL A   1      39.172  35.101  39.995  1.00  0.00     0.060 A 
BRANCH  93  94
ATOM     94  S   UNL A   1      38.887  35.997  41.536  1.00  0.00     0.124 S 
ATOM     95  O   UNL A   1      40.124  35.739  42.266  1.00  0.00    -0.237 OA
ATOM     96  O   UNL A   1      38.701  37.366  41.067  1.00  0.00    -0.237 OA
ATOM     97  O   UNL A   1      37.692  35.361  42.083  1.00  0.00    -0.744 OA
ENDBRANCH  93  94
ENDBRANCH  61  86
ENDBRANCH  35  36
ENDBRANCH  28  30
ENDBRANCH  27  28
ENDBRANCH  26  27
ENDBRANCH  25  26
ENDBRANCH  24  25
ENDBRANCH  23  24
ENDBRANCH   1  23
TORSDOF 24
ENDMDL
MODEL 2
REMARK VINA RESULT:      -8.5      3.145      9.363
REMARK SMILES CC[C@@H](C)[C@@H](C)Nc1cccc(F)c1C(=O)OCCOCCOCCOC(=O)c1ccc(-c2c3nc(c(-c4c(F)cc(S(=O)(=O)[O-])cc4F)c4ccc([nH]4)c(-c4c(F)cc(S(=O)(=O)[O-])cc4F)c4nc(c(-c5c(F)cc(S(=O)(=O)[O-])cc5F)c5ccc2[nH]5)C=C4)C=C3)cc1
REMARK SMILES IDX 21 1 20 2 19 3 18 4 17 5 15 6 16 7 14 8 8 9 9 10 10 11 12 12
REMARK SMILES IDX 11 13 13 14 7 15 5 17 6 18 3 19 4 20 2 21 1 22 22 23 23 24
REMARK SMILES IDX 24 25 25 26 26 27 27 28 28 29 29 30 30 31 94 32 31 33 93 34
REMARK SMILES IDX 32 35 33 36 34 37 87 38 35 39 92 40 86 41 88 42 36 43 91 44
REMARK SMILES IDX 85 45 84 46 37 48 71 49 50 50 70 51 51 52 54 53 69 54 89 55
REMARK SMILES IDX 52 56 53 57 68 59 90 60 55 61 38 62 39 63 48 64 40 65 41 66
REMARK SMILES IDX 47 67 49 68 42 69 43 70 44 71 45 72 46 73 72 74 73 75 82 76
REMARK SMILES IDX 74 77 75 78 81 79 83 80 76 81 77 82 78 83 79 84 80 85 56 86
REMARK SMILES IDX 57 87 66 88 58 89 59 90 65 91 67 92 60 93 61 94 62 95 63 96
REMARK SMILES IDX 64 97
REMARK H PARENT 7 16 88 47 54 58
REMARK Flexibility Score: inf
ROOT
ATOM      1  C   UNL A   1      40.932  21.005  27.196  1.00  0.00     0.188 C 
ENDROOT
BRANCH   1   2
ATOM      2  O   UNL A   1      39.554  20.989  26.857  1.00  0.00    -0.376 OA
BRANCH   2   3
ATOM      3  C   UNL A   1      39.147  21.945  25.887  1.00  0.00     0.202 C 
BRANCH   3   4
ATOM      4  C   UNL A   1      37.815  21.663  25.175  1.00  0.00     0.261 C 
BRANCH   4   5
ATOM      5  O   UNL A   1      36.772  22.618  25.429  1.00  0.00    -0.460 OA
BRANCH   5   6
ATOM      6  C   UNL A   1      35.971  22.953  24.384  1.00  0.00     0.343 C 
ATOM      7  O   UNL A   1      36.309  22.937  23.224  1.00  0.00    -0.246 OA
BRANCH   6   8
ATOM      8  C   UNL A   1      34.591  23.174  24.899  1.00  0.00     0.118 A 
ATOM      9  C   UNL A   1      33.562  22.215  24.740  1.00  0.00     0.052 A 
ATOM     10  C   UNL A   1      32.301  22.517  25.287  1.00  0.00     0.027 A 
ATOM     11  C   UNL A   1      32.065  23.702  25.990  1.00  0.00     0.005 A 
ATOM     12  C   UNL A   1      34.337  24.367  25.587  1.00  0.00     0.139 A 
ATOM     13  C   UNL A   1      33.087  24.629  26.139  1.00  0.00     0.040 A 
ATOM     14  F   UNL A   1      35.294  25.297  25.729  1.00  0.00    -0.206 F 
BRANCH   9  15
ATOM     15  N   UNL A   1      33.759  21.000  24.087  1.00  0.00    -0.382 N 
ATOM     16  H   UNL A   1      34.513  20.914  23.461  1.00  0.00     0.160 HD
BRANCH  15  17
ATOM     17  C   UNL A   1      32.873  19.837  24.303  1.00  0.00     0.079 C 
ATOM     18  C   UNL A   1      32.871  19.494  25.793  1.00  0.00     0.031 C 
BRANCH  17  19
ATOM     19  C   UNL A   1      33.410  18.673  23.412  1.00  0.00     0.008 C 
ATOM     20  C   UNL A   1      32.232  17.893  22.802  1.00  0.00     0.010 C 
BRANCH  19  21
ATOM     21  C   UNL A   1      34.344  17.695  24.149  1.00  0.00     0.002 C 
ATOM     22  C   UNL A   1      34.064  16.236  23.798  1.00  0.00     0.004 C 
ENDBRANCH  19  21
ENDBRANCH  17  19
ENDBRANCH  15  17
ENDBRANCH   9  15
ENDBRANCH   6   8
ENDBRANCH   5   6
ENDBRANCH   4   5
ENDBRANCH   3   4
ENDBRANCH   2   3
ENDBRANCH   1   2
BRANCH   1  23
ATOM     23  C   UNL A   1      41.798  20.003  26.401  1.00  0.00     0.188 C 
BRANCH  23  24
ATOM     24  O   UNL A   1      42.702  20.460  25.404  1.00  0.00    -0.376 OA
BRANCH  24  25
ATOM     25  C   UNL A   1      43.473  21.623  25.654  1.00  0.00     0.202 C 
BRANCH  25  26
ATOM     26  C   UNL A   1      43.053  22.963  25.024  1.00  0.00     0.261 C 
BRANCH  26  27
ATOM     27  O   UNL A   1      42.492  23.937  25.922  1.00  0.00    -0.460 OA
BRANCH  27  28
ATOM     28  C   UNL A   1      42.998  25.192  25.811  1.00  0.00     0.338 C 
ATOM     29  O   UNL A   1      43.764  25.602  24.955  1.00  0.00    -0.246 OA
BRANCH  28  30
ATOM     30  C   UNL A   1      42.362  26.088  26.802  1.00  0.00     0.060 A 
ATOM     31  C   UNL A   1      42.784  27.423  26.867  1.00  0.00     0.016 A 
ATOM     32  C   UNL A   1      41.430  25.600  27.720  1.00  0.00     0.016 A 
ATOM     33  C   UNL A   1      42.298  28.267  27.865  1.00  0.00     0.010 A 
ATOM     34  C   UNL A   1      40.966  26.441  28.740  1.00  0.00     0.010 A 
ATOM     35  C   UNL A   1      41.423  27.767  28.838  1.00  0.00    -0.014 A 
BRANCH  35  36
ATOM     36  C   UNL A   1      41.147  28.583  30.048  1.00  0.00     0.031 A 
ATOM     37  C   UNL A   1      42.062  28.445  31.234  1.00  0.00     0.074 A 
ATOM     38  C   UNL A   1      40.140  29.474  30.074  1.00  0.00     0.049 A 
ATOM     39  N   UNL A   1      42.010  29.048  32.392  1.00  0.00    -0.248 NA
ATOM     40  C   UNL A   1      43.177  27.491  31.101  1.00  0.00     0.031 C 
ATOM     41  C   UNL A   1      39.202  29.706  28.980  1.00  0.00     0.029 A 
ATOM     42  N   UNL A   1      39.746  30.361  31.045  1.00  0.00    -0.354 N 
ATOM     43  C   UNL A   1      43.065  28.533  33.134  1.00  0.00     0.074 A 
ATOM     44  C   UNL A   1      43.737  27.560  32.301  1.00  0.00     0.031 C 
ATOM     45  C   UNL A   1      38.371  30.705  29.320  1.00  0.00     0.029 A 
ATOM     46  C   UNL A   1      38.678  31.147  30.679  1.00  0.00     0.049 A 
ATOM     47  H   UNL A   1      40.188  30.429  31.922  1.00  0.00     0.167 HD
ATOM     48  C   UNL A   1      43.437  28.843  34.397  1.00  0.00     0.037 A 
ATOM     49  C   UNL A   1      38.016  32.102  31.365  1.00  0.00     0.037 A 
ATOM     50  C   UNL A   1      42.770  29.820  35.218  1.00  0.00     0.049 A 
ATOM     51  C   UNL A   1      38.437  32.412  32.782  1.00  0.00     0.074 A 
ATOM     52  C   UNL A   1      43.073  30.201  36.513  1.00  0.00     0.029 A 
ATOM     53  N   UNL A   1      41.672  30.571  34.826  1.00  0.00    -0.354 N 
ATOM     54  N   UNL A   1      39.433  31.909  33.473  1.00  0.00    -0.248 NA
ATOM     55  C   UNL A   1      37.634  33.398  33.520  1.00  0.00     0.031 C 
ATOM     56  C   UNL A   1      42.130  31.147  36.922  1.00  0.00     0.029 A 
ATOM     57  C   UNL A   1      41.273  31.400  35.861  1.00  0.00     0.049 A 
ATOM     58  H   UNL A   1      41.239  30.522  33.943  1.00  0.00     0.167 HD
ATOM     59  C   UNL A   1      39.380  32.525  34.721  1.00  0.00     0.074 A 
ATOM     60  C   UNL A   1      38.272  33.455  34.681  1.00  0.00     0.031 C 
ATOM     61  C   UNL A   1      40.173  32.330  35.804  1.00  0.00     0.037 A 
BRANCH  48  62
ATOM     62  C   UNL A   1      44.606  28.108  34.990  1.00  0.00     0.058 A 
ATOM     63  C   UNL A   1      45.916  28.561  34.763  1.00  0.00     0.135 A 
ATOM     64  C   UNL A   1      44.439  26.917  35.713  1.00  0.00     0.135 A 
ATOM     65  F   UNL A   1      46.130  29.703  34.089  1.00  0.00    -0.206 F 
ATOM     66  C   UNL A   1      47.020  27.843  35.205  1.00  0.00     0.059 A 
ATOM     67  C   UNL A   1      45.531  26.195  36.187  1.00  0.00     0.059 A 
ATOM     68  F   UNL A   1      43.207  26.456  35.981  1.00  0.00    -0.206 F 
ATOM     69  C   UNL A   1      46.817  26.656  35.910  1.00  0.00     0.060 A 
BRANCH  69  70
ATOM     70  S   UNL A   1      48.264  25.734  36.473  1.00  0.00     0.124 S 
ATOM     71  O   UNL A   1      48.094  25.762  37.921  1.00  0.00    -0.237 OA
ATOM     72  O   UNL A   1      48.066  24.436  35.834  1.00  0.00    -0.237 OA
ATOM     73  O   UNL A   1      49.384  26.514  35.955  1.00  0.00    -0.744 OA
ENDBRANCH  69  70
ENDBRANCH  48  62
BRANCH  49  74
ATOM     74  C   UNL A   1      36.878  32.829  30.733  1.00  0.00     0.058 A 
ATOM     75  C   UNL A   1      35.556  32.373  30.863  1.00  0.00     0.135 A 
ATOM     76  C   UNL A   1      37.089  33.998  29.985  1.00  0.00     0.135 A 
ATOM     77  F   UNL A   1      35.293  31.262  31.567  1.00  0.00    -0.206 F 
ATOM     78  C   UNL A   1      34.492  33.033  30.256  1.00  0.00     0.059 A 
ATOM     79  C   UNL A   1      36.037  34.694  29.394  1.00  0.00     0.059 A 
ATOM     80  F   UNL A   1      38.331  34.487  29.844  1.00  0.00    -0.206 F 
ATOM     81  C   UNL A   1      34.743  34.194  29.524  1.00  0.00     0.060 A 
BRANCH  81  82
ATOM     82  S   UNL A   1      33.341  35.049  28.768  1.00  0.00     0.124 S 
ATOM     83  O   UNL A   1      32.636  35.551  29.942  1.00  0.00    -0.237 OA
ATOM     84  O   UNL A   1      34.006  36.058  27.949  1.00  0.00    -0.237 OA
ATOM     85  O   UNL A   1      32.660  33.991  28.031  1.00  0.00    -0.744 OA
ENDBRANCH  81  82
ENDBRANCH  49  74
BRANCH  61  86
ATOM     86  C   UNL A   1      39.896  33.143  37.040  1.00  0.00     0.058 A 
ATOM     87  C   UNL A   1      40.670  34.278  37.333  1.00  0.00     0.135 A 
ATOM     88  C   UNL A   1      38.934  32.747  37.981  1.00  0.00     0.135 A 
ATOM     89  F   UNL A   1      41.610  34.697  36.471  1.00  0.00    -0.206 F 
ATOM     90  C   UNL A   1      40.517  34.976  38.526  1.00  0.00     0.059 A 
ATOM     91  C   UNL A   1      38.743  33.448  39.169  1.00  0.00     0.059 A 
ATOM     92  F   UNL A   1      38.160  31.674  37.746  1.00  0.00    -0.206 F 
ATOM     93  C   UNL A   1      39.553  34.550  39.440  1.00  0.00     0.060 A 
BRANCH  93  94
ATOM     94  S   UNL A   1      39.366  35.471  40.982  1.00  0.00     0.124 S 
ATOM     95  O   UNL A   1      38.909  34.433  41.899  1.00  0.00    -0.237 OA
ATOM     96  O   UNL A   1      40.719  35.968  41.209  1.00  0.00    -0.237 OA
ATOM     97  O   UNL A   1      38.378  36.494  40.649  1.00  0.00    -0.744 OA
ENDBRANCH  93  94
ENDBRANCH  61  86
ENDBRANCH  35  36
ENDBRANCH  28  30
ENDBRANCH  27  28
ENDBRANCH  26  27
ENDBRANCH  25  26
ENDBRANCH  24  25
ENDBRANCH  23  24
ENDBRANCH   1  23
TORSDOF 24
ENDMDL
MODEL 3
REMARK VINA RESULT:      -8.4      3.996      6.261
REMARK SMILES CC[C@@H](C)[C@@H](C)Nc1cccc(F)c1C(=O)OCCOCCOCCOC(=O)c1ccc(-c2c3nc(c(-c4c(F)cc(S(=O)(=O)[O-])cc4F)c4ccc([nH]4)c(-c4c(F)cc(S(=O)(=O)[O-])cc4F)c4nc(c(-c5c(F)cc(S(=O)(=O)[O-])cc5F)c5ccc2[nH]5)C=C4)C=C3)cc1
REMARK SMILES IDX 21 1 20 2 19 3 18 4 17 5 15 6 16 7 14 8 8 9 9 10 10 11 12 12
REMARK SMILES IDX 11 13 13 14 7 15 5 17 6 18 3 19 4 20 2 21 1 22 22 23 23 24
REMARK SMILES IDX 24 25 25 26 26 27 27 28 28 29 29 30 30 31 94 32 31 33 93 34
REMARK SMILES IDX 32 35 33 36 34 37 87 38 35 39 92 40 86 41 88 42 36 43 91 44
REMARK SMILES IDX 85 45 84 46 37 48 71 49 50 50 70 51 51 52 54 53 69 54 89 55
REMARK SMILES IDX 52 56 53 57 68 59 90 60 55 61 38 62 39 63 48 64 40 65 41 66
REMARK SMILES IDX 47 67 49 68 42 69 43 70 44 71 45 72 46 73 72 74 73 75 82 76
REMARK SMILES IDX 74 77 75 78 81 79 83 80 76 81 77 82 78 83 79 84 80 85 56 86
REMARK SMILES IDX 57 87 66 88 58 89 59 90 65 91 67 92 60 93 61 94 62 95 63 96
REMARK SMILES IDX 64 97
REMARK H PARENT 7 16 88 47 54 58
REMARK Flexibility Score: inf
ROOT
ATOM      1  C   UNL A   1      34.700  22.525  27.055  1.00  0.00     0.188 C 
ENDROOT
BRANCH   1   2
ATOM      2  O   UNL A   1      33.305  22.266  27.062  1.00  0.00    -0.376 OA
BRANCH   2   3
ATOM      3  C   UNL A   1      32.465  23.411  26.977  1.00  0.00     0.202 C 
BRANCH   3   4
ATOM      4  C   UNL A   1      33.097  24.672  26.372  1.00  0.00     0.261 C 
BRANCH   4   5
ATOM      5  O   UNL A   1      32.176  25.735  26.074  1.00  0.00    -0.460 OA
BRANCH   5   6
ATOM      6  C   UNL A   1      32.709  26.942  25.747  1.00  0.00     0.343 C 
ATOM      7  O   UNL A   1      33.731  27.392  26.208  1.00  0.00    -0.246 OA
BRANCH   6   8
ATOM      8  C   UNL A   1      31.917  27.518  24.626  1.00  0.00     0.118 A 
ATOM      9  C   UNL A   1      31.813  26.880  23.366  1.00  0.00     0.052 A 
ATOM     10  C   UNL A   1      31.018  27.502  22.385  1.00  0.00     0.027 A 
ATOM     11  C   UNL A   1      30.327  28.690  22.638  1.00  0.00     0.005 A 
ATOM     12  C   UNL A   1      31.236  28.719  24.861  1.00  0.00     0.139 A 
ATOM     13  C   UNL A   1      30.437  29.299  23.880  1.00  0.00     0.040 A 
ATOM     14  F   UNL A   1      31.339  29.350  26.041  1.00  0.00    -0.206 F 
BRANCH   9  15
ATOM     15  N   UNL A   1      32.446  25.673  23.080  1.00  0.00    -0.382 N 
ATOM     16  H   UNL A   1      33.428  25.629  23.123  1.00  0.00     0.160 HD
BRANCH  15  17
ATOM     17  C   UNL A   1      31.692  24.456  22.713  1.00  0.00     0.079 C 
ATOM     18  C   UNL A   1      30.470  24.344  23.624  1.00  0.00     0.031 C 
BRANCH  17  19
ATOM     19  C   UNL A   1      32.669  23.245  22.853  1.00  0.00     0.008 C 
ATOM     20  C   UNL A   1      33.727  23.293  21.738  1.00  0.00     0.010 C 
BRANCH  19  21
ATOM     21  C   UNL A   1      31.973  21.871  22.838  1.00  0.00     0.002 C 
ATOM     22  C   UNL A   1      32.448  20.958  23.965  1.00  0.00     0.004 C 
ENDBRANCH  19  21
ENDBRANCH  17  19
ENDBRANCH  15  17
ENDBRANCH   9  15
ENDBRANCH   6   8
ENDBRANCH   5   6
ENDBRANCH   4   5
ENDBRANCH   3   4
ENDBRANCH   2   3
ENDBRANCH   1   2
BRANCH   1  23
ATOM     23  C   UNL A   1      35.447  21.971  25.822  1.00  0.00     0.188 C 
BRANCH  23  24
ATOM     24  O   UNL A   1      36.429  22.755  25.159  1.00  0.00    -0.376 OA
BRANCH  24  25
ATOM     25  C   UNL A   1      37.723  22.865  25.729  1.00  0.00     0.202 C 
BRANCH  25  26
ATOM     26  C   UNL A   1      38.302  24.258  26.037  1.00  0.00     0.261 C 
BRANCH  26  27
ATOM     27  O   UNL A   1      39.582  24.281  26.693  1.00  0.00    -0.460 OA
BRANCH  27  28
ATOM     28  C   UNL A   1      40.342  25.379  26.452  1.00  0.00     0.338 C 
ATOM     29  O   UNL A   1      40.680  25.813  25.363  1.00  0.00    -0.246 OA
BRANCH  28  30
ATOM     30  C   UNL A   1      40.593  26.113  27.711  1.00  0.00     0.060 A 
ATOM     31  C   UNL A   1      39.771  25.851  28.816  1.00  0.00     0.016 A 
ATOM     32  C   UNL A   1      41.564  27.114  27.780  1.00  0.00     0.016 A 
ATOM     33  C   UNL A   1      39.896  26.606  29.981  1.00  0.00     0.010 A 
ATOM     34  C   UNL A   1      41.668  27.892  28.941  1.00  0.00     0.010 A 
ATOM     35  C   UNL A   1      40.813  27.664  30.033  1.00  0.00    -0.014 A 
BRANCH  35  36
ATOM     36  C   UNL A   1      40.733  28.634  31.156  1.00  0.00     0.031 A 
ATOM     37  C   UNL A   1      39.656  29.683  31.126  1.00  0.00     0.074 A 
ATOM     38  C   UNL A   1      41.561  28.548  32.212  1.00  0.00     0.049 A 
ATOM     39  N   UNL A   1      39.403  30.632  31.988  1.00  0.00    -0.248 NA
ATOM     40  C   UNL A   1      38.752  29.670  29.963  1.00  0.00     0.031 C 
ATOM     41  C   UNL A   1      42.629  27.564  32.357  1.00  0.00     0.029 A 
ATOM     42  N   UNL A   1      41.627  29.286  33.368  1.00  0.00    -0.354 N 
ATOM     43  C   UNL A   1      38.329  31.341  31.465  1.00  0.00     0.074 A 
ATOM     44  C   UNL A   1      37.983  30.722  30.204  1.00  0.00     0.031 C 
ATOM     45  C   UNL A   1      43.213  27.726  33.556  1.00  0.00     0.029 A 
ATOM     46  C   UNL A   1      42.602  28.863  34.242  1.00  0.00     0.049 A 
ATOM     47  H   UNL A   1      41.031  30.047  33.555  1.00  0.00     0.167 HD
ATOM     48  C   UNL A   1      37.693  32.414  31.989  1.00  0.00     0.037 A 
ATOM     49  C   UNL A   1      42.967  29.345  35.448  1.00  0.00     0.037 A 
ATOM     50  C   UNL A   1      38.036  33.019  33.249  1.00  0.00     0.049 A 
ATOM     51  C   UNL A   1      42.256  30.558  35.999  1.00  0.00     0.074 A 
ATOM     52  C   UNL A   1      37.449  34.112  33.862  1.00  0.00     0.029 A 
ATOM     53  N   UNL A   1      39.050  32.585  34.090  1.00  0.00    -0.354 N 
ATOM     54  N   UNL A   1      41.247  31.224  35.487  1.00  0.00    -0.248 NA
ATOM     55  C   UNL A   1      42.744  31.099  37.276  1.00  0.00     0.031 C 
ATOM     56  C   UNL A   1      38.139  34.369  35.050  1.00  0.00     0.029 A 
ATOM     57  C   UNL A   1      39.118  33.400  35.207  1.00  0.00     0.049 A 
ATOM     58  H   UNL A   1      39.635  31.812  33.918  1.00  0.00     0.167 HD
ATOM     59  C   UNL A   1      40.976  32.254  36.384  1.00  0.00     0.074 A 
ATOM     60  C   UNL A   1      41.909  32.109  37.481  1.00  0.00     0.031 C 
ATOM     61  C   UNL A   1      40.046  33.237  36.300  1.00  0.00     0.037 A 
BRANCH  48  62
ATOM     62  C   UNL A   1      36.572  33.027  31.198  1.00  0.00     0.058 A 
ATOM     63  C   UNL A   1      36.850  33.824  30.076  1.00  0.00     0.135 A 
ATOM     64  C   UNL A   1      35.232  32.893  31.592  1.00  0.00     0.135 A 
ATOM     65  F   UNL A   1      38.114  33.973  29.649  1.00  0.00    -0.206 F 
ATOM     66  C   UNL A   1      35.843  34.492  29.391  1.00  0.00     0.059 A 
ATOM     67  C   UNL A   1      34.204  33.532  30.905  1.00  0.00     0.059 A 
ATOM     68  F   UNL A   1      34.910  32.119  32.641  1.00  0.00    -0.206 F 
ATOM     69  C   UNL A   1      34.522  34.345  29.817  1.00  0.00     0.060 A 
BRANCH  69  70
ATOM     70  S   UNL A   1      33.227  35.223  28.917  1.00  0.00     0.124 S 
ATOM     71  O   UNL A   1      32.808  34.224  27.941  1.00  0.00    -0.237 OA
ATOM     72  O   UNL A   1      32.266  35.519  29.976  1.00  0.00    -0.237 OA
ATOM     73  O   UNL A   1      33.922  36.385  28.371  1.00  0.00    -0.744 OA
ENDBRANCH  69  70
ENDBRANCH  48  62
BRANCH  49  74
ATOM     74  C   UNL A   1      44.067  28.694  36.216  1.00  0.00     0.058 A 
ATOM     75  C   UNL A   1      43.827  27.583  37.038  1.00  0.00     0.135 A 
ATOM     76  C   UNL A   1      45.386  29.172  36.141  1.00  0.00     0.135 A 
ATOM     77  F   UNL A   1      42.587  27.082  37.149  1.00  0.00    -0.206 F 
ATOM     78  C   UNL A   1      44.844  26.986  37.777  1.00  0.00     0.059 A 
ATOM     79  C   UNL A   1      46.427  28.571  36.845  1.00  0.00     0.059 A 
ATOM     80  F   UNL A   1      45.674  30.220  35.355  1.00  0.00    -0.206 F 
ATOM     81  C   UNL A   1      46.142  27.486  37.672  1.00  0.00     0.060 A 
BRANCH  81  82
ATOM     82  S   UNL A   1      47.452  26.676  38.618  1.00  0.00     0.124 S 
ATOM     83  O   UNL A   1      48.349  27.793  38.891  1.00  0.00    -0.237 OA
ATOM     84  O   UNL A   1      46.719  26.156  39.768  1.00  0.00    -0.237 OA
ATOM     85  O   UNL A   1      47.962  25.671  37.692  1.00  0.00    -0.744 OA
ENDBRANCH  81  82
ENDBRANCH  49  74
BRANCH  61  86
ATOM     86  C   UNL A   1      39.963  34.232  37.426  1.00  0.00     0.058 A 
ATOM     87  C   UNL A   1      40.698  35.428  37.373  1.00  0.00     0.135 A 
ATOM     88  C   UNL A   1      39.238  33.961  38.596  1.00  0.00     0.135 A 
ATOM     89  F   UNL A   1      41.416  35.734  36.281  1.00  0.00    -0.206 F 
ATOM     90  C   UNL A   1      40.735  36.308  38.450  1.00  0.00     0.059 A 
ATOM     91  C   UNL A   1      39.238  34.840  39.675  1.00  0.00     0.059 A 
ATOM     92  F   UNL A   1      38.512  32.835  38.694  1.00  0.00    -0.206 F 
ATOM     93  C   UNL A   1      40.005  36.003  39.599  1.00  0.00     0.060 A 
BRANCH  93  94
ATOM     94  S   UNL A   1      40.063  37.158  40.985  1.00  0.00     0.124 S 
ATOM     95  O   UNL A   1      38.908  38.008  40.717  1.00  0.00    -0.237 OA
ATOM     96  O   UNL A   1      39.942  36.266  42.134  1.00  0.00    -0.237 OA
ATOM     97  O   UNL A   1      41.364  37.803  40.836  1.00  0.00    -0.744 OA
ENDBRANCH  93  94
ENDBRANCH  61  86
ENDBRANCH  35  36
ENDBRANCH  28  30
ENDBRANCH  27  28
ENDBRANCH  26  27
ENDBRANCH  25  26
ENDBRANCH  24  25
ENDBRANCH  23  24
ENDBRANCH   1  23
TORSDOF 24
ENDMDL
