MODEL 1
REMARK VINA RESULT:     -10.2      0.000      0.000
REMARK SMILES Cn1cnnc1CCNC(=O)NCc1ccc(C(=O)OCCOCCOCCOC(=O)c2ccc(-c3c4nc(c(-c5c(F)cc(S(=O)(=O)[O-])cc5F)c5ccc([nH]5)c(-c5c(F)cc(S(=O)(=O)[O-])cc5F)c5nc(c(-c6c(F)cc(S(=O)(=O)[O-])cc6F)c6ccc3[nH]6)C=C5)C=C4)cc2)o1
REMARK SMILES IDX 24 1 23 2 22 3 21 4 20 5 18 6 19 7 17 8 14 9 15 10 98 11
REMARK SMILES IDX 16 12 13 13 12 14 9 15 10 16 11 18 8 20 7 21 6 22 1 23 2 24
REMARK SMILES IDX 3 25 4 26 5 27 25 28 26 29 27 30 28 31 29 32 30 33 31 34
REMARK SMILES IDX 32 35 33 36 97 37 34 38 96 39 35 40 36 41 37 42 90 43 38 44
REMARK SMILES IDX 95 45 89 46 91 47 39 48 94 49 88 50 87 51 40 53 74 54 53 55
REMARK SMILES IDX 73 56 54 57 57 58 72 59 92 60 55 61 56 62 71 64 93 65 58 66
REMARK SMILES IDX 41 67 42 68 51 69 43 70 44 71 50 72 52 73 45 74 46 75 47 76
REMARK SMILES IDX 48 77 49 78 75 79 76 80 85 81 77 82 78 83 84 84 86 85 79 86
REMARK SMILES IDX 80 87 81 88 82 89 83 90 59 91 60 92 69 93 61 94 62 95 68 96
REMARK SMILES IDX 70 97 63 98 64 99 65 100 66 101 67 102
REMARK H PARENT 9 17 12 19 91 52 57 63
REMARK Flexibility Score: inf
ROOT
ATOM      1  C   UNL A   1      40.116  21.783  27.182  1.00  0.00     0.188 C 
ENDROOT
BRANCH   1   2
ATOM      2  O   UNL A   1      39.000  22.082  26.349  1.00  0.00    -0.376 OA
BRANCH   2   3
ATOM      3  C   UNL A   1      38.624  21.170  25.324  1.00  0.00     0.202 C 
BRANCH   3   4
ATOM      4  C   UNL A   1      37.245  21.374  24.694  1.00  0.00     0.261 C 
BRANCH   4   5
ATOM      5  O   UNL A   1      36.183  21.095  25.621  1.00  0.00    -0.457 OA
BRANCH   5   6
ATOM      6  C   UNL A   1      34.930  21.007  25.067  1.00  0.00     0.374 C 
ATOM      7  O   UNL A   1      34.305  19.982  24.924  1.00  0.00    -0.242 OA
BRANCH   6   8
ATOM      8  C   UNL A   1      34.443  22.345  24.794  1.00  0.00     0.211 A 
ATOM      9  C   UNL A   1      33.032  23.767  23.861  1.00  0.00     0.124 A 
ATOM     10  C   UNL A   1      33.802  24.499  24.741  1.00  0.00     0.048 A 
ATOM     11  O   UNL A   1      33.451  22.469  23.860  1.00  0.00    -0.452 OA
ATOM     12  C   UNL A   1      34.704  23.587  25.343  1.00  0.00     0.058 A 
BRANCH   9  13
ATOM     13  C   UNL A   1      31.863  24.074  22.993  1.00  0.00     0.193 C 
BRANCH  13  14
ATOM     14  N   UNL A   1      32.343  24.509  21.702  1.00  0.00    -0.331 N 
ATOM     15  N   UNL A   1      32.457  26.867  21.748  1.00  0.00    -0.338 N 
ATOM     16  C   UNL A   1      32.653  25.685  21.155  1.00  0.00     0.315 C 
ATOM     17  H   UNL A   1      32.843  27.614  21.235  1.00  0.00     0.165 HD
ATOM     18  O   UNL A   1      33.139  25.672  20.023  1.00  0.00    -0.249 OA
ATOM     19  H   UNL A   1      32.473  23.759  21.078  1.00  0.00     0.165 HD
BRANCH  15  20
ATOM     20  C   UNL A   1      31.809  27.309  22.968  1.00  0.00     0.126 C 
BRANCH  20  21
ATOM     21  C   UNL A   1      31.741  28.835  23.075  1.00  0.00     0.099 C 
BRANCH  21  22
ATOM     22  C   UNL A   1      30.367  29.328  22.764  1.00  0.00     0.134 A 
ATOM     23  C   UNL A   1      30.085  31.113  24.557  1.00  0.00     0.152 C 
ATOM     24  N   UNL A   1      29.682  30.313  23.432  1.00  0.00    -0.321 N 
ATOM     25  C   UNL A   1      28.460  30.396  22.836  1.00  0.00     0.225 A 
ATOM     26  N   UNL A   1      28.382  29.518  21.868  1.00  0.00    -0.139 NA
ATOM     27  N   UNL A   1      29.579  28.848  21.821  1.00  0.00    -0.136 NA
ENDBRANCH  21  22
ENDBRANCH  20  21
ENDBRANCH  15  20
ENDBRANCH  13  14
ENDBRANCH   9  13
ENDBRANCH   6   8
ENDBRANCH   5   6
ENDBRANCH   4   5
ENDBRANCH   3   4
ENDBRANCH   2   3
ENDBRANCH   1   2
BRANCH   1  28
ATOM     28  C   UNL A   1      41.325  21.039  26.584  1.00  0.00     0.188 C 
BRANCH  28  29
ATOM     29  O   UNL A   1      42.588  21.543  27.001  1.00  0.00    -0.376 OA
BRANCH  29  30
ATOM     30  C   UNL A   1      43.450  21.978  25.959  1.00  0.00     0.202 C 
BRANCH  30  31
ATOM     31  C   UNL A   1      42.980  23.278  25.300  1.00  0.00     0.261 C 
BRANCH  31  32
ATOM     32  O   UNL A   1      42.291  24.176  26.183  1.00  0.00    -0.460 OA
BRANCH  32  33
ATOM     33  C   UNL A   1      42.311  25.487  25.851  1.00  0.00     0.338 C 
ATOM     34  O   UNL A   1      42.319  25.959  24.729  1.00  0.00    -0.246 OA
BRANCH  33  35
ATOM     35  C   UNL A   1      42.164  26.270  27.095  1.00  0.00     0.060 A 
ATOM     36  C   UNL A   1      41.197  25.887  28.030  1.00  0.00     0.016 A 
ATOM     37  C   UNL A   1      42.981  27.381  27.327  1.00  0.00     0.016 A 
ATOM     38  C   UNL A   1      41.031  26.634  29.199  1.00  0.00     0.010 A 
ATOM     39  C   UNL A   1      42.804  28.133  28.489  1.00  0.00     0.010 A 
ATOM     40  C   UNL A   1      41.815  27.777  29.420  1.00  0.00    -0.014 A 
BRANCH  40  41
ATOM     41  C   UNL A   1      41.503  28.695  30.542  1.00  0.00     0.031 A 
ATOM     42  C   UNL A   1      42.318  28.594  31.802  1.00  0.00     0.074 A 
ATOM     43  C   UNL A   1      40.502  29.589  30.452  1.00  0.00     0.049 A 
ATOM     44  N   UNL A   1      42.195  29.252  32.924  1.00  0.00    -0.248 NA
ATOM     45  C   UNL A   1      43.413  27.610  31.795  1.00  0.00     0.031 C 
ATOM     46  C   UNL A   1      39.650  29.793  29.283  1.00  0.00     0.029 A 
ATOM     47  N   UNL A   1      40.027  30.486  31.377  1.00  0.00    -0.354 N 
ATOM     48  C   UNL A   1      43.200  28.772  33.754  1.00  0.00     0.074 A 
ATOM     49  C   UNL A   1      43.903  27.743  33.018  1.00  0.00     0.031 C 
ATOM     50  C   UNL A   1      38.747  30.750  29.563  1.00  0.00     0.029 A 
ATOM     51  C   UNL A   1      38.943  31.208  30.939  1.00  0.00     0.049 A 
ATOM     52  H   UNL A   1      40.426  30.602  32.270  1.00  0.00     0.167 HD
ATOM     53  C   UNL A   1      43.516  29.158  35.014  1.00  0.00     0.037 A 
ATOM     54  C   UNL A   1      38.188  32.121  31.582  1.00  0.00     0.037 A 
ATOM     55  C   UNL A   1      42.811  30.172  35.751  1.00  0.00     0.049 A 
ATOM     56  C   UNL A   1      38.519  32.493  33.005  1.00  0.00     0.074 A 
ATOM     57  C   UNL A   1      43.061  30.639  37.029  1.00  0.00     0.029 A 
ATOM     58  N   UNL A   1      41.710  30.869  35.278  1.00  0.00    -0.354 N 
ATOM     59  N   UNL A   1      39.491  32.050  33.769  1.00  0.00    -0.248 NA
ATOM     60  C   UNL A   1      37.651  33.487  33.654  1.00  0.00     0.031 C 
ATOM     61  C   UNL A   1      42.089  31.595  37.344  1.00  0.00     0.029 A 
ATOM     62  C   UNL A   1      41.256  31.749  36.247  1.00  0.00     0.049 A 
ATOM     63  H   UNL A   1      41.309  30.757  34.387  1.00  0.00     0.167 HD
ATOM     64  C   UNL A   1      39.366  32.731  34.976  1.00  0.00     0.074 A 
ATOM     65  C   UNL A   1      38.229  33.617  34.841  1.00  0.00     0.031 C 
ATOM     66  C   UNL A   1      40.127  32.632  36.096  1.00  0.00     0.037 A 
BRANCH  53  67
ATOM     67  C   UNL A   1      44.669  28.459  35.675  1.00  0.00     0.058 A 
ATOM     68  C   UNL A   1      45.982  28.939  35.558  1.00  0.00     0.135 A 
ATOM     69  C   UNL A   1      44.457  27.301  36.439  1.00  0.00     0.135 A 
ATOM     70  F   UNL A   1      46.239  30.033  34.823  1.00  0.00    -0.206 F 
ATOM     71  C   UNL A   1      47.052  28.280  36.154  1.00  0.00     0.059 A 
ATOM     72  C   UNL A   1      45.509  26.637  37.061  1.00  0.00     0.059 A 
ATOM     73  F   UNL A   1      43.220  26.799  36.578  1.00  0.00    -0.206 F 
ATOM     74  C   UNL A   1      46.806  27.125  36.899  1.00  0.00     0.060 A 
BRANCH  74  75
ATOM     75  S   UNL A   1      48.202  26.269  37.659  1.00  0.00     0.124 S 
ATOM     76  O   UNL A   1      48.598  25.354  36.594  1.00  0.00    -0.237 OA
ATOM     77  O   UNL A   1      49.130  27.361  37.933  1.00  0.00    -0.237 OA
ATOM     78  O   UNL A   1      47.613  25.642  38.838  1.00  0.00    -0.744 OA
ENDBRANCH  74  75
ENDBRANCH  53  67
BRANCH  54  79
ATOM     79  C   UNL A   1      37.035  32.754  30.888  1.00  0.00     0.058 A 
ATOM     80  C   UNL A   1      37.231  33.759  29.930  1.00  0.00     0.135 A 
ATOM     81  C   UNL A   1      35.715  32.372  31.176  1.00  0.00     0.135 A 
ATOM     82  F   UNL A   1      38.474  34.166  29.631  1.00  0.00    -0.206 F 
ATOM     83  C   UNL A   1      36.160  34.372  29.287  1.00  0.00     0.059 A 
ATOM     84  C   UNL A   1      34.628  32.955  30.531  1.00  0.00     0.059 A 
ATOM     85  F   UNL A   1      35.476  31.412  32.082  1.00  0.00    -0.206 F 
ATOM     86  C   UNL A   1      34.861  33.962  29.593  1.00  0.00     0.060 A 
BRANCH  86  87
ATOM     87  S   UNL A   1      33.479  34.728  28.718  1.00  0.00     0.124 S 
ATOM     88  O   UNL A   1      33.125  33.687  27.760  1.00  0.00    -0.237 OA
ATOM     89  O   UNL A   1      32.521  34.956  29.795  1.00  0.00    -0.237 OA
ATOM     90  O   UNL A   1      34.071  35.936  28.151  1.00  0.00    -0.744 OA
ENDBRANCH  86  87
ENDBRANCH  54  79
BRANCH  66  91
ATOM     91  C   UNL A   1      39.779  33.524  37.254  1.00  0.00     0.058 A 
ATOM     92  C   UNL A   1      38.793  33.167  38.187  1.00  0.00     0.135 A 
ATOM     93  C   UNL A   1      40.484  34.720  37.467  1.00  0.00     0.135 A 
ATOM     94  F   UNL A   1      38.088  32.037  38.026  1.00  0.00    -0.206 F 
ATOM     95  C   UNL A   1      38.506  33.974  39.284  1.00  0.00     0.059 A 
ATOM     96  C   UNL A   1      40.228  35.531  38.569  1.00  0.00     0.059 A 
ATOM     97  F   UNL A   1      41.443  35.101  36.609  1.00  0.00    -0.206 F 
ATOM     98  C   UNL A   1      39.229  35.155  39.467  1.00  0.00     0.060 A 
BRANCH  98  99
ATOM     99  S   UNL A   1      38.878  36.177  40.914  1.00  0.00     0.124 S 
ATOM    100  O   UNL A   1      37.785  35.438  41.537  1.00  0.00    -0.237 OA
ATOM    101  O   UNL A   1      40.149  36.154  41.632  1.00  0.00    -0.237 OA
ATOM    102  O   UNL A   1      38.516  37.469  40.338  1.00  0.00    -0.744 OA
ENDBRANCH  98  99
ENDBRANCH  66  91
ENDBRANCH  40  41
ENDBRANCH  33  35
ENDBRANCH  32  33
ENDBRANCH  31  32
ENDBRANCH  30  31
ENDBRANCH  29  30
ENDBRANCH  28  29
ENDBRANCH   1  28
TORSDOF 25
ENDMDL
MODEL 2
REMARK VINA RESULT:      -9.9      4.750     10.078
REMARK SMILES Cn1cnnc1CCNC(=O)NCc1ccc(C(=O)OCCOCCOCCOC(=O)c2ccc(-c3c4nc(c(-c5c(F)cc(S(=O)(=O)[O-])cc5F)c5ccc([nH]5)c(-c5c(F)cc(S(=O)(=O)[O-])cc5F)c5nc(c(-c6c(F)cc(S(=O)(=O)[O-])cc6F)c6ccc3[nH]6)C=C5)C=C4)cc2)o1
REMARK SMILES IDX 24 1 23 2 22 3 21 4 20 5 18 6 19 7 17 8 14 9 15 10 98 11
REMARK SMILES IDX 16 12 13 13 12 14 9 15 10 16 11 18 8 20 7 21 6 22 1 23 2 24
REMARK SMILES IDX 3 25 4 26 5 27 25 28 26 29 27 30 28 31 29 32 30 33 31 34
REMARK SMILES IDX 32 35 33 36 97 37 34 38 96 39 35 40 36 41 37 42 90 43 38 44
REMARK SMILES IDX 95 45 89 46 91 47 39 48 94 49 88 50 87 51 40 53 74 54 53 55
REMARK SMILES IDX 73 56 54 57 57 58 72 59 92 60 55 61 56 62 71 64 93 65 58 66
REMARK SMILES IDX 41 67 42 68 51 69 43 70 44 71 50 72 52 73 45 74 46 75 47 76
REMARK SMILES IDX 48 77 49 78 75 79 76 80 85 81 77 82 78 83 84 84 86 85 79 86
REMARK SMILES IDX 80 87 81 88 82 89 83 90 59 91 60 92 69 93 61 94 62 95 68 96
REMARK SMILES IDX 70 97 63 98 64 99 65 100 66 101 67 102
REMARK H PARENT 9 17 12 19 91 52 57 63
REMARK Flexibility Score: inf
ROOT
ATOM      1  C   UNL A   1      33.724  28.073  24.203  1.00  0.00     0.188 C 
ENDROOT
BRANCH   1   2
ATOM      2  O   UNL A   1      33.012  27.982  22.973  1.00  0.00    -0.376 OA
BRANCH   2   3
ATOM      3  C   UNL A   1      32.024  28.956  22.659  1.00  0.00     0.202 C 
BRANCH   3   4
ATOM      4  C   UNL A   1      30.580  28.463  22.554  1.00  0.00     0.261 C 
BRANCH   4   5
ATOM      5  O   UNL A   1      30.507  27.035  22.414  1.00  0.00    -0.457 OA
BRANCH   5   6
ATOM      6  C   UNL A   1      30.071  26.360  23.527  1.00  0.00     0.374 C 
ATOM      7  O   UNL A   1      29.126  26.683  24.209  1.00  0.00    -0.242 OA
BRANCH   6   8
ATOM      8  C   UNL A   1      30.852  25.147  23.676  1.00  0.00     0.211 A 
ATOM      9  C   UNL A   1      31.270  23.184  24.600  1.00  0.00     0.124 A 
ATOM     10  C   UNL A   1      32.116  23.295  23.515  1.00  0.00     0.048 A 
ATOM     11  O   UNL A   1      30.536  24.326  24.724  1.00  0.00    -0.452 OA
ATOM     12  C   UNL A   1      31.845  24.552  22.919  1.00  0.00     0.058 A 
BRANCH   9  13
ATOM     13  C   UNL A   1      30.972  22.109  25.585  1.00  0.00     0.193 C 
BRANCH  13  14
ATOM     14  N   UNL A   1      31.633  22.422  26.831  1.00  0.00    -0.331 N 
ATOM     15  N   UNL A   1      33.582  21.093  26.950  1.00  0.00    -0.338 N 
ATOM     16  C   UNL A   1      32.768  22.044  27.419  1.00  0.00     0.315 C 
ATOM     17  H   UNL A   1      34.420  21.029  27.463  1.00  0.00     0.165 HD
ATOM     18  O   UNL A   1      33.072  22.606  28.474  1.00  0.00    -0.249 OA
ATOM     19  H   UNL A   1      31.125  23.067  27.373  1.00  0.00     0.165 HD
BRANCH  15  20
ATOM     20  C   UNL A   1      33.521  20.135  25.863  1.00  0.00     0.126 C 
BRANCH  20  21
ATOM     21  C   UNL A   1      34.206  20.646  24.593  1.00  0.00     0.099 C 
BRANCH  21  22
ATOM     22  C   UNL A   1      35.460  21.384  24.926  1.00  0.00     0.134 A 
ATOM     23  C   UNL A   1      37.147  19.478  24.933  1.00  0.00     0.152 C 
ATOM     24  N   UNL A   1      36.713  20.842  25.069  1.00  0.00    -0.321 N 
ATOM     25  C   UNL A   1      37.535  21.873  25.416  1.00  0.00     0.225 A 
ATOM     26  N   UNL A   1      36.841  22.981  25.493  1.00  0.00    -0.139 NA
ATOM     27  N   UNL A   1      35.539  22.675  25.184  1.00  0.00    -0.136 NA
ENDBRANCH  21  22
ENDBRANCH  20  21
ENDBRANCH  15  20
ENDBRANCH  13  14
ENDBRANCH   9  13
ENDBRANCH   6   8
ENDBRANCH   5   6
ENDBRANCH   4   5
ENDBRANCH   3   4
ENDBRANCH   2   3
ENDBRANCH   1   2
BRANCH   1  28
ATOM     28  C   UNL A   1      33.743  26.861  25.154  1.00  0.00     0.188 C 
BRANCH  28  29
ATOM     29  O   UNL A   1      33.010  27.050  26.358  1.00  0.00    -0.376 OA
BRANCH  29  30
ATOM     30  C   UNL A   1      32.034  28.082  26.329  1.00  0.00     0.202 C 
BRANCH  30  31
ATOM     31  C   UNL A   1      32.375  29.251  27.257  1.00  0.00     0.261 C 
BRANCH  31  32
ATOM     32  O   UNL A   1      33.654  29.145  27.902  1.00  0.00    -0.460 OA
BRANCH  32  33
ATOM     33  C   UNL A   1      34.389  30.277  27.981  1.00  0.00     0.338 C 
ATOM     34  O   UNL A   1      33.974  31.421  27.988  1.00  0.00    -0.246 OA
BRANCH  33  35
ATOM     35  C   UNL A   1      35.794  29.888  28.215  1.00  0.00     0.060 A 
ATOM     36  C   UNL A   1      36.185  29.488  29.498  1.00  0.00     0.016 A 
ATOM     37  C   UNL A   1      36.718  29.924  27.167  1.00  0.00     0.016 A 
ATOM     38  C   UNL A   1      37.517  29.141  29.738  1.00  0.00     0.010 A 
ATOM     39  C   UNL A   1      38.051  29.591  27.413  1.00  0.00     0.010 A 
ATOM     40  C   UNL A   1      38.462  29.218  28.703  1.00  0.00    -0.014 A 
BRANCH  40  41
ATOM     41  C   UNL A   1      39.907  29.065  28.994  1.00  0.00     0.031 A 
ATOM     42  C   UNL A   1      40.566  27.748  28.689  1.00  0.00     0.074 A 
ATOM     43  C   UNL A   1      40.618  30.069  29.538  1.00  0.00     0.049 A 
ATOM     44  N   UNL A   1      41.798  27.368  28.904  1.00  0.00    -0.248 NA
ATOM     45  C   UNL A   1      39.717  26.721  28.064  1.00  0.00     0.031 C 
ATOM     46  C   UNL A   1      40.099  31.394  29.867  1.00  0.00     0.029 A 
ATOM     47  N   UNL A   1      41.936  30.117  29.921  1.00  0.00    -0.354 N 
ATOM     48  C   UNL A   1      41.877  26.063  28.434  1.00  0.00     0.074 A 
ATOM     49  C   UNL A   1      40.559  25.705  27.952  1.00  0.00     0.031 C 
ATOM     50  C   UNL A   1      41.087  32.126  30.413  1.00  0.00     0.029 A 
ATOM     51  C   UNL A   1      42.300  31.313  30.494  1.00  0.00     0.049 A 
ATOM     52  H   UNL A   1      42.562  29.367  29.796  1.00  0.00     0.167 HD
ATOM     53  C   UNL A   1      42.950  25.237  28.398  1.00  0.00     0.037 A 
ATOM     54  C   UNL A   1      43.474  31.697  31.034  1.00  0.00     0.037 A 
ATOM     55  C   UNL A   1      44.257  25.586  28.887  1.00  0.00     0.049 A 
ATOM     56  C   UNL A   1      44.640  30.741  31.039  1.00  0.00     0.074 A 
ATOM     57  C   UNL A   1      45.410  24.822  28.886  1.00  0.00     0.029 A 
ATOM     58  N   UNL A   1      44.582  26.801  29.474  1.00  0.00    -0.354 N 
ATOM     59  N   UNL A   1      44.708  29.519  30.565  1.00  0.00    -0.248 NA
ATOM     60  C   UNL A   1      45.890  31.217  31.652  1.00  0.00     0.031 C 
ATOM     61  C   UNL A   1      46.425  25.561  29.505  1.00  0.00     0.029 A 
ATOM     62  C   UNL A   1      45.912  26.799  29.857  1.00  0.00     0.049 A 
ATOM     63  H   UNL A   1      43.959  27.553  29.599  1.00  0.00     0.167 HD
ATOM     64  C   UNL A   1      46.011  29.091  30.801  1.00  0.00     0.074 A 
ATOM     65  C   UNL A   1      46.699  30.185  31.454  1.00  0.00     0.031 C 
ATOM     66  C   UNL A   1      46.587  27.899  30.500  1.00  0.00     0.037 A 
BRANCH  53  67
ATOM     67  C   UNL A   1      42.741  23.866  27.824  1.00  0.00     0.058 A 
ATOM     68  C   UNL A   1      42.563  22.745  28.648  1.00  0.00     0.135 A 
ATOM     69  C   UNL A   1      42.711  23.672  26.434  1.00  0.00     0.135 A 
ATOM     70  F   UNL A   1      42.602  22.875  29.985  1.00  0.00    -0.206 F 
ATOM     71  C   UNL A   1      42.390  21.472  28.116  1.00  0.00     0.059 A 
ATOM     72  C   UNL A   1      42.518  22.411  25.879  1.00  0.00     0.059 A 
ATOM     73  F   UNL A   1      42.880  24.712  25.602  1.00  0.00    -0.206 F 
ATOM     74  C   UNL A   1      42.375  21.314  26.729  1.00  0.00     0.060 A 
BRANCH  74  75
ATOM     75  S   UNL A   1      42.161  19.657  26.046  1.00  0.00     0.124 S 
ATOM     76  O   UNL A   1      40.755  19.682  25.655  1.00  0.00    -0.237 OA
ATOM     77  O   UNL A   1      43.123  19.640  24.949  1.00  0.00    -0.237 OA
ATOM     78  O   UNL A   1      42.483  18.783  27.170  1.00  0.00    -0.744 OA
ENDBRANCH  74  75
ENDBRANCH  53  67
BRANCH  54  79
ATOM     79  C   UNL A   1      43.613  33.056  31.622  1.00  0.00     0.058 A 
ATOM     80  C   UNL A   1      43.427  33.271  32.995  1.00  0.00     0.135 A 
ATOM     81  C   UNL A   1      43.925  34.165  30.821  1.00  0.00     0.135 A 
ATOM     82  F   UNL A   1      43.114  32.244  33.798  1.00  0.00    -0.206 F 
ATOM     83  C   UNL A   1      43.536  34.540  33.554  1.00  0.00     0.059 A 
ATOM     84  C   UNL A   1      44.060  35.441  31.360  1.00  0.00     0.059 A 
ATOM     85  F   UNL A   1      44.118  34.009  29.502  1.00  0.00    -0.206 F 
ATOM     86  C   UNL A   1      43.855  35.620  32.728  1.00  0.00     0.060 A 
BRANCH  86  87
ATOM     87  S   UNL A   1      44.043  37.256  33.471  1.00  0.00     0.124 S 
ATOM     88  O   UNL A   1      44.312  38.082  32.299  1.00  0.00    -0.237 OA
ATOM     89  O   UNL A   1      42.746  37.457  34.109  1.00  0.00    -0.237 OA
ATOM     90  O   UNL A   1      45.163  37.079  34.390  1.00  0.00    -0.744 OA
ENDBRANCH  86  87
ENDBRANCH  54  79
BRANCH  66  91
ATOM     91  C   UNL A   1      48.039  27.723  30.843  1.00  0.00     0.058 A 
ATOM     92  C   UNL A   1      49.057  28.104  29.955  1.00  0.00     0.135 A 
ATOM     93  C   UNL A   1      48.417  27.223  32.100  1.00  0.00     0.135 A 
ATOM     94  F   UNL A   1      48.749  28.582  28.740  1.00  0.00    -0.206 F 
ATOM     95  C   UNL A   1      50.400  27.981  30.295  1.00  0.00     0.059 A 
ATOM     96  C   UNL A   1      49.754  27.112  32.470  1.00  0.00     0.059 A 
ATOM     97  F   UNL A   1      47.481  26.854  32.989  1.00  0.00    -0.206 F 
ATOM     98  C   UNL A   1      50.739  27.484  31.556  1.00  0.00     0.060 A 
BRANCH  98  99
ATOM     99  S   UNL A   1      52.485  27.365  32.005  1.00  0.00     0.124 S 
ATOM    100  O   UNL A   1      52.498  28.023  33.307  1.00  0.00    -0.237 OA
ATOM    101  O   UNL A   1      52.708  25.922  32.023  1.00  0.00    -0.237 OA
ATOM    102  O   UNL A   1      53.163  28.083  30.929  1.00  0.00    -0.744 OA
ENDBRANCH  98  99
ENDBRANCH  66  91
ENDBRANCH  40  41
ENDBRANCH  33  35
ENDBRANCH  32  33
ENDBRANCH  31  32
ENDBRANCH  30  31
ENDBRANCH  29  30
ENDBRANCH  28  29
ENDBRANCH   1  28
TORSDOF 25
ENDMDL
MODEL 3
REMARK VINA RESULT:      -9.8      3.222      9.236
REMARK SMILES Cn1cnnc1CCNC(=O)NCc1ccc(C(=O)OCCOCCOCCOC(=O)c2ccc(-c3c4nc(c(-c5c(F)cc(S(=O)(=O)[O-])cc5F)c5ccc([nH]5)c(-c5c(F)cc(S(=O)(=O)[O-])cc5F)c5nc(c(-c6c(F)cc(S(=O)(=O)[O-])cc6F)c6ccc3[nH]6)C=C5)C=C4)cc2)o1
REMARK SMILES IDX 24 1 23 2 22 3 21 4 20 5 18 6 19 7 17 8 14 9 15 10 98 11
REMARK SMILES IDX 16 12 13 13 12 14 9 15 10 16 11 18 8 20 7 21 6 22 1 23 2 24
REMARK SMILES IDX 3 25 4 26 5 27 25 28 26 29 27 30 28 31 29 32 30 33 31 34
REMARK SMILES IDX 32 35 33 36 97 37 34 38 96 39 35 40 36 41 37 42 90 43 38 44
REMARK SMILES IDX 95 45 89 46 91 47 39 48 94 49 88 50 87 51 40 53 74 54 53 55
REMARK SMILES IDX 73 56 54 57 57 58 72 59 92 60 55 61 56 62 71 64 93 65 58 66
REMARK SMILES IDX 41 67 42 68 51 69 43 70 44 71 50 72 52 73 45 74 46 75 47 76
REMARK SMILES IDX 48 77 49 78 75 79 76 80 85 81 77 82 78 83 84 84 86 85 79 86
REMARK SMILES IDX 80 87 81 88 82 89 83 90 59 91 60 92 69 93 61 94 62 95 68 96
REMARK SMILES IDX 70 97 63 98 64 99 65 100 66 101 67 102
REMARK H PARENT 9 17 12 19 91 52 57 63
REMARK Flexibility Score: inf
ROOT
ATOM      1  C   UNL A   1      32.942  28.851  23.659  1.00  0.00     0.188 C 
ENDROOT
BRANCH   1   2
ATOM      2  O   UNL A   1      32.089  28.390  22.616  1.00  0.00    -0.376 OA
BRANCH   2   3
ATOM      3  C   UNL A   1      30.693  28.651  22.683  1.00  0.00     0.202 C 
BRANCH   3   4
ATOM      4  C   UNL A   1      29.809  27.532  23.239  1.00  0.00     0.261 C 
BRANCH   4   5
ATOM      5  O   UNL A   1      30.404  26.237  23.059  1.00  0.00    -0.457 OA
BRANCH   5   6
ATOM      6  C   UNL A   1      30.720  25.573  24.218  1.00  0.00     0.374 C 
ATOM      7  O   UNL A   1      30.245  25.809  25.304  1.00  0.00    -0.242 OA
BRANCH   6   8
ATOM      8  C   UNL A   1      31.618  24.480  23.902  1.00  0.00     0.211 A 
ATOM      9  C   UNL A   1      32.474  22.475  24.268  1.00  0.00     0.124 A 
ATOM     10  C   UNL A   1      32.941  22.882  23.035  1.00  0.00     0.048 A 
ATOM     11  O   UNL A   1      31.709  23.463  24.814  1.00  0.00    -0.452 OA
ATOM     12  C   UNL A   1      32.388  24.165  22.797  1.00  0.00     0.058 A 
BRANCH   9  13
ATOM     13  C   UNL A   1      32.587  21.224  25.066  1.00  0.00     0.193 C 
BRANCH  13  14
ATOM     14  N   UNL A   1      32.997  21.563  26.409  1.00  0.00    -0.331 N 
ATOM     15  N   UNL A   1      35.356  21.461  26.475  1.00  0.00    -0.338 N 
ATOM     16  C   UNL A   1      34.168  21.720  27.029  1.00  0.00     0.315 C 
ATOM     17  H   UNL A   1      36.107  21.737  27.049  1.00  0.00     0.165 HD
ATOM     18  O   UNL A   1      34.140  22.118  28.195  1.00  0.00    -0.249 OA
ATOM     19  H   UNL A   1      32.231  21.714  27.008  1.00  0.00     0.165 HD
BRANCH  15  20
ATOM     20  C   UNL A   1      35.800  20.871  25.227  1.00  0.00     0.126 C 
BRANCH  20  21
ATOM     21  C   UNL A   1      36.777  21.772  24.467  1.00  0.00     0.099 C 
BRANCH  21  22
ATOM     22  C   UNL A   1      37.579  22.602  25.413  1.00  0.00     0.134 A 
ATOM     23  C   UNL A   1      39.500  21.015  25.929  1.00  0.00     0.152 C 
ATOM     24  N   UNL A   1      38.750  22.237  26.029  1.00  0.00    -0.321 N 
ATOM     25  C   UNL A   1      39.098  23.283  26.832  1.00  0.00     0.225 A 
ATOM     26  N   UNL A   1      38.201  24.231  26.731  1.00  0.00    -0.139 NA
ATOM     27  N   UNL A   1      37.248  23.806  25.840  1.00  0.00    -0.136 NA
ENDBRANCH  21  22
ENDBRANCH  20  21
ENDBRANCH  15  20
ENDBRANCH  13  14
ENDBRANCH   9  13
ENDBRANCH   6   8
ENDBRANCH   5   6
ENDBRANCH   4   5
ENDBRANCH   3   4
ENDBRANCH   2   3
ENDBRANCH   1   2
BRANCH   1  28
ATOM     28  C   UNL A   1      33.486  27.842  24.689  1.00  0.00     0.188 C 
BRANCH  28  29
ATOM     29  O   UNL A   1      32.907  27.955  25.982  1.00  0.00    -0.376 OA
BRANCH  29  30
ATOM     30  C   UNL A   1      31.894  28.942  26.119  1.00  0.00     0.202 C 
BRANCH  30  31
ATOM     31  C   UNL A   1      32.373  30.186  26.871  1.00  0.00     0.261 C 
BRANCH  31  32
ATOM     32  O   UNL A   1      33.650  30.040  27.512  1.00  0.00    -0.460 OA
BRANCH  32  33
ATOM     33  C   UNL A   1      34.349  31.175  27.738  1.00  0.00     0.338 C 
ATOM     34  O   UNL A   1      33.942  32.318  27.639  1.00  0.00    -0.246 OA
BRANCH  33  35
ATOM     35  C   UNL A   1      35.667  30.792  28.283  1.00  0.00     0.060 A 
ATOM     36  C   UNL A   1      35.807  29.553  28.917  1.00  0.00     0.016 A 
ATOM     37  C   UNL A   1      36.755  31.662  28.169  1.00  0.00     0.016 A 
ATOM     38  C   UNL A   1      37.043  29.189  29.459  1.00  0.00     0.010 A 
ATOM     39  C   UNL A   1      37.984  31.303  28.723  1.00  0.00     0.010 A 
ATOM     40  C   UNL A   1      38.129  30.075  29.389  1.00  0.00    -0.014 A 
BRANCH  40  41
ATOM     41  C   UNL A   1      39.374  29.796  30.145  1.00  0.00     0.031 A 
ATOM     42  C   UNL A   1      40.270  28.686  29.670  1.00  0.00     0.074 A 
ATOM     43  C   UNL A   1      39.694  30.502  31.244  1.00  0.00     0.049 A 
ATOM     44  N   UNL A   1      41.376  28.231  30.196  1.00  0.00    -0.248 NA
ATOM     45  C   UNL A   1      39.856  27.992  28.439  1.00  0.00     0.031 C 
ATOM     46  C   UNL A   1      38.917  31.609  31.797  1.00  0.00     0.029 A 
ATOM     47  N   UNL A   1      40.760  30.377  32.100  1.00  0.00    -0.354 N 
ATOM     48  C   UNL A   1      41.796  27.204  29.359  1.00  0.00     0.074 A 
ATOM     49  C   UNL A   1      40.809  27.082  28.308  1.00  0.00     0.031 C 
ATOM     50  C   UNL A   1      39.527  32.057  32.909  1.00  0.00     0.029 A 
ATOM     51  C   UNL A   1      40.724  31.255  33.158  1.00  0.00     0.049 A 
ATOM     52  H   UNL A   1      41.483  29.721  31.969  1.00  0.00     0.167 HD
ATOM     53  C   UNL A   1      42.909  26.437  29.451  1.00  0.00     0.037 A 
ATOM     54  C   UNL A   1      41.555  31.381  34.212  1.00  0.00     0.037 A 
ATOM     55  C   UNL A   1      43.886  26.549  30.501  1.00  0.00     0.049 A 
ATOM     56  C   UNL A   1      42.755  30.476  34.328  1.00  0.00     0.074 A 
ATOM     57  C   UNL A   1      45.050  25.823  30.676  1.00  0.00     0.029 A 
ATOM     58  N   UNL A   1      43.806  27.439  31.561  1.00  0.00    -0.354 N 
ATOM     59  N   UNL A   1      43.156  29.528  33.513  1.00  0.00    -0.248 NA
ATOM     60  C   UNL A   1      43.616  30.658  35.507  1.00  0.00     0.031 C 
ATOM     61  C   UNL A   1      45.658  26.250  31.862  1.00  0.00     0.029 A 
ATOM     62  C   UNL A   1      44.891  27.267  32.405  1.00  0.00     0.049 A 
ATOM     63  H   UNL A   1      43.086  28.096  31.695  1.00  0.00     0.167 HD
ATOM     64  C   UNL A   1      44.327  29.020  34.068  1.00  0.00     0.074 A 
ATOM     65  C   UNL A   1      44.573  29.767  35.283  1.00  0.00     0.031 C 
ATOM     66  C   UNL A   1      45.128  28.025  33.609  1.00  0.00     0.037 A 
BRANCH  53  67
ATOM     67  C   UNL A   1      43.112  25.395  28.390  1.00  0.00     0.058 A 
ATOM     68  C   UNL A   1      42.802  24.046  28.618  1.00  0.00     0.135 A 
ATOM     69  C   UNL A   1      43.615  25.751  27.128  1.00  0.00     0.135 A 
ATOM     70  F   UNL A   1      42.336  23.652  29.815  1.00  0.00    -0.206 F 
ATOM     71  C   UNL A   1      43.010  23.077  27.641  1.00  0.00     0.059 A 
ATOM     72  C   UNL A   1      43.810  24.802  26.129  1.00  0.00     0.059 A 
ATOM     73  F   UNL A   1      43.930  27.027  26.861  1.00  0.00    -0.206 F 
ATOM     74  C   UNL A   1      43.521  23.465  26.401  1.00  0.00     0.060 A 
BRANCH  74  75
ATOM     75  S   UNL A   1      43.797  22.200  25.143  1.00  0.00     0.124 S 
ATOM     76  O   UNL A   1      42.850  21.168  25.554  1.00  0.00    -0.237 OA
ATOM     77  O   UNL A   1      43.467  22.905  23.908  1.00  0.00    -0.237 OA
ATOM     78  O   UNL A   1      45.206  21.860  25.308  1.00  0.00    -0.744 OA
ENDBRANCH  74  75
ENDBRANCH  53  67
BRANCH  54  79
ATOM     79  C   UNL A   1      41.283  32.408  35.253  1.00  0.00     0.058 A 
ATOM     80  C   UNL A   1      41.946  33.644  35.239  1.00  0.00     0.135 A 
ATOM     81  C   UNL A   1      40.362  32.170  36.285  1.00  0.00     0.135 A 
ATOM     82  F   UNL A   1      42.845  33.911  34.281  1.00  0.00    -0.206 F 
ATOM     83  C   UNL A   1      41.715  34.605  36.218  1.00  0.00     0.059 A 
ATOM     84  C   UNL A   1      40.098  33.124  37.263  1.00  0.00     0.059 A 
ATOM     85  F   UNL A   1      39.698  31.005  36.338  1.00  0.00    -0.206 F 
ATOM     86  C   UNL A   1      40.787  34.337  37.226  1.00  0.00     0.060 A 
BRANCH  86  87
ATOM     87  S   UNL A   1      40.455  35.610  38.464  1.00  0.00     0.124 S 
ATOM     88  O   UNL A   1      40.034  36.729  37.629  1.00  0.00    -0.237 OA
ATOM     89  O   UNL A   1      39.412  34.989  39.274  1.00  0.00    -0.237 OA
ATOM     90  O   UNL A   1      41.744  35.770  39.132  1.00  0.00    -0.744 OA
ENDBRANCH  86  87
ENDBRANCH  54  79
BRANCH  66  91
ATOM     91  C   UNL A   1      46.362  27.705  34.402  1.00  0.00     0.058 A 
ATOM     92  C   UNL A   1      46.349  26.749  35.430  1.00  0.00     0.135 A 
ATOM     93  C   UNL A   1      47.588  28.315  34.089  1.00  0.00     0.135 A 
ATOM     94  F   UNL A   1      45.203  26.141  35.772  1.00  0.00    -0.206 F 
ATOM     95  C   UNL A   1      47.505  26.422  36.133  1.00  0.00     0.059 A 
ATOM     96  C   UNL A   1      48.760  27.988  34.763  1.00  0.00     0.059 A 
ATOM     97  F   UNL A   1      47.656  29.228  33.107  1.00  0.00    -0.206 F 
ATOM     98  C   UNL A   1      48.707  27.047  35.791  1.00  0.00     0.060 A 
BRANCH  98  99
ATOM     99  S   UNL A   1      50.210  26.588  36.680  1.00  0.00     0.124 S 
ATOM    100  O   UNL A   1      50.390  27.734  37.565  1.00  0.00    -0.237 OA
ATOM    101  O   UNL A   1      49.823  25.340  37.332  1.00  0.00    -0.237 OA
ATOM    102  O   UNL A   1      51.204  26.450  35.620  1.00  0.00    -0.744 OA
ENDBRANCH  98  99
ENDBRANCH  66  91
ENDBRANCH  40  41
ENDBRANCH  33  35
ENDBRANCH  32  33
ENDBRANCH  31  32
ENDBRANCH  30  31
ENDBRANCH  29  30
ENDBRANCH  28  29
ENDBRANCH   1  28
TORSDOF 25
ENDMDL
