MODEL 1
REMARK VINA RESULT:      -9.8      0.000      0.000
REMARK SMILES Cc1cc(C)c(S(=O)(=O)Nc2ccc(N3CC[NH+](C)CC3)c(C(=O)OCCOCCOCCOC(=O)c3ccc(-c4c5nc(c(-c6c(F)cc(S(=O)(=O)[O-])cc6F)c6ccc([nH]6)c(-c6c(F)cc(S(=O)(=O)[O-])cc6F)c6nc(c(-c7c(F)cc(S(=O)(=O)[O-])cc7F)c7ccc4[nH]7)C=C6)C=C5)cc3)c2)c(C)c1
REMARK SMILES IDX 29 1 28 2 27 3 26 4 25 5 23 6 24 7 22 8 11 9 12 10 103 11
REMARK SMILES IDX 13 12 14 13 10 14 7 16 8 17 9 18 6 19 1 20 2 21 3 22 106 23
REMARK SMILES IDX 4 24 104 25 5 26 105 27 15 28 16 29 21 30 17 31 20 32 18 33
REMARK SMILES IDX 19 34 30 36 31 37 32 38 33 39 34 40 35 41 36 42 37 43 38 44
REMARK SMILES IDX 102 45 39 46 101 47 40 48 41 49 42 50 95 51 43 52 100 53
REMARK SMILES IDX 94 54 96 55 44 56 99 57 93 58 92 59 45 61 79 62 58 63 78 64
REMARK SMILES IDX 59 65 62 66 77 67 97 68 60 69 61 70 76 72 98 73 63 74 46 75
REMARK SMILES IDX 47 76 56 77 48 78 49 79 55 80 57 81 50 82 51 83 52 84 53 85
REMARK SMILES IDX 54 86 80 87 81 88 90 89 82 90 83 91 89 92 91 93 84 94 85 95
REMARK SMILES IDX 86 96 87 97 88 98 64 99 65 100 74 101 66 102 67 103 73 104
REMARK SMILES IDX 75 105 68 106 69 107 70 108 71 109 72 110
REMARK H PARENT 10 15 18 35 96 60 62 71
REMARK Flexibility Score: inf
ROOT
ATOM      1  C   UNL A   1      48.729  42.671  29.777  1.00  0.00     0.188 C 
ENDROOT
BRANCH   1   2
ATOM      2  O   UNL A   1      48.944  42.091  28.501  1.00  0.00    -0.376 OA
BRANCH   2   3
ATOM      3  C   UNL A   1      48.206  42.649  27.428  1.00  0.00     0.202 C 
BRANCH   3   4
ATOM      4  C   UNL A   1      47.346  41.682  26.600  1.00  0.00     0.261 C 
BRANCH   4   5
ATOM      5  O   UNL A   1      46.182  42.273  26.004  1.00  0.00    -0.460 OA
BRANCH   5   6
ATOM      6  C   UNL A   1      45.056  42.360  26.749  1.00  0.00     0.340 C 
ATOM      7  O   UNL A   1      45.017  42.476  27.964  1.00  0.00    -0.246 OA
BRANCH   6   8
ATOM      8  C   UNL A   1      43.881  42.308  25.828  1.00  0.00     0.085 A 
ATOM      9  C   UNL A   1      42.840  43.210  23.857  1.00  0.00     0.050 A 
ATOM     10  C   UNL A   1      41.905  42.173  23.875  1.00  0.00     0.029 A 
ATOM     11  C   UNL A   1      43.718  43.367  24.918  1.00  0.00     0.044 A 
ATOM     12  C   UNL A   1      41.999  41.170  24.835  1.00  0.00     0.029 A 
ATOM     13  C   UNL A   1      43.025  41.185  25.787  1.00  0.00     0.052 A 
BRANCH   9  14
ATOM     14  N   UNL A   1      42.950  43.932  22.640  1.00  0.00    -0.280 N 
ATOM     15  H   UNL A   1      43.040  44.909  22.707  1.00  0.00     0.180 HD
BRANCH  14  16
ATOM     16  S   UNL A   1      42.936  43.270  21.100  1.00  0.00     0.262 S 
ATOM     17  O   UNL A   1      41.535  43.195  20.731  1.00  0.00    -0.201 OA
ATOM     18  O   UNL A   1      43.737  42.066  21.197  1.00  0.00    -0.201 OA
BRANCH  16  19
ATOM     19  C   UNL A   1      43.744  44.317  19.864  1.00  0.00     0.093 A 
ATOM     20  C   UNL A   1      44.282  47.753  17.298  1.00  0.00     0.044 C 
ATOM     21  C   UNL A   1      44.144  46.530  18.155  1.00  0.00    -0.051 A 
ATOM     22  C   UNL A   1      43.315  45.483  17.763  1.00  0.00     0.008 A 
ATOM     23  C   UNL A   1      44.920  46.362  19.303  1.00  0.00     0.008 A 
ATOM     24  C   UNL A   1      43.121  44.364  18.592  1.00  0.00    -0.030 A 
ATOM     25  C   UNL A   1      44.767  45.240  20.151  1.00  0.00    -0.030 A 
ATOM     26  C   UNL A   1      42.367  43.204  17.993  1.00  0.00     0.046 C 
ATOM     27  C   UNL A   1      45.815  45.063  21.213  1.00  0.00     0.046 C 
ENDBRANCH  16  19
ENDBRANCH  14  16
ENDBRANCH   9  14
BRANCH  13  28
ATOM     28  N   UNL A   1      43.142  40.143  26.665  1.00  0.00    -0.360 N 
ATOM     29  C   UNL A   1      44.399  39.420  26.776  1.00  0.00     0.178 C 
ATOM     30  C   UNL A   1      42.210  39.917  27.774  1.00  0.00     0.178 C 
ATOM     31  C   UNL A   1      44.078  37.913  26.824  1.00  0.00     0.283 C 
ATOM     32  C   UNL A   1      41.990  38.389  27.964  1.00  0.00     0.283 C 
ATOM     33  N   UNL A   1      43.244  37.594  27.997  1.00  0.00    -0.334 N 
ATOM     34  C   UNL A   1      42.955  36.163  28.053  1.00  0.00     0.332 C 
ATOM     35  H   UNL A   1      43.760  37.842  28.842  1.00  0.00     0.347 HD
ENDBRANCH  13  28
ENDBRANCH   6   8
ENDBRANCH   5   6
ENDBRANCH   4   5
ENDBRANCH   3   4
ENDBRANCH   2   3
ENDBRANCH   1   2
BRANCH   1  36
ATOM     36  C   UNL A   1      48.531  41.622  30.890  1.00  0.00     0.188 C 
BRANCH  36  37
ATOM     37  O   UNL A   1      47.257  41.031  31.096  1.00  0.00    -0.376 OA
BRANCH  37  38
ATOM     38  C   UNL A   1      47.143  39.624  30.995  1.00  0.00     0.202 C 
BRANCH  38  39
ATOM     39  C   UNL A   1      47.886  38.920  29.851  1.00  0.00     0.261 C 
BRANCH  39  40
ATOM     40  O   UNL A   1      47.503  37.556  29.590  1.00  0.00    -0.460 OA
BRANCH  40  41
ATOM     41  C   UNL A   1      47.900  37.055  28.389  1.00  0.00     0.338 C 
ATOM     42  O   UNL A   1      48.508  37.649  27.516  1.00  0.00    -0.246 OA
BRANCH  41  43
ATOM     43  C   UNL A   1      47.638  35.593  28.331  1.00  0.00     0.060 A 
ATOM     44  C   UNL A   1      47.183  35.041  27.124  1.00  0.00     0.016 A 
ATOM     45  C   UNL A   1      47.778  34.780  29.456  1.00  0.00     0.016 A 
ATOM     46  C   UNL A   1      46.862  33.681  27.042  1.00  0.00     0.010 A 
ATOM     47  C   UNL A   1      47.427  33.423  29.379  1.00  0.00     0.010 A 
ATOM     48  C   UNL A   1      46.951  32.865  28.179  1.00  0.00    -0.014 A 
BRANCH  48  49
ATOM     49  C   UNL A   1      46.440  31.465  28.147  1.00  0.00     0.031 A 
ATOM     50  C   UNL A   1      47.351  30.360  27.717  1.00  0.00     0.074 A 
ATOM     51  C   UNL A   1      45.169  31.167  28.469  1.00  0.00     0.049 A 
ATOM     52  N   UNL A   1      47.080  29.093  27.545  1.00  0.00    -0.248 NA
ATOM     53  C   UNL A   1      48.739  30.734  27.419  1.00  0.00     0.031 C 
ATOM     54  C   UNL A   1      44.186  32.148  28.884  1.00  0.00     0.029 A 
ATOM     55  N   UNL A   1      44.478  29.978  28.492  1.00  0.00    -0.354 N 
ATOM     56  C   UNL A   1      48.254  28.517  27.090  1.00  0.00     0.074 A 
ATOM     57  C   UNL A   1      49.240  29.578  27.012  1.00  0.00     0.031 C 
ATOM     58  C   UNL A   1      43.025  31.534  29.154  1.00  0.00     0.029 A 
ATOM     59  C   UNL A   1      43.153  30.119  28.843  1.00  0.00     0.049 A 
ATOM     60  H   UNL A   1      44.890  29.110  28.278  1.00  0.00     0.167 HD
ATOM     61  C   UNL A   1      48.481  27.226  26.750  1.00  0.00     0.037 A 
ATOM     62  C   UNL A   1      42.135  29.233  28.866  1.00  0.00     0.037 A 
ATOM     63  C   UNL A   1      47.490  26.183  26.801  1.00  0.00     0.049 A 
ATOM     64  C   UNL A   1      42.399  27.816  28.447  1.00  0.00     0.074 A 
ATOM     65  C   UNL A   1      47.645  24.840  26.506  1.00  0.00     0.029 A 
ATOM     66  N   UNL A   1      46.155  26.363  27.142  1.00  0.00    -0.354 N 
ATOM     67  N   UNL A   1      43.528  27.275  28.057  1.00  0.00    -0.248 NA
ATOM     68  C   UNL A   1      41.256  26.892  28.446  1.00  0.00     0.031 C 
ATOM     69  C   UNL A   1      46.393  24.221  26.606  1.00  0.00     0.029 A 
ATOM     70  C   UNL A   1      45.468  25.164  27.024  1.00  0.00     0.049 A 
ATOM     71  H   UNL A   1      45.756  27.218  27.424  1.00  0.00     0.167 HD
ATOM     72  C   UNL A   1      43.234  25.950  27.760  1.00  0.00     0.074 A 
ATOM     73  C   UNL A   1      41.825  25.762  28.043  1.00  0.00     0.031 C 
ATOM     74  C   UNL A   1      44.060  24.984  27.289  1.00  0.00     0.037 A 
BRANCH  61  75
ATOM     75  C   UNL A   1      49.850  26.896  26.226  1.00  0.00     0.058 A 
ATOM     76  C   UNL A   1      50.919  26.587  27.081  1.00  0.00     0.135 A 
ATOM     77  C   UNL A   1      50.095  26.908  24.843  1.00  0.00     0.135 A 
ATOM     78  F   UNL A   1      50.743  26.584  28.412  1.00  0.00    -0.206 F 
ATOM     79  C   UNL A   1      52.196  26.346  26.586  1.00  0.00     0.059 A 
ATOM     80  C   UNL A   1      51.357  26.638  24.325  1.00  0.00     0.059 A 
ATOM     81  F   UNL A   1      49.108  27.200  23.982  1.00  0.00    -0.206 F 
ATOM     82  C   UNL A   1      52.406  26.380  25.206  1.00  0.00     0.060 A 
BRANCH  82  83
ATOM     83  S   UNL A   1      54.074  26.098  24.580  1.00  0.00     0.124 S 
ATOM     84  O   UNL A   1      53.944  26.547  23.196  1.00  0.00    -0.237 OA
ATOM     85  O   UNL A   1      54.880  26.949  25.448  1.00  0.00    -0.237 OA
ATOM     86  O   UNL A   1      54.266  24.662  24.758  1.00  0.00    -0.744 OA
ENDBRANCH  82  83
ENDBRANCH  61  75
BRANCH  62  87
ATOM     87  C   UNL A   1      40.765  29.686  29.240  1.00  0.00     0.058 A 
ATOM     88  C   UNL A   1      39.731  29.746  28.294  1.00  0.00     0.135 A 
ATOM     89  C   UNL A   1      40.453  30.032  30.566  1.00  0.00     0.135 A 
ATOM     90  F   UNL A   1      39.978  29.449  27.009  1.00  0.00    -0.206 F 
ATOM     91  C   UNL A   1      38.436  30.120  28.649  1.00  0.00     0.059 A 
ATOM     92  C   UNL A   1      39.162  30.381  30.951  1.00  0.00     0.059 A 
ATOM     93  F   UNL A   1      41.403  29.991  31.513  1.00  0.00    -0.206 F 
ATOM     94  C   UNL A   1      38.160  30.423  29.985  1.00  0.00     0.060 A 
BRANCH  94  95
ATOM     95  S   UNL A   1      36.459  30.809  30.455  1.00  0.00     0.124 S 
ATOM     96  O   UNL A   1      35.779  30.770  29.165  1.00  0.00    -0.237 OA
ATOM     97  O   UNL A   1      36.143  29.723  31.378  1.00  0.00    -0.237 OA
ATOM     98  O   UNL A   1      36.571  32.128  31.070  1.00  0.00    -0.744 OA
ENDBRANCH  94  95
ENDBRANCH  62  87
BRANCH  74  99
ATOM     99  C   UNL A   1      43.466  23.622  27.049  1.00  0.00     0.058 A 
ATOM    100  C   UNL A   1      43.154  23.172  25.756  1.00  0.00     0.135 A 
ATOM    101  C   UNL A   1      43.261  22.736  28.119  1.00  0.00     0.135 A 
ATOM    102  F   UNL A   1      43.318  23.983  24.700  1.00  0.00    -0.206 F 
ATOM    103  C   UNL A   1      42.649  21.894  25.534  1.00  0.00     0.059 A 
ATOM    104  C   UNL A   1      42.784  21.444  27.917  1.00  0.00     0.059 A 
ATOM    105  F   UNL A   1      43.547  23.115  29.374  1.00  0.00    -0.206 F 
ATOM    106  C   UNL A   1      42.473  21.036  26.621  1.00  0.00     0.060 A 
BRANCH 106 107
ATOM    107  S   UNL A   1      41.862  19.364  26.313  1.00  0.00     0.124 S 
ATOM    108  O   UNL A   1      42.515  19.040  25.049  1.00  0.00    -0.237 OA
ATOM    109  O   UNL A   1      42.345  18.636  27.483  1.00  0.00    -0.237 OA
ATOM    110  O   UNL A   1      40.414  19.539  26.245  1.00  0.00    -0.744 OA
ENDBRANCH 106 107
ENDBRANCH  74  99
ENDBRANCH  48  49
ENDBRANCH  41  43
ENDBRANCH  40  41
ENDBRANCH  39  40
ENDBRANCH  38  39
ENDBRANCH  37  38
ENDBRANCH  36  37
ENDBRANCH   1  36
TORSDOF 24
ENDMDL
MODEL 2
REMARK VINA RESULT:      -9.4     11.497     21.324
REMARK SMILES Cc1cc(C)c(S(=O)(=O)Nc2ccc(N3CC[NH+](C)CC3)c(C(=O)OCCOCCOCCOC(=O)c3ccc(-c4c5nc(c(-c6c(F)cc(S(=O)(=O)[O-])cc6F)c6ccc([nH]6)c(-c6c(F)cc(S(=O)(=O)[O-])cc6F)c6nc(c(-c7c(F)cc(S(=O)(=O)[O-])cc7F)c7ccc4[nH]7)C=C6)C=C5)cc3)c2)c(C)c1
REMARK SMILES IDX 29 1 28 2 27 3 26 4 25 5 23 6 24 7 22 8 11 9 12 10 103 11
REMARK SMILES IDX 13 12 14 13 10 14 7 16 8 17 9 18 6 19 1 20 2 21 3 22 106 23
REMARK SMILES IDX 4 24 104 25 5 26 105 27 15 28 16 29 21 30 17 31 20 32 18 33
REMARK SMILES IDX 19 34 30 36 31 37 32 38 33 39 34 40 35 41 36 42 37 43 38 44
REMARK SMILES IDX 102 45 39 46 101 47 40 48 41 49 42 50 95 51 43 52 100 53
REMARK SMILES IDX 94 54 96 55 44 56 99 57 93 58 92 59 45 61 79 62 58 63 78 64
REMARK SMILES IDX 59 65 62 66 77 67 97 68 60 69 61 70 76 72 98 73 63 74 46 75
REMARK SMILES IDX 47 76 56 77 48 78 49 79 55 80 57 81 50 82 51 83 52 84 53 85
REMARK SMILES IDX 54 86 80 87 81 88 90 89 82 90 83 91 89 92 91 93 84 94 85 95
REMARK SMILES IDX 86 96 87 97 88 98 64 99 65 100 74 101 66 102 67 103 73 104
REMARK SMILES IDX 75 105 68 106 69 107 70 108 71 109 72 110
REMARK H PARENT 10 15 18 35 96 60 62 71
REMARK Flexibility Score: inf
ROOT
ATOM      1  C   UNL A   1      47.153  20.400  38.738  1.00  0.00     0.188 C 
ENDROOT
BRANCH   1   2
ATOM      2  O   UNL A   1      47.606  19.764  39.921  1.00  0.00    -0.376 OA
BRANCH   2   3
ATOM      3  C   UNL A   1      47.144  18.442  40.137  1.00  0.00     0.202 C 
BRANCH   3   4
ATOM      4  C   UNL A   1      48.014  17.538  41.023  1.00  0.00     0.261 C 
BRANCH   4   5
ATOM      5  O   UNL A   1      48.473  18.149  42.237  1.00  0.00    -0.460 OA
BRANCH   5   6
ATOM      6  C   UNL A   1      47.565  18.407  43.207  1.00  0.00     0.340 C 
ATOM      7  O   UNL A   1      46.841  19.388  43.257  1.00  0.00    -0.246 OA
BRANCH   6   8
ATOM      8  C   UNL A   1      47.592  17.277  44.185  1.00  0.00     0.085 A 
ATOM      9  C   UNL A   1      46.846  15.049  44.692  1.00  0.00     0.050 A 
ATOM     10  C   UNL A   1      47.741  14.991  45.762  1.00  0.00     0.029 A 
ATOM     11  C   UNL A   1      46.657  16.242  44.013  1.00  0.00     0.044 A 
ATOM     12  C   UNL A   1      48.606  16.055  46.001  1.00  0.00     0.029 A 
ATOM     13  C   UNL A   1      48.591  17.188  45.180  1.00  0.00     0.052 A 
BRANCH   9  14
ATOM     14  N   UNL A   1      46.318  13.807  44.251  1.00  0.00    -0.280 N 
ATOM     15  H   UNL A   1      46.699  13.428  43.426  1.00  0.00     0.180 HD
BRANCH  14  16
ATOM     16  S   UNL A   1      45.106  12.930  45.006  1.00  0.00     0.262 S 
ATOM     17  O   UNL A   1      44.789  13.677  46.208  1.00  0.00    -0.201 OA
ATOM     18  O   UNL A   1      45.615  11.576  45.094  1.00  0.00    -0.201 OA
BRANCH  16  19
ATOM     19  C   UNL A   1      43.581  12.834  44.036  1.00  0.00     0.093 A 
ATOM     20  C   UNL A   1      41.115  12.859  40.486  1.00  0.00     0.044 C 
ATOM     21  C   UNL A   1      41.915  12.854  41.755  1.00  0.00    -0.051 A 
ATOM     22  C   UNL A   1      42.300  14.051  42.351  1.00  0.00     0.008 A 
ATOM     23  C   UNL A   1      42.198  11.662  42.425  1.00  0.00     0.008 A 
ATOM     24  C   UNL A   1      43.112  14.059  43.499  1.00  0.00    -0.030 A 
ATOM     25  C   UNL A   1      42.995  11.633  43.594  1.00  0.00    -0.030 A 
ATOM     26  C   UNL A   1      43.307  15.392  44.177  1.00  0.00     0.046 C 
ATOM     27  C   UNL A   1      43.028  10.331  44.342  1.00  0.00     0.046 C 
ENDBRANCH  16  19
ENDBRANCH  14  16
ENDBRANCH   9  14
BRANCH  13  28
ATOM     28  N   UNL A   1      49.509  18.180  45.388  1.00  0.00    -0.360 N 
ATOM     29  C   UNL A   1      49.115  19.409  46.058  1.00  0.00     0.178 C 
ATOM     30  C   UNL A   1      50.957  17.963  45.315  1.00  0.00     0.178 C 
ATOM     31  C   UNL A   1      49.731  20.590  45.283  1.00  0.00     0.283 C 
ATOM     32  C   UNL A   1      51.638  19.214  44.687  1.00  0.00     0.283 C 
ATOM     33  N   UNL A   1      51.203  20.504  45.280  1.00  0.00    -0.334 N 
ATOM     34  C   UNL A   1      51.787  21.633  44.560  1.00  0.00     0.332 C 
ATOM     35  H   UNL A   1      51.534  20.543  46.245  1.00  0.00     0.347 HD
ENDBRANCH  13  28
ENDBRANCH   6   8
ENDBRANCH   5   6
ENDBRANCH   4   5
ENDBRANCH   3   4
ENDBRANCH   2   3
ENDBRANCH   1   2
BRANCH   1  36
ATOM     36  C   UNL A   1      47.150  21.938  38.845  1.00  0.00     0.188 C 
BRANCH  36  37
ATOM     37  O   UNL A   1      48.111  22.706  38.133  1.00  0.00    -0.376 OA
BRANCH  37  38
ATOM     38  C   UNL A   1      47.729  23.979  37.648  1.00  0.00     0.202 C 
BRANCH  38  39
ATOM     39  C   UNL A   1      48.765  25.112  37.700  1.00  0.00     0.261 C 
BRANCH  39  40
ATOM     40  O   UNL A   1      48.404  26.332  37.026  1.00  0.00    -0.460 OA
BRANCH  40  41
ATOM     41  C   UNL A   1      47.654  27.204  37.753  1.00  0.00     0.338 C 
ATOM     42  O   UNL A   1      47.939  27.682  38.837  1.00  0.00    -0.246 OA
BRANCH  41  43
ATOM     43  C   UNL A   1      46.477  27.650  36.964  1.00  0.00     0.060 A 
ATOM     44  C   UNL A   1      46.574  28.840  36.229  1.00  0.00     0.016 A 
ATOM     45  C   UNL A   1      45.272  26.946  36.987  1.00  0.00     0.016 A 
ATOM     46  C   UNL A   1      45.468  29.332  35.523  1.00  0.00     0.010 A 
ATOM     47  C   UNL A   1      44.157  27.456  36.304  1.00  0.00     0.010 A 
ATOM     48  C   UNL A   1      44.240  28.660  35.580  1.00  0.00    -0.014 A 
BRANCH  48  49
ATOM     49  C   UNL A   1      43.016  29.269  34.986  1.00  0.00     0.031 A 
ATOM     50  C   UNL A   1      42.554  28.821  33.636  1.00  0.00     0.074 A 
ATOM     51  C   UNL A   1      42.326  30.236  35.618  1.00  0.00     0.049 A 
ATOM     52  N   UNL A   1      41.565  29.279  32.913  1.00  0.00    -0.248 NA
ATOM     53  C   UNL A   1      43.316  27.734  33.010  1.00  0.00     0.031 C 
ATOM     54  C   UNL A   1      42.681  30.767  36.918  1.00  0.00     0.029 A 
ATOM     55  N   UNL A   1      41.205  30.949  35.265  1.00  0.00    -0.354 N 
ATOM     56  C   UNL A   1      41.601  28.558  31.731  1.00  0.00     0.074 A 
ATOM     57  C   UNL A   1      42.712  27.632  31.836  1.00  0.00     0.031 C 
ATOM     58  C   UNL A   1      41.789  31.698  37.282  1.00  0.00     0.029 A 
ATOM     59  C   UNL A   1      40.842  31.898  36.195  1.00  0.00     0.049 A 
ATOM     60  H   UNL A   1      40.709  30.796  34.428  1.00  0.00     0.167 HD
ATOM     61  C   UNL A   1      40.793  28.674  30.651  1.00  0.00     0.037 A 
ATOM     62  C   UNL A   1      39.896  32.860  36.169  1.00  0.00     0.037 A 
ATOM     63  C   UNL A   1      39.709  29.616  30.540  1.00  0.00     0.049 A 
ATOM     64  C   UNL A   1      39.037  32.998  34.946  1.00  0.00     0.074 A 
ATOM     65  C   UNL A   1      38.818  29.777  29.494  1.00  0.00     0.029 A 
ATOM     66  N   UNL A   1      39.382  30.575  31.491  1.00  0.00    -0.354 N 
ATOM     67  N   UNL A   1      39.055  32.279  33.849  1.00  0.00    -0.248 NA
ATOM     68  C   UNL A   1      38.046  34.083  34.939  1.00  0.00     0.031 C 
ATOM     69  C   UNL A   1      37.995  30.872  29.782  1.00  0.00     0.029 A 
ATOM     70  C   UNL A   1      38.330  31.356  31.036  1.00  0.00     0.049 A 
ATOM     71  H   UNL A   1      39.833  30.684  32.359  1.00  0.00     0.167 HD
ATOM     72  C   UNL A   1      38.084  32.826  33.019  1.00  0.00     0.074 A 
ATOM     73  C   UNL A   1      37.476  33.918  33.752  1.00  0.00     0.031 C 
ATOM     74  C   UNL A   1      37.738  32.456  31.761  1.00  0.00     0.037 A 
BRANCH  61  75
ATOM     75  C   UNL A   1      41.106  27.793  29.474  1.00  0.00     0.058 A 
ATOM     76  C   UNL A   1      40.310  26.686  29.142  1.00  0.00     0.135 A 
ATOM     77  C   UNL A   1      42.234  28.056  28.681  1.00  0.00     0.135 A 
ATOM     78  F   UNL A   1      39.233  26.379  29.882  1.00  0.00    -0.206 F 
ATOM     79  C   UNL A   1      40.647  25.842  28.089  1.00  0.00     0.059 A 
ATOM     80  C   UNL A   1      42.572  27.244  27.604  1.00  0.00     0.059 A 
ATOM     81  F   UNL A   1      43.030  29.100  28.958  1.00  0.00    -0.206 F 
ATOM     82  C   UNL A   1      41.784  26.126  27.330  1.00  0.00     0.060 A 
BRANCH  82  83
ATOM     83  S   UNL A   1      42.228  25.005  25.988  1.00  0.00     0.124 S 
ATOM     84  O   UNL A   1      43.639  24.760  26.270  1.00  0.00    -0.237 OA
ATOM     85  O   UNL A   1      41.332  23.876  26.218  1.00  0.00    -0.237 OA
ATOM     86  O   UNL A   1      41.954  25.786  24.787  1.00  0.00    -0.744 OA
ENDBRANCH  82  83
ENDBRANCH  61  75
BRANCH  62  87
ATOM     87  C   UNL A   1      39.764  33.803  37.316  1.00  0.00     0.058 A 
ATOM     88  C   UNL A   1      40.553  34.959  37.408  1.00  0.00     0.135 A 
ATOM     89  C   UNL A   1      38.813  33.584  38.328  1.00  0.00     0.135 A 
ATOM     90  F   UNL A   1      41.492  35.206  36.482  1.00  0.00    -0.206 F 
ATOM     91  C   UNL A   1      40.398  35.869  38.451  1.00  0.00     0.059 A 
ATOM     92  C   UNL A   1      38.620  34.492  39.364  1.00  0.00     0.059 A 
ATOM     93  F   UNL A   1      38.030  32.495  38.290  1.00  0.00    -0.206 F 
ATOM     94  C   UNL A   1      39.418  35.633  39.418  1.00  0.00     0.060 A 
BRANCH  94  95
ATOM     95  S   UNL A   1      39.155  36.867  40.711  1.00  0.00     0.124 S 
ATOM     96  O   UNL A   1      38.268  37.812  40.041  1.00  0.00    -0.237 OA
ATOM     97  O   UNL A   1      38.553  36.071  41.776  1.00  0.00    -0.237 OA
ATOM     98  O   UNL A   1      40.502  37.353  40.990  1.00  0.00    -0.744 OA
ENDBRANCH  94  95
ENDBRANCH  62  87
BRANCH  74  99
ATOM     99  C   UNL A   1      36.642  33.236  31.087  1.00  0.00     0.058 A 
ATOM    100  C   UNL A   1      36.911  34.126  30.036  1.00  0.00     0.135 A 
ATOM    101  C   UNL A   1      35.301  33.046  31.459  1.00  0.00     0.135 A 
ATOM    102  F   UNL A   1      38.176  34.354  29.649  1.00  0.00    -0.206 F 
ATOM    103  C   UNL A   1      35.889  34.810  29.383  1.00  0.00     0.059 A 
ATOM    104  C   UNL A   1      34.261  33.698  30.802  1.00  0.00     0.059 A 
ATOM    105  F   UNL A   1      34.988  32.204  32.456  1.00  0.00    -0.206 F 
ATOM    106  C   UNL A   1      34.567  34.584  29.770  1.00  0.00     0.060 A 
BRANCH 106 107
ATOM    107  S   UNL A   1      33.247  35.442  28.884  1.00  0.00     0.124 S 
ATOM    108  O   UNL A   1      32.609  34.342  28.169  1.00  0.00    -0.237 OA
ATOM    109  O   UNL A   1      32.471  36.028  29.973  1.00  0.00    -0.237 OA
ATOM    110  O   UNL A   1      33.966  36.401  28.049  1.00  0.00    -0.744 OA
ENDBRANCH 106 107
ENDBRANCH  74  99
ENDBRANCH  48  49
ENDBRANCH  41  43
ENDBRANCH  40  41
ENDBRANCH  39  40
ENDBRANCH  38  39
ENDBRANCH  37  38
ENDBRANCH  36  37
ENDBRANCH   1  36
TORSDOF 24
ENDMDL
MODEL 3
REMARK VINA RESULT:      -9.1     11.280     21.444
REMARK SMILES Cc1cc(C)c(S(=O)(=O)Nc2ccc(N3CC[NH+](C)CC3)c(C(=O)OCCOCCOCCOC(=O)c3ccc(-c4c5nc(c(-c6c(F)cc(S(=O)(=O)[O-])cc6F)c6ccc([nH]6)c(-c6c(F)cc(S(=O)(=O)[O-])cc6F)c6nc(c(-c7c(F)cc(S(=O)(=O)[O-])cc7F)c7ccc4[nH]7)C=C6)C=C5)cc3)c2)c(C)c1
REMARK SMILES IDX 29 1 28 2 27 3 26 4 25 5 23 6 24 7 22 8 11 9 12 10 103 11
REMARK SMILES IDX 13 12 14 13 10 14 7 16 8 17 9 18 6 19 1 20 2 21 3 22 106 23
REMARK SMILES IDX 4 24 104 25 5 26 105 27 15 28 16 29 21 30 17 31 20 32 18 33
REMARK SMILES IDX 19 34 30 36 31 37 32 38 33 39 34 40 35 41 36 42 37 43 38 44
REMARK SMILES IDX 102 45 39 46 101 47 40 48 41 49 42 50 95 51 43 52 100 53
REMARK SMILES IDX 94 54 96 55 44 56 99 57 93 58 92 59 45 61 79 62 58 63 78 64
REMARK SMILES IDX 59 65 62 66 77 67 97 68 60 69 61 70 76 72 98 73 63 74 46 75
REMARK SMILES IDX 47 76 56 77 48 78 49 79 55 80 57 81 50 82 51 83 52 84 53 85
REMARK SMILES IDX 54 86 80 87 81 88 90 89 82 90 83 91 89 92 91 93 84 94 85 95
REMARK SMILES IDX 86 96 87 97 88 98 64 99 65 100 74 101 66 102 67 103 73 104
REMARK SMILES IDX 75 105 68 106 69 107 70 108 71 109 72 110
REMARK H PARENT 10 15 18 35 96 60 62 71
REMARK Flexibility Score: inf
ROOT
ATOM      1  C   UNL A   1      48.304  20.231  39.232  1.00  0.00     0.188 C 
ENDROOT
BRANCH   1   2
ATOM      2  O   UNL A   1      48.966  20.754  40.371  1.00  0.00    -0.376 OA
BRANCH   2   3
ATOM      3  C   UNL A   1      49.944  19.918  40.966  1.00  0.00     0.202 C 
BRANCH   3   4
ATOM      4  C   UNL A   1      50.461  20.331  42.352  1.00  0.00     0.261 C 
BRANCH   4   5
ATOM      5  O   UNL A   1      50.374  19.308  43.355  1.00  0.00    -0.460 OA
BRANCH   5   6
ATOM      6  C   UNL A   1      49.492  19.476  44.366  1.00  0.00     0.340 C 
ATOM      7  O   UNL A   1      49.455  20.433  45.123  1.00  0.00    -0.246 OA
BRANCH   6   8
ATOM      8  C   UNL A   1      48.566  18.303  44.379  1.00  0.00     0.085 A 
ATOM      9  C   UNL A   1      47.004  16.971  43.128  1.00  0.00     0.050 A 
ATOM     10  C   UNL A   1      47.003  16.014  44.145  1.00  0.00     0.029 A 
ATOM     11  C   UNL A   1      47.652  18.181  43.318  1.00  0.00     0.044 A 
ATOM     12  C   UNL A   1      47.834  16.175  45.249  1.00  0.00     0.029 A 
ATOM     13  C   UNL A   1      48.676  17.288  45.355  1.00  0.00     0.052 A 
BRANCH   9  14
ATOM     14  N   UNL A   1      46.486  16.551  41.875  1.00  0.00    -0.280 N 
ATOM     15  H   UNL A   1      46.972  15.835  41.407  1.00  0.00     0.180 HD
BRANCH  14  16
ATOM     16  S   UNL A   1      45.121  17.166  41.120  1.00  0.00     0.262 S 
ATOM     17  O   UNL A   1      45.435  17.160  39.704  1.00  0.00    -0.201 OA
ATOM     18  O   UNL A   1      44.836  18.411  41.805  1.00  0.00    -0.201 OA
BRANCH  16  19
ATOM     19  C   UNL A   1      43.655  16.126  41.332  1.00  0.00     0.093 A 
ATOM     20  C   UNL A   1      41.294  12.507  41.219  1.00  0.00     0.044 C 
ATOM     21  C   UNL A   1      42.058  13.797  41.269  1.00  0.00    -0.051 A 
ATOM     22  C   UNL A   1      42.219  14.567  40.121  1.00  0.00     0.008 A 
ATOM     23  C   UNL A   1      42.528  14.311  42.479  1.00  0.00     0.008 A 
ATOM     24  C   UNL A   1      42.994  15.740  40.139  1.00  0.00    -0.030 A 
ATOM     25  C   UNL A   1      43.294  15.499  42.539  1.00  0.00    -0.030 A 
ATOM     26  C   UNL A   1      42.943  16.601  38.902  1.00  0.00     0.046 C 
ATOM     27  C   UNL A   1      43.535  16.064  43.910  1.00  0.00     0.046 C 
ENDBRANCH  16  19
ENDBRANCH  14  16
ENDBRANCH   9  14
BRANCH  13  28
ATOM     28  N   UNL A   1      49.542  17.377  46.410  1.00  0.00    -0.360 N 
ATOM     29  C   UNL A   1      49.101  17.957  47.669  1.00  0.00     0.178 C 
ATOM     30  C   UNL A   1      50.783  16.601  46.499  1.00  0.00     0.178 C 
ATOM     31  C   UNL A   1      50.212  18.900  48.171  1.00  0.00     0.283 C 
ATOM     32  C   UNL A   1      51.891  17.469  47.160  1.00  0.00     0.283 C 
ATOM     33  N   UNL A   1      51.464  18.155  48.406  1.00  0.00    -0.334 N 
ATOM     34  C   UNL A   1      52.511  19.045  48.899  1.00  0.00     0.332 C 
ATOM     35  H   UNL A   1      51.292  17.447  49.121  1.00  0.00     0.347 HD
ENDBRANCH  13  28
ENDBRANCH   6   8
ENDBRANCH   5   6
ENDBRANCH   4   5
ENDBRANCH   3   4
ENDBRANCH   2   3
ENDBRANCH   1   2
BRANCH   1  36
ATOM     36  C   UNL A   1      46.852  20.731  39.098  1.00  0.00     0.188 C 
BRANCH  36  37
ATOM     37  O   UNL A   1      46.226  20.776  37.823  1.00  0.00    -0.376 OA
BRANCH  37  38
ATOM     38  C   UNL A   1      46.056  22.036  37.201  1.00  0.00     0.202 C 
BRANCH  38  39
ATOM     39  C   UNL A   1      46.572  23.281  37.939  1.00  0.00     0.261 C 
BRANCH  39  40
ATOM     40  O   UNL A   1      46.572  24.508  37.185  1.00  0.00    -0.460 OA
BRANCH  40  41
ATOM     41  C   UNL A   1      46.507  25.649  37.923  1.00  0.00     0.338 C 
ATOM     42  O   UNL A   1      47.186  25.928  38.897  1.00  0.00    -0.246 OA
BRANCH  41  43
ATOM     43  C   UNL A   1      45.587  26.624  37.282  1.00  0.00     0.060 A 
ATOM     44  C   UNL A   1      44.205  26.452  37.450  1.00  0.00     0.016 A 
ATOM     45  C   UNL A   1      46.064  27.660  36.478  1.00  0.00     0.016 A 
ATOM     46  C   UNL A   1      43.300  27.309  36.810  1.00  0.00     0.010 A 
ATOM     47  C   UNL A   1      45.155  28.498  35.814  1.00  0.00     0.010 A 
ATOM     48  C   UNL A   1      43.767  28.320  35.960  1.00  0.00    -0.014 A 
BRANCH  48  49
ATOM     49  C   UNL A   1      42.813  29.116  35.136  1.00  0.00     0.031 A 
ATOM     50  C   UNL A   1      42.230  30.375  35.696  1.00  0.00     0.074 A 
ATOM     51  C   UNL A   1      42.436  28.720  33.907  1.00  0.00     0.049 A 
ATOM     52  N   UNL A   1      41.328  31.163  35.175  1.00  0.00    -0.248 NA
ATOM     53  C   UNL A   1      42.709  30.784  37.022  1.00  0.00     0.031 C 
ATOM     54  C   UNL A   1      42.915  27.513  33.262  1.00  0.00     0.029 A 
ATOM     55  N   UNL A   1      41.571  29.264  32.988  1.00  0.00    -0.354 N 
ATOM     56  C   UNL A   1      41.103  32.151  36.120  1.00  0.00     0.074 A 
ATOM     57  C   UNL A   1      41.967  31.858  37.248  1.00  0.00     0.031 C 
ATOM     58  C   UNL A   1      42.371  27.412  32.041  1.00  0.00     0.029 A 
ATOM     59  C   UNL A   1      41.430  28.504  31.848  1.00  0.00     0.049 A 
ATOM     60  H   UNL A   1      41.097  30.115  33.131  1.00  0.00     0.167 HD
ATOM     61  C   UNL A   1      40.241  33.193  36.059  1.00  0.00     0.037 A 
ATOM     62  C   UNL A   1      40.605  28.627  30.787  1.00  0.00     0.037 A 
ATOM     63  C   UNL A   1      39.364  33.462  34.949  1.00  0.00     0.049 A 
ATOM     64  C   UNL A   1      39.628  29.767  30.757  1.00  0.00     0.074 A 
ATOM     65  C   UNL A   1      38.482  34.517  34.791  1.00  0.00     0.029 A 
ATOM     66  N   UNL A   1      39.233  32.662  33.821  1.00  0.00    -0.354 N 
ATOM     67  N   UNL A   1      39.457  30.719  31.642  1.00  0.00    -0.248 NA
ATOM     68  C   UNL A   1      38.720  29.843  29.605  1.00  0.00     0.031 C 
ATOM     69  C   UNL A   1      37.773  34.321  33.600  1.00  0.00     0.029 A 
ATOM     70  C   UNL A   1      38.255  33.178  32.983  1.00  0.00     0.049 A 
ATOM     71  H   UNL A   1      39.756  31.847  33.644  1.00  0.00     0.167 HD
ATOM     72  C   UNL A   1      38.418  31.506  31.159  1.00  0.00     0.074 A 
ATOM     73  C   UNL A   1      38.020  30.936  29.888  1.00  0.00     0.031 C 
ATOM     74  C   UNL A   1      37.847  32.597  31.726  1.00  0.00     0.037 A 
BRANCH  61  75
ATOM     75  C   UNL A   1      40.165  34.079  37.270  1.00  0.00     0.058 A 
ATOM     76  C   UNL A   1      39.228  33.864  38.292  1.00  0.00     0.135 A 
ATOM     77  C   UNL A   1      41.036  35.174  37.395  1.00  0.00     0.135 A 
ATOM     78  F   UNL A   1      38.359  32.843  38.210  1.00  0.00    -0.206 F 
ATOM     79  C   UNL A   1      39.126  34.729  39.376  1.00  0.00     0.059 A 
ATOM     80  C   UNL A   1      40.972  36.034  38.486  1.00  0.00     0.059 A 
ATOM     81  F   UNL A   1      41.948  35.427  36.444  1.00  0.00    -0.206 F 
ATOM     82  C   UNL A   1      39.999  35.815  39.459  1.00  0.00     0.060 A 
BRANCH  82  83
ATOM     83  S   UNL A   1      39.834  36.949  40.854  1.00  0.00     0.124 S 
ATOM     84  O   UNL A   1      38.559  37.594  40.552  1.00  0.00    -0.237 OA
ATOM     85  O   UNL A   1      39.828  36.039  41.995  1.00  0.00    -0.237 OA
ATOM     86  O   UNL A   1      41.012  37.803  40.740  1.00  0.00    -0.744 OA
ENDBRANCH  82  83
ENDBRANCH  61  75
BRANCH  62  87
ATOM     87  C   UNL A   1      40.630  27.603  29.703  1.00  0.00     0.058 A 
ATOM     88  C   UNL A   1      41.635  27.599  28.725  1.00  0.00     0.135 A 
ATOM     89  C   UNL A   1      39.666  26.582  29.648  1.00  0.00     0.135 A 
ATOM     90  F   UNL A   1      42.568  28.563  28.716  1.00  0.00    -0.206 F 
ATOM     91  C   UNL A   1      41.691  26.615  27.740  1.00  0.00     0.059 A 
ATOM     92  C   UNL A   1      39.717  25.573  28.692  1.00  0.00     0.059 A 
ATOM     93  F   UNL A   1      38.682  26.537  30.561  1.00  0.00    -0.206 F 
ATOM     94  C   UNL A   1      40.734  25.598  27.741  1.00  0.00     0.060 A 
BRANCH  94  95
ATOM     95  S   UNL A   1      40.872  24.270  26.523  1.00  0.00     0.124 S 
ATOM     96  O   UNL A   1      41.882  24.805  25.617  1.00  0.00    -0.237 OA
ATOM     97  O   UNL A   1      41.288  23.140  27.348  1.00  0.00    -0.237 OA
ATOM     98  O   UNL A   1      39.522  24.173  25.978  1.00  0.00    -0.744 OA
ENDBRANCH  94  95
ENDBRANCH  62  87
BRANCH  74  99
ATOM     99  C   UNL A   1      36.724  33.259  30.975  1.00  0.00     0.058 A 
ATOM    100  C   UNL A   1      35.397  33.194  31.427  1.00  0.00     0.135 A 
ATOM    101  C   UNL A   1      36.987  34.016  29.821  1.00  0.00     0.135 A 
ATOM    102  F   UNL A   1      35.087  32.474  32.516  1.00  0.00    -0.206 F 
ATOM    103  C   UNL A   1      34.367  33.847  30.755  1.00  0.00     0.059 A 
ATOM    104  C   UNL A   1      35.979  34.701  29.150  1.00  0.00     0.059 A 
ATOM    105  F   UNL A   1      38.239  34.114  29.349  1.00  0.00    -0.206 F 
ATOM    106  C   UNL A   1      34.670  34.604  29.621  1.00  0.00     0.060 A 
BRANCH 106 107
ATOM    107  S   UNL A   1      33.332  35.485  28.786  1.00  0.00     0.124 S 
ATOM    108  O   UNL A   1      32.490  34.382  28.334  1.00  0.00    -0.237 OA
ATOM    109  O   UNL A   1      32.781  36.305  29.861  1.00  0.00    -0.237 OA
ATOM    110  O   UNL A   1      34.019  36.224  27.731  1.00  0.00    -0.744 OA
ENDBRANCH 106 107
ENDBRANCH  74  99
ENDBRANCH  48  49
ENDBRANCH  41  43
ENDBRANCH  40  41
ENDBRANCH  39  40
ENDBRANCH  38  39
ENDBRANCH  37  38
ENDBRANCH  36  37
ENDBRANCH   1  36
TORSDOF 24
ENDMDL
