MODEL 1
REMARK VINA RESULT:     -12.4      0.000      0.000
REMARK SMILES O=C(OCCOCCOCCOC(=O)c1ccc(-c2c3nc(c(-c4c(F)cc(S(=O)(=O)[O-])cc4F)c4ccc([nH]4)c(-c4c(F)cc(S(=O)(=O)[O-])cc4F)c4nc(c(-c5c(F)cc(S(=O)(=O)[O-])cc5F)c5ccc2[nH]5)C=C4)C=C3)cc1)C1=Cc2cc(Cl)cc(Cl)c2O[C@@H]1C(F)(F)F
REMARK SMILES IDX 8 1 7 2 6 3 5 4 4 5 3 6 2 7 1 8 81 9 82 10 92 11 83 12 91 13
REMARK SMILES IDX 84 14 90 15 85 16 88 17 86 18 87 19 89 20 93 21 94 22 95 23
REMARK SMILES IDX 96 24 9 25 10 26 11 27 12 28 13 29 14 30 15 31 16 32 80 33
REMARK SMILES IDX 17 34 79 35 18 36 19 37 20 38 73 39 21 40 78 41 72 42 74 43
REMARK SMILES IDX 22 44 77 45 71 46 70 47 23 49 57 50 36 51 56 52 37 53 40 54
REMARK SMILES IDX 55 55 75 56 38 57 39 58 54 60 76 61 41 62 24 63 25 64 34 65
REMARK SMILES IDX 26 66 27 67 33 68 35 69 28 70 29 71 30 72 31 73 32 74 58 75
REMARK SMILES IDX 59 76 68 77 60 78 61 79 67 80 69 81 62 82 63 83 64 84 65 85
REMARK SMILES IDX 66 86 42 87 43 88 52 89 44 90 45 91 51 92 53 93 46 94 47 95
REMARK SMILES IDX 48 96 49 97 50 98
REMARK H PARENT 74 48 40 59
REMARK Flexibility Score: inf
ROOT
ATOM      1  C   UNL A   1      37.128  21.056  25.401  1.00  0.00     0.188 C 
ENDROOT
BRANCH   1   2
ATOM      2  C   UNL A   1      35.616  21.157  25.651  1.00  0.00     0.188 C 
BRANCH   2   3
ATOM      3  O   UNL A   1      34.595  20.672  24.686  1.00  0.00    -0.376 OA
BRANCH   3   4
ATOM      4  C   UNL A   1      32.903  20.502  24.905  1.00  0.00     0.202 C 
BRANCH   4   5
ATOM      5  C   UNL A   1      31.614  21.918  25.937  1.00  0.00     0.261 C 
BRANCH   5   6
ATOM      6  O   UNL A   1      30.672  22.924  25.288  1.00  0.00    -0.460 OA
BRANCH   6   7
ATOM      7  C   UNL A   1      30.734  24.125  25.880  1.00  0.00     0.338 C 
ATOM      8  O   UNL A   1      30.012  24.574  26.733  1.00  0.00    -0.246 OA
BRANCH   7   9
ATOM      9  C   UNL A   1      31.532  24.770  24.852  1.00  0.00     0.087 C 
ATOM     10  C   UNL A   1      30.778  25.489  23.825  1.00  0.00     0.027 C 
ATOM     11  C   UNL A   1      32.726  25.587  26.116  1.00  0.00     0.316 C 
ATOM     12  C   UNL A   1      30.613  27.282  23.772  1.00  0.00     0.020 A 
ATOM     13  O   UNL A   1      32.437  27.515  26.190  1.00  0.00    -0.474 OA
ATOM     14  C   UNL A   1      29.781  27.845  22.844  1.00  0.00     0.032 A 
ATOM     15  C   UNL A   1      31.350  28.312  24.951  1.00  0.00     0.146 A 
ATOM     16  C   UNL A   1      29.646  29.243  22.936  1.00  0.00     0.043 A 
ATOM     17  C   UNL A   1      31.135  29.664  24.972  1.00  0.00     0.085 A 
ATOM     18  Cl  UNL A   1      28.597  29.999  21.776  1.00  0.00    -0.084 Cl
ATOM     19  C   UNL A   1      30.282  30.099  23.928  1.00  0.00     0.045 A 
ATOM     20  Cl  UNL A   1      31.718  30.753  26.137  1.00  0.00    -0.080 Cl
BRANCH  11  21
ATOM     21  C   UNL A   1      34.022  24.646  25.620  1.00  0.00     0.430 C 
ATOM     22  F   UNL A   1      33.977  23.924  24.504  1.00  0.00    -0.167 F 
ATOM     23  F   UNL A   1      35.104  25.460  25.493  1.00  0.00    -0.167 F 
ATOM     24  F   UNL A   1      34.382  23.737  26.578  1.00  0.00    -0.167 F 
ENDBRANCH  11  21
ENDBRANCH   7   9
ENDBRANCH   6   7
ENDBRANCH   5   6
ENDBRANCH   4   5
ENDBRANCH   3   4
ENDBRANCH   2   3
ENDBRANCH   1   2
BRANCH   1  25
ATOM     25  O   UNL A   1      37.958  22.147  25.700  1.00  0.00    -0.376 OA
BRANCH  25  26
ATOM     26  C   UNL A   1      39.284  21.829  26.097  1.00  0.00     0.202 C 
BRANCH  26  27
ATOM     27  C   UNL A   1      40.163  22.965  26.639  1.00  0.00     0.261 C 
BRANCH  27  28
ATOM     28  O   UNL A   1      39.576  24.275  26.495  1.00  0.00    -0.460 OA
BRANCH  28  29
ATOM     29  C   UNL A   1      40.433  25.316  26.352  1.00  0.00     0.338 C 
ATOM     30  O   UNL A   1      40.976  25.689  25.326  1.00  0.00    -0.246 OA
BRANCH  29  31
ATOM     31  C   UNL A   1      40.519  26.060  27.624  1.00  0.00     0.060 A 
ATOM     32  C   UNL A   1      39.478  25.953  28.559  1.00  0.00     0.016 A 
ATOM     33  C   UNL A   1      41.597  26.915  27.858  1.00  0.00     0.016 A 
ATOM     34  C   UNL A   1      39.517  26.698  29.738  1.00  0.00     0.010 A 
ATOM     35  C   UNL A   1      41.611  27.697  29.015  1.00  0.00     0.010 A 
ATOM     36  C   UNL A   1      40.556  27.614  29.943  1.00  0.00    -0.014 A 
BRANCH  36  37
ATOM     37  C   UNL A   1      40.387  28.692  30.946  1.00  0.00     0.031 A 
ATOM     38  C   UNL A   1      41.267  28.638  32.166  1.00  0.00     0.074 A 
ATOM     39  C   UNL A   1      39.489  29.680  30.794  1.00  0.00     0.049 A 
ATOM     40  N   UNL A   1      41.305  29.428  33.205  1.00  0.00    -0.248 NA
ATOM     41  C   UNL A   1      42.234  27.527  32.217  1.00  0.00     0.031 C 
ATOM     42  C   UNL A   1      38.611  29.858  29.640  1.00  0.00     0.029 A 
ATOM     43  N   UNL A   1      39.166  30.721  31.629  1.00  0.00    -0.354 N 
ATOM     44  C   UNL A   1      42.292  28.907  34.034  1.00  0.00     0.074 A 
ATOM     45  C   UNL A   1      42.799  27.713  33.397  1.00  0.00     0.031 C 
ATOM     46  C   UNL A   1      37.840  30.942  29.844  1.00  0.00     0.029 A 
ATOM     47  C   UNL A   1      38.149  31.515  31.155  1.00  0.00     0.049 A 
ATOM     48  H   UNL A   1      39.619  30.883  32.488  1.00  0.00     0.167 HD
ATOM     49  C   UNL A   1      42.741  29.385  35.217  1.00  0.00     0.037 A 
ATOM     50  C   UNL A   1      37.535  32.573  31.725  1.00  0.00     0.037 A 
ATOM     51  C   UNL A   1      42.204  30.556  35.858  1.00  0.00     0.049 A 
ATOM     52  C   UNL A   1      37.994  33.043  33.084  1.00  0.00     0.074 A 
ATOM     53  C   UNL A   1      42.586  31.135  37.054  1.00  0.00     0.029 A 
ATOM     54  N   UNL A   1      41.150  31.313  35.364  1.00  0.00    -0.354 N 
ATOM     55  N   UNL A   1      38.951  32.567  33.848  1.00  0.00    -0.248 NA
ATOM     56  C   UNL A   1      37.294  34.200  33.659  1.00  0.00     0.031 C 
ATOM     57  C   UNL A   1      41.713  32.195  37.321  1.00  0.00     0.029 A 
ATOM     58  C   UNL A   1      40.845  32.334  36.249  1.00  0.00     0.049 A 
ATOM     59  H   UNL A   1      40.687  31.149  34.511  1.00  0.00     0.167 HD
ATOM     60  C   UNL A   1      38.997  33.392  34.968  1.00  0.00     0.074 A 
ATOM     61  C   UNL A   1      37.970  34.397  34.783  1.00  0.00     0.031 C 
ATOM     62  C   UNL A   1      39.820  33.332  36.047  1.00  0.00     0.037 A 
BRANCH  49  63
ATOM     63  C   UNL A   1      43.825  28.601  35.910  1.00  0.00     0.058 A 
ATOM     64  C   UNL A   1      43.538  27.510  36.750  1.00  0.00     0.135 A 
ATOM     65  C   UNL A   1      45.173  28.961  35.751  1.00  0.00     0.135 A 
ATOM     66  F   UNL A   1      42.266  27.131  36.959  1.00  0.00    -0.206 F 
ATOM     67  C   UNL A   1      44.541  26.841  37.443  1.00  0.00     0.059 A 
ATOM     68  C   UNL A   1      46.196  28.279  36.403  1.00  0.00     0.059 A 
ATOM     69  F   UNL A   1      45.509  29.995  34.964  1.00  0.00    -0.206 F 
ATOM     70  C   UNL A   1      45.868  27.235  37.265  1.00  0.00     0.060 A 
BRANCH  70  71
ATOM     71  S   UNL A   1      47.155  26.371  38.187  1.00  0.00     0.124 S 
ATOM     72  O   UNL A   1      46.717  24.983  38.070  1.00  0.00    -0.237 OA
ATOM     73  O   UNL A   1      48.360  26.720  37.441  1.00  0.00    -0.237 OA
ATOM     74  O   UNL A   1      47.060  26.945  39.525  1.00  0.00    -0.744 OA
ENDBRANCH  70  71
ENDBRANCH  49  63
BRANCH  50  75
ATOM     75  C   UNL A   1      36.435  33.272  31.004  1.00  0.00     0.058 A 
ATOM     76  C   UNL A   1      35.110  33.203  31.462  1.00  0.00     0.135 A 
ATOM     77  C   UNL A   1      36.684  34.034  29.852  1.00  0.00     0.135 A 
ATOM     78  F   UNL A   1      34.813  32.471  32.547  1.00  0.00    -0.206 F 
ATOM     79  C   UNL A   1      34.074  33.862  30.807  1.00  0.00     0.059 A 
ATOM     80  C   UNL A   1      35.669  34.725  29.196  1.00  0.00     0.059 A 
ATOM     81  F   UNL A   1      37.932  34.135  29.369  1.00  0.00    -0.206 F 
ATOM     82  C   UNL A   1      34.366  34.632  29.680  1.00  0.00     0.060 A 
BRANCH  82  83
ATOM     83  S   UNL A   1      33.025  35.546  28.886  1.00  0.00     0.124 S 
ATOM     84  O   UNL A   1      32.223  35.953  30.035  1.00  0.00    -0.237 OA
ATOM     85  O   UNL A   1      33.747  36.611  28.201  1.00  0.00    -0.237 OA
ATOM     86  O   UNL A   1      32.410  34.550  28.012  1.00  0.00    -0.744 OA
ENDBRANCH  82  83
ENDBRANCH  50  75
BRANCH  62  87
ATOM     87  C   UNL A   1      39.694  34.415  37.088  1.00  0.00     0.058 A 
ATOM     88  C   UNL A   1      38.898  34.268  38.234  1.00  0.00     0.135 A 
ATOM     89  C   UNL A   1      40.436  35.603  36.958  1.00  0.00     0.135 A 
ATOM     90  F   UNL A   1      38.167  33.156  38.413  1.00  0.00    -0.206 F 
ATOM     91  C   UNL A   1      38.814  35.272  39.195  1.00  0.00     0.059 A 
ATOM     92  C   UNL A   1      40.398  36.602  37.925  1.00  0.00     0.059 A 
ATOM     93  F   UNL A   1      41.228  35.794  35.890  1.00  0.00    -0.206 F 
ATOM     94  C   UNL A   1      39.572  36.434  39.033  1.00  0.00     0.060 A 
BRANCH  94  95
ATOM     95  S   UNL A   1      39.472  37.716  40.300  1.00  0.00     0.124 S 
ATOM     96  O   UNL A   1      40.825  38.263  40.272  1.00  0.00    -0.237 OA
ATOM     97  O   UNL A   1      38.424  38.587  39.779  1.00  0.00    -0.237 OA
ATOM     98  O   UNL A   1      39.121  36.975  41.509  1.00  0.00    -0.744 OA
ENDBRANCH  94  95
ENDBRANCH  62  87
ENDBRANCH  36  37
ENDBRANCH  29  31
ENDBRANCH  28  29
ENDBRANCH  27  28
ENDBRANCH  26  27
ENDBRANCH  25  26
ENDBRANCH   1  25
TORSDOF 21
ENDMDL
MODEL 2
REMARK VINA RESULT:     -11.4      6.506     12.288
REMARK SMILES O=C(OCCOCCOCCOC(=O)c1ccc(-c2c3nc(c(-c4c(F)cc(S(=O)(=O)[O-])cc4F)c4ccc([nH]4)c(-c4c(F)cc(S(=O)(=O)[O-])cc4F)c4nc(c(-c5c(F)cc(S(=O)(=O)[O-])cc5F)c5ccc2[nH]5)C=C4)C=C3)cc1)C1=Cc2cc(Cl)cc(Cl)c2O[C@@H]1C(F)(F)F
REMARK SMILES IDX 8 1 7 2 6 3 5 4 4 5 3 6 2 7 1 8 81 9 82 10 92 11 83 12 91 13
REMARK SMILES IDX 84 14 90 15 85 16 88 17 86 18 87 19 89 20 93 21 94 22 95 23
REMARK SMILES IDX 96 24 9 25 10 26 11 27 12 28 13 29 14 30 15 31 16 32 80 33
REMARK SMILES IDX 17 34 79 35 18 36 19 37 20 38 73 39 21 40 78 41 72 42 74 43
REMARK SMILES IDX 22 44 77 45 71 46 70 47 23 49 57 50 36 51 56 52 37 53 40 54
REMARK SMILES IDX 55 55 75 56 38 57 39 58 54 60 76 61 41 62 24 63 25 64 34 65
REMARK SMILES IDX 26 66 27 67 33 68 35 69 28 70 29 71 30 72 31 73 32 74 58 75
REMARK SMILES IDX 59 76 68 77 60 78 61 79 67 80 69 81 62 82 63 83 64 84 65 85
REMARK SMILES IDX 66 86 42 87 43 88 52 89 44 90 45 91 51 92 53 93 46 94 47 95
REMARK SMILES IDX 48 96 49 97 50 98
REMARK H PARENT 74 48 40 59
REMARK Flexibility Score: inf
ROOT
ATOM      1  C   UNL A   1      33.795  35.675  31.728  1.00  0.00     0.188 C 
ENDROOT
BRANCH   1   2
ATOM      2  C   UNL A   1      33.573  34.507  30.755  1.00  0.00     0.188 C 
BRANCH   2   3
ATOM      3  O   UNL A   1      32.714  34.605  29.545  1.00  0.00    -0.376 OA
BRANCH   3   4
ATOM      4  C   UNL A   1      33.031  34.047  27.955  1.00  0.00     0.202 C 
BRANCH   4   5
ATOM      5  C   UNL A   1      31.860  32.561  26.881  1.00  0.00     0.261 C 
BRANCH   5   6
ATOM      6  O   UNL A   1      31.630  31.115  27.301  1.00  0.00    -0.460 OA
BRANCH   6   7
ATOM      7  C   UNL A   1      31.840  30.259  26.291  1.00  0.00     0.338 C 
ATOM      8  O   UNL A   1      31.273  30.203  25.229  1.00  0.00    -0.246 OA
BRANCH   7   9
ATOM      9  C   UNL A   1      32.517  29.243  27.078  1.00  0.00     0.087 C 
ATOM     10  C   UNL A   1      31.732  28.045  27.373  1.00  0.00     0.027 C 
ATOM     11  C   UNL A   1      34.103  29.282  25.994  1.00  0.00     0.316 C 
ATOM     12  C   UNL A   1      31.949  26.470  26.526  1.00  0.00     0.020 A 
ATOM     13  O   UNL A   1      34.259  27.647  24.942  1.00  0.00    -0.474 OA
ATOM     14  C   UNL A   1      31.078  25.449  26.789  1.00  0.00     0.032 A 
ATOM     15  C   UNL A   1      33.127  26.247  25.278  1.00  0.00     0.146 A 
ATOM     16  C   UNL A   1      31.269  24.289  26.016  1.00  0.00     0.043 A 
ATOM     17  C   UNL A   1      33.218  25.083  24.562  1.00  0.00     0.085 A 
ATOM     18  Cl  UNL A   1      30.182  22.968  26.317  1.00  0.00    -0.084 Cl
ATOM     19  C   UNL A   1      32.274  24.112  24.976  1.00  0.00     0.045 A 
ATOM     20  Cl  UNL A   1      34.258  24.791  23.254  1.00  0.00    -0.080 Cl
BRANCH  11  21
ATOM     21  C   UNL A   1      35.028  29.935  27.231  1.00  0.00     0.430 C 
ATOM     22  F   UNL A   1      35.006  29.433  28.463  1.00  0.00    -0.167 F 
ATOM     23  F   UNL A   1      36.330  29.904  26.839  1.00  0.00    -0.167 F 
ATOM     24  F   UNL A   1      34.755  31.263  27.419  1.00  0.00    -0.167 F 
ENDBRANCH  11  21
ENDBRANCH   7   9
ENDBRANCH   6   7
ENDBRANCH   5   6
ENDBRANCH   4   5
ENDBRANCH   3   4
ENDBRANCH   2   3
ENDBRANCH   1   2
BRANCH   1  25
ATOM     25  O   UNL A   1      34.994  35.761  32.450  1.00  0.00    -0.376 OA
BRANCH  25  26
ATOM     26  C   UNL A   1      35.561  34.526  32.862  1.00  0.00     0.202 C 
BRANCH  26  27
ATOM     27  C   UNL A   1      36.920  34.126  32.271  1.00  0.00     0.261 C 
BRANCH  27  28
ATOM     28  O   UNL A   1      37.014  32.731  31.918  1.00  0.00    -0.460 OA
BRANCH  28  29
ATOM     29  C   UNL A   1      36.970  32.428  30.597  1.00  0.00     0.338 C 
ATOM     30  O   UNL A   1      36.239  32.917  29.753  1.00  0.00    -0.246 OA
BRANCH  29  31
ATOM     31  C   UNL A   1      38.063  31.491  30.270  1.00  0.00     0.060 A 
ATOM     32  C   UNL A   1      39.070  31.247  31.216  1.00  0.00     0.016 A 
ATOM     33  C   UNL A   1      38.125  30.910  29.003  1.00  0.00     0.016 A 
ATOM     34  C   UNL A   1      40.141  30.412  30.899  1.00  0.00     0.010 A 
ATOM     35  C   UNL A   1      39.222  30.113  28.669  1.00  0.00     0.010 A 
ATOM     36  C   UNL A   1      40.249  29.888  29.605  1.00  0.00    -0.014 A 
BRANCH  36  37
ATOM     37  C   UNL A   1      41.558  29.377  29.134  1.00  0.00     0.031 A 
ATOM     38  C   UNL A   1      42.693  30.363  29.065  1.00  0.00     0.074 A 
ATOM     39  C   UNL A   1      41.743  28.095  28.777  1.00  0.00     0.049 A 
ATOM     40  N   UNL A   1      43.924  30.194  28.661  1.00  0.00    -0.248 NA
ATOM     41  C   UNL A   1      42.386  31.735  29.506  1.00  0.00     0.031 C 
ATOM     42  C   UNL A   1      40.732  27.043  28.838  1.00  0.00     0.029 A 
ATOM     43  N   UNL A   1      42.857  27.465  28.279  1.00  0.00    -0.354 N 
ATOM     44  C   UNL A   1      44.534  31.436  28.794  1.00  0.00     0.074 A 
ATOM     45  C   UNL A   1      43.530  32.357  29.276  1.00  0.00     0.031 C 
ATOM     46  C   UNL A   1      41.271  25.895  28.387  1.00  0.00     0.029 A 
ATOM     47  C   UNL A   1      42.654  26.140  27.976  1.00  0.00     0.049 A 
ATOM     48  H   UNL A   1      43.721  27.920  28.151  1.00  0.00     0.167 HD
ATOM     49  C   UNL A   1      45.819  31.778  28.544  1.00  0.00     0.037 A 
ATOM     50  C   UNL A   1      43.489  25.238  27.420  1.00  0.00     0.037 A 
ATOM     51  C   UNL A   1      46.801  30.860  28.030  1.00  0.00     0.049 A 
ATOM     52  C   UNL A   1      44.896  25.659  27.070  1.00  0.00     0.074 A 
ATOM     53  C   UNL A   1      48.133  31.095  27.746  1.00  0.00     0.029 A 
ATOM     54  N   UNL A   1      46.547  29.534  27.702  1.00  0.00    -0.354 N 
ATOM     55  N   UNL A   1      45.477  26.826  27.230  1.00  0.00    -0.248 NA
ATOM     56  C   UNL A   1      45.765  24.638  26.468  1.00  0.00     0.031 C 
ATOM     57  C   UNL A   1      48.666  29.935  27.174  1.00  0.00     0.029 A 
ATOM     58  C   UNL A   1      47.691  28.949  27.185  1.00  0.00     0.049 A 
ATOM     59  H   UNL A   1      45.683  29.079  27.820  1.00  0.00     0.167 HD
ATOM     60  C   UNL A   1      46.789  26.666  26.793  1.00  0.00     0.074 A 
ATOM     61  C   UNL A   1      46.916  25.289  26.360  1.00  0.00     0.031 C 
ATOM     62  C   UNL A   1      47.802  27.572  26.762  1.00  0.00     0.037 A 
BRANCH  49  63
ATOM     63  C   UNL A   1      46.205  33.216  28.769  1.00  0.00     0.058 A 
ATOM     64  C   UNL A   1      46.028  34.202  27.782  1.00  0.00     0.135 A 
ATOM     65  C   UNL A   1      46.786  33.612  29.985  1.00  0.00     0.135 A 
ATOM     66  F   UNL A   1      45.497  33.880  26.591  1.00  0.00    -0.206 F 
ATOM     67  C   UNL A   1      46.457  35.511  27.974  1.00  0.00     0.059 A 
ATOM     68  C   UNL A   1      47.186  34.925  30.214  1.00  0.00     0.059 A 
ATOM     69  F   UNL A   1      46.985  32.716  30.964  1.00  0.00    -0.206 F 
ATOM     70  C   UNL A   1      47.038  35.862  29.194  1.00  0.00     0.060 A 
BRANCH  70  71
ATOM     71  S   UNL A   1      47.608  37.559  29.419  1.00  0.00     0.124 S 
ATOM     72  O   UNL A   1      49.038  37.360  29.637  1.00  0.00    -0.237 OA
ATOM     73  O   UNL A   1      47.241  38.181  28.150  1.00  0.00    -0.237 OA
ATOM     74  O   UNL A   1      46.856  38.020  30.581  1.00  0.00    -0.744 OA
ENDBRANCH  70  71
ENDBRANCH  49  63
BRANCH  50  75
ATOM     75  C   UNL A   1      43.025  23.844  27.178  1.00  0.00     0.058 A 
ATOM     76  C   UNL A   1      42.685  23.407  25.888  1.00  0.00     0.135 A 
ATOM     77  C   UNL A   1      42.923  22.914  28.226  1.00  0.00     0.135 A 
ATOM     78  F   UNL A   1      42.743  24.260  24.854  1.00  0.00    -0.206 F 
ATOM     79  C   UNL A   1      42.262  22.102  25.645  1.00  0.00     0.059 A 
ATOM     80  C   UNL A   1      42.531  21.597  28.003  1.00  0.00     0.059 A 
ATOM     81  F   UNL A   1      43.235  23.278  29.479  1.00  0.00    -0.206 F 
ATOM     82  C   UNL A   1      42.200  21.201  26.709  1.00  0.00     0.060 A 
BRANCH  82  83
ATOM     83  S   UNL A   1      41.727  19.492  26.365  1.00  0.00     0.124 S 
ATOM     84  O   UNL A   1      40.275  19.601  26.263  1.00  0.00    -0.237 OA
ATOM     85  O   UNL A   1      42.437  19.225  25.119  1.00  0.00    -0.237 OA
ATOM     86  O   UNL A   1      42.222  18.764  27.530  1.00  0.00    -0.744 OA
ENDBRANCH  82  83
ENDBRANCH  50  75
BRANCH  62  87
ATOM     87  C   UNL A   1      49.157  27.096  26.302  1.00  0.00     0.058 A 
ATOM     88  C   UNL A   1      49.586  27.218  24.972  1.00  0.00     0.135 A 
ATOM     89  C   UNL A   1      50.064  26.559  27.233  1.00  0.00     0.135 A 
ATOM     90  F   UNL A   1      48.763  27.723  24.039  1.00  0.00    -0.206 F 
ATOM     91  C   UNL A   1      50.850  26.793  24.573  1.00  0.00     0.059 A 
ATOM     92  C   UNL A   1      51.347  26.164  26.865  1.00  0.00     0.059 A 
ATOM     93  F   UNL A   1      49.715  26.431  28.524  1.00  0.00    -0.206 F 
ATOM     94  C   UNL A   1      51.725  26.271  25.529  1.00  0.00     0.060 A 
BRANCH  94  95
ATOM     95  S   UNL A   1      53.370  25.748  25.002  1.00  0.00     0.124 S 
ATOM     96  O   UNL A   1      54.226  26.631  25.788  1.00  0.00    -0.237 OA
ATOM     97  O   UNL A   1      53.387  24.341  25.387  1.00  0.00    -0.237 OA
ATOM     98  O   UNL A   1      53.364  25.999  23.564  1.00  0.00    -0.744 OA
ENDBRANCH  94  95
ENDBRANCH  62  87
ENDBRANCH  36  37
ENDBRANCH  29  31
ENDBRANCH  28  29
ENDBRANCH  27  28
ENDBRANCH  26  27
ENDBRANCH  25  26
ENDBRANCH   1  25
TORSDOF 21
ENDMDL
MODEL 3
REMARK VINA RESULT:     -11.2      5.786     13.024
REMARK SMILES O=C(OCCOCCOCCOC(=O)c1ccc(-c2c3nc(c(-c4c(F)cc(S(=O)(=O)[O-])cc4F)c4ccc([nH]4)c(-c4c(F)cc(S(=O)(=O)[O-])cc4F)c4nc(c(-c5c(F)cc(S(=O)(=O)[O-])cc5F)c5ccc2[nH]5)C=C4)C=C3)cc1)C1=Cc2cc(Cl)cc(Cl)c2O[C@@H]1C(F)(F)F
REMARK SMILES IDX 8 1 7 2 6 3 5 4 4 5 3 6 2 7 1 8 81 9 82 10 92 11 83 12 91 13
REMARK SMILES IDX 84 14 90 15 85 16 88 17 86 18 87 19 89 20 93 21 94 22 95 23
REMARK SMILES IDX 96 24 9 25 10 26 11 27 12 28 13 29 14 30 15 31 16 32 80 33
REMARK SMILES IDX 17 34 79 35 18 36 19 37 20 38 73 39 21 40 78 41 72 42 74 43
REMARK SMILES IDX 22 44 77 45 71 46 70 47 23 49 57 50 36 51 56 52 37 53 40 54
REMARK SMILES IDX 55 55 75 56 38 57 39 58 54 60 76 61 41 62 24 63 25 64 34 65
REMARK SMILES IDX 26 66 27 67 33 68 35 69 28 70 29 71 30 72 31 73 32 74 58 75
REMARK SMILES IDX 59 76 68 77 60 78 61 79 67 80 69 81 62 82 63 83 64 84 65 85
REMARK SMILES IDX 66 86 42 87 43 88 52 89 44 90 45 91 51 92 53 93 46 94 47 95
REMARK SMILES IDX 48 96 49 97 50 98
REMARK H PARENT 74 48 40 59
REMARK Flexibility Score: inf
ROOT
ATOM      1  C   UNL A   1      32.619  36.275  31.857  1.00  0.00     0.188 C 
ENDROOT
BRANCH   1   2
ATOM      2  C   UNL A   1      33.726  36.257  32.923  1.00  0.00     0.188 C 
BRANCH   2   3
ATOM      3  O   UNL A   1      35.151  35.970  32.613  1.00  0.00    -0.376 OA
BRANCH   3   4
ATOM      4  C   UNL A   1      36.231  34.901  33.409  1.00  0.00     0.202 C 
BRANCH   4   5
ATOM      5  C   UNL A   1      38.396  34.907  33.203  1.00  0.00     0.261 C 
BRANCH   5   6
ATOM      6  O   UNL A   1      39.345  33.778  33.586  1.00  0.00    -0.460 OA
BRANCH   6   7
ATOM      7  C   UNL A   1      40.437  34.232  34.217  1.00  0.00     0.338 C 
ATOM      8  O   UNL A   1      41.199  35.095  33.862  1.00  0.00    -0.246 OA
BRANCH   7   9
ATOM      9  C   UNL A   1      40.621  33.074  35.075  1.00  0.00     0.087 C 
ATOM     10  C   UNL A   1      39.720  31.950  34.821  1.00  0.00     0.027 C 
ATOM     11  C   UNL A   1      42.526  33.038  34.826  1.00  0.00     0.316 C 
ATOM     12  C   UNL A   1      40.208  30.451  33.951  1.00  0.00     0.020 A 
ATOM     13  O   UNL A   1      43.049  31.505  33.739  1.00  0.00    -0.474 OA
ATOM     14  C   UNL A   1      39.255  29.515  33.655  1.00  0.00     0.032 A 
ATOM     15  C   UNL A   1      41.810  30.218  33.339  1.00  0.00     0.146 A 
ATOM     16  C   UNL A   1      39.711  28.421  32.896  1.00  0.00     0.043 A 
ATOM     17  C   UNL A   1      42.150  29.126  32.585  1.00  0.00     0.085 A 
ATOM     18  Cl  UNL A   1      38.532  27.209  32.496  1.00  0.00    -0.084 Cl
ATOM     19  C   UNL A   1      41.067  28.233  32.397  1.00  0.00     0.045 A 
ATOM     20  Cl  UNL A   1      43.653  28.846  31.850  1.00  0.00    -0.080 Cl
BRANCH  11  21
ATOM     21  C   UNL A   1      42.821  33.458  36.422  1.00  0.00     0.430 C 
ATOM     22  F   UNL A   1      42.270  34.533  36.978  1.00  0.00    -0.167 F 
ATOM     23  F   UNL A   1      42.457  32.407  37.204  1.00  0.00    -0.167 F 
ATOM     24  F   UNL A   1      44.159  33.621  36.662  1.00  0.00    -0.167 F 
ENDBRANCH  11  21
ENDBRANCH   7   9
ENDBRANCH   6   7
ENDBRANCH   5   6
ENDBRANCH   4   5
ENDBRANCH   3   4
ENDBRANCH   2   3
ENDBRANCH   1   2
BRANCH   1  25
ATOM     25  O   UNL A   1      32.807  36.999  30.671  1.00  0.00    -0.376 OA
BRANCH  25  26
ATOM     26  C   UNL A   1      33.279  36.254  29.558  1.00  0.00     0.202 C 
BRANCH  26  27
ATOM     27  C   UNL A   1      33.233  34.722  29.647  1.00  0.00     0.261 C 
BRANCH  27  28
ATOM     28  O   UNL A   1      34.532  34.106  29.765  1.00  0.00    -0.460 OA
BRANCH  28  29
ATOM     29  C   UNL A   1      34.680  33.170  30.734  1.00  0.00     0.338 C 
ATOM     30  O   UNL A   1      33.926  32.948  31.666  1.00  0.00    -0.246 OA
BRANCH  29  31
ATOM     31  C   UNL A   1      35.850  32.323  30.428  1.00  0.00     0.060 A 
ATOM     32  C   UNL A   1      36.549  31.706  31.475  1.00  0.00     0.016 A 
ATOM     33  C   UNL A   1      36.292  32.200  29.110  1.00  0.00     0.016 A 
ATOM     34  C   UNL A   1      37.693  30.954  31.206  1.00  0.00     0.010 A 
ATOM     35  C   UNL A   1      37.464  31.487  28.846  1.00  0.00     0.010 A 
ATOM     36  C   UNL A   1      38.185  30.889  29.896  1.00  0.00    -0.014 A 
BRANCH  36  37
ATOM     37  C   UNL A   1      39.590  30.476  29.668  1.00  0.00     0.031 A 
ATOM     38  C   UNL A   1      40.651  31.527  29.853  1.00  0.00     0.074 A 
ATOM     39  C   UNL A   1      39.921  29.226  29.305  1.00  0.00     0.049 A 
ATOM     40  N   UNL A   1      41.945  31.447  29.687  1.00  0.00    -0.248 NA
ATOM     41  C   UNL A   1      40.178  32.856  30.278  1.00  0.00     0.031 C 
ATOM     42  C   UNL A   1      38.987  28.117  29.132  1.00  0.00     0.029 A 
ATOM     43  N   UNL A   1      41.148  28.684  29.008  1.00  0.00    -0.354 N 
ATOM     44  C   UNL A   1      42.437  32.714  29.981  1.00  0.00     0.074 A 
ATOM     45  C   UNL A   1      41.302  33.552  30.295  1.00  0.00     0.031 C 
ATOM     46  C   UNL A   1      39.675  27.024  28.751  1.00  0.00     0.029 A 
ATOM     47  C   UNL A   1      41.092  27.366  28.623  1.00  0.00     0.049 A 
ATOM     48  H   UNL A   1      41.989  29.193  29.065  1.00  0.00     0.167 HD
ATOM     49  C   UNL A   1      43.721  33.140  29.995  1.00  0.00     0.037 A 
ATOM     50  C   UNL A   1      42.074  26.540  28.205  1.00  0.00     0.037 A 
ATOM     51  C   UNL A   1      44.840  32.304  29.646  1.00  0.00     0.049 A 
ATOM     52  C   UNL A   1      43.491  27.056  28.147  1.00  0.00     0.074 A 
ATOM     53  C   UNL A   1      46.184  32.627  29.632  1.00  0.00     0.029 A 
ATOM     54  N   UNL A   1      44.739  30.984  29.227  1.00  0.00    -0.354 N 
ATOM     55  N   UNL A   1      43.955  28.245  28.459  1.00  0.00    -0.248 NA
ATOM     56  C   UNL A   1      44.523  26.117  27.686  1.00  0.00     0.031 C 
ATOM     57  C   UNL A   1      46.889  31.528  29.130  1.00  0.00     0.029 A 
ATOM     58  C   UNL A   1      45.995  30.489  28.918  1.00  0.00     0.049 A 
ATOM     59  H   UNL A   1      43.900  30.475  29.160  1.00  0.00     0.167 HD
ATOM     60  C   UNL A   1      45.334  28.181  28.276  1.00  0.00     0.074 A 
ATOM     61  C   UNL A   1      45.629  26.836  27.825  1.00  0.00     0.031 C 
ATOM     62  C   UNL A   1      46.273  29.143  28.474  1.00  0.00     0.037 A 
BRANCH  49  63
ATOM     63  C   UNL A   1      43.964  34.585  30.343  1.00  0.00     0.058 A 
ATOM     64  C   UNL A   1      44.287  34.995  31.649  1.00  0.00     0.135 A 
ATOM     65  C   UNL A   1      43.849  35.580  29.360  1.00  0.00     0.135 A 
ATOM     66  F   UNL A   1      44.391  34.092  32.637  1.00  0.00    -0.206 F 
ATOM     67  C   UNL A   1      44.436  36.339  31.974  1.00  0.00     0.059 A 
ATOM     68  C   UNL A   1      44.034  36.927  29.654  1.00  0.00     0.059 A 
ATOM     69  F   UNL A   1      43.539  35.250  28.096  1.00  0.00    -0.206 F 
ATOM     70  C   UNL A   1      44.305  37.299  30.969  1.00  0.00     0.060 A 
BRANCH  70  71
ATOM     71  S   UNL A   1      44.480  39.039  31.411  1.00  0.00     0.124 S 
ATOM     72  O   UNL A   1      43.967  39.698  30.214  1.00  0.00    -0.237 OA
ATOM     73  O   UNL A   1      43.641  39.143  32.601  1.00  0.00    -0.237 OA
ATOM     74  O   UNL A   1      45.913  39.190  31.642  1.00  0.00    -0.744 OA
ENDBRANCH  70  71
ENDBRANCH  49  63
BRANCH  50  75
ATOM     75  C   UNL A   1      41.755  25.136  27.827  1.00  0.00     0.058 A 
ATOM     76  C   UNL A   1      41.099  24.841  26.621  1.00  0.00     0.135 A 
ATOM     77  C   UNL A   1      42.109  24.057  28.654  1.00  0.00     0.135 A 
ATOM     78  F   UNL A   1      40.719  25.835  25.804  1.00  0.00    -0.206 F 
ATOM     79  C   UNL A   1      40.807  23.532  26.248  1.00  0.00     0.059 A 
ATOM     80  C   UNL A   1      41.853  22.738  28.289  1.00  0.00     0.059 A 
ATOM     81  F   UNL A   1      42.737  24.281  29.818  1.00  0.00    -0.206 F 
ATOM     82  C   UNL A   1      41.199  22.485  27.085  1.00  0.00     0.060 A 
BRANCH  82  83
ATOM     83  S   UNL A   1      40.884  20.789  26.551  1.00  0.00     0.124 S 
ATOM     84  O   UNL A   1      42.076  20.500  25.761  1.00  0.00    -0.237 OA
ATOM     85  O   UNL A   1      40.775  20.085  27.824  1.00  0.00    -0.237 OA
ATOM     86  O   UNL A   1      39.640  20.899  25.795  1.00  0.00    -0.744 OA
ENDBRANCH  82  83
ENDBRANCH  50  75
BRANCH  62  87
ATOM     87  C   UNL A   1      47.718  28.767  28.266  1.00  0.00     0.058 A 
ATOM     88  C   UNL A   1      48.345  28.850  27.013  1.00  0.00     0.135 A 
ATOM     89  C   UNL A   1      48.505  28.370  29.362  1.00  0.00     0.135 A 
ATOM     90  F   UNL A   1      47.644  29.223  25.929  1.00  0.00    -0.206 F 
ATOM     91  C   UNL A   1      49.687  28.521  26.847  1.00  0.00     0.059 A 
ATOM     92  C   UNL A   1      49.857  28.074  29.227  1.00  0.00     0.059 A 
ATOM     93  F   UNL A   1      47.964  28.287  30.589  1.00  0.00    -0.206 F 
ATOM     94  C   UNL A   1      50.436  28.137  27.962  1.00  0.00     0.060 A 
BRANCH  94  95
ATOM     95  S   UNL A   1      52.181  27.737  27.736  1.00  0.00     0.124 S 
ATOM     96  O   UNL A   1      52.316  26.534  28.552  1.00  0.00    -0.237 OA
ATOM     97  O   UNL A   1      52.270  27.538  26.293  1.00  0.00    -0.237 OA
ATOM     98  O   UNL A   1      52.872  28.919  28.244  1.00  0.00    -0.744 OA
ENDBRANCH  94  95
ENDBRANCH  62  87
ENDBRANCH  36  37
ENDBRANCH  29  31
ENDBRANCH  28  29
ENDBRANCH  27  28
ENDBRANCH  26  27
ENDBRANCH  25  26
ENDBRANCH   1  25
TORSDOF 21
ENDMDL
