MODEL 1
REMARK VINA RESULT:     -11.4      0.000      0.000
REMARK SMILES O=C(OCCOCCOCCOC(=O)[C@H]1[C@H]2CC[C@H](C2)[C@@H]1C(=O)N1CCN(c2cccc(Cl)c2)CC1)c1ccc(-c2c3nc(c(-c4c(F)cc(S(=O)(=O)[O-])cc4F)c4ccc([nH]4)c(-c4c(F)cc(S(=O)(=O)[O-])cc4F)c4nc(c(-c5c(F)cc(S(=O)(=O)[O-])cc5F)c5ccc2[nH]5)C=C4)C=C3)cc1
REMARK SMILES IDX 7 1 6 2 5 3 4 4 3 5 2 6 1 7 37 8 38 9 102 10 39 11 101 12
REMARK SMILES IDX 40 13 41 14 42 15 95 16 43 17 100 18 94 19 96 20 44 21 99 22
REMARK SMILES IDX 93 23 92 24 45 26 79 27 58 28 78 29 59 30 62 31 77 32 97 33
REMARK SMILES IDX 60 34 61 35 76 37 98 38 63 39 46 40 47 41 56 42 48 43 49 44
REMARK SMILES IDX 55 45 57 46 50 47 51 48 52 49 53 50 54 51 80 52 81 53 90 54
REMARK SMILES IDX 82 55 83 56 89 57 91 58 84 59 85 60 86 61 87 62 88 63 64 64
REMARK SMILES IDX 65 65 74 66 66 67 67 68 73 69 75 70 68 71 69 72 70 73 71 74
REMARK SMILES IDX 72 75 8 76 9 77 10 78 11 79 12 80 13 81 14 82 15 83 16 84
REMARK SMILES IDX 21 85 17 86 20 87 19 88 18 89 22 90 23 91 24 92 25 93 36 94
REMARK SMILES IDX 26 95 35 96 27 97 28 98 29 99 34 100 30 101 32 102 31 103
REMARK SMILES IDX 33 104
REMARK H PARENT 96 25 62 36
REMARK Flexibility Score: inf
ROOT
ATOM      1  C   UNL A   1      33.634  32.583  27.994  1.00  0.00     0.188 C 
ENDROOT
BRANCH   1   2
ATOM      2  O   UNL A   1      33.172  33.898  27.712  1.00  0.00    -0.376 OA
BRANCH   2   3
ATOM      3  C   UNL A   1      33.899  34.974  28.310  1.00  0.00     0.202 C 
BRANCH   3   4
ATOM      4  C   UNL A   1      33.143  35.965  29.228  1.00  0.00     0.261 C 
BRANCH   4   5
ATOM      5  O   UNL A   1      32.534  35.394  30.405  1.00  0.00    -0.460 OA
BRANCH   5   6
ATOM      6  C   UNL A   1      32.865  35.593  31.715  1.00  0.00     0.338 C 
ATOM      7  O   UNL A   1      32.205  36.370  32.388  1.00  0.00    -0.246 OA
BRANCH   6   8
ATOM      8  C   UNL A   1      34.009  34.867  32.337  1.00  0.00     0.060 A 
ATOM      9  C   UNL A   1      35.315  35.334  32.285  1.00  0.00     0.016 A 
ATOM     10  C   UNL A   1      33.773  33.694  33.053  1.00  0.00     0.016 A 
ATOM     11  C   UNL A   1      36.398  34.582  32.676  1.00  0.00     0.010 A 
ATOM     12  C   UNL A   1      34.852  32.999  33.610  1.00  0.00     0.010 A 
ATOM     13  C   UNL A   1      36.182  33.409  33.364  1.00  0.00    -0.014 A 
BRANCH  13  14
ATOM     14  C   UNL A   1      37.347  32.566  33.714  1.00  0.00     0.031 A 
ATOM     15  C   UNL A   1      38.054  32.954  34.976  1.00  0.00     0.074 A 
ATOM     16  C   UNL A   1      37.704  31.487  32.977  1.00  0.00     0.049 A 
ATOM     17  N   UNL A   1      39.240  32.630  35.396  1.00  0.00    -0.248 NA
ATOM     18  C   UNL A   1      37.327  33.878  35.872  1.00  0.00     0.031 C 
ATOM     19  C   UNL A   1      36.976  30.956  31.814  1.00  0.00     0.029 A 
ATOM     20  N   UNL A   1      38.796  30.657  33.060  1.00  0.00    -0.354 N 
ATOM     21  C   UNL A   1      39.394  33.315  36.595  1.00  0.00     0.074 A 
ATOM     22  C   UNL A   1      38.253  34.177  36.764  1.00  0.00     0.031 C 
ATOM     23  C   UNL A   1      37.662  29.937  31.272  1.00  0.00     0.029 A 
ATOM     24  C   UNL A   1      38.912  29.781  31.993  1.00  0.00     0.049 A 
ATOM     25  H   UNL A   1      39.435  30.682  33.808  1.00  0.00     0.167 HD
ATOM     26  C   UNL A   1      40.370  33.166  37.515  1.00  0.00     0.037 A 
ATOM     27  C   UNL A   1      39.948  29.003  31.613  1.00  0.00     0.037 A 
ATOM     28  C   UNL A   1      41.455  32.252  37.321  1.00  0.00     0.049 A 
ATOM     29  C   UNL A   1      41.142  29.007  32.561  1.00  0.00     0.074 A 
ATOM     30  C   UNL A   1      42.517  31.972  38.152  1.00  0.00     0.029 A 
ATOM     31  N   UNL A   1      41.592  31.452  36.190  1.00  0.00    -0.354 N 
ATOM     32  N   UNL A   1      41.321  29.724  33.655  1.00  0.00    -0.248 NA
ATOM     33  C   UNL A   1      42.262  28.111  32.258  1.00  0.00     0.031 C 
ATOM     34  C   UNL A   1      43.320  31.027  37.505  1.00  0.00     0.029 A 
ATOM     35  C   UNL A   1      42.722  30.671  36.302  1.00  0.00     0.049 A 
ATOM     36  H   UNL A   1      40.974  31.444  35.424  1.00  0.00     0.167 HD
ATOM     37  C   UNL A   1      42.537  29.316  34.195  1.00  0.00     0.074 A 
ATOM     38  C   UNL A   1      43.070  28.320  33.288  1.00  0.00     0.031 C 
ATOM     39  C   UNL A   1      43.162  29.688  35.343  1.00  0.00     0.037 A 
BRANCH  26  40
ATOM     40  C   UNL A   1      40.256  33.983  38.771  1.00  0.00     0.058 A 
ATOM     41  C   UNL A   1      40.977  35.180  38.937  1.00  0.00     0.135 A 
ATOM     42  C   UNL A   1      39.482  33.533  39.850  1.00  0.00     0.135 A 
ATOM     43  F   UNL A   1      41.762  35.642  37.950  1.00  0.00    -0.206 F 
ATOM     44  C   UNL A   1      40.974  35.872  40.144  1.00  0.00     0.059 A 
ATOM     45  C   UNL A   1      39.439  34.228  41.056  1.00  0.00     0.059 A 
ATOM     46  F   UNL A   1      38.786  32.390  39.753  1.00  0.00    -0.206 F 
ATOM     47  C   UNL A   1      40.205  35.384  41.200  1.00  0.00     0.060 A 
BRANCH  47  48
ATOM     48  S   UNL A   1      40.229  36.283  42.765  1.00  0.00     0.124 S 
ATOM     49  O   UNL A   1      39.555  35.340  43.653  1.00  0.00    -0.237 OA
ATOM     50  O   UNL A   1      41.659  36.461  43.000  1.00  0.00    -0.237 OA
ATOM     51  O   UNL A   1      39.488  37.504  42.466  1.00  0.00    -0.744 OA
ENDBRANCH  47  48
ENDBRANCH  26  40
BRANCH  27  52
ATOM     52  C   UNL A   1      39.960  28.255  30.296  1.00  0.00     0.058 A 
ATOM     53  C   UNL A   1      39.281  27.040  30.117  1.00  0.00     0.135 A 
ATOM     54  C   UNL A   1      40.724  28.687  29.189  1.00  0.00     0.135 A 
ATOM     55  F   UNL A   1      38.450  26.592  31.072  1.00  0.00    -0.206 F 
ATOM     56  C   UNL A   1      39.454  26.241  28.980  1.00  0.00     0.059 A 
ATOM     57  C   UNL A   1      40.908  27.919  28.041  1.00  0.00     0.059 A 
ATOM     58  F   UNL A   1      41.291  29.900  29.175  1.00  0.00    -0.206 F 
ATOM     59  C   UNL A   1      40.289  26.680  27.955  1.00  0.00     0.060 A 
BRANCH  59  60
ATOM     60  S   UNL A   1      40.573  25.623  26.518  1.00  0.00     0.124 S 
ATOM     61  O   UNL A   1      41.639  24.744  26.986  1.00  0.00    -0.237 OA
ATOM     62  O   UNL A   1      39.262  25.004  26.348  1.00  0.00    -0.237 OA
ATOM     63  O   UNL A   1      40.958  26.568  25.473  1.00  0.00    -0.744 OA
ENDBRANCH  59  60
ENDBRANCH  27  52
BRANCH  39  64
ATOM     64  C   UNL A   1      44.396  28.921  35.715  1.00  0.00     0.058 A 
ATOM     65  C   UNL A   1      45.683  29.358  35.379  1.00  0.00     0.135 A 
ATOM     66  C   UNL A   1      44.265  27.760  36.495  1.00  0.00     0.135 A 
ATOM     67  F   UNL A   1      45.851  30.459  34.631  1.00  0.00    -0.206 F 
ATOM     68  C   UNL A   1      46.807  28.652  35.791  1.00  0.00     0.059 A 
ATOM     69  C   UNL A   1      45.374  27.059  36.942  1.00  0.00     0.059 A 
ATOM     70  F   UNL A   1      43.049  27.317  36.852  1.00  0.00    -0.206 F 
ATOM     71  C   UNL A   1      46.642  27.507  36.575  1.00  0.00     0.060 A 
BRANCH  71  72
ATOM     72  S   UNL A   1      48.108  26.619  37.135  1.00  0.00     0.124 S 
ATOM     73  O   UNL A   1      47.704  26.203  38.474  1.00  0.00    -0.237 OA
ATOM     74  O   UNL A   1      48.223  25.551  36.146  1.00  0.00    -0.237 OA
ATOM     75  O   UNL A   1      49.158  27.631  37.082  1.00  0.00    -0.744 OA
ENDBRANCH  71  72
ENDBRANCH  39  64
ENDBRANCH  13  14
ENDBRANCH   6   8
ENDBRANCH   5   6
ENDBRANCH   4   5
ENDBRANCH   3   4
ENDBRANCH   2   3
ENDBRANCH   1   2
BRANCH   1  76
ATOM     76  C   UNL A   1      35.135  32.477  28.255  1.00  0.00     0.188 C 
BRANCH  76  77
ATOM     77  O   UNL A   1      35.843  31.393  27.673  1.00  0.00    -0.376 OA
BRANCH  77  78
ATOM     78  C   UNL A   1      35.400  30.077  27.974  1.00  0.00     0.202 C 
BRANCH  78  79
ATOM     79  C   UNL A   1      34.780  29.173  26.881  1.00  0.00     0.261 C 
BRANCH  79  80
ATOM     80  O   UNL A   1      33.780  28.192  27.240  1.00  0.00    -0.463 OA
BRANCH  80  81
ATOM     81  C   UNL A   1      32.524  28.529  26.827  1.00  0.00     0.310 C 
ATOM     82  O   UNL A   1      32.009  29.595  27.138  1.00  0.00    -0.252 OA
BRANCH  81  83
ATOM     83  C   UNL A   1      31.821  27.429  26.020  1.00  0.00     0.115 C 
ATOM     84  C   UNL A   1      31.412  27.989  24.614  1.00  0.00     0.004 C 
ATOM     85  C   UNL A   1      32.648  26.162  25.635  1.00  0.00     0.096 C 
ATOM     86  C   UNL A   1      32.585  28.535  23.772  1.00  0.00     0.005 C 
ATOM     87  C   UNL A   1      31.176  26.698  23.840  1.00  0.00     0.009 C 
ATOM     88  C   UNL A   1      32.594  26.169  24.104  1.00  0.00     0.003 C 
ATOM     89  C   UNL A   1      33.477  27.310  23.577  1.00  0.00     0.005 C 
BRANCH  85  90
ATOM     90  C   UNL A   1      32.150  24.851  26.284  1.00  0.00     0.226 C 
ATOM     91  O   UNL A   1      31.267  24.971  27.144  1.00  0.00    -0.275 OA
ATOM     92  N   UNL A   1      32.518  23.585  25.825  1.00  0.00    -0.339 N 
ATOM     93  C   UNL A   1      31.524  22.531  26.016  1.00  0.00     0.141 C 
ATOM     94  C   UNL A   1      33.882  23.010  25.788  1.00  0.00     0.141 C 
ATOM     95  C   UNL A   1      31.635  21.383  24.999  1.00  0.00     0.138 C 
ATOM     96  C   UNL A   1      34.031  21.847  24.768  1.00  0.00     0.138 C 
ATOM     97  N   UNL A   1      32.993  20.826  24.999  1.00  0.00    -0.368 N 
BRANCH  97  98
ATOM     98  C   UNL A   1      33.196  19.583  24.395  1.00  0.00     0.038 A 
ATOM     99  C   UNL A   1      32.460  19.239  23.255  1.00  0.00     0.026 A 
ATOM    100  C   UNL A   1      34.115  18.636  24.865  1.00  0.00     0.046 A 
ATOM    101  C   UNL A   1      32.624  18.002  22.619  1.00  0.00     0.004 A 
ATOM    102  C   UNL A   1      34.223  17.372  24.283  1.00  0.00     0.043 A 
ATOM    103  C   UNL A   1      33.494  17.057  23.147  1.00  0.00     0.020 A 
ATOM    104  Cl  UNL A   1      35.216  16.163  24.992  1.00  0.00    -0.084 Cl
ENDBRANCH  97  98
ENDBRANCH  85  90
ENDBRANCH  81  83
ENDBRANCH  80  81
ENDBRANCH  79  80
ENDBRANCH  78  79
ENDBRANCH  77  78
ENDBRANCH  76  77
ENDBRANCH   1  76
TORSDOF 22
ENDMDL
MODEL 2
REMARK VINA RESULT:     -11.1      7.237     13.100
REMARK SMILES O=C(OCCOCCOCCOC(=O)[C@H]1[C@H]2CC[C@H](C2)[C@@H]1C(=O)N1CCN(c2cccc(Cl)c2)CC1)c1ccc(-c2c3nc(c(-c4c(F)cc(S(=O)(=O)[O-])cc4F)c4ccc([nH]4)c(-c4c(F)cc(S(=O)(=O)[O-])cc4F)c4nc(c(-c5c(F)cc(S(=O)(=O)[O-])cc5F)c5ccc2[nH]5)C=C4)C=C3)cc1
REMARK SMILES IDX 7 1 6 2 5 3 4 4 3 5 2 6 1 7 37 8 38 9 102 10 39 11 101 12
REMARK SMILES IDX 40 13 41 14 42 15 95 16 43 17 100 18 94 19 96 20 44 21 99 22
REMARK SMILES IDX 93 23 92 24 45 26 79 27 58 28 78 29 59 30 62 31 77 32 97 33
REMARK SMILES IDX 60 34 61 35 76 37 98 38 63 39 46 40 47 41 56 42 48 43 49 44
REMARK SMILES IDX 55 45 57 46 50 47 51 48 52 49 53 50 54 51 80 52 81 53 90 54
REMARK SMILES IDX 82 55 83 56 89 57 91 58 84 59 85 60 86 61 87 62 88 63 64 64
REMARK SMILES IDX 65 65 74 66 66 67 67 68 73 69 75 70 68 71 69 72 70 73 71 74
REMARK SMILES IDX 72 75 8 76 9 77 10 78 11 79 12 80 13 81 14 82 15 83 16 84
REMARK SMILES IDX 21 85 17 86 20 87 19 88 18 89 22 90 23 91 24 92 25 93 36 94
REMARK SMILES IDX 26 95 35 96 27 97 28 98 29 99 34 100 30 101 32 102 31 103
REMARK SMILES IDX 33 104
REMARK H PARENT 96 25 62 36
REMARK Flexibility Score: inf
ROOT
ATOM      1  C   UNL A   1      41.797  21.468  26.282  1.00  0.00     0.188 C 
ENDROOT
BRANCH   1   2
ATOM      2  O   UNL A   1      42.050  20.185  26.839  1.00  0.00    -0.376 OA
BRANCH   2   3
ATOM      3  C   UNL A   1      42.138  19.093  25.922  1.00  0.00     0.202 C 
BRANCH   3   4
ATOM      4  C   UNL A   1      43.492  18.358  25.764  1.00  0.00     0.261 C 
BRANCH   4   5
ATOM      5  O   UNL A   1      44.223  18.637  24.553  1.00  0.00    -0.460 OA
BRANCH   5   6
ATOM      6  C   UNL A   1      45.234  19.534  24.357  1.00  0.00     0.338 C 
ATOM      7  O   UNL A   1      46.259  19.170  23.803  1.00  0.00    -0.246 OA
BRANCH   6   8
ATOM      8  C   UNL A   1      45.098  20.952  24.796  1.00  0.00     0.060 A 
ATOM      9  C   UNL A   1      44.612  21.954  23.967  1.00  0.00     0.016 A 
ATOM     10  C   UNL A   1      45.415  21.300  26.108  1.00  0.00     0.016 A 
ATOM     11  C   UNL A   1      44.670  23.290  24.289  1.00  0.00     0.010 A 
ATOM     12  C   UNL A   1      45.315  22.638  26.510  1.00  0.00     0.010 A 
ATOM     13  C   UNL A   1      45.004  23.652  25.576  1.00  0.00    -0.014 A 
BRANCH  13  14
ATOM     14  C   UNL A   1      45.140  25.090  25.896  1.00  0.00     0.031 A 
ATOM     15  C   UNL A   1      46.533  25.633  25.796  1.00  0.00     0.074 A 
ATOM     16  C   UNL A   1      44.072  25.866  26.198  1.00  0.00     0.049 A 
ATOM     17  N   UNL A   1      47.033  26.730  26.279  1.00  0.00    -0.248 NA
ATOM     18  C   UNL A   1      47.511  24.788  25.079  1.00  0.00     0.031 C 
ATOM     19  C   UNL A   1      42.663  25.444  26.173  1.00  0.00     0.029 A 
ATOM     20  N   UNL A   1      43.994  27.169  26.629  1.00  0.00    -0.354 N 
ATOM     21  C   UNL A   1      48.376  26.696  25.928  1.00  0.00     0.074 A 
ATOM     22  C   UNL A   1      48.645  25.417  25.323  1.00  0.00     0.031 C 
ATOM     23  C   UNL A   1      41.880  26.441  26.615  1.00  0.00     0.029 A 
ATOM     24  C   UNL A   1      42.723  27.549  27.027  1.00  0.00     0.049 A 
ATOM     25  H   UNL A   1      44.769  27.775  26.653  1.00  0.00     0.167 HD
ATOM     26  C   UNL A   1      49.285  27.689  26.027  1.00  0.00     0.037 A 
ATOM     27  C   UNL A   1      42.313  28.638  27.713  1.00  0.00     0.037 A 
ATOM     28  C   UNL A   1      48.949  28.963  26.588  1.00  0.00     0.049 A 
ATOM     29  C   UNL A   1      43.401  29.663  28.008  1.00  0.00     0.074 A 
ATOM     30  C   UNL A   1      49.741  30.077  26.754  1.00  0.00     0.029 A 
ATOM     31  N   UNL A   1      47.681  29.282  27.066  1.00  0.00    -0.354 N 
ATOM     32  N   UNL A   1      44.693  29.590  27.747  1.00  0.00    -0.248 NA
ATOM     33  C   UNL A   1      43.006  30.913  28.665  1.00  0.00     0.031 C 
ATOM     34  C   UNL A   1      48.960  31.061  27.370  1.00  0.00     0.029 A 
ATOM     35  C   UNL A   1      47.665  30.580  27.526  1.00  0.00     0.049 A 
ATOM     36  H   UNL A   1      46.909  28.671  27.075  1.00  0.00     0.167 HD
ATOM     37  C   UNL A   1      45.243  30.803  28.152  1.00  0.00     0.074 A 
ATOM     38  C   UNL A   1      44.152  31.577  28.709  1.00  0.00     0.031 C 
ATOM     39  C   UNL A   1      46.514  31.272  28.053  1.00  0.00     0.037 A 
BRANCH  26  40
ATOM     40  C   UNL A   1      50.662  27.412  25.498  1.00  0.00     0.058 A 
ATOM     41  C   UNL A   1      51.695  26.955  26.337  1.00  0.00     0.135 A 
ATOM     42  C   UNL A   1      50.981  27.673  24.157  1.00  0.00     0.135 A 
ATOM     43  F   UNL A   1      51.458  26.720  27.639  1.00  0.00    -0.206 F 
ATOM     44  C   UNL A   1      53.002  26.819  25.880  1.00  0.00     0.059 A 
ATOM     45  C   UNL A   1      52.275  27.511  23.670  1.00  0.00     0.059 A 
ATOM     46  F   UNL A   1      50.039  28.124  23.314  1.00  0.00    -0.206 F 
ATOM     47  C   UNL A   1      53.282  27.105  24.545  1.00  0.00     0.060 A 
BRANCH  47  48
ATOM     48  S   UNL A   1      54.986  26.942  23.973  1.00  0.00     0.124 S 
ATOM     49  O   UNL A   1      55.534  28.252  24.310  1.00  0.00    -0.237 OA
ATOM     50  O   UNL A   1      55.479  25.826  24.774  1.00  0.00    -0.237 OA
ATOM     51  O   UNL A   1      54.841  26.670  22.546  1.00  0.00    -0.744 OA
ENDBRANCH  47  48
ENDBRANCH  26  40
BRANCH  27  52
ATOM     52  C   UNL A   1      40.897  28.784  28.231  1.00  0.00     0.058 A 
ATOM     53  C   UNL A   1      39.839  29.212  27.414  1.00  0.00     0.135 A 
ATOM     54  C   UNL A   1      40.565  28.581  29.589  1.00  0.00     0.135 A 
ATOM     55  F   UNL A   1      40.027  29.339  26.090  1.00  0.00    -0.206 F 
ATOM     56  C   UNL A   1      38.581  29.549  27.927  1.00  0.00     0.059 A 
ATOM     57  C   UNL A   1      39.319  28.898  30.127  1.00  0.00     0.059 A 
ATOM     58  F   UNL A   1      41.441  28.027  30.437  1.00  0.00    -0.206 F 
ATOM     59  C   UNL A   1      38.337  29.410  29.291  1.00  0.00     0.060 A 
BRANCH  59  60
ATOM     60  S   UNL A   1      36.740  29.910  29.970  1.00  0.00     0.124 S 
ATOM     61  O   UNL A   1      35.823  29.558  28.892  1.00  0.00    -0.237 OA
ATOM     62  O   UNL A   1      36.661  29.086  31.172  1.00  0.00    -0.237 OA
ATOM     63  O   UNL A   1      36.905  31.342  30.204  1.00  0.00    -0.744 OA
ENDBRANCH  59  60
ENDBRANCH  27  52
BRANCH  39  64
ATOM     64  C   UNL A   1      46.734  32.704  28.438  1.00  0.00     0.058 A 
ATOM     65  C   UNL A   1      47.151  33.083  29.720  1.00  0.00     0.135 A 
ATOM     66  C   UNL A   1      46.590  33.701  27.459  1.00  0.00     0.135 A 
ATOM     67  F   UNL A   1      47.296  32.163  30.685  1.00  0.00    -0.206 F 
ATOM     68  C   UNL A   1      47.402  34.416  30.025  1.00  0.00     0.059 A 
ATOM     69  C   UNL A   1      46.865  35.032  27.734  1.00  0.00     0.059 A 
ATOM     70  F   UNL A   1      46.208  33.377  26.214  1.00  0.00    -0.206 F 
ATOM     71  C   UNL A   1      47.259  35.381  29.024  1.00  0.00     0.060 A 
BRANCH  71  72
ATOM     72  S   UNL A   1      47.622  37.103  29.420  1.00  0.00     0.124 S 
ATOM     73  O   UNL A   1      46.489  37.451  30.270  1.00  0.00    -0.237 OA
ATOM     74  O   UNL A   1      48.914  37.003  30.091  1.00  0.00    -0.237 OA
ATOM     75  O   UNL A   1      47.649  37.752  28.113  1.00  0.00    -0.744 OA
ENDBRANCH  71  72
ENDBRANCH  39  64
ENDBRANCH  13  14
ENDBRANCH   6   8
ENDBRANCH   5   6
ENDBRANCH   4   5
ENDBRANCH   3   4
ENDBRANCH   2   3
ENDBRANCH   1   2
BRANCH   1  76
ATOM     76  C   UNL A   1      40.587  22.191  26.870  1.00  0.00     0.188 C 
BRANCH  76  77
ATOM     77  O   UNL A   1      39.700  22.851  25.979  1.00  0.00    -0.376 OA
BRANCH  77  78
ATOM     78  C   UNL A   1      38.546  23.468  26.533  1.00  0.00     0.202 C 
BRANCH  78  79
ATOM     79  C   UNL A   1      37.242  23.605  25.710  1.00  0.00     0.261 C 
BRANCH  79  80
ATOM     80  O   UNL A   1      36.966  22.675  24.639  1.00  0.00    -0.463 OA
BRANCH  80  81
ATOM     81  C   UNL A   1      35.904  21.859  24.897  1.00  0.00     0.310 C 
ATOM     82  O   UNL A   1      35.999  20.897  25.648  1.00  0.00    -0.252 OA
BRANCH  81  83
ATOM     83  C   UNL A   1      34.638  22.221  24.108  1.00  0.00     0.115 C 
ATOM     84  C   UNL A   1      33.577  21.077  24.262  1.00  0.00     0.004 C 
ATOM     85  C   UNL A   1      33.827  23.477  24.560  1.00  0.00     0.096 C 
ATOM     86  C   UNL A   1      33.170  20.769  25.719  1.00  0.00     0.005 C 
ATOM     87  C   UNL A   1      32.304  21.796  23.832  1.00  0.00     0.009 C 
ATOM     88  C   UNL A   1      32.451  22.895  24.896  1.00  0.00     0.003 C 
ATOM     89  C   UNL A   1      32.555  22.084  26.197  1.00  0.00     0.005 C 
BRANCH  85  90
ATOM     90  C   UNL A   1      33.798  24.626  23.527  1.00  0.00     0.226 C 
ATOM     91  O   UNL A   1      34.611  24.543  22.597  1.00  0.00    -0.275 OA
ATOM     92  N   UNL A   1      32.811  25.613  23.514  1.00  0.00    -0.339 N 
ATOM     93  C   UNL A   1      32.489  26.165  22.198  1.00  0.00     0.141 C 
ATOM     94  C   UNL A   1      32.523  26.604  24.576  1.00  0.00     0.141 C 
ATOM     95  C   UNL A   1      31.059  26.720  22.093  1.00  0.00     0.138 C 
ATOM     96  C   UNL A   1      31.084  27.186  24.500  1.00  0.00     0.138 C 
ATOM     97  N   UNL A   1      30.812  27.710  23.149  1.00  0.00    -0.368 N 
BRANCH  97  98
ATOM     98  C   UNL A   1      29.706  28.552  23.018  1.00  0.00     0.038 A 
ATOM     99  C   UNL A   1      28.424  28.056  23.279  1.00  0.00     0.026 A 
ATOM    100  C   UNL A   1      29.800  29.897  22.638  1.00  0.00     0.046 A 
ATOM    101  C   UNL A   1      27.284  28.861  23.154  1.00  0.00     0.004 A 
ATOM    102  C   UNL A   1      28.662  30.680  22.434  1.00  0.00     0.043 A 
ATOM    103  C   UNL A   1      27.402  30.172  22.710  1.00  0.00     0.020 A 
ATOM    104  Cl  UNL A   1      28.793  32.264  21.785  1.00  0.00    -0.084 Cl
ENDBRANCH  97  98
ENDBRANCH  85  90
ENDBRANCH  81  83
ENDBRANCH  80  81
ENDBRANCH  79  80
ENDBRANCH  78  79
ENDBRANCH  77  78
ENDBRANCH  76  77
ENDBRANCH   1  76
TORSDOF 22
ENDMDL
MODEL 3
REMARK VINA RESULT:     -10.9      3.257      9.978
REMARK SMILES O=C(OCCOCCOCCOC(=O)[C@H]1[C@H]2CC[C@H](C2)[C@@H]1C(=O)N1CCN(c2cccc(Cl)c2)CC1)c1ccc(-c2c3nc(c(-c4c(F)cc(S(=O)(=O)[O-])cc4F)c4ccc([nH]4)c(-c4c(F)cc(S(=O)(=O)[O-])cc4F)c4nc(c(-c5c(F)cc(S(=O)(=O)[O-])cc5F)c5ccc2[nH]5)C=C4)C=C3)cc1
REMARK SMILES IDX 7 1 6 2 5 3 4 4 3 5 2 6 1 7 37 8 38 9 102 10 39 11 101 12
REMARK SMILES IDX 40 13 41 14 42 15 95 16 43 17 100 18 94 19 96 20 44 21 99 22
REMARK SMILES IDX 93 23 92 24 45 26 79 27 58 28 78 29 59 30 62 31 77 32 97 33
REMARK SMILES IDX 60 34 61 35 76 37 98 38 63 39 46 40 47 41 56 42 48 43 49 44
REMARK SMILES IDX 55 45 57 46 50 47 51 48 52 49 53 50 54 51 80 52 81 53 90 54
REMARK SMILES IDX 82 55 83 56 89 57 91 58 84 59 85 60 86 61 87 62 88 63 64 64
REMARK SMILES IDX 65 65 74 66 66 67 67 68 73 69 75 70 68 71 69 72 70 73 71 74
REMARK SMILES IDX 72 75 8 76 9 77 10 78 11 79 12 80 13 81 14 82 15 83 16 84
REMARK SMILES IDX 21 85 17 86 20 87 19 88 18 89 22 90 23 91 24 92 25 93 36 94
REMARK SMILES IDX 26 95 35 96 27 97 28 98 29 99 34 100 30 101 32 102 31 103
REMARK SMILES IDX 33 104
REMARK H PARENT 96 25 62 36
REMARK Flexibility Score: inf
ROOT
ATOM      1  C   UNL A   1      41.177  22.006  26.793  1.00  0.00     0.188 C 
ENDROOT
BRANCH   1   2
ATOM      2  O   UNL A   1      42.133  22.371  25.807  1.00  0.00    -0.376 OA
BRANCH   2   3
ATOM      3  C   UNL A   1      42.986  23.475  26.118  1.00  0.00     0.202 C 
BRANCH   3   4
ATOM      4  C   UNL A   1      43.152  24.607  25.075  1.00  0.00     0.261 C 
BRANCH   4   5
ATOM      5  O   UNL A   1      42.144  25.639  25.099  1.00  0.00    -0.460 OA
BRANCH   5   6
ATOM      6  C   UNL A   1      42.285  26.957  25.425  1.00  0.00     0.338 C 
ATOM      7  O   UNL A   1      42.471  27.777  24.539  1.00  0.00    -0.246 OA
BRANCH   6   8
ATOM      8  C   UNL A   1      42.201  27.411  26.842  1.00  0.00     0.060 A 
ATOM      9  C   UNL A   1      41.413  26.775  27.792  1.00  0.00     0.016 A 
ATOM     10  C   UNL A   1      42.981  28.486  27.269  1.00  0.00     0.016 A 
ATOM     11  C   UNL A   1      41.172  27.298  29.041  1.00  0.00     0.010 A 
ATOM     12  C   UNL A   1      42.878  28.929  28.592  1.00  0.00     0.010 A 
ATOM     13  C   UNL A   1      41.918  28.374  29.469  1.00  0.00    -0.014 A 
BRANCH  13  14
ATOM     14  C   UNL A   1      41.602  28.981  30.781  1.00  0.00     0.031 A 
ATOM     15  C   UNL A   1      40.469  29.960  30.770  1.00  0.00     0.074 A 
ATOM     16  C   UNL A   1      42.253  28.627  31.915  1.00  0.00     0.049 A 
ATOM     17  N   UNL A   1      40.140  30.860  31.647  1.00  0.00    -0.248 NA
ATOM     18  C   UNL A   1      39.606  29.944  29.569  1.00  0.00     0.031 C 
ATOM     19  C   UNL A   1      43.271  27.572  32.033  1.00  0.00     0.029 A 
ATOM     20  N   UNL A   1      42.194  29.141  33.188  1.00  0.00    -0.354 N 
ATOM     21  C   UNL A   1      39.044  31.512  31.098  1.00  0.00     0.074 A 
ATOM     22  C   UNL A   1      38.852  31.010  29.762  1.00  0.00     0.031 C 
ATOM     23  C   UNL A   1      43.769  27.555  33.280  1.00  0.00     0.029 A 
ATOM     24  C   UNL A   1      43.167  28.639  34.037  1.00  0.00     0.049 A 
ATOM     25  H   UNL A   1      41.523  29.803  33.471  1.00  0.00     0.167 HD
ATOM     26  C   UNL A   1      38.219  32.396  31.698  1.00  0.00     0.037 A 
ATOM     27  C   UNL A   1      43.567  29.065  35.254  1.00  0.00     0.037 A 
ATOM     28  C   UNL A   1      38.425  32.821  33.049  1.00  0.00     0.049 A 
ATOM     29  C   UNL A   1      42.754  30.215  35.836  1.00  0.00     0.074 A 
ATOM     30  C   UNL A   1      37.682  33.697  33.810  1.00  0.00     0.029 A 
ATOM     31  N   UNL A   1      39.471  32.366  33.847  1.00  0.00    -0.354 N 
ATOM     32  N   UNL A   1      41.766  30.890  35.276  1.00  0.00    -0.248 NA
ATOM     33  C   UNL A   1      43.072  30.664  37.195  1.00  0.00     0.031 C 
ATOM     34  C   UNL A   1      38.304  33.802  35.059  1.00  0.00     0.029 A 
ATOM     35  C   UNL A   1      39.394  32.941  35.096  1.00  0.00     0.049 A 
ATOM     36  H   UNL A   1      40.165  31.728  33.561  1.00  0.00     0.167 HD
ATOM     37  C   UNL A   1      41.314  31.790  36.236  1.00  0.00     0.074 A 
ATOM     38  C   UNL A   1      42.159  31.603  37.398  1.00  0.00     0.031 C 
ATOM     39  C   UNL A   1      40.283  32.674  36.201  1.00  0.00     0.037 A 
BRANCH  26  40
ATOM     40  C   UNL A   1      37.052  32.896  30.895  1.00  0.00     0.058 A 
ATOM     41  C   UNL A   1      37.196  33.938  29.960  1.00  0.00     0.135 A 
ATOM     42  C   UNL A   1      35.763  32.387  31.109  1.00  0.00     0.135 A 
ATOM     43  F   UNL A   1      38.401  34.489  29.737  1.00  0.00    -0.206 F 
ATOM     44  C   UNL A   1      36.098  34.491  29.308  1.00  0.00     0.059 A 
ATOM     45  C   UNL A   1      34.655  32.903  30.442  1.00  0.00     0.059 A 
ATOM     46  F   UNL A   1      35.565  31.404  32.000  1.00  0.00    -0.206 F 
ATOM     47  C   UNL A   1      34.831  33.969  29.560  1.00  0.00     0.060 A 
BRANCH  47  48
ATOM     48  S   UNL A   1      33.415  34.711  28.721  1.00  0.00     0.124 S 
ATOM     49  O   UNL A   1      32.970  33.610  27.871  1.00  0.00    -0.237 OA
ATOM     50  O   UNL A   1      32.533  35.046  29.834  1.00  0.00    -0.237 OA
ATOM     51  O   UNL A   1      33.996  35.851  28.019  1.00  0.00    -0.744 OA
ENDBRANCH  47  48
ENDBRANCH  26  40
BRANCH  27  52
ATOM     52  C   UNL A   1      44.791  28.504  35.948  1.00  0.00     0.058 A 
ATOM     53  C   UNL A   1      46.050  29.119  35.862  1.00  0.00     0.135 A 
ATOM     54  C   UNL A   1      44.764  27.282  36.656  1.00  0.00     0.135 A 
ATOM     55  F   UNL A   1      46.164  30.331  35.296  1.00  0.00    -0.206 F 
ATOM     56  C   UNL A   1      47.221  28.503  36.321  1.00  0.00     0.059 A 
ATOM     57  C   UNL A   1      45.911  26.649  37.133  1.00  0.00     0.059 A 
ATOM     58  F   UNL A   1      43.604  26.677  36.942  1.00  0.00    -0.206 F 
ATOM     59  C   UNL A   1      47.143  27.255  36.936  1.00  0.00     0.060 A 
BRANCH  59  60
ATOM     60  S   UNL A   1      48.657  26.424  37.466  1.00  0.00     0.124 S 
ATOM     61  O   UNL A   1      49.693  27.273  36.889  1.00  0.00    -0.237 OA
ATOM     62  O   UNL A   1      48.524  26.473  38.919  1.00  0.00    -0.237 OA
ATOM     63  O   UNL A   1      48.538  25.095  36.872  1.00  0.00    -0.744 OA
ENDBRANCH  59  60
ENDBRANCH  27  52
BRANCH  39  64
ATOM     64  C   UNL A   1      39.960  33.382  37.483  1.00  0.00     0.058 A 
ATOM     65  C   UNL A   1      40.536  34.610  37.830  1.00  0.00     0.135 A 
ATOM     66  C   UNL A   1      38.987  32.834  38.336  1.00  0.00     0.135 A 
ATOM     67  F   UNL A   1      41.472  35.165  37.045  1.00  0.00    -0.206 F 
ATOM     68  C   UNL A   1      40.169  35.266  38.999  1.00  0.00     0.059 A 
ATOM     69  C   UNL A   1      38.585  33.487  39.490  1.00  0.00     0.059 A 
ATOM     70  F   UNL A   1      38.400  31.666  38.031  1.00  0.00    -0.206 F 
ATOM     71  C   UNL A   1      39.191  34.698  39.820  1.00  0.00     0.060 A 
BRANCH  71  72
ATOM     72  S   UNL A   1      38.696  35.575  41.316  1.00  0.00     0.124 S 
ATOM     73  O   UNL A   1      38.907  36.964  40.923  1.00  0.00    -0.237 OA
ATOM     74  O   UNL A   1      37.304  35.163  41.473  1.00  0.00    -0.237 OA
ATOM     75  O   UNL A   1      39.613  35.061  42.328  1.00  0.00    -0.744 OA
ENDBRANCH  71  72
ENDBRANCH  39  64
ENDBRANCH  13  14
ENDBRANCH   6   8
ENDBRANCH   5   6
ENDBRANCH   4   5
ENDBRANCH   3   4
ENDBRANCH   2   3
ENDBRANCH   1   2
BRANCH   1  76
ATOM     76  C   UNL A   1      39.903  21.368  26.240  1.00  0.00     0.188 C 
BRANCH  76  77
ATOM     77  O   UNL A   1      38.742  22.177  26.126  1.00  0.00    -0.376 OA
BRANCH  77  78
ATOM     78  C   UNL A   1      37.751  21.781  25.187  1.00  0.00     0.202 C 
BRANCH  78  79
ATOM     79  C   UNL A   1      36.297  21.497  25.634  1.00  0.00     0.261 C 
BRANCH  79  80
ATOM     80  O   UNL A   1      35.238  22.408  25.262  1.00  0.00    -0.463 OA
BRANCH  80  81
ATOM     81  C   UNL A   1      34.157  21.781  24.717  1.00  0.00     0.310 C 
ATOM     82  O   UNL A   1      34.159  20.578  24.488  1.00  0.00    -0.252 OA
BRANCH  81  83
ATOM     83  C   UNL A   1      33.003  22.729  24.362  1.00  0.00     0.115 C 
ATOM     84  C   UNL A   1      31.718  22.315  25.158  1.00  0.00     0.004 C 
ATOM     85  C   UNL A   1      33.149  24.235  24.746  1.00  0.00     0.096 C 
ATOM     86  C   UNL A   1      31.886  22.307  26.693  1.00  0.00     0.005 C 
ATOM     87  C   UNL A   1      30.878  23.580  25.042  1.00  0.00     0.009 C 
ATOM     88  C   UNL A   1      31.958  24.470  25.679  1.00  0.00     0.003 C 
ATOM     89  C   UNL A   1      32.223  23.763  27.016  1.00  0.00     0.005 C 
BRANCH  85  90
ATOM     90  C   UNL A   1      33.214  25.200  23.540  1.00  0.00     0.226 C 
ATOM     91  O   UNL A   1      33.852  24.800  22.557  1.00  0.00    -0.275 OA
ATOM     92  N   UNL A   1      32.463  26.374  23.462  1.00  0.00    -0.339 N 
ATOM     93  C   UNL A   1      32.080  26.789  22.113  1.00  0.00     0.141 C 
ATOM     94  C   UNL A   1      32.540  27.546  24.363  1.00  0.00     0.141 C 
ATOM     95  C   UNL A   1      30.796  27.634  22.067  1.00  0.00     0.138 C 
ATOM     96  C   UNL A   1      31.258  28.424  24.342  1.00  0.00     0.138 C 
ATOM     97  N   UNL A   1      30.913  28.796  22.958  1.00  0.00    -0.368 N 
BRANCH  97  98
ATOM     98  C   UNL A   1      29.999  29.840  22.802  1.00  0.00     0.038 A 
ATOM     99  C   UNL A   1      29.561  30.550  23.926  1.00  0.00     0.026 A 
ATOM    100  C   UNL A   1      29.482  30.237  21.562  1.00  0.00     0.046 A 
ATOM    101  C   UNL A   1      28.641  31.601  23.820  1.00  0.00     0.004 A 
ATOM    102  C   UNL A   1      28.504  31.228  21.461  1.00  0.00     0.043 A 
ATOM    103  C   UNL A   1      28.095  31.927  22.586  1.00  0.00     0.020 A 
ATOM    104  Cl  UNL A   1      27.749  31.564  19.956  1.00  0.00    -0.084 Cl
ENDBRANCH  97  98
ENDBRANCH  85  90
ENDBRANCH  81  83
ENDBRANCH  80  81
ENDBRANCH  79  80
ENDBRANCH  78  79
ENDBRANCH  77  78
ENDBRANCH  76  77
ENDBRANCH   1  76
TORSDOF 22
ENDMDL
