MODEL 1
REMARK VINA RESULT:      -9.6      0.000      0.000
REMARK SMILES NS(=O)(=O)c1ccc(/N=C/c2ccc(O)c(C(=O)OCCOCCOCCOC(=O)c3ccc(-c4c5nc(c(-c6c(F)cc(S(=O)(=O)[O-])cc6F)c6ccc([nH]6)c(-c6c(F)cc(S(=O)(=O)[O-])cc6F)c6nc(c(-c7c(F)cc(S(=O)(=O)[O-])cc7F)c7ccc4[nH]7)C=C6)C=C5)cc3)c2)cc1
REMARK SMILES IDX 23 1 22 2 21 3 20 4 19 5 17 6 18 7 16 8 11 9 12 10 97 11
REMARK SMILES IDX 13 12 14 13 10 14 9 15 8 16 5 17 6 18 99 19 7 20 98 21 2 22
REMARK SMILES IDX 3 23 4 24 1 25 15 28 24 30 25 31 26 32 27 33 28 34 29 35
REMARK SMILES IDX 30 36 31 37 32 38 96 39 33 40 95 41 34 42 35 43 36 44 89 45
REMARK SMILES IDX 37 46 94 47 88 48 90 49 38 50 93 51 87 52 86 53 39 55 73 56
REMARK SMILES IDX 52 57 72 58 53 59 56 60 71 61 91 62 54 63 55 64 70 66 92 67
REMARK SMILES IDX 57 68 40 69 41 70 50 71 42 72 43 73 49 74 51 75 44 76 45 77
REMARK SMILES IDX 46 78 47 79 48 80 74 81 75 82 84 83 76 84 77 85 83 86 85 87
REMARK SMILES IDX 78 88 79 89 80 90 81 91 82 92 58 93 59 94 68 95 60 96 61 97
REMARK SMILES IDX 67 98 69 99 62 100 63 101 64 102 65 103 66 104
REMARK H PARENT 1 26 1 27 15 29 90 54 56 65
REMARK Flexibility Score: inf
ROOT
ATOM      1  C   UNL A   1      34.487  25.065  25.471  1.00  0.00     0.188 C 
ENDROOT
BRANCH   1   2
ATOM      2  O   UNL A   1      33.918  26.350  25.284  1.00  0.00    -0.376 OA
BRANCH   2   3
ATOM      3  C   UNL A   1      34.386  27.197  24.246  1.00  0.00     0.202 C 
BRANCH   3   4
ATOM      4  C   UNL A   1      33.370  27.987  23.422  1.00  0.00     0.261 C 
BRANCH   4   5
ATOM      5  O   UNL A   1      32.759  27.195  22.392  1.00  0.00    -0.460 OA
BRANCH   5   6
ATOM      6  C   UNL A   1      31.414  27.071  22.486  1.00  0.00     0.342 C 
ATOM      7  O   UNL A   1      30.578  27.465  21.687  1.00  0.00    -0.246 OA
BRANCH   6   8
ATOM      8  C   UNL A   1      31.053  26.167  23.591  1.00  0.00     0.102 A 
ATOM      9  C   UNL A   1      31.018  23.995  24.646  1.00  0.00    -0.006 A 
ATOM     10  C   UNL A   1      30.254  24.512  25.699  1.00  0.00     0.013 A 
ATOM     11  C   UNL A   1      31.407  24.814  23.578  1.00  0.00     0.029 A 
ATOM     12  C   UNL A   1      29.892  25.859  25.698  1.00  0.00     0.048 A 
ATOM     13  C   UNL A   1      30.308  26.686  24.658  1.00  0.00     0.130 A 
BRANCH   9  14
ATOM     14  C   UNL A   1      31.437  22.578  24.708  1.00  0.00     0.119 C 
ATOM     15  N   UNL A   1      32.377  22.123  23.946  1.00  0.00    -0.256 NA
BRANCH  15  16
ATOM     16  C   UNL A   1      32.796  20.787  24.045  1.00  0.00     0.063 A 
ATOM     17  C   UNL A   1      33.430  18.052  24.154  1.00  0.00     0.082 A 
ATOM     18  C   UNL A   1      32.590  18.529  23.147  1.00  0.00     0.024 A 
ATOM     19  C   UNL A   1      33.968  18.927  25.099  1.00  0.00     0.024 A 
ATOM     20  C   UNL A   1      32.275  19.889  23.105  1.00  0.00     0.030 A 
ATOM     21  C   UNL A   1      33.640  20.288  25.047  1.00  0.00     0.030 A 
BRANCH  17  22
ATOM     22  S   UNL A   1      33.801  16.325  24.197  1.00  0.00     0.238 S 
ATOM     23  O   UNL A   1      34.274  15.915  22.896  1.00  0.00    -0.207 OA
ATOM     24  O   UNL A   1      32.732  15.643  24.889  1.00  0.00    -0.207 OA
BRANCH  22  25
ATOM     25  N   UNL A   1      35.143  16.212  25.202  1.00  0.00    -0.225 NA
ATOM     26  H   UNL A   1      34.973  16.740  26.058  1.00  0.00     0.137 HD
ATOM     27  H   UNL A   1      35.959  16.595  24.724  1.00  0.00     0.137 HD
ENDBRANCH  22  25
ENDBRANCH  17  22
ENDBRANCH  15  16
ENDBRANCH   9  14
BRANCH  13  28
ATOM     28  O   UNL A   1      29.921  27.996  24.733  1.00  0.00    -0.507 OA
ATOM     29  H   UNL A   1      29.275  28.258  25.359  1.00  0.00     0.293 HD
ENDBRANCH  13  28
ENDBRANCH   6   8
ENDBRANCH   5   6
ENDBRANCH   4   5
ENDBRANCH   3   4
ENDBRANCH   2   3
ENDBRANCH   1   2
BRANCH   1  30
ATOM     30  C   UNL A   1      35.045  24.262  24.277  1.00  0.00     0.188 C 
BRANCH  30  31
ATOM     31  O   UNL A   1      36.365  23.748  24.285  1.00  0.00    -0.376 OA
BRANCH  31  32
ATOM     32  C   UNL A   1      36.589  22.385  23.964  1.00  0.00     0.202 C 
BRANCH  32  33
ATOM     33  C   UNL A   1      37.470  21.540  24.883  1.00  0.00     0.261 C 
BRANCH  33  34
ATOM     34  O   UNL A   1      37.874  22.230  26.074  1.00  0.00    -0.460 OA
BRANCH  34  35
ATOM     35  C   UNL A   1      39.190  22.130  26.379  1.00  0.00     0.338 C 
ATOM     36  O   UNL A   1      39.930  21.184  26.175  1.00  0.00    -0.246 OA
BRANCH  35  37
ATOM     37  C   UNL A   1      39.667  23.431  26.878  1.00  0.00     0.060 A 
ATOM     38  C   UNL A   1      39.304  24.587  26.175  1.00  0.00     0.016 A 
ATOM     39  C   UNL A   1      40.495  23.506  27.999  1.00  0.00     0.016 A 
ATOM     40  C   UNL A   1      39.778  25.830  26.591  1.00  0.00     0.010 A 
ATOM     41  C   UNL A   1      40.985  24.751  28.401  1.00  0.00     0.010 A 
ATOM     42  C   UNL A   1      40.642  25.916  27.691  1.00  0.00    -0.014 A 
BRANCH  42  43
ATOM     43  C   UNL A   1      41.266  27.209  28.052  1.00  0.00     0.031 A 
ATOM     44  C   UNL A   1      42.755  27.368  27.920  1.00  0.00     0.074 A 
ATOM     45  C   UNL A   1      40.513  28.224  28.512  1.00  0.00     0.049 A 
ATOM     46  N   UNL A   1      43.512  28.377  28.261  1.00  0.00    -0.248 NA
ATOM     47  C   UNL A   1      43.485  26.238  27.324  1.00  0.00     0.031 C 
ATOM     48  C   UNL A   1      39.058  28.201  28.646  1.00  0.00     0.029 A 
ATOM     49  N   UNL A   1      40.876  29.465  28.970  1.00  0.00    -0.354 N 
ATOM     50  C   UNL A   1      44.808  28.008  27.923  1.00  0.00     0.074 A 
ATOM     51  C   UNL A   1      44.737  26.671  27.371  1.00  0.00     0.031 C 
ATOM     52  C   UNL A   1      38.653  29.367  29.180  1.00  0.00     0.029 A 
ATOM     53  C   UNL A   1      39.821  30.201  29.452  1.00  0.00     0.049 A 
ATOM     54  H   UNL A   1      41.803  29.797  28.954  1.00  0.00     0.167 HD
ATOM     55  C   UNL A   1      45.951  28.720  28.059  1.00  0.00     0.037 A 
ATOM     56  C   UNL A   1      39.805  31.398  30.072  1.00  0.00     0.037 A 
ATOM     57  C   UNL A   1      46.019  30.043  28.623  1.00  0.00     0.049 A 
ATOM     58  C   UNL A   1      41.102  32.132  30.296  1.00  0.00     0.074 A 
ATOM     59  C   UNL A   1      47.128  30.856  28.782  1.00  0.00     0.029 A 
ATOM     60  N   UNL A   1      44.936  30.742  29.135  1.00  0.00    -0.354 N 
ATOM     61  N   UNL A   1      42.318  31.787  29.947  1.00  0.00    -0.248 NA
ATOM     62  C   UNL A   1      41.024  33.419  31.003  1.00  0.00     0.031 C 
ATOM     63  C   UNL A   1      46.723  32.026  29.434  1.00  0.00     0.029 A 
ATOM     64  C   UNL A   1      45.354  31.963  29.641  1.00  0.00     0.049 A 
ATOM     65  H   UNL A   1      44.006  30.418  29.140  1.00  0.00     0.167 HD
ATOM     66  C   UNL A   1      43.146  32.819  30.375  1.00  0.00     0.074 A 
ATOM     67  C   UNL A   1      42.292  33.808  30.998  1.00  0.00     0.031 C 
ATOM     68  C   UNL A   1      44.494  32.937  30.263  1.00  0.00     0.037 A 
BRANCH  55  69
ATOM     69  C   UNL A   1      47.230  28.070  27.614  1.00  0.00     0.058 A 
ATOM     70  C   UNL A   1      47.729  28.242  26.313  1.00  0.00     0.135 A 
ATOM     71  C   UNL A   1      47.981  27.288  28.507  1.00  0.00     0.135 A 
ATOM     72  F   UNL A   1      47.040  28.964  25.414  1.00  0.00    -0.206 F 
ATOM     73  C   UNL A   1      48.918  27.645  25.907  1.00  0.00     0.059 A 
ATOM     74  C   UNL A   1      49.184  26.701  28.129  1.00  0.00     0.059 A 
ATOM     75  F   UNL A   1      47.546  27.090  29.761  1.00  0.00    -0.206 F 
ATOM     76  C   UNL A   1      49.637  26.873  26.822  1.00  0.00     0.060 A 
BRANCH  76  77
ATOM     77  S   UNL A   1      51.178  26.106  26.280  1.00  0.00     0.124 S 
ATOM     78  O   UNL A   1      50.968  26.018  24.838  1.00  0.00    -0.237 OA
ATOM     79  O   UNL A   1      52.181  27.074  26.716  1.00  0.00    -0.237 OA
ATOM     80  O   UNL A   1      51.193  24.831  26.989  1.00  0.00    -0.744 OA
ENDBRANCH  76  77
ENDBRANCH  55  69
BRANCH  56  81
ATOM     81  C   UNL A   1      38.520  31.966  30.556  1.00  0.00     0.058 A 
ATOM     82  C   UNL A   1      37.733  32.783  29.731  1.00  0.00     0.135 A 
ATOM     83  C   UNL A   1      38.055  31.704  31.855  1.00  0.00     0.135 A 
ATOM     84  F   UNL A   1      38.144  33.072  28.487  1.00  0.00    -0.206 F 
ATOM     85  C   UNL A   1      36.536  33.332  30.180  1.00  0.00     0.059 A 
ATOM     86  C   UNL A   1      36.850  32.223  32.318  1.00  0.00     0.059 A 
ATOM     87  F   UNL A   1      38.769  30.924  32.680  1.00  0.00    -0.206 F 
ATOM     88  C   UNL A   1      36.101  33.044  31.475  1.00  0.00     0.060 A 
BRANCH  88  89
ATOM     89  S   UNL A   1      34.524  33.723  32.032  1.00  0.00     0.124 S 
ATOM     90  O   UNL A   1      33.849  32.530  32.528  1.00  0.00    -0.237 OA
ATOM     91  O   UNL A   1      34.944  34.688  33.044  1.00  0.00    -0.237 OA
ATOM     92  O   UNL A   1      33.963  34.307  30.817  1.00  0.00    -0.744 OA
ENDBRANCH  88  89
ENDBRANCH  56  81
BRANCH  68  93
ATOM     93  C   UNL A   1      45.129  34.184  30.811  1.00  0.00     0.058 A 
ATOM     94  C   UNL A   1      45.614  34.245  32.127  1.00  0.00     0.135 A 
ATOM     95  C   UNL A   1      45.302  35.315  29.997  1.00  0.00     0.135 A 
ATOM     96  F   UNL A   1      45.467  33.195  32.951  1.00  0.00    -0.206 F 
ATOM     97  C   UNL A   1      46.232  35.388  32.622  1.00  0.00     0.059 A 
ATOM     98  C   UNL A   1      45.940  36.460  30.463  1.00  0.00     0.059 A 
ATOM     99  F   UNL A   1      44.865  35.306  28.727  1.00  0.00    -0.206 F 
ATOM    100  C   UNL A   1      46.392  36.492  31.782  1.00  0.00     0.060 A 
BRANCH 100 101
ATOM    101  S   UNL A   1      47.229  37.958  32.423  1.00  0.00     0.124 S 
ATOM    102  O   UNL A   1      46.289  38.411  33.443  1.00  0.00    -0.237 OA
ATOM    103  O   UNL A   1      48.487  37.409  32.920  1.00  0.00    -0.237 OA
ATOM    104  O   UNL A   1      47.350  38.820  31.251  1.00  0.00    -0.744 OA
ENDBRANCH 100 101
ENDBRANCH  68  93
ENDBRANCH  42  43
ENDBRANCH  35  37
ENDBRANCH  34  35
ENDBRANCH  33  34
ENDBRANCH  32  33
ENDBRANCH  31  32
ENDBRANCH  30  31
ENDBRANCH   1  30
TORSDOF 25
ENDMDL
MODEL 2
REMARK VINA RESULT:      -9.5      2.408      8.770
REMARK SMILES NS(=O)(=O)c1ccc(/N=C/c2ccc(O)c(C(=O)OCCOCCOCCOC(=O)c3ccc(-c4c5nc(c(-c6c(F)cc(S(=O)(=O)[O-])cc6F)c6ccc([nH]6)c(-c6c(F)cc(S(=O)(=O)[O-])cc6F)c6nc(c(-c7c(F)cc(S(=O)(=O)[O-])cc7F)c7ccc4[nH]7)C=C6)C=C5)cc3)c2)cc1
REMARK SMILES IDX 23 1 22 2 21 3 20 4 19 5 17 6 18 7 16 8 11 9 12 10 97 11
REMARK SMILES IDX 13 12 14 13 10 14 9 15 8 16 5 17 6 18 99 19 7 20 98 21 2 22
REMARK SMILES IDX 3 23 4 24 1 25 15 28 24 30 25 31 26 32 27 33 28 34 29 35
REMARK SMILES IDX 30 36 31 37 32 38 96 39 33 40 95 41 34 42 35 43 36 44 89 45
REMARK SMILES IDX 37 46 94 47 88 48 90 49 38 50 93 51 87 52 86 53 39 55 73 56
REMARK SMILES IDX 52 57 72 58 53 59 56 60 71 61 91 62 54 63 55 64 70 66 92 67
REMARK SMILES IDX 57 68 40 69 41 70 50 71 42 72 43 73 49 74 51 75 44 76 45 77
REMARK SMILES IDX 46 78 47 79 48 80 74 81 75 82 84 83 76 84 77 85 83 86 85 87
REMARK SMILES IDX 78 88 79 89 80 90 81 91 82 92 58 93 59 94 68 95 60 96 61 97
REMARK SMILES IDX 67 98 69 99 62 100 63 101 64 102 65 103 66 104
REMARK H PARENT 1 26 1 27 15 29 90 54 56 65
REMARK Flexibility Score: inf
ROOT
ATOM      1  C   UNL A   1      34.331  34.813  29.020  1.00  0.00     0.188 C 
ENDROOT
BRANCH   1   2
ATOM      2  O   UNL A   1      33.969  34.020  27.902  1.00  0.00    -0.376 OA
BRANCH   2   3
ATOM      3  C   UNL A   1      33.427  32.722  28.089  1.00  0.00     0.202 C 
BRANCH   3   4
ATOM      4  C   UNL A   1      34.237  31.510  27.630  1.00  0.00     0.261 C 
BRANCH   4   5
ATOM      5  O   UNL A   1      33.414  30.365  27.364  1.00  0.00    -0.460 OA
BRANCH   5   6
ATOM      6  C   UNL A   1      34.022  29.368  26.679  1.00  0.00     0.342 C 
ATOM      7  O   UNL A   1      35.186  29.011  26.772  1.00  0.00    -0.246 OA
BRANCH   6   8
ATOM      8  C   UNL A   1      33.031  28.567  25.940  1.00  0.00     0.102 A 
ATOM      9  C   UNL A   1      32.169  26.465  25.121  1.00  0.00    -0.006 A 
ATOM     10  C   UNL A   1      31.144  27.140  24.449  1.00  0.00     0.013 A 
ATOM     11  C   UNL A   1      33.128  27.174  25.855  1.00  0.00     0.029 A 
ATOM     12  C   UNL A   1      31.062  28.532  24.525  1.00  0.00     0.048 A 
ATOM     13  C   UNL A   1      31.990  29.238  25.285  1.00  0.00     0.130 A 
BRANCH   9  14
ATOM     14  C   UNL A   1      32.192  24.988  25.071  1.00  0.00     0.119 C 
ATOM     15  N   UNL A   1      32.998  24.356  24.283  1.00  0.00    -0.256 NA
BRANCH  15  16
ATOM     16  C   UNL A   1      33.042  22.953  24.276  1.00  0.00     0.063 A 
ATOM     17  C   UNL A   1      32.919  20.148  24.167  1.00  0.00     0.082 A 
ATOM     18  C   UNL A   1      32.268  20.908  23.195  1.00  0.00     0.024 A 
ATOM     19  C   UNL A   1      33.642  20.772  25.185  1.00  0.00     0.024 A 
ATOM     20  C   UNL A   1      32.330  22.303  23.261  1.00  0.00     0.030 A 
ATOM     21  C   UNL A   1      33.691  22.171  25.242  1.00  0.00     0.030 A 
BRANCH  17  22
ATOM     22  S   UNL A   1      32.814  18.387  24.072  1.00  0.00     0.238 S 
ATOM     23  O   UNL A   1      31.991  17.908  25.158  1.00  0.00    -0.207 OA
ATOM     24  O   UNL A   1      34.132  17.861  23.801  1.00  0.00    -0.207 OA
BRANCH  22  25
ATOM     25  N   UNL A   1      31.910  18.099  22.684  1.00  0.00    -0.225 NA
ATOM     26  H   UNL A   1      32.193  18.752  21.952  1.00  0.00     0.137 HD
ATOM     27  H   UNL A   1      30.920  18.227  22.889  1.00  0.00     0.137 HD
ENDBRANCH  22  25
ENDBRANCH  17  22
ENDBRANCH  15  16
ENDBRANCH   9  14
BRANCH  13  28
ATOM     28  O   UNL A   1      31.837  30.597  25.318  1.00  0.00    -0.507 OA
ATOM     29  H   UNL A   1      31.480  31.010  26.080  1.00  0.00     0.293 HD
ENDBRANCH  13  28
ENDBRANCH   6   8
ENDBRANCH   5   6
ENDBRANCH   4   5
ENDBRANCH   3   4
ENDBRANCH   2   3
ENDBRANCH   1   2
BRANCH   1  30
ATOM     30  C   UNL A   1      33.287  35.206  30.086  1.00  0.00     0.188 C 
BRANCH  30  31
ATOM     31  O   UNL A   1      33.595  36.127  31.118  1.00  0.00    -0.376 OA
BRANCH  31  32
ATOM     32  C   UNL A   1      34.067  35.649  32.367  1.00  0.00     0.202 C 
BRANCH  32  33
ATOM     33  C   UNL A   1      35.416  34.933  32.426  1.00  0.00     0.261 C 
BRANCH  33  34
ATOM     34  O   UNL A   1      35.329  33.599  32.946  1.00  0.00    -0.460 OA
BRANCH  34  35
ATOM     35  C   UNL A   1      35.125  32.632  32.019  1.00  0.00     0.338 C 
ATOM     36  O   UNL A   1      34.078  32.337  31.471  1.00  0.00    -0.246 OA
BRANCH  35  37
ATOM     37  C   UNL A   1      36.425  32.058  31.633  1.00  0.00     0.060 A 
ATOM     38  C   UNL A   1      37.174  31.389  32.610  1.00  0.00     0.016 A 
ATOM     39  C   UNL A   1      36.919  32.212  30.336  1.00  0.00     0.016 A 
ATOM     40  C   UNL A   1      38.430  30.875  32.291  1.00  0.00     0.010 A 
ATOM     41  C   UNL A   1      38.186  31.714  30.026  1.00  0.00     0.010 A 
ATOM     42  C   UNL A   1      38.954  31.058  31.005  1.00  0.00    -0.014 A 
BRANCH  42  43
ATOM     43  C   UNL A   1      40.342  30.646  30.697  1.00  0.00     0.031 A 
ATOM     44  C   UNL A   1      41.459  31.634  30.882  1.00  0.00     0.074 A 
ATOM     45  C   UNL A   1      40.600  29.408  30.239  1.00  0.00     0.049 A 
ATOM     46  N   UNL A   1      42.728  31.513  30.593  1.00  0.00    -0.248 NA
ATOM     47  C   UNL A   1      41.096  32.932  31.473  1.00  0.00     0.031 C 
ATOM     48  C   UNL A   1      39.606  28.352  30.056  1.00  0.00     0.029 A 
ATOM     49  N   UNL A   1      41.778  28.840  29.825  1.00  0.00    -0.354 N 
ATOM     50  C   UNL A   1      43.317  32.715  30.963  1.00  0.00     0.074 A 
ATOM     51  C   UNL A   1      42.262  33.562  31.478  1.00  0.00     0.031 C 
ATOM     52  C   UNL A   1      40.213  27.270  29.540  1.00  0.00     0.029 A 
ATOM     53  C   UNL A   1      41.628  27.568  29.328  1.00  0.00     0.049 A 
ATOM     54  H   UNL A   1      42.647  29.298  29.880  1.00  0.00     0.167 HD
ATOM     55  C   UNL A   1      44.619  33.077  30.883  1.00  0.00     0.037 A 
ATOM     56  C   UNL A   1      42.524  26.752  28.738  1.00  0.00     0.037 A 
ATOM     57  C   UNL A   1      45.662  32.236  30.356  1.00  0.00     0.049 A 
ATOM     58  C   UNL A   1      43.949  27.212  28.576  1.00  0.00     0.074 A 
ATOM     59  C   UNL A   1      47.017  32.505  30.255  1.00  0.00     0.029 A 
ATOM     60  N   UNL A   1      45.467  30.969  29.826  1.00  0.00    -0.354 N 
ATOM     61  N   UNL A   1      44.502  28.339  28.956  1.00  0.00    -0.248 NA
ATOM     62  C   UNL A   1      44.874  26.290  27.899  1.00  0.00     0.031 C 
ATOM     63  C   UNL A   1      47.632  31.420  29.619  1.00  0.00     0.029 A 
ATOM     64  C   UNL A   1      46.669  30.456  29.366  1.00  0.00     0.049 A 
ATOM     65  H   UNL A   1      44.600  30.503  29.783  1.00  0.00     0.167 HD
ATOM     66  C   UNL A   1      45.838  28.255  28.581  1.00  0.00     0.074 A 
ATOM     67  C   UNL A   1      46.016  26.961  27.956  1.00  0.00     0.031 C 
ATOM     68  C   UNL A   1      46.831  29.167  28.740  1.00  0.00     0.037 A 
BRANCH  55  69
ATOM     69  C   UNL A   1      44.985  34.455  31.354  1.00  0.00     0.058 A 
ATOM     70  C   UNL A   1      44.946  35.562  30.491  1.00  0.00     0.135 A 
ATOM     71  C   UNL A   1      45.351  34.678  32.691  1.00  0.00     0.135 A 
ATOM     72  F   UNL A   1      44.621  35.401  29.198  1.00  0.00    -0.206 F 
ATOM     73  C   UNL A   1      45.278  36.839  30.932  1.00  0.00     0.059 A 
ATOM     74  C   UNL A   1      45.665  35.950  33.159  1.00  0.00     0.059 A 
ATOM     75  F   UNL A   1      45.407  33.653  33.555  1.00  0.00    -0.206 F 
ATOM     76  C   UNL A   1      45.640  37.022  32.269  1.00  0.00     0.060 A 
BRANCH  76  77
ATOM     77  S   UNL A   1      46.066  38.685  32.827  1.00  0.00     0.124 S 
ATOM     78  O   UNL A   1      46.352  38.453  34.239  1.00  0.00    -0.237 OA
ATOM     79  O   UNL A   1      47.219  39.010  31.993  1.00  0.00    -0.237 OA
ATOM     80  O   UNL A   1      44.859  39.457  32.551  1.00  0.00    -0.744 OA
ENDBRANCH  76  77
ENDBRANCH  55  69
BRANCH  56  81
ATOM     81  C   UNL A   1      42.094  25.424  28.227  1.00  0.00     0.058 A 
ATOM     82  C   UNL A   1      41.320  25.312  27.063  1.00  0.00     0.135 A 
ATOM     83  C   UNL A   1      42.446  24.241  28.895  1.00  0.00     0.135 A 
ATOM     84  F   UNL A   1      40.946  26.416  26.398  1.00  0.00    -0.206 F 
ATOM     85  C   UNL A   1      40.899  24.075  26.585  1.00  0.00     0.059 A 
ATOM     86  C   UNL A   1      42.058  22.991  28.425  1.00  0.00     0.059 A 
ATOM     87  F   UNL A   1      43.191  24.296  30.011  1.00  0.00    -0.206 F 
ATOM     88  C   UNL A   1      41.275  22.919  27.272  1.00  0.00     0.060 A 
BRANCH  88  89
ATOM     89  S   UNL A   1      40.764  21.316  26.618  1.00  0.00     0.124 S 
ATOM     90  O   UNL A   1      41.856  21.010  25.702  1.00  0.00    -0.237 OA
ATOM     91  O   UNL A   1      40.696  20.498  27.826  1.00  0.00    -0.237 OA
ATOM     92  O   UNL A   1      39.476  21.604  25.994  1.00  0.00    -0.744 OA
ENDBRANCH  88  89
ENDBRANCH  56  81
BRANCH  68  93
ATOM     93  C   UNL A   1      48.201  28.796  28.246  1.00  0.00     0.058 A 
ATOM     94  C   UNL A   1      49.129  28.144  29.073  1.00  0.00     0.135 A 
ATOM     95  C   UNL A   1      48.572  29.046  26.915  1.00  0.00     0.135 A 
ATOM     96  F   UNL A   1      48.827  27.887  30.356  1.00  0.00    -0.206 F 
ATOM     97  C   UNL A   1      50.384  27.769  28.604  1.00  0.00     0.059 A 
ATOM     98  C   UNL A   1      49.812  28.658  26.417  1.00  0.00     0.059 A 
ATOM     99  F   UNL A   1      47.718  29.658  26.079  1.00  0.00    -0.206 F 
ATOM    100  C   UNL A   1      50.716  28.029  27.273  1.00  0.00     0.060 A 
BRANCH 100 101
ATOM    101  S   UNL A   1      52.334  27.506  26.664  1.00  0.00     0.124 S 
ATOM    102  O   UNL A   1      53.184  28.610  27.099  1.00  0.00    -0.237 OA
ATOM    103  O   UNL A   1      52.535  26.238  27.359  1.00  0.00    -0.237 OA
ATOM    104  O   UNL A   1      52.135  27.397  25.221  1.00  0.00    -0.744 OA
ENDBRANCH 100 101
ENDBRANCH  68  93
ENDBRANCH  42  43
ENDBRANCH  35  37
ENDBRANCH  34  35
ENDBRANCH  33  34
ENDBRANCH  32  33
ENDBRANCH  31  32
ENDBRANCH  30  31
ENDBRANCH   1  30
TORSDOF 25
ENDMDL
MODEL 3
REMARK VINA RESULT:      -9.2      4.892      8.914
REMARK SMILES NS(=O)(=O)c1ccc(/N=C/c2ccc(O)c(C(=O)OCCOCCOCCOC(=O)c3ccc(-c4c5nc(c(-c6c(F)cc(S(=O)(=O)[O-])cc6F)c6ccc([nH]6)c(-c6c(F)cc(S(=O)(=O)[O-])cc6F)c6nc(c(-c7c(F)cc(S(=O)(=O)[O-])cc7F)c7ccc4[nH]7)C=C6)C=C5)cc3)c2)cc1
REMARK SMILES IDX 23 1 22 2 21 3 20 4 19 5 17 6 18 7 16 8 11 9 12 10 97 11
REMARK SMILES IDX 13 12 14 13 10 14 9 15 8 16 5 17 6 18 99 19 7 20 98 21 2 22
REMARK SMILES IDX 3 23 4 24 1 25 15 28 24 30 25 31 26 32 27 33 28 34 29 35
REMARK SMILES IDX 30 36 31 37 32 38 96 39 33 40 95 41 34 42 35 43 36 44 89 45
REMARK SMILES IDX 37 46 94 47 88 48 90 49 38 50 93 51 87 52 86 53 39 55 73 56
REMARK SMILES IDX 52 57 72 58 53 59 56 60 71 61 91 62 54 63 55 64 70 66 92 67
REMARK SMILES IDX 57 68 40 69 41 70 50 71 42 72 43 73 49 74 51 75 44 76 45 77
REMARK SMILES IDX 46 78 47 79 48 80 74 81 75 82 84 83 76 84 77 85 83 86 85 87
REMARK SMILES IDX 78 88 79 89 80 90 81 91 82 92 58 93 59 94 68 95 60 96 61 97
REMARK SMILES IDX 67 98 69 99 62 100 63 101 64 102 65 103 66 104
REMARK H PARENT 1 26 1 27 15 29 90 54 56 65
REMARK Flexibility Score: inf
ROOT
ATOM      1  C   UNL A   1      35.697  23.651  25.875  1.00  0.00     0.188 C 
ENDROOT
BRANCH   1   2
ATOM      2  O   UNL A   1      34.696  24.525  25.382  1.00  0.00    -0.376 OA
BRANCH   2   3
ATOM      3  C   UNL A   1      34.898  25.929  25.401  1.00  0.00     0.202 C 
BRANCH   3   4
ATOM      4  C   UNL A   1      33.696  26.852  25.201  1.00  0.00     0.261 C 
BRANCH   4   5
ATOM      5  O   UNL A   1      33.889  27.785  24.127  1.00  0.00    -0.460 OA
BRANCH   5   6
ATOM      6  C   UNL A   1      33.411  27.383  22.926  1.00  0.00     0.342 C 
ATOM      7  O   UNL A   1      33.895  27.605  21.827  1.00  0.00    -0.246 OA
BRANCH   6   8
ATOM      8  C   UNL A   1      32.321  26.408  23.101  1.00  0.00     0.102 A 
ATOM      9  C   UNL A   1      31.475  24.149  23.201  1.00  0.00    -0.006 A 
ATOM     10  C   UNL A   1      30.174  24.636  23.368  1.00  0.00     0.013 A 
ATOM     11  C   UNL A   1      32.553  25.030  23.048  1.00  0.00     0.029 A 
ATOM     12  C   UNL A   1      29.948  26.013  23.404  1.00  0.00     0.048 A 
ATOM     13  C   UNL A   1      31.020  26.893  23.292  1.00  0.00     0.130 A 
BRANCH   9  14
ATOM     14  C   UNL A   1      31.689  22.686  23.228  1.00  0.00     0.119 C 
ATOM     15  N   UNL A   1      32.710  22.168  23.827  1.00  0.00    -0.256 NA
BRANCH  15  16
ATOM     16  C   UNL A   1      32.879  20.775  23.884  1.00  0.00     0.063 A 
ATOM     17  C   UNL A   1      33.438  18.027  24.049  1.00  0.00     0.082 A 
ATOM     18  C   UNL A   1      34.144  18.927  24.848  1.00  0.00     0.024 A 
ATOM     19  C   UNL A   1      32.447  18.482  23.179  1.00  0.00     0.024 A 
ATOM     20  C   UNL A   1      33.864  20.293  24.754  1.00  0.00     0.030 A 
ATOM     21  C   UNL A   1      32.179  19.854  23.092  1.00  0.00     0.030 A 
BRANCH  17  22
ATOM     22  S   UNL A   1      33.822  16.307  24.174  1.00  0.00     0.238 S 
ATOM     23  O   UNL A   1      34.379  15.860  22.919  1.00  0.00    -0.207 OA
ATOM     24  O   UNL A   1      32.719  15.636  24.821  1.00  0.00    -0.207 OA
BRANCH  22  25
ATOM     25  N   UNL A   1      35.101  16.244  25.263  1.00  0.00    -0.225 NA
ATOM     26  H   UNL A   1      35.972  16.080  24.756  1.00  0.00     0.137 HD
ATOM     27  H   UNL A   1      34.946  15.485  25.926  1.00  0.00     0.137 HD
ENDBRANCH  22  25
ENDBRANCH  17  22
ENDBRANCH  15  16
ENDBRANCH   9  14
BRANCH  13  28
ATOM     28  O   UNL A   1      30.719  28.226  23.346  1.00  0.00    -0.507 OA
ATOM     29  H   UNL A   1      30.008  28.567  22.840  1.00  0.00     0.293 HD
ENDBRANCH  13  28
ENDBRANCH   6   8
ENDBRANCH   5   6
ENDBRANCH   4   5
ENDBRANCH   3   4
ENDBRANCH   2   3
ENDBRANCH   1   2
BRANCH   1  30
ATOM     30  C   UNL A   1      37.192  24.022  25.778  1.00  0.00     0.188 C 
BRANCH  30  31
ATOM     31  O   UNL A   1      38.157  23.428  26.630  1.00  0.00    -0.376 OA
BRANCH  31  32
ATOM     32  C   UNL A   1      38.989  22.392  26.134  1.00  0.00     0.202 C 
BRANCH  32  33
ATOM     33  C   UNL A   1      40.505  22.547  26.233  1.00  0.00     0.261 C 
BRANCH  33  34
ATOM     34  O   UNL A   1      40.918  23.463  27.256  1.00  0.00    -0.460 OA
BRANCH  34  35
ATOM     35  C   UNL A   1      41.375  24.657  26.810  1.00  0.00     0.338 C 
ATOM     36  O   UNL A   1      41.803  24.921  25.701  1.00  0.00    -0.246 OA
BRANCH  35  37
ATOM     37  C   UNL A   1      41.135  25.678  27.844  1.00  0.00     0.060 A 
ATOM     38  C   UNL A   1      42.161  26.587  28.131  1.00  0.00     0.016 A 
ATOM     39  C   UNL A   1      39.931  25.713  28.549  1.00  0.00     0.016 A 
ATOM     40  C   UNL A   1      41.986  27.536  29.138  1.00  0.00     0.010 A 
ATOM     41  C   UNL A   1      39.767  26.651  29.571  1.00  0.00     0.010 A 
ATOM     42  C   UNL A   1      40.798  27.556  29.880  1.00  0.00    -0.014 A 
BRANCH  42  43
ATOM     43  C   UNL A   1      40.659  28.460  31.044  1.00  0.00     0.031 A 
ATOM     44  C   UNL A   1      39.662  29.583  30.988  1.00  0.00     0.074 A 
ATOM     45  C   UNL A   1      41.430  28.291  32.134  1.00  0.00     0.049 A 
ATOM     46  N   UNL A   1      39.440  30.537  31.853  1.00  0.00    -0.248 NA
ATOM     47  C   UNL A   1      38.800  29.636  29.796  1.00  0.00     0.031 C 
ATOM     48  C   UNL A   1      42.404  27.217  32.320  1.00  0.00     0.029 A 
ATOM     49  N   UNL A   1      41.526  29.038  33.280  1.00  0.00    -0.354 N 
ATOM     50  C   UNL A   1      38.416  31.305  31.314  1.00  0.00     0.074 A 
ATOM     51  C   UNL A   1      38.075  30.719  30.035  1.00  0.00     0.031 C 
ATOM     52  C   UNL A   1      43.020  27.390  33.502  1.00  0.00     0.029 A 
ATOM     53  C   UNL A   1      42.507  28.601  34.138  1.00  0.00     0.049 A 
ATOM     54  H   UNL A   1      40.948  29.811  33.471  1.00  0.00     0.167 HD
ATOM     55  C   UNL A   1      37.814  32.398  31.840  1.00  0.00     0.037 A 
ATOM     56  C   UNL A   1      42.961  29.138  35.288  1.00  0.00     0.037 A 
ATOM     57  C   UNL A   1      38.167  32.986  33.106  1.00  0.00     0.049 A 
ATOM     58  C   UNL A   1      42.337  30.407  35.809  1.00  0.00     0.074 A 
ATOM     59  C   UNL A   1      37.599  34.080  33.736  1.00  0.00     0.029 A 
ATOM     60  N   UNL A   1      39.190  32.540  33.929  1.00  0.00    -0.354 N 
ATOM     61  N   UNL A   1      41.350  31.109  35.306  1.00  0.00    -0.248 NA
ATOM     62  C   UNL A   1      42.893  30.961  37.052  1.00  0.00     0.031 C 
ATOM     63  C   UNL A   1      38.311  34.325  34.916  1.00  0.00     0.029 A 
ATOM     64  C   UNL A   1      39.292  33.355  35.045  1.00  0.00     0.049 A 
ATOM     65  H   UNL A   1      39.761  31.758  33.747  1.00  0.00     0.167 HD
ATOM     66  C   UNL A   1      41.155  32.175  36.178  1.00  0.00     0.074 A 
ATOM     67  C   UNL A   1      42.118  32.019  37.249  1.00  0.00     0.031 C 
ATOM     68  C   UNL A   1      40.260  33.192  36.101  1.00  0.00     0.037 A 
BRANCH  55  69
ATOM     69  C   UNL A   1      36.726  33.046  31.032  1.00  0.00     0.058 A 
ATOM     70  C   UNL A   1      37.017  33.944  29.994  1.00  0.00     0.135 A 
ATOM     71  C   UNL A   1      35.377  32.743  31.281  1.00  0.00     0.135 A 
ATOM     72  F   UNL A   1      38.288  34.282  29.727  1.00  0.00    -0.206 F 
ATOM     73  C   UNL A   1      36.007  34.536  29.242  1.00  0.00     0.059 A 
ATOM     74  C   UNL A   1      34.353  33.306  30.527  1.00  0.00     0.059 A 
ATOM     75  F   UNL A   1      35.047  31.894  32.265  1.00  0.00    -0.206 F 
ATOM     76  C   UNL A   1      34.677  34.212  29.519  1.00  0.00     0.060 A 
BRANCH  76  77
ATOM     77  S   UNL A   1      33.378  34.988  28.534  1.00  0.00     0.124 S 
ATOM     78  O   UNL A   1      34.160  35.684  27.517  1.00  0.00    -0.237 OA
ATOM     79  O   UNL A   1      32.611  33.838  28.065  1.00  0.00    -0.237 OA
ATOM     80  O   UNL A   1      32.691  35.847  29.492  1.00  0.00    -0.744 OA
ENDBRANCH  76  77
ENDBRANCH  55  69
BRANCH  56  81
ATOM     81  C   UNL A   1      44.087  28.495  36.014  1.00  0.00     0.058 A 
ATOM     82  C   UNL A   1      43.861  27.453  36.925  1.00  0.00     0.135 A 
ATOM     83  C   UNL A   1      45.412  28.912  35.812  1.00  0.00     0.135 A 
ATOM     84  F   UNL A   1      42.609  27.030  37.161  1.00  0.00    -0.206 F 
ATOM     85  C   UNL A   1      44.907  26.855  37.620  1.00  0.00     0.059 A 
ATOM     86  C   UNL A   1      46.476  28.314  36.478  1.00  0.00     0.059 A 
ATOM     87  F   UNL A   1      45.680  29.902  34.946  1.00  0.00    -0.206 F 
ATOM     88  C   UNL A   1      46.212  27.291  37.388  1.00  0.00     0.060 A 
BRANCH  88  89
ATOM     89  S   UNL A   1      47.567  26.477  38.261  1.00  0.00     0.124 S 
ATOM     90  O   UNL A   1      46.883  25.941  39.431  1.00  0.00    -0.237 OA
ATOM     91  O   UNL A   1      48.019  25.495  37.279  1.00  0.00    -0.237 OA
ATOM     92  O   UNL A   1      48.502  27.567  38.519  1.00  0.00    -0.744 OA
ENDBRANCH  88  89
ENDBRANCH  56  81
BRANCH  68  93
ATOM     93  C   UNL A   1      40.267  34.208  37.209  1.00  0.00     0.058 A 
ATOM     94  C   UNL A   1      41.035  35.380  37.126  1.00  0.00     0.135 A 
ATOM     95  C   UNL A   1      39.456  34.035  38.342  1.00  0.00     0.135 A 
ATOM     96  F   UNL A   1      41.832  35.592  36.067  1.00  0.00    -0.206 F 
ATOM     97  C   UNL A   1      41.013  36.336  38.136  1.00  0.00     0.059 A 
ATOM     98  C   UNL A   1      39.400  34.989  39.353  1.00  0.00     0.059 A 
ATOM     99  F   UNL A   1      38.695  32.936  38.467  1.00  0.00    -0.206 F 
ATOM    100  C   UNL A   1      40.191  36.133  39.246  1.00  0.00     0.060 A 
BRANCH 100 101
ATOM    101  S   UNL A   1      40.143  37.397  40.535  1.00  0.00     0.124 S 
ATOM    102  O   UNL A   1      38.784  37.247  41.044  1.00  0.00    -0.237 OA
ATOM    103  O   UNL A   1      41.209  36.968  41.435  1.00  0.00    -0.237 OA
ATOM    104  O   UNL A   1      40.408  38.635  39.807  1.00  0.00    -0.744 OA
ENDBRANCH 100 101
ENDBRANCH  68  93
ENDBRANCH  42  43
ENDBRANCH  35  37
ENDBRANCH  34  35
ENDBRANCH  33  34
ENDBRANCH  32  33
ENDBRANCH  31  32
ENDBRANCH  30  31
ENDBRANCH   1  30
TORSDOF 25
ENDMDL
