MODEL 1
REMARK VINA RESULT:     -11.4      0.000      0.000
REMARK SMILES Cc1cc(/C=C2/C(=O)NC(=S)N=C2OCCOCCOCCOC(=O)c2ccc(-c3c4nc(c(-c5c(F)cc(S(=O)(=O)[O-])cc5F)c5ccc([nH]5)c(-c5c(F)cc(S(=O)(=O)[O-])cc5F)c5nc(c(-c6c(F)cc(S(=O)(=O)[O-])cc6F)c6ccc3[nH]6)C=C5)C=C4)cc2)c(C)n1-c1cccc(C(=O)[O-])c1
REMARK SMILES IDX 19 1 18 2 17 3 16 4 15 5 14 6 13 7 5 8 6 9 7 10 8 11 9 12
REMARK SMILES IDX 12 13 10 14 11 16 4 17 1 18 2 19 3 20 94 21 92 22 93 23
REMARK SMILES IDX 95 24 96 25 103 26 97 27 99 28 98 29 100 30 101 31 102 32
REMARK SMILES IDX 20 33 21 34 22 35 23 36 24 37 25 38 26 39 27 40 91 41 28 42
REMARK SMILES IDX 90 43 29 44 30 45 31 46 84 47 32 48 89 49 83 50 85 51 33 52
REMARK SMILES IDX 88 53 82 54 81 55 34 57 68 58 47 59 67 60 48 61 51 62 66 63
REMARK SMILES IDX 86 64 49 65 50 66 65 68 87 69 52 70 35 71 36 72 45 73 37 74
REMARK SMILES IDX 38 75 44 76 46 77 39 78 40 79 41 80 42 81 43 82 69 83 70 84
REMARK SMILES IDX 79 85 71 86 72 87 78 88 80 89 73 90 74 91 75 92 76 93 77 94
REMARK SMILES IDX 53 95 54 96 63 97 55 98 56 99 62 100 64 101 57 102 58 103
REMARK SMILES IDX 59 104 60 105 61 106
REMARK H PARENT 9 15 85 56 51 67
REMARK Flexibility Score: inf
ROOT
ATOM      1  C   UNL A   1      33.064  29.509  26.549  1.00  0.00     0.188 C 
ENDROOT
BRANCH   1   2
ATOM      2  C   UNL A   1      31.743  28.743  26.515  1.00  0.00     0.188 C 
BRANCH   2   3
ATOM      3  O   UNL A   1      31.557  27.647  27.402  1.00  0.00    -0.376 OA
BRANCH   3   4
ATOM      4  C   UNL A   1      31.062  26.438  26.809  1.00  0.00     0.201 C 
BRANCH   4   5
ATOM      5  C   UNL A   1      32.115  25.415  26.291  1.00  0.00     0.260 C 
BRANCH   5   6
ATOM      6  O   UNL A   1      33.153  25.979  25.426  1.00  0.00    -0.475 OA
BRANCH   6   7
ATOM      7  C   UNL A   1      33.816  25.128  24.622  1.00  0.00     0.229 C 
ATOM      8  C   UNL A   1      32.271  25.543  22.509  1.00  0.00     0.029 C 
ATOM      9  C   UNL A   1      33.261  24.973  23.244  1.00  0.00     0.103 C 
ATOM     10  C   UNL A   1      33.924  23.830  22.508  1.00  0.00     0.262 C 
ATOM     11  O   UNL A   1      33.696  23.531  21.339  1.00  0.00    -0.269 OA
ATOM     12  N   UNL A   1      34.824  23.097  23.227  1.00  0.00    -0.297 N 
ATOM     13  N   UNL A   1      34.772  24.438  25.138  1.00  0.00    -0.184 NA
ATOM     14  C   UNL A   1      35.287  23.372  24.479  1.00  0.00     0.203 C 
ATOM     15  H   UNL A   1      35.177  22.285  22.795  1.00  0.00     0.172 HD
ATOM     16  S   UNL A   1      36.411  22.332  25.156  1.00  0.00    -0.038 S 
BRANCH   8  17
ATOM     17  C   UNL A   1      31.265  26.568  22.643  1.00  0.00    -0.003 A 
ATOM     18  C   UNL A   1      27.836  27.690  23.713  1.00  0.00     0.065 C 
ATOM     19  C   UNL A   1      29.222  27.465  23.225  1.00  0.00     0.020 A 
ATOM     20  C   UNL A   1      29.909  26.277  23.015  1.00  0.00     0.031 A 
ATOM     21  N   UNL A   1      30.073  28.476  22.839  1.00  0.00    -0.318 N 
ATOM     22  C   UNL A   1      31.351  27.942  22.724  1.00  0.00     0.027 A 
ATOM     23  C   UNL A   1      32.509  28.844  22.868  1.00  0.00     0.065 C 
BRANCH  21  24
ATOM     24  C   UNL A   1      29.831  29.874  22.766  1.00  0.00     0.046 A 
ATOM     25  C   UNL A   1      29.825  30.585  23.978  1.00  0.00     0.026 A 
ATOM     26  C   UNL A   1      29.239  30.409  21.618  1.00  0.00     0.036 A 
ATOM     27  C   UNL A   1      29.189  31.821  24.058  1.00  0.00     0.003 A 
ATOM     28  C   UNL A   1      28.577  31.644  21.712  1.00  0.00    -0.001 A 
ATOM     29  C   UNL A   1      28.551  32.338  22.933  1.00  0.00     0.010 A 
BRANCH  28  30
ATOM     30  C   UNL A   1      27.807  32.198  20.583  1.00  0.00     0.072 C 
ATOM     31  O   UNL A   1      27.483  31.574  19.561  1.00  0.00    -0.545 OA
ATOM     32  O   UNL A   1      27.478  33.482  20.735  1.00  0.00    -0.545 OA
ENDBRANCH  28  30
ENDBRANCH  21  24
ENDBRANCH   8  17
ENDBRANCH   6   7
ENDBRANCH   5   6
ENDBRANCH   4   5
ENDBRANCH   3   4
ENDBRANCH   2   3
ENDBRANCH   1   2
BRANCH   1  33
ATOM     33  O   UNL A   1      32.999  30.768  27.193  1.00  0.00    -0.376 OA
BRANCH  33  34
ATOM     34  C   UNL A   1      34.275  31.332  27.538  1.00  0.00     0.202 C 
BRANCH  34  35
ATOM     35  C   UNL A   1      34.370  32.074  28.908  1.00  0.00     0.261 C 
BRANCH  35  36
ATOM     36  O   UNL A   1      35.363  33.165  29.055  1.00  0.00    -0.460 OA
BRANCH  36  37
ATOM     37  C   UNL A   1      36.115  33.180  30.215  1.00  0.00     0.338 C 
ATOM     38  O   UNL A   1      35.750  33.774  31.221  1.00  0.00    -0.246 OA
BRANCH  37  39
ATOM     39  C   UNL A   1      37.436  32.375  30.211  1.00  0.00     0.060 A 
ATOM     40  C   UNL A   1      37.889  31.792  29.031  1.00  0.00     0.016 A 
ATOM     41  C   UNL A   1      38.095  31.903  31.370  1.00  0.00     0.016 A 
ATOM     42  C   UNL A   1      38.978  30.834  29.019  1.00  0.00     0.010 A 
ATOM     43  C   UNL A   1      39.171  30.880  31.356  1.00  0.00     0.010 A 
ATOM     44  C   UNL A   1      39.667  30.294  30.173  1.00  0.00    -0.014 A 
BRANCH  44  45
ATOM     45  C   UNL A   1      40.469  28.855  29.973  1.00  0.00     0.031 A 
ATOM     46  C   UNL A   1      41.047  28.637  31.332  1.00  0.00     0.074 A 
ATOM     47  C   UNL A   1      40.877  27.861  29.054  1.00  0.00     0.049 A 
ATOM     48  N   UNL A   1      41.782  29.554  31.901  1.00  0.00    -0.248 NA
ATOM     49  C   UNL A   1      40.553  27.601  32.240  1.00  0.00     0.031 C 
ATOM     50  C   UNL A   1      40.697  27.839  27.589  1.00  0.00     0.029 A 
ATOM     51  N   UNL A   1      41.572  26.590  29.201  1.00  0.00    -0.354 N 
ATOM     52  C   UNL A   1      42.152  29.026  33.109  1.00  0.00     0.074 A 
ATOM     53  C   UNL A   1      41.167  27.983  33.364  1.00  0.00     0.031 C 
ATOM     54  C   UNL A   1      41.094  26.653  27.027  1.00  0.00     0.029 A 
ATOM     55  C   UNL A   1      41.657  25.733  28.020  1.00  0.00     0.049 A 
ATOM     56  H   UNL A   1      41.969  26.319  30.060  1.00  0.00     0.167 HD
ATOM     57  C   UNL A   1      43.492  28.993  33.357  1.00  0.00     0.037 A 
ATOM     58  C   UNL A   1      42.204  24.450  27.808  1.00  0.00     0.037 A 
ATOM     59  C   UNL A   1      44.047  27.671  33.265  1.00  0.00     0.049 A 
ATOM     60  C   UNL A   1      43.272  24.294  28.808  1.00  0.00     0.074 A 
ATOM     61  C   UNL A   1      43.628  26.426  33.687  1.00  0.00     0.029 A 
ATOM     62  N   UNL A   1      44.993  27.460  32.283  1.00  0.00    -0.354 N 
ATOM     63  N   UNL A   1      44.417  24.881  28.661  1.00  0.00    -0.248 NA
ATOM     64  C   UNL A   1      43.198  23.334  29.906  1.00  0.00     0.031 C 
ATOM     65  C   UNL A   1      43.968  25.548  32.636  1.00  0.00     0.029 A 
ATOM     66  C   UNL A   1      44.835  26.196  31.765  1.00  0.00     0.049 A 
ATOM     67  H   UNL A   1      45.674  28.111  32.000  1.00  0.00     0.167 HD
ATOM     68  C   UNL A   1      45.002  24.758  29.878  1.00  0.00     0.074 A 
ATOM     69  C   UNL A   1      44.373  23.599  30.485  1.00  0.00     0.031 C 
ATOM     70  C   UNL A   1      45.378  25.925  30.454  1.00  0.00     0.037 A 
BRANCH  57  71
ATOM     71  C   UNL A   1      44.236  30.234  32.957  1.00  0.00     0.058 A 
ATOM     72  C   UNL A   1      44.656  31.122  33.950  1.00  0.00     0.135 A 
ATOM     73  C   UNL A   1      44.465  30.601  31.613  1.00  0.00     0.135 A 
ATOM     74  F   UNL A   1      44.497  30.807  35.246  1.00  0.00    -0.206 F 
ATOM     75  C   UNL A   1      45.234  32.345  33.628  1.00  0.00     0.059 A 
ATOM     76  C   UNL A   1      45.007  31.834  31.266  1.00  0.00     0.059 A 
ATOM     77  F   UNL A   1      44.165  29.748  30.618  1.00  0.00    -0.206 F 
ATOM     78  C   UNL A   1      45.381  32.704  32.285  1.00  0.00     0.060 A 
BRANCH  78  79
ATOM     79  S   UNL A   1      46.021  34.349  31.906  1.00  0.00     0.124 S 
ATOM     80  O   UNL A   1      47.034  34.532  32.943  1.00  0.00    -0.237 OA
ATOM     81  O   UNL A   1      46.542  34.159  30.557  1.00  0.00    -0.237 OA
ATOM     82  O   UNL A   1      44.854  35.214  32.032  1.00  0.00    -0.744 OA
ENDBRANCH  78  79
ENDBRANCH  57  71
BRANCH  58  83
ATOM     83  C   UNL A   1      42.314  23.195  26.823  1.00  0.00     0.058 A 
ATOM     84  C   UNL A   1      43.319  23.138  25.782  1.00  0.00     0.135 A 
ATOM     85  C   UNL A   1      41.785  21.925  27.108  1.00  0.00     0.135 A 
ATOM     86  F   UNL A   1      43.905  24.247  25.310  1.00  0.00    -0.206 F 
ATOM     87  C   UNL A   1      43.846  21.957  25.215  1.00  0.00     0.059 A 
ATOM     88  C   UNL A   1      42.276  20.716  26.513  1.00  0.00     0.059 A 
ATOM     89  F   UNL A   1      40.826  21.799  28.036  1.00  0.00    -0.206 F 
ATOM     90  C   UNL A   1      43.345  20.735  25.613  1.00  0.00     0.060 A 
BRANCH  90  91
ATOM     91  S   UNL A   1      44.195  19.220  25.046  1.00  0.00     0.124 S 
ATOM     92  O   UNL A   1      45.484  19.297  25.724  1.00  0.00    -0.237 OA
ATOM     93  O   UNL A   1      43.301  18.164  25.518  1.00  0.00    -0.237 OA
ATOM     94  O   UNL A   1      44.242  19.379  23.596  1.00  0.00    -0.744 OA
ENDBRANCH  90  91
ENDBRANCH  58  83
BRANCH  70  95
ATOM     95  C   UNL A   1      46.129  26.919  29.575  1.00  0.00     0.058 A 
ATOM     96  C   UNL A   1      45.584  27.781  28.592  1.00  0.00     0.135 A 
ATOM     97  C   UNL A   1      47.530  26.937  29.691  1.00  0.00     0.135 A 
ATOM     98  F   UNL A   1      44.264  27.972  28.456  1.00  0.00    -0.206 F 
ATOM     99  C   UNL A   1      46.385  28.517  27.714  1.00  0.00     0.059 A 
ATOM    100  C   UNL A   1      48.345  27.713  28.867  1.00  0.00     0.059 A 
ATOM    101  F   UNL A   1      48.129  26.186  30.629  1.00  0.00    -0.206 F 
ATOM    102  C   UNL A   1      47.767  28.465  27.850  1.00  0.00     0.060 A 
BRANCH 102 103
ATOM    103  S   UNL A   1      48.796  29.399  26.696  1.00  0.00     0.124 S 
ATOM    104  O   UNL A   1      50.068  29.459  27.412  1.00  0.00    -0.237 OA
ATOM    105  O   UNL A   1      48.789  28.557  25.504  1.00  0.00    -0.237 OA
ATOM    106  O   UNL A   1      48.096  30.673  26.575  1.00  0.00    -0.744 OA
ENDBRANCH 102 103
ENDBRANCH  70  95
ENDBRANCH  44  45
ENDBRANCH  37  39
ENDBRANCH  36  37
ENDBRANCH  35  36
ENDBRANCH  34  35
ENDBRANCH  33  34
ENDBRANCH   1  33
TORSDOF 22
ENDMDL
MODEL 2
REMARK VINA RESULT:      -9.7      4.009      5.797
REMARK SMILES Cc1cc(/C=C2/C(=O)NC(=S)N=C2OCCOCCOCCOC(=O)c2ccc(-c3c4nc(c(-c5c(F)cc(S(=O)(=O)[O-])cc5F)c5ccc([nH]5)c(-c5c(F)cc(S(=O)(=O)[O-])cc5F)c5nc(c(-c6c(F)cc(S(=O)(=O)[O-])cc6F)c6ccc3[nH]6)C=C5)C=C4)cc2)c(C)n1-c1cccc(C(=O)[O-])c1
REMARK SMILES IDX 19 1 18 2 17 3 16 4 15 5 14 6 13 7 5 8 6 9 7 10 8 11 9 12
REMARK SMILES IDX 12 13 10 14 11 16 4 17 1 18 2 19 3 20 94 21 92 22 93 23
REMARK SMILES IDX 95 24 96 25 103 26 97 27 99 28 98 29 100 30 101 31 102 32
REMARK SMILES IDX 20 33 21 34 22 35 23 36 24 37 25 38 26 39 27 40 91 41 28 42
REMARK SMILES IDX 90 43 29 44 30 45 31 46 84 47 32 48 89 49 83 50 85 51 33 52
REMARK SMILES IDX 88 53 82 54 81 55 34 57 68 58 47 59 67 60 48 61 51 62 66 63
REMARK SMILES IDX 86 64 49 65 50 66 65 68 87 69 52 70 35 71 36 72 45 73 37 74
REMARK SMILES IDX 38 75 44 76 46 77 39 78 40 79 41 80 42 81 43 82 69 83 70 84
REMARK SMILES IDX 79 85 71 86 72 87 78 88 80 89 73 90 74 91 75 92 76 93 77 94
REMARK SMILES IDX 53 95 54 96 63 97 55 98 56 99 62 100 64 101 57 102 58 103
REMARK SMILES IDX 59 104 60 105 61 106
REMARK H PARENT 9 15 85 56 51 67
REMARK Flexibility Score: inf
ROOT
ATOM      1  C   UNL A   1      33.120  29.778  26.933  1.00  0.00     0.188 C 
ENDROOT
BRANCH   1   2
ATOM      2  C   UNL A   1      31.751  29.148  26.683  1.00  0.00     0.188 C 
BRANCH   2   3
ATOM      3  O   UNL A   1      31.419  27.934  27.345  1.00  0.00    -0.376 OA
BRANCH   3   4
ATOM      4  C   UNL A   1      31.348  26.766  26.515  1.00  0.00     0.201 C 
BRANCH   4   5
ATOM      5  C   UNL A   1      32.660  25.953  26.313  1.00  0.00     0.260 C 
BRANCH   5   6
ATOM      6  O   UNL A   1      33.484  26.379  25.181  1.00  0.00    -0.475 OA
BRANCH   6   7
ATOM      7  C   UNL A   1      34.026  25.414  24.415  1.00  0.00     0.229 C 
ATOM      8  C   UNL A   1      32.183  25.554  22.515  1.00  0.00     0.029 C 
ATOM      9  C   UNL A   1      33.274  25.077  23.168  1.00  0.00     0.103 C 
ATOM     10  C   UNL A   1      33.827  23.834  22.510  1.00  0.00     0.262 C 
ATOM     11  O   UNL A   1      33.431  23.378  21.441  1.00  0.00    -0.269 OA
ATOM     12  N   UNL A   1      34.828  23.194  23.184  1.00  0.00    -0.297 N 
ATOM     13  N   UNL A   1      35.052  24.789  24.876  1.00  0.00    -0.184 NA
ATOM     14  C   UNL A   1      35.469  23.633  24.304  1.00  0.00     0.203 C 
ATOM     15  H   UNL A   1      35.118  22.325  22.823  1.00  0.00     0.172 HD
ATOM     16  S   UNL A   1      36.687  22.680  24.946  1.00  0.00    -0.038 S 
BRANCH   8  17
ATOM     17  C   UNL A   1      31.203  26.604  22.651  1.00  0.00    -0.003 A 
ATOM     18  C   UNL A   1      27.787  27.797  23.685  1.00  0.00     0.065 C 
ATOM     19  C   UNL A   1      29.174  27.544  23.216  1.00  0.00     0.020 A 
ATOM     20  C   UNL A   1      29.833  26.342  22.996  1.00  0.00     0.031 A 
ATOM     21  N   UNL A   1      30.057  28.539  22.861  1.00  0.00    -0.318 N 
ATOM     22  C   UNL A   1      31.323  27.973  22.757  1.00  0.00     0.027 A 
ATOM     23  C   UNL A   1      32.502  28.841  22.936  1.00  0.00     0.065 C 
BRANCH  21  24
ATOM     24  C   UNL A   1      29.854  29.943  22.809  1.00  0.00     0.046 A 
ATOM     25  C   UNL A   1      29.914  30.644  24.027  1.00  0.00     0.026 A 
ATOM     26  C   UNL A   1      29.234  30.505  21.689  1.00  0.00     0.036 A 
ATOM     27  C   UNL A   1      29.317  31.896  24.141  1.00  0.00     0.003 A 
ATOM     28  C   UNL A   1      28.612  31.758  21.819  1.00  0.00    -0.001 A 
ATOM     29  C   UNL A   1      28.652  32.442  23.046  1.00  0.00     0.010 A 
BRANCH  28  30
ATOM     30  C   UNL A   1      27.815  32.345  20.725  1.00  0.00     0.072 C 
ATOM     31  O   UNL A   1      27.448  33.529  20.661  1.00  0.00    -0.545 OA
ATOM     32  O   UNL A   1      27.488  31.473  19.770  1.00  0.00    -0.545 OA
ENDBRANCH  28  30
ENDBRANCH  21  24
ENDBRANCH   8  17
ENDBRANCH   6   7
ENDBRANCH   5   6
ENDBRANCH   4   5
ENDBRANCH   3   4
ENDBRANCH   2   3
ENDBRANCH   1   2
BRANCH   1  33
ATOM     33  O   UNL A   1      33.079  31.134  27.340  1.00  0.00    -0.376 OA
BRANCH  33  34
ATOM     34  C   UNL A   1      34.356  31.694  27.687  1.00  0.00     0.202 C 
BRANCH  34  35
ATOM     35  C   UNL A   1      34.550  32.138  29.171  1.00  0.00     0.261 C 
BRANCH  35  36
ATOM     36  O   UNL A   1      35.266  33.407  29.444  1.00  0.00    -0.460 OA
BRANCH  36  37
ATOM     37  C   UNL A   1      35.289  33.848  30.753  1.00  0.00     0.338 C 
ATOM     38  O   UNL A   1      34.268  34.146  31.359  1.00  0.00    -0.246 OA
BRANCH  37  39
ATOM     39  C   UNL A   1      36.668  33.917  31.451  1.00  0.00     0.060 A 
ATOM     40  C   UNL A   1      37.833  33.773  30.702  1.00  0.00     0.016 A 
ATOM     41  C   UNL A   1      36.871  33.806  32.846  1.00  0.00     0.016 A 
ATOM     42  C   UNL A   1      39.128  33.586  31.327  1.00  0.00     0.010 A 
ATOM     43  C   UNL A   1      38.192  33.558  33.478  1.00  0.00     0.010 A 
ATOM     44  C   UNL A   1      39.390  33.437  32.744  1.00  0.00    -0.014 A 
BRANCH  44  45
ATOM     45  C   UNL A   1      40.815  32.705  33.179  1.00  0.00     0.031 A 
ATOM     46  C   UNL A   1      41.621  33.868  33.655  1.00  0.00     0.074 A 
ATOM     47  C   UNL A   1      41.558  31.502  33.187  1.00  0.00     0.049 A 
ATOM     48  N   UNL A   1      41.798  34.915  32.894  1.00  0.00    -0.248 NA
ATOM     49  C   UNL A   1      41.940  34.079  35.067  1.00  0.00     0.031 C 
ATOM     50  C   UNL A   1      41.193  30.197  32.601  1.00  0.00     0.029 A 
ATOM     51  N   UNL A   1      42.856  31.134  33.733  1.00  0.00    -0.354 N 
ATOM     52  C   UNL A   1      42.584  35.765  33.625  1.00  0.00     0.074 A 
ATOM     53  C   UNL A   1      42.404  35.331  35.003  1.00  0.00     0.031 C 
ATOM     54  C   UNL A   1      42.089  29.209  32.917  1.00  0.00     0.029 A 
ATOM     55  C   UNL A   1      43.218  29.718  33.702  1.00  0.00     0.049 A 
ATOM     56  H   UNL A   1      43.466  31.810  34.107  1.00  0.00     0.167 HD
ATOM     57  C   UNL A   1      43.734  36.179  33.019  1.00  0.00     0.037 A 
ATOM     58  C   UNL A   1      44.346  29.009  34.167  1.00  0.00     0.037 A 
ATOM     59  C   UNL A   1      44.910  35.557  33.563  1.00  0.00     0.049 A 
ATOM     60  C   UNL A   1      45.460  29.970  34.157  1.00  0.00     0.074 A 
ATOM     61  C   UNL A   1      45.329  35.260  34.843  1.00  0.00     0.029 A 
ATOM     62  N   UNL A   1      45.643  34.759  32.709  1.00  0.00    -0.354 N 
ATOM     63  N   UNL A   1      46.043  30.306  33.049  1.00  0.00    -0.248 NA
ATOM     64  C   UNL A   1      46.108  30.449  35.375  1.00  0.00     0.031 C 
ATOM     65  C   UNL A   1      45.930  33.988  34.747  1.00  0.00     0.029 A 
ATOM     66  C   UNL A   1      46.138  33.682  33.408  1.00  0.00     0.049 A 
ATOM     67  H   UNL A   1      45.790  34.934  31.752  1.00  0.00     0.167 HD
ATOM     68  C   UNL A   1      46.780  31.393  33.389  1.00  0.00     0.074 A 
ATOM     69  C   UNL A   1      47.009  31.263  34.817  1.00  0.00     0.031 C 
ATOM     70  C   UNL A   1      46.525  32.507  32.663  1.00  0.00     0.037 A 
BRANCH  57  71
ATOM     71  C   UNL A   1      43.585  36.544  31.570  1.00  0.00     0.058 A 
ATOM     72  C   UNL A   1      43.443  35.525  30.626  1.00  0.00     0.135 A 
ATOM     73  C   UNL A   1      43.665  37.871  31.093  1.00  0.00     0.135 A 
ATOM     74  F   UNL A   1      43.324  34.248  31.025  1.00  0.00    -0.206 F 
ATOM     75  C   UNL A   1      43.430  35.799  29.263  1.00  0.00     0.059 A 
ATOM     76  C   UNL A   1      43.692  38.167  29.734  1.00  0.00     0.059 A 
ATOM     77  F   UNL A   1      43.712  38.899  31.957  1.00  0.00    -0.206 F 
ATOM     78  C   UNL A   1      43.581  37.118  28.825  1.00  0.00     0.060 A 
BRANCH  78  79
ATOM     79  S   UNL A   1      43.683  37.423  27.049  1.00  0.00     0.124 S 
ATOM     80  O   UNL A   1      43.380  36.106  26.493  1.00  0.00    -0.237 OA
ATOM     81  O   UNL A   1      42.645  38.430  26.861  1.00  0.00    -0.237 OA
ATOM     82  O   UNL A   1      45.058  37.868  26.851  1.00  0.00    -0.744 OA
ENDBRANCH  78  79
ENDBRANCH  57  71
BRANCH  58  83
ATOM     83  C   UNL A   1      44.980  27.578  34.487  1.00  0.00     0.058 A 
ATOM     84  C   UNL A   1      44.789  26.937  35.773  1.00  0.00     0.135 A 
ATOM     85  C   UNL A   1      45.385  26.660  33.503  1.00  0.00     0.135 A 
ATOM     86  F   UNL A   1      44.467  27.642  36.866  1.00  0.00    -0.206 F 
ATOM     87  C   UNL A   1      44.835  25.546  36.012  1.00  0.00     0.059 A 
ATOM     88  C   UNL A   1      45.479  25.247  33.734  1.00  0.00     0.059 A 
ATOM     89  F   UNL A   1      45.626  27.088  32.256  1.00  0.00    -0.206 F 
ATOM     90  C   UNL A   1      45.145  24.693  34.974  1.00  0.00     0.060 A 
BRANCH  90  91
ATOM     91  S   UNL A   1      44.970  22.894  35.244  1.00  0.00     0.124 S 
ATOM     92  O   UNL A   1      45.392  22.731  36.631  1.00  0.00    -0.237 OA
ATOM     93  O   UNL A   1      43.548  22.677  34.992  1.00  0.00    -0.237 OA
ATOM     94  O   UNL A   1      45.865  22.312  34.247  1.00  0.00    -0.744 OA
ENDBRANCH  90  91
ENDBRANCH  58  83
BRANCH  70  95
ATOM     95  C   UNL A   1      46.445  32.343  31.149  1.00  0.00     0.058 A 
ATOM     96  C   UNL A   1      45.360  31.829  30.396  1.00  0.00     0.135 A 
ATOM     97  C   UNL A   1      47.598  32.662  30.413  1.00  0.00     0.135 A 
ATOM     98  F   UNL A   1      44.153  31.605  30.936  1.00  0.00    -0.206 F 
ATOM     99  C   UNL A   1      45.462  31.548  29.031  1.00  0.00     0.059 A 
ATOM    100  C   UNL A   1      47.700  32.449  29.038  1.00  0.00     0.059 A 
ATOM    101  F   UNL A   1      48.659  33.198  31.039  1.00  0.00    -0.206 F 
ATOM    102  C   UNL A   1      46.643  31.848  28.362  1.00  0.00     0.060 A 
BRANCH 102 103
ATOM    103  S   UNL A   1      46.777  31.459  26.604  1.00  0.00     0.124 S 
ATOM    104  O   UNL A   1      45.375  31.426  26.198  1.00  0.00    -0.237 OA
ATOM    105  O   UNL A   1      47.553  32.580  26.084  1.00  0.00    -0.237 OA
ATOM    106  O   UNL A   1      47.451  30.165  26.595  1.00  0.00    -0.744 OA
ENDBRANCH 102 103
ENDBRANCH  70  95
ENDBRANCH  44  45
ENDBRANCH  37  39
ENDBRANCH  36  37
ENDBRANCH  35  36
ENDBRANCH  34  35
ENDBRANCH  33  34
ENDBRANCH   1  33
TORSDOF 22
ENDMDL
MODEL 3
REMARK VINA RESULT:      -9.7      5.232      8.116
REMARK SMILES Cc1cc(/C=C2/C(=O)NC(=S)N=C2OCCOCCOCCOC(=O)c2ccc(-c3c4nc(c(-c5c(F)cc(S(=O)(=O)[O-])cc5F)c5ccc([nH]5)c(-c5c(F)cc(S(=O)(=O)[O-])cc5F)c5nc(c(-c6c(F)cc(S(=O)(=O)[O-])cc6F)c6ccc3[nH]6)C=C5)C=C4)cc2)c(C)n1-c1cccc(C(=O)[O-])c1
REMARK SMILES IDX 19 1 18 2 17 3 16 4 15 5 14 6 13 7 5 8 6 9 7 10 8 11 9 12
REMARK SMILES IDX 12 13 10 14 11 16 4 17 1 18 2 19 3 20 94 21 92 22 93 23
REMARK SMILES IDX 95 24 96 25 103 26 97 27 99 28 98 29 100 30 101 31 102 32
REMARK SMILES IDX 20 33 21 34 22 35 23 36 24 37 25 38 26 39 27 40 91 41 28 42
REMARK SMILES IDX 90 43 29 44 30 45 31 46 84 47 32 48 89 49 83 50 85 51 33 52
REMARK SMILES IDX 88 53 82 54 81 55 34 57 68 58 47 59 67 60 48 61 51 62 66 63
REMARK SMILES IDX 86 64 49 65 50 66 65 68 87 69 52 70 35 71 36 72 45 73 37 74
REMARK SMILES IDX 38 75 44 76 46 77 39 78 40 79 41 80 42 81 43 82 69 83 70 84
REMARK SMILES IDX 79 85 71 86 72 87 78 88 80 89 73 90 74 91 75 92 76 93 77 94
REMARK SMILES IDX 53 95 54 96 63 97 55 98 56 99 62 100 64 101 57 102 58 103
REMARK SMILES IDX 59 104 60 105 61 106
REMARK H PARENT 9 15 85 56 51 67
REMARK Flexibility Score: inf
ROOT
ATOM      1  C   UNL A   1      40.258  35.255  35.590  1.00  0.00     0.188 C 
ENDROOT
BRANCH   1   2
ATOM      2  C   UNL A   1      39.555  35.145  34.238  1.00  0.00     0.188 C 
BRANCH   2   3
ATOM      3  O   UNL A   1      38.146  34.954  34.208  1.00  0.00    -0.376 OA
BRANCH   3   4
ATOM      4  C   UNL A   1      37.654  34.083  33.179  1.00  0.00     0.201 C 
BRANCH   4   5
ATOM      5  C   UNL A   1      36.232  33.481  33.374  1.00  0.00     0.260 C 
BRANCH   5   6
ATOM      6  O   UNL A   1      35.660  32.848  32.185  1.00  0.00    -0.475 OA
BRANCH   6   7
ATOM      7  C   UNL A   1      34.705  33.527  31.523  1.00  0.00     0.229 C 
ATOM      8  C   UNL A   1      35.689  33.033  29.112  1.00  0.00     0.029 C 
ATOM      9  C   UNL A   1      34.858  33.578  30.038  1.00  0.00     0.103 C 
ATOM     10  C   UNL A   1      33.883  34.553  29.417  1.00  0.00     0.262 C 
ATOM     11  O   UNL A   1      33.759  34.738  28.209  1.00  0.00    -0.269 OA
ATOM     12  N   UNL A   1      33.113  35.267  30.289  1.00  0.00    -0.297 N 
ATOM     13  N   UNL A   1      33.834  34.169  32.220  1.00  0.00    -0.184 NA
ATOM     14  C   UNL A   1      33.031  35.093  31.639  1.00  0.00     0.203 C 
ATOM     15  H   UNL A   1      32.557  35.983  29.903  1.00  0.00     0.172 HD
ATOM     16  S   UNL A   1      31.995  36.082  32.506  1.00  0.00    -0.038 S 
BRANCH   8  17
ATOM     17  C   UNL A   1      36.820  32.139  29.053  1.00  0.00    -0.003 A 
ATOM     18  C   UNL A   1      40.135  30.941  30.371  1.00  0.00     0.065 C 
ATOM     19  C   UNL A   1      38.846  31.246  29.696  1.00  0.00     0.020 A 
ATOM     20  C   UNL A   1      38.008  32.344  29.833  1.00  0.00     0.031 A 
ATOM     21  N   UNL A   1      38.278  30.446  28.730  1.00  0.00    -0.318 N 
ATOM     22  C   UNL A   1      36.969  30.870  28.535  1.00  0.00     0.027 A 
ATOM     23  C   UNL A   1      35.986  29.907  28.005  1.00  0.00     0.065 C 
BRANCH  21  24
ATOM     24  C   UNL A   1      38.777  29.250  28.149  1.00  0.00     0.046 A 
ATOM     25  C   UNL A   1      38.624  28.066  28.891  1.00  0.00     0.026 A 
ATOM     26  C   UNL A   1      39.709  29.329  27.110  1.00  0.00     0.036 A 
ATOM     27  C   UNL A   1      39.434  26.966  28.624  1.00  0.00     0.003 A 
ATOM     28  C   UNL A   1      40.540  28.224  26.862  1.00  0.00    -0.001 A 
ATOM     29  C   UNL A   1      40.402  27.053  27.626  1.00  0.00     0.010 A 
BRANCH  28  30
ATOM     30  C   UNL A   1      41.642  28.287  25.884  1.00  0.00     0.072 C 
ATOM     31  O   UNL A   1      41.766  29.148  24.999  1.00  0.00    -0.545 OA
ATOM     32  O   UNL A   1      42.530  27.299  26.009  1.00  0.00    -0.545 OA
ENDBRANCH  28  30
ENDBRANCH  21  24
ENDBRANCH   8  17
ENDBRANCH   6   7
ENDBRANCH   5   6
ENDBRANCH   4   5
ENDBRANCH   3   4
ENDBRANCH   2   3
ENDBRANCH   1   2
BRANCH   1  33
ATOM     33  O   UNL A   1      39.508  35.918  36.592  1.00  0.00    -0.376 OA
BRANCH  33  34
ATOM     34  C   UNL A   1      39.793  35.491  37.934  1.00  0.00     0.202 C 
BRANCH  34  35
ATOM     35  C   UNL A   1      38.940  34.310  38.494  1.00  0.00     0.261 C 
BRANCH  35  36
ATOM     36  O   UNL A   1      39.320  32.925  38.127  1.00  0.00    -0.460 OA
BRANCH  36  37
ATOM     37  C   UNL A   1      38.665  32.355  37.051  1.00  0.00     0.338 C 
ATOM     38  O   UNL A   1      37.445  32.350  36.959  1.00  0.00    -0.246 OA
BRANCH  37  39
ATOM     39  C   UNL A   1      39.543  31.749  35.931  1.00  0.00     0.060 A 
ATOM     40  C   UNL A   1      38.954  31.000  34.916  1.00  0.00     0.016 A 
ATOM     41  C   UNL A   1      40.949  31.618  35.992  1.00  0.00     0.016 A 
ATOM     42  C   UNL A   1      39.742  30.213  33.987  1.00  0.00     0.010 A 
ATOM     43  C   UNL A   1      41.746  30.766  35.073  1.00  0.00     0.010 A 
ATOM     44  C   UNL A   1      41.177  30.020  34.020  1.00  0.00    -0.014 A 
BRANCH  44  45
ATOM     45  C   UNL A   1      41.782  28.689  33.233  1.00  0.00     0.031 A 
ATOM     46  C   UNL A   1      41.878  27.696  34.343  1.00  0.00     0.074 A 
ATOM     47  C   UNL A   1      42.301  28.184  32.019  1.00  0.00     0.049 A 
ATOM     48  N   UNL A   1      42.529  27.979  35.439  1.00  0.00    -0.248 NA
ATOM     49  C   UNL A   1      40.984  26.542  34.446  1.00  0.00     0.031 C 
ATOM     50  C   UNL A   1      42.577  28.916  30.766  1.00  0.00     0.029 A 
ATOM     51  N   UNL A   1      42.724  26.859  31.588  1.00  0.00    -0.354 N 
ATOM     52  C   UNL A   1      42.431  26.859  36.220  1.00  0.00     0.074 A 
ATOM     53  C   UNL A   1      41.274  26.150  35.690  1.00  0.00     0.031 C 
ATOM     54  C   UNL A   1      42.948  28.084  29.742  1.00  0.00     0.029 A 
ATOM     55  C   UNL A   1      43.040  26.685  30.172  1.00  0.00     0.049 A 
ATOM     56  H   UNL A   1      42.795  26.112  32.225  1.00  0.00     0.167 HD
ATOM     57  C   UNL A   1      43.611  26.332  36.655  1.00  0.00     0.037 A 
ATOM     58  C   UNL A   1      43.432  25.563  29.411  1.00  0.00     0.037 A 
ATOM     59  C   UNL A   1      43.968  25.118  35.973  1.00  0.00     0.049 A 
ATOM     60  C   UNL A   1      44.107  24.654  30.349  1.00  0.00     0.074 A 
ATOM     61  C   UNL A   1      43.262  24.001  35.577  1.00  0.00     0.029 A 
ATOM     62  N   UNL A   1      45.127  25.142  35.226  1.00  0.00    -0.354 N 
ATOM     63  N   UNL A   1      45.316  24.887  30.754  1.00  0.00    -0.248 NA
ATOM     64  C   UNL A   1      43.561  23.353  30.727  1.00  0.00     0.031 C 
ATOM     65  C   UNL A   1      43.775  23.675  34.304  1.00  0.00     0.029 A 
ATOM     66  C   UNL A   1      44.952  24.382  34.093  1.00  0.00     0.049 A 
ATOM     67  H   UNL A   1      45.950  25.625  35.467  1.00  0.00     0.167 HD
ATOM     68  C   UNL A   1      45.476  24.037  31.799  1.00  0.00     0.074 A 
ATOM     69  C   UNL A   1      44.529  22.963  31.562  1.00  0.00     0.031 C 
ATOM     70  C   UNL A   1      45.824  24.627  32.968  1.00  0.00     0.037 A 
BRANCH  57  71
ATOM     71  C   UNL A   1      44.615  27.344  37.127  1.00  0.00     0.058 A 
ATOM     72  C   UNL A   1      44.856  27.470  38.497  1.00  0.00     0.135 A 
ATOM     73  C   UNL A   1      45.275  28.242  36.260  1.00  0.00     0.135 A 
ATOM     74  F   UNL A   1      44.284  26.618  39.363  1.00  0.00    -0.206 F 
ATOM     75  C   UNL A   1      45.678  28.475  38.996  1.00  0.00     0.059 A 
ATOM     76  C   UNL A   1      46.071  29.278  36.738  1.00  0.00     0.059 A 
ATOM     77  F   UNL A   1      45.153  28.111  34.929  1.00  0.00    -0.206 F 
ATOM     78  C   UNL A   1      46.260  29.389  38.113  1.00  0.00     0.060 A 
BRANCH  78  79
ATOM     79  S   UNL A   1      47.219  30.753  38.805  1.00  0.00     0.124 S 
ATOM     80  O   UNL A   1      48.435  30.716  37.994  1.00  0.00    -0.237 OA
ATOM     81  O   UNL A   1      46.340  31.890  38.554  1.00  0.00    -0.237 OA
ATOM     82  O   UNL A   1      47.404  30.375  40.201  1.00  0.00    -0.744 OA
ENDBRANCH  78  79
ENDBRANCH  57  71
BRANCH  58  83
ATOM     83  C   UNL A   1      43.652  24.958  27.948  1.00  0.00     0.058 A 
ATOM     84  C   UNL A   1      44.969  24.893  27.347  1.00  0.00     0.135 A 
ATOM     85  C   UNL A   1      42.746  24.093  27.312  1.00  0.00     0.135 A 
ATOM     86  F   UNL A   1      45.967  25.687  27.760  1.00  0.00    -0.206 F 
ATOM     87  C   UNL A   1      45.374  23.974  26.356  1.00  0.00     0.059 A 
ATOM     88  C   UNL A   1      43.126  23.180  26.273  1.00  0.00     0.059 A 
ATOM     89  F   UNL A   1      41.473  24.041  27.729  1.00  0.00    -0.206 F 
ATOM     90  C   UNL A   1      44.453  23.085  25.842  1.00  0.00     0.060 A 
BRANCH  90  91
ATOM     91  S   UNL A   1      45.047  21.757  24.737  1.00  0.00     0.124 S 
ATOM     92  O   UNL A   1      45.065  22.404  23.430  1.00  0.00    -0.237 OA
ATOM     93  O   UNL A   1      46.360  21.446  25.299  1.00  0.00    -0.237 OA
ATOM     94  O   UNL A   1      44.047  20.706  24.900  1.00  0.00    -0.744 OA
ENDBRANCH  90  91
ENDBRANCH  58  83
BRANCH  70  95
ATOM     95  C   UNL A   1      46.945  25.659  32.915  1.00  0.00     0.058 A 
ATOM     96  C   UNL A   1      46.849  27.014  32.511  1.00  0.00     0.135 A 
ATOM     97  C   UNL A   1      48.239  25.208  33.225  1.00  0.00     0.135 A 
ATOM     98  F   UNL A   1      45.670  27.622  32.312  1.00  0.00    -0.206 F 
ATOM     99  C   UNL A   1      47.974  27.821  32.322  1.00  0.00     0.059 A 
ATOM    100  C   UNL A   1      49.369  26.016  33.104  1.00  0.00     0.059 A 
ATOM    101  F   UNL A   1      48.418  23.950  33.661  1.00  0.00    -0.206 F 
ATOM    102  C   UNL A   1      49.234  27.308  32.607  1.00  0.00     0.060 A 
BRANCH 102 103
ATOM    103  S   UNL A   1      50.685  28.349  32.337  1.00  0.00     0.124 S 
ATOM    104  O   UNL A   1      50.086  29.677  32.241  1.00  0.00    -0.237 OA
ATOM    105  O   UNL A   1      51.482  28.107  33.535  1.00  0.00    -0.237 OA
ATOM    106  O   UNL A   1      51.242  27.832  31.091  1.00  0.00    -0.744 OA
ENDBRANCH 102 103
ENDBRANCH  70  95
ENDBRANCH  44  45
ENDBRANCH  37  39
ENDBRANCH  36  37
ENDBRANCH  35  36
ENDBRANCH  34  35
ENDBRANCH  33  34
ENDBRANCH   1  33
TORSDOF 22
ENDMDL
