MODEL 1
REMARK VINA RESULT:     -10.4      0.000      0.000
REMARK SMILES N#Cc1ccc(/C=C/C(=O)N[C@H]2C=C[C@H](C(=O)OCCOCCOCCOC(=O)c3ccc(-c4c5nc(c(-c6c(F)cc(S(=O)(=O)[O-])cc6F)c6ccc([nH]6)c(-c6c(F)cc(S(=O)(=O)[O-])cc6F)c6nc(c(-c7c(F)cc(S(=O)(=O)[O-])cc7F)c7ccc4[nH]7)C=C6)C=C5)cc3)C2)cc1
REMARK SMILES IDX 22 1 21 2 20 3 19 4 18 5 16 6 17 7 15 8 12 9 13 10 96 11
REMARK SMILES IDX 14 12 11 13 9 14 10 15 8 17 7 18 6 19 3 20 4 21 98 22 5 23
REMARK SMILES IDX 97 24 2 25 1 26 23 27 24 28 25 29 26 30 27 31 28 32 29 33
REMARK SMILES IDX 30 34 31 35 95 36 32 37 94 38 33 39 34 40 35 41 88 42 36 43
REMARK SMILES IDX 93 44 87 45 89 46 37 47 92 48 86 49 85 50 38 52 72 53 51 54
REMARK SMILES IDX 71 55 52 56 55 57 70 58 90 59 53 60 54 61 69 63 91 64 56 65
REMARK SMILES IDX 39 66 40 67 49 68 41 69 42 70 48 71 50 72 43 73 44 74 45 75
REMARK SMILES IDX 46 76 47 77 73 78 74 79 83 80 75 81 76 82 82 83 84 84 77 85
REMARK SMILES IDX 78 86 79 87 80 88 81 89 57 90 58 91 67 92 59 93 60 94 66 95
REMARK SMILES IDX 68 96 61 97 62 98 63 99 64 100 65 101
REMARK H PARENT 11 16 89 51 55 62
REMARK Flexibility Score: inf
ROOT
ATOM      1  C   UNL A   1      33.702  30.229  27.106  1.00  0.00     0.188 C 
ENDROOT
BRANCH   1   2
ATOM      2  O   UNL A   1      34.069  29.254  26.158  1.00  0.00    -0.376 OA
BRANCH   2   3
ATOM      3  C   UNL A   1      33.304  28.062  26.057  1.00  0.00     0.202 C 
BRANCH   3   4
ATOM      4  C   UNL A   1      32.332  27.538  27.141  1.00  0.00     0.261 C 
BRANCH   4   5
ATOM      5  O   UNL A   1      30.975  27.279  26.743  1.00  0.00    -0.463 OA
BRANCH   5   6
ATOM      6  C   UNL A   1      30.737  26.116  26.064  1.00  0.00     0.312 C 
ATOM      7  O   UNL A   1      30.975  25.002  26.510  1.00  0.00    -0.252 OA
BRANCH   6   8
ATOM      8  C   UNL A   1      29.983  26.387  24.748  1.00  0.00     0.124 C 
ATOM      9  C   UNL A   1      31.784  26.566  23.161  1.00  0.00     0.106 C 
ATOM     10  C   UNL A   1      31.075  27.875  23.271  1.00  0.00    -0.006 C 
ATOM     11  C   UNL A   1      30.649  25.633  23.591  1.00  0.00     0.048 C 
ATOM     12  C   UNL A   1      30.126  27.793  24.221  1.00  0.00    -0.014 C 
BRANCH   9  13
ATOM     13  N   UNL A   1      32.275  26.240  21.861  1.00  0.00    -0.346 N 
ATOM     14  C   UNL A   1      32.848  25.079  21.428  1.00  0.00     0.244 C 
ATOM     15  O   UNL A   1      33.158  25.005  20.239  1.00  0.00    -0.270 OA
ATOM     16  H   UNL A   1      32.191  26.949  21.184  1.00  0.00     0.164 HD
BRANCH  14  17
ATOM     17  C   UNL A   1      33.128  23.893  22.308  1.00  0.00     0.072 C 
ATOM     18  C   UNL A   1      32.395  22.790  22.522  1.00  0.00     0.014 C 
BRANCH  18  19
ATOM     19  C   UNL A   1      32.688  21.551  23.271  1.00  0.00    -0.025 A 
ATOM     20  C   UNL A   1      33.418  19.018  24.290  1.00  0.00     0.052 A 
ATOM     21  C   UNL A   1      33.996  20.180  24.802  1.00  0.00     0.020 A 
ATOM     22  C   UNL A   1      32.442  19.120  23.301  1.00  0.00     0.020 A 
ATOM     23  C   UNL A   1      33.624  21.437  24.299  1.00  0.00     0.009 A 
ATOM     24  C   UNL A   1      32.082  20.374  22.803  1.00  0.00     0.009 A 
BRANCH  20  25
ATOM     25  C   UNL A   1      33.822  17.722  24.754  1.00  0.00     0.099 C 
ATOM     26  N   UNL A   1      34.177  16.696  25.157  1.00  0.00    -0.192 NA
ENDBRANCH  20  25
ENDBRANCH  18  19
ENDBRANCH  14  17
ENDBRANCH   9  13
ENDBRANCH   6   8
ENDBRANCH   5   6
ENDBRANCH   4   5
ENDBRANCH   3   4
ENDBRANCH   2   3
ENDBRANCH   1   2
BRANCH   1  27
ATOM     27  C   UNL A   1      34.811  30.759  28.038  1.00  0.00     0.188 C 
BRANCH  27  28
ATOM     28  O   UNL A   1      35.052  32.145  28.089  1.00  0.00    -0.376 OA
BRANCH  28  29
ATOM     29  C   UNL A   1      35.400  32.740  29.328  1.00  0.00     0.202 C 
BRANCH  29  30
ATOM     30  C   UNL A   1      35.373  32.024  30.699  1.00  0.00     0.261 C 
BRANCH  30  31
ATOM     31  O   UNL A   1      36.610  31.590  31.280  1.00  0.00    -0.460 OA
BRANCH  31  32
ATOM     32  C   UNL A   1      36.959  30.302  31.029  1.00  0.00     0.338 C 
ATOM     33  O   UNL A   1      36.232  29.326  31.078  1.00  0.00    -0.246 OA
BRANCH  32  34
ATOM     34  C   UNL A   1      38.334  30.264  30.481  1.00  0.00     0.060 A 
ATOM     35  C   UNL A   1      38.524  30.258  29.090  1.00  0.00     0.016 A 
ATOM     36  C   UNL A   1      39.428  30.167  31.339  1.00  0.00     0.016 A 
ATOM     37  C   UNL A   1      39.807  30.135  28.554  1.00  0.00     0.010 A 
ATOM     38  C   UNL A   1      40.710  30.014  30.799  1.00  0.00     0.010 A 
ATOM     39  C   UNL A   1      40.906  29.966  29.406  1.00  0.00    -0.014 A 
BRANCH  39  40
ATOM     40  C   UNL A   1      42.233  29.584  28.856  1.00  0.00     0.031 A 
ATOM     41  C   UNL A   1      42.447  28.177  28.383  1.00  0.00     0.074 A 
ATOM     42  C   UNL A   1      43.247  30.464  28.784  1.00  0.00     0.049 A 
ATOM     43  N   UNL A   1      43.540  27.612  27.947  1.00  0.00    -0.248 NA
ATOM     44  C   UNL A   1      41.277  27.288  28.419  1.00  0.00     0.031 C 
ATOM     45  C   UNL A   1      43.153  31.861  29.179  1.00  0.00     0.029 A 
ATOM     46  N   UNL A   1      44.549  30.322  28.364  1.00  0.00    -0.354 N 
ATOM     47  C   UNL A   1      43.200  26.294  27.677  1.00  0.00     0.074 A 
ATOM     48  C   UNL A   1      41.805  26.138  28.028  1.00  0.00     0.031 C 
ATOM     49  C   UNL A   1      44.342  32.449  28.977  1.00  0.00     0.029 A 
ATOM     50  C   UNL A   1      45.295  31.472  28.478  1.00  0.00     0.049 A 
ATOM     51  H   UNL A   1      44.913  29.476  28.015  1.00  0.00     0.167 HD
ATOM     52  C   UNL A   1      43.984  25.308  27.180  1.00  0.00     0.037 A 
ATOM     53  C   UNL A   1      46.596  31.724  28.231  1.00  0.00     0.037 A 
ATOM     54  C   UNL A   1      45.376  25.475  26.846  1.00  0.00     0.049 A 
ATOM     55  C   UNL A   1      47.461  30.599  27.740  1.00  0.00     0.074 A 
ATOM     56  C   UNL A   1      46.251  24.536  26.329  1.00  0.00     0.029 A 
ATOM     57  N   UNL A   1      46.102  26.648  27.005  1.00  0.00    -0.354 N 
ATOM     58  N   UNL A   1      47.122  29.359  27.477  1.00  0.00    -0.248 NA
ATOM     59  C   UNL A   1      48.883  30.895  27.520  1.00  0.00     0.031 C 
ATOM     60  C   UNL A   1      47.519  25.118  26.242  1.00  0.00     0.029 A 
ATOM     61  C   UNL A   1      47.422  26.444  26.629  1.00  0.00     0.049 A 
ATOM     62  H   UNL A   1      45.735  27.498  27.337  1.00  0.00     0.167 HD
ATOM     63  C   UNL A   1      48.281  28.736  27.032  1.00  0.00     0.074 A 
ATOM     64  C   UNL A   1      49.326  29.739  27.046  1.00  0.00     0.031 C 
ATOM     65  C   UNL A   1      48.459  27.448  26.647  1.00  0.00     0.037 A 
BRANCH  52  66
ATOM     66  C   UNL A   1      43.359  23.950  27.013  1.00  0.00     0.058 A 
ATOM     67  C   UNL A   1      43.189  23.070  28.094  1.00  0.00     0.135 A 
ATOM     68  C   UNL A   1      42.914  23.527  25.750  1.00  0.00     0.135 A 
ATOM     69  F   UNL A   1      43.616  23.412  29.320  1.00  0.00    -0.206 F 
ATOM     70  C   UNL A   1      42.634  21.807  27.922  1.00  0.00     0.059 A 
ATOM     71  C   UNL A   1      42.321  22.283  25.562  1.00  0.00     0.059 A 
ATOM     72  F   UNL A   1      43.056  24.326  24.681  1.00  0.00    -0.206 F 
ATOM     73  C   UNL A   1      42.201  21.424  26.651  1.00  0.00     0.060 A 
BRANCH  73  74
ATOM     74  S   UNL A   1      41.485  19.781  26.448  1.00  0.00     0.124 S 
ATOM     75  O   UNL A   1      41.763  19.177  27.747  1.00  0.00    -0.237 OA
ATOM     76  O   UNL A   1      40.084  20.085  26.178  1.00  0.00    -0.237 OA
ATOM     77  O   UNL A   1      42.230  19.220  25.324  1.00  0.00    -0.744 OA
ENDBRANCH  73  74
ENDBRANCH  52  66
BRANCH  53  78
ATOM     78  C   UNL A   1      47.163  33.090  28.444  1.00  0.00     0.058 A 
ATOM     79  C   UNL A   1      47.714  33.462  29.681  1.00  0.00     0.135 A 
ATOM     80  C   UNL A   1      47.166  34.053  27.421  1.00  0.00     0.135 A 
ATOM     81  F   UNL A   1      47.725  32.588  30.700  1.00  0.00    -0.206 F 
ATOM     82  C   UNL A   1      48.229  34.736  29.902  1.00  0.00     0.059 A 
ATOM     83  C   UNL A   1      47.706  35.323  27.607  1.00  0.00     0.059 A 
ATOM     84  F   UNL A   1      46.670  33.753  26.210  1.00  0.00    -0.206 F 
ATOM     85  C   UNL A   1      48.225  35.660  28.856  1.00  0.00     0.060 A 
BRANCH  85  86
ATOM     86  S   UNL A   1      48.933  37.298  29.141  1.00  0.00     0.124 S 
ATOM     87  O   UNL A   1      48.007  38.152  28.407  1.00  0.00    -0.237 OA
ATOM     88  O   UNL A   1      48.885  37.402  30.595  1.00  0.00    -0.237 OA
ATOM     89  O   UNL A   1      50.273  37.186  28.573  1.00  0.00    -0.744 OA
ENDBRANCH  85  86
ENDBRANCH  53  78
BRANCH  65  90
ATOM     90  C   UNL A   1      49.830  27.055  26.167  1.00  0.00     0.058 A 
ATOM     91  C   UNL A   1      50.775  26.462  27.018  1.00  0.00     0.135 A 
ATOM     92  C   UNL A   1      50.185  27.235  24.820  1.00  0.00     0.135 A 
ATOM     93  F   UNL A   1      50.493  26.275  28.318  1.00  0.00    -0.206 F 
ATOM     94  C   UNL A   1      52.033  26.086  26.558  1.00  0.00     0.059 A 
ATOM     95  C   UNL A   1      51.423  26.833  24.330  1.00  0.00     0.059 A 
ATOM     96  F   UNL A   1      49.318  27.792  23.960  1.00  0.00    -0.206 F 
ATOM     97  C   UNL A   1      52.345  26.270  25.211  1.00  0.00     0.060 A 
BRANCH  97  98
ATOM     98  S   UNL A   1      53.966  25.740  24.620  1.00  0.00     0.124 S 
ATOM     99  O   UNL A   1      54.860  26.544  25.446  1.00  0.00    -0.237 OA
ATOM    100  O   UNL A   1      53.948  24.309  24.910  1.00  0.00    -0.237 OA
ATOM    101  O   UNL A   1      53.942  26.085  23.201  1.00  0.00    -0.744 OA
ENDBRANCH  97  98
ENDBRANCH  65  90
ENDBRANCH  39  40
ENDBRANCH  32  34
ENDBRANCH  31  32
ENDBRANCH  30  31
ENDBRANCH  29  30
ENDBRANCH  28  29
ENDBRANCH  27  28
ENDBRANCH   1  27
TORSDOF 24
ENDMDL
MODEL 2
REMARK VINA RESULT:     -10.4      0.780      8.006
REMARK SMILES N#Cc1ccc(/C=C/C(=O)N[C@H]2C=C[C@H](C(=O)OCCOCCOCCOC(=O)c3ccc(-c4c5nc(c(-c6c(F)cc(S(=O)(=O)[O-])cc6F)c6ccc([nH]6)c(-c6c(F)cc(S(=O)(=O)[O-])cc6F)c6nc(c(-c7c(F)cc(S(=O)(=O)[O-])cc7F)c7ccc4[nH]7)C=C6)C=C5)cc3)C2)cc1
REMARK SMILES IDX 22 1 21 2 20 3 19 4 18 5 16 6 17 7 15 8 12 9 13 10 96 11
REMARK SMILES IDX 14 12 11 13 9 14 10 15 8 17 7 18 6 19 3 20 4 21 98 22 5 23
REMARK SMILES IDX 97 24 2 25 1 26 23 27 24 28 25 29 26 30 27 31 28 32 29 33
REMARK SMILES IDX 30 34 31 35 95 36 32 37 94 38 33 39 34 40 35 41 88 42 36 43
REMARK SMILES IDX 93 44 87 45 89 46 37 47 92 48 86 49 85 50 38 52 72 53 51 54
REMARK SMILES IDX 71 55 52 56 55 57 70 58 90 59 53 60 54 61 69 63 91 64 56 65
REMARK SMILES IDX 39 66 40 67 49 68 41 69 42 70 48 71 50 72 43 73 44 74 45 75
REMARK SMILES IDX 46 76 47 77 73 78 74 79 83 80 75 81 76 82 82 83 84 84 77 85
REMARK SMILES IDX 78 86 79 87 80 88 81 89 57 90 58 91 67 92 59 93 60 94 66 95
REMARK SMILES IDX 68 96 61 97 62 98 63 99 64 100 65 101
REMARK H PARENT 11 16 89 51 55 62
REMARK Flexibility Score: inf
ROOT
ATOM      1  C   UNL A   1      33.542  30.503  27.407  1.00  0.00     0.188 C 
ENDROOT
BRANCH   1   2
ATOM      2  O   UNL A   1      33.435  29.777  26.205  1.00  0.00    -0.376 OA
BRANCH   2   3
ATOM      3  C   UNL A   1      33.312  28.364  26.256  1.00  0.00     0.202 C 
BRANCH   3   4
ATOM      4  C   UNL A   1      32.272  27.595  27.105  1.00  0.00     0.261 C 
BRANCH   4   5
ATOM      5  O   UNL A   1      30.950  27.449  26.559  1.00  0.00    -0.463 OA
BRANCH   5   6
ATOM      6  C   UNL A   1      30.757  26.441  25.655  1.00  0.00     0.312 C 
ATOM      7  O   UNL A   1      30.950  25.257  25.898  1.00  0.00    -0.252 OA
BRANCH   6   8
ATOM      8  C   UNL A   1      30.114  26.973  24.361  1.00  0.00     0.124 C 
ATOM      9  C   UNL A   1      31.976  26.979  22.835  1.00  0.00     0.106 C 
ATOM     10  C   UNL A   1      31.508  28.377  23.068  1.00  0.00    -0.006 C 
ATOM     11  C   UNL A   1      30.677  26.229  23.144  1.00  0.00     0.048 C 
ATOM     12  C   UNL A   1      30.525  28.375  23.986  1.00  0.00    -0.014 C 
BRANCH   9  13
ATOM     13  N   UNL A   1      32.449  26.699  21.518  1.00  0.00    -0.346 N 
ATOM     14  C   UNL A   1      32.724  25.491  20.945  1.00  0.00     0.244 C 
ATOM     15  O   UNL A   1      33.082  25.487  19.767  1.00  0.00    -0.270 OA
ATOM     16  H   UNL A   1      32.599  27.484  20.944  1.00  0.00     0.164 HD
BRANCH  14  17
ATOM     17  C   UNL A   1      32.623  24.172  21.658  1.00  0.00     0.072 C 
ATOM     18  C   UNL A   1      33.366  23.678  22.660  1.00  0.00     0.014 C 
BRANCH  18  19
ATOM     19  C   UNL A   1      33.222  22.452  23.470  1.00  0.00    -0.025 A 
ATOM     20  C   UNL A   1      33.108  19.878  24.634  1.00  0.00     0.052 A 
ATOM     21  C   UNL A   1      33.928  20.867  25.180  1.00  0.00     0.020 A 
ATOM     22  C   UNL A   1      32.311  20.185  23.533  1.00  0.00     0.020 A 
ATOM     23  C   UNL A   1      33.975  22.146  24.605  1.00  0.00     0.009 A 
ATOM     24  C   UNL A   1      32.367  21.458  22.964  1.00  0.00     0.009 A 
BRANCH  20  25
ATOM     25  C   UNL A   1      33.086  18.550  25.176  1.00  0.00     0.099 C 
ATOM     26  N   UNL A   1      33.023  17.478  25.610  1.00  0.00    -0.192 NA
ENDBRANCH  20  25
ENDBRANCH  18  19
ENDBRANCH  14  17
ENDBRANCH   9  13
ENDBRANCH   6   8
ENDBRANCH   5   6
ENDBRANCH   4   5
ENDBRANCH   3   4
ENDBRANCH   2   3
ENDBRANCH   1   2
BRANCH   1  27
ATOM     27  C   UNL A   1      34.884  31.209  27.688  1.00  0.00     0.188 C 
BRANCH  27  28
ATOM     28  O   UNL A   1      34.941  32.614  27.619  1.00  0.00    -0.376 OA
BRANCH  28  29
ATOM     29  C   UNL A   1      35.356  33.344  28.761  1.00  0.00     0.202 C 
BRANCH  29  30
ATOM     30  C   UNL A   1      35.501  32.762  30.187  1.00  0.00     0.261 C 
BRANCH  30  31
ATOM     31  O   UNL A   1      36.811  32.638  30.756  1.00  0.00    -0.460 OA
BRANCH  31  32
ATOM     32  C   UNL A   1      37.050  31.490  31.442  1.00  0.00     0.338 C 
ATOM     33  O   UNL A   1      36.353  31.005  32.316  1.00  0.00    -0.246 OA
BRANCH  32  34
ATOM     34  C   UNL A   1      38.200  30.785  30.834  1.00  0.00     0.060 A 
ATOM     35  C   UNL A   1      39.052  30.022  31.650  1.00  0.00     0.016 A 
ATOM     36  C   UNL A   1      38.475  30.931  29.476  1.00  0.00     0.016 A 
ATOM     37  C   UNL A   1      40.191  29.421  31.112  1.00  0.00     0.010 A 
ATOM     38  C   UNL A   1      39.632  30.351  28.945  1.00  0.00     0.010 A 
ATOM     39  C   UNL A   1      40.514  29.619  29.764  1.00  0.00    -0.014 A 
BRANCH  39  40
ATOM     40  C   UNL A   1      41.840  29.202  29.237  1.00  0.00     0.031 A 
ATOM     41  C   UNL A   1      42.951  30.208  29.183  1.00  0.00     0.074 A 
ATOM     42  C   UNL A   1      42.064  27.950  28.800  1.00  0.00     0.049 A 
ATOM     43  N   UNL A   1      44.153  30.083  28.689  1.00  0.00    -0.248 NA
ATOM     44  C   UNL A   1      42.661  31.535  29.745  1.00  0.00     0.031 C 
ATOM     45  C   UNL A   1      41.081  26.879  28.834  1.00  0.00     0.029 A 
ATOM     46  N   UNL A   1      43.176  27.365  28.241  1.00  0.00    -0.354 N 
ATOM     47  C   UNL A   1      44.760  31.318  28.860  1.00  0.00     0.074 A 
ATOM     48  C   UNL A   1      43.781  32.189  29.475  1.00  0.00     0.031 C 
ATOM     49  C   UNL A   1      41.633  25.767  28.325  1.00  0.00     0.029 A 
ATOM     50  C   UNL A   1      42.991  26.048  27.891  1.00  0.00     0.049 A 
ATOM     51  H   UNL A   1      44.025  27.845  28.103  1.00  0.00     0.167 HD
ATOM     52  C   UNL A   1      46.021  31.688  28.533  1.00  0.00     0.037 A 
ATOM     53  C   UNL A   1      43.801  25.162  27.278  1.00  0.00     0.037 A 
ATOM     54  C   UNL A   1      46.983  30.813  27.909  1.00  0.00     0.049 A 
ATOM     55  C   UNL A   1      45.174  25.613  26.868  1.00  0.00     0.074 A 
ATOM     56  C   UNL A   1      48.288  31.095  27.547  1.00  0.00     0.029 A 
ATOM     57  N   UNL A   1      46.746  29.495  27.544  1.00  0.00    -0.354 N 
ATOM     58  N   UNL A   1      45.740  26.783  27.047  1.00  0.00    -0.248 NA
ATOM     59  C   UNL A   1      46.017  24.636  26.166  1.00  0.00     0.031 C 
ATOM     60  C   UNL A   1      48.816  29.974  26.900  1.00  0.00     0.029 A 
ATOM     61  C   UNL A   1      47.870  28.963  26.928  1.00  0.00     0.049 A 
ATOM     62  H   UNL A   1      45.904  29.009  27.697  1.00  0.00     0.167 HD
ATOM     63  C   UNL A   1      47.015  26.672  26.508  1.00  0.00     0.074 A 
ATOM     64  C   UNL A   1      47.142  25.318  26.011  1.00  0.00     0.031 C 
ATOM     65  C   UNL A   1      47.990  27.613  26.434  1.00  0.00     0.037 A 
BRANCH  52  66
ATOM     66  C   UNL A   1      46.413  33.115  28.804  1.00  0.00     0.058 A 
ATOM     67  C   UNL A   1      47.013  33.506  30.012  1.00  0.00     0.135 A 
ATOM     68  C   UNL A   1      46.194  34.105  27.832  1.00  0.00     0.135 A 
ATOM     69  F   UNL A   1      47.226  32.606  30.985  1.00  0.00    -0.206 F 
ATOM     70  C   UNL A   1      47.347  34.832  30.260  1.00  0.00     0.059 A 
ATOM     71  C   UNL A   1      46.555  35.431  28.045  1.00  0.00     0.059 A 
ATOM     72  F   UNL A   1      45.619  33.788  26.662  1.00  0.00    -0.206 F 
ATOM     73  C   UNL A   1      47.116  35.787  29.269  1.00  0.00     0.060 A 
BRANCH  73  74
ATOM     74  S   UNL A   1      47.556  37.503  29.611  1.00  0.00     0.124 S 
ATOM     75  O   UNL A   1      48.645  37.720  28.663  1.00  0.00    -0.237 OA
ATOM     76  O   UNL A   1      46.312  38.206  29.318  1.00  0.00    -0.237 OA
ATOM     77  O   UNL A   1      47.945  37.482  31.018  1.00  0.00    -0.744 OA
ENDBRANCH  73  74
ENDBRANCH  52  66
BRANCH  53  78
ATOM     78  C   UNL A   1      43.342  23.765  27.012  1.00  0.00     0.058 A 
ATOM     79  C   UNL A   1      43.274  22.815  28.045  1.00  0.00     0.135 A 
ATOM     80  C   UNL A   1      42.964  23.346  25.725  1.00  0.00     0.135 A 
ATOM     81  F   UNL A   1      43.637  23.154  29.292  1.00  0.00    -0.206 F 
ATOM     82  C   UNL A   1      42.867  21.505  27.811  1.00  0.00     0.059 A 
ATOM     83  C   UNL A   1      42.521  22.051  25.473  1.00  0.00     0.059 A 
ATOM     84  F   UNL A   1      42.990  24.213  24.700  1.00  0.00    -0.206 F 
ATOM     85  C   UNL A   1      42.487  21.132  26.521  1.00  0.00     0.060 A 
BRANCH  85  86
ATOM     86  S   UNL A   1      41.921  19.440  26.237  1.00  0.00     0.124 S 
ATOM     87  O   UNL A   1      40.480  19.627  26.112  1.00  0.00    -0.237 OA
ATOM     88  O   UNL A   1      42.629  19.083  25.012  1.00  0.00    -0.237 OA
ATOM     89  O   UNL A   1      42.364  18.734  27.436  1.00  0.00    -0.744 OA
ENDBRANCH  85  86
ENDBRANCH  53  78
BRANCH  65  90
ATOM     90  C   UNL A   1      49.302  27.198  25.825  1.00  0.00     0.058 A 
ATOM     91  C   UNL A   1      49.558  27.319  24.451  1.00  0.00     0.135 A 
ATOM     92  C   UNL A   1      50.337  26.713  26.642  1.00  0.00     0.135 A 
ATOM     93  F   UNL A   1      48.601  27.767  23.621  1.00  0.00    -0.206 F 
ATOM     94  C   UNL A   1      50.782  26.949  23.903  1.00  0.00     0.059 A 
ATOM     95  C   UNL A   1      51.581  26.372  26.122  1.00  0.00     0.059 A 
ATOM     96  F   UNL A   1      50.150  26.582  27.965  1.00  0.00    -0.206 F 
ATOM     97  C   UNL A   1      51.789  26.483  24.749  1.00  0.00     0.060 A 
BRANCH  97  98
ATOM     98  S   UNL A   1      53.386  26.046  24.030  1.00  0.00     0.124 S 
ATOM     99  O   UNL A   1      53.672  24.778  24.691  1.00  0.00    -0.237 OA
ATOM    100  O   UNL A   1      53.071  25.963  22.607  1.00  0.00    -0.237 OA
ATOM    101  O   UNL A   1      54.249  27.161  24.410  1.00  0.00    -0.744 OA
ENDBRANCH  97  98
ENDBRANCH  65  90
ENDBRANCH  39  40
ENDBRANCH  32  34
ENDBRANCH  31  32
ENDBRANCH  30  31
ENDBRANCH  29  30
ENDBRANCH  28  29
ENDBRANCH  27  28
ENDBRANCH   1  27
TORSDOF 24
ENDMDL
MODEL 3
REMARK VINA RESULT:     -10.1      1.756      8.809
REMARK SMILES N#Cc1ccc(/C=C/C(=O)N[C@H]2C=C[C@H](C(=O)OCCOCCOCCOC(=O)c3ccc(-c4c5nc(c(-c6c(F)cc(S(=O)(=O)[O-])cc6F)c6ccc([nH]6)c(-c6c(F)cc(S(=O)(=O)[O-])cc6F)c6nc(c(-c7c(F)cc(S(=O)(=O)[O-])cc7F)c7ccc4[nH]7)C=C6)C=C5)cc3)C2)cc1
REMARK SMILES IDX 22 1 21 2 20 3 19 4 18 5 16 6 17 7 15 8 12 9 13 10 96 11
REMARK SMILES IDX 14 12 11 13 9 14 10 15 8 17 7 18 6 19 3 20 4 21 98 22 5 23
REMARK SMILES IDX 97 24 2 25 1 26 23 27 24 28 25 29 26 30 27 31 28 32 29 33
REMARK SMILES IDX 30 34 31 35 95 36 32 37 94 38 33 39 34 40 35 41 88 42 36 43
REMARK SMILES IDX 93 44 87 45 89 46 37 47 92 48 86 49 85 50 38 52 72 53 51 54
REMARK SMILES IDX 71 55 52 56 55 57 70 58 90 59 53 60 54 61 69 63 91 64 56 65
REMARK SMILES IDX 39 66 40 67 49 68 41 69 42 70 48 71 50 72 43 73 44 74 45 75
REMARK SMILES IDX 46 76 47 77 73 78 74 79 83 80 75 81 76 82 82 83 84 84 77 85
REMARK SMILES IDX 78 86 79 87 80 88 81 89 57 90 58 91 67 92 59 93 60 94 66 95
REMARK SMILES IDX 68 96 61 97 62 98 63 99 64 100 65 101
REMARK H PARENT 11 16 89 51 55 62
REMARK Flexibility Score: inf
ROOT
ATOM      1  C   UNL A   1      34.813  28.744  26.490  1.00  0.00     0.188 C 
ENDROOT
BRANCH   1   2
ATOM      2  O   UNL A   1      33.907  28.651  25.416  1.00  0.00    -0.376 OA
BRANCH   2   3
ATOM      3  C   UNL A   1      33.757  27.412  24.739  1.00  0.00     0.202 C 
BRANCH   3   4
ATOM      4  C   UNL A   1      34.071  26.025  25.350  1.00  0.00     0.261 C 
BRANCH   4   5
ATOM      5  O   UNL A   1      34.533  24.999  24.456  1.00  0.00    -0.463 OA
BRANCH   5   6
ATOM      6  C   UNL A   1      35.300  24.003  24.995  1.00  0.00     0.312 C 
ATOM      7  O   UNL A   1      36.383  24.188  25.535  1.00  0.00    -0.252 OA
BRANCH   6   8
ATOM      8  C   UNL A   1      34.552  22.657  24.980  1.00  0.00     0.124 C 
ATOM      9  C   UNL A   1      32.958  22.943  26.761  1.00  0.00     0.106 C 
ATOM     10  C   UNL A   1      33.917  21.855  27.111  1.00  0.00    -0.006 C 
ATOM     11  C   UNL A   1      33.056  22.879  25.235  1.00  0.00     0.048 C 
ATOM     12  C   UNL A   1      34.856  21.757  26.152  1.00  0.00    -0.014 C 
BRANCH   9  13
ATOM     13  N   UNL A   1      31.618  22.754  27.215  1.00  0.00    -0.346 N 
ATOM     14  C   UNL A   1      30.508  23.499  26.944  1.00  0.00     0.244 C 
ATOM     15  O   UNL A   1      29.436  23.118  27.413  1.00  0.00    -0.270 OA
ATOM     16  H   UNL A   1      31.474  21.980  27.806  1.00  0.00     0.164 HD
BRANCH  14  17
ATOM     17  C   UNL A   1      30.511  24.755  26.116  1.00  0.00     0.072 C 
ATOM     18  C   UNL A   1      29.810  25.059  25.014  1.00  0.00     0.014 C 
BRANCH  18  19
ATOM     19  C   UNL A   1      29.687  26.317  24.250  1.00  0.00    -0.025 A 
ATOM     20  C   UNL A   1      29.172  28.867  23.146  1.00  0.00     0.052 A 
ATOM     21  C   UNL A   1      30.475  28.484  23.465  1.00  0.00     0.020 A 
ATOM     22  C   UNL A   1      28.129  27.962  23.334  1.00  0.00     0.020 A 
ATOM     23  C   UNL A   1      30.728  27.213  24.005  1.00  0.00     0.009 A 
ATOM     24  C   UNL A   1      28.388  26.702  23.877  1.00  0.00     0.009 A 
BRANCH  20  25
ATOM     25  C   UNL A   1      28.888  30.180  22.642  1.00  0.00     0.099 C 
ATOM     26  N   UNL A   1      28.621  31.223  22.215  1.00  0.00    -0.192 NA
ENDBRANCH  20  25
ENDBRANCH  18  19
ENDBRANCH  14  17
ENDBRANCH   9  13
ENDBRANCH   6   8
ENDBRANCH   5   6
ENDBRANCH   4   5
ENDBRANCH   3   4
ENDBRANCH   2   3
ENDBRANCH   1   2
BRANCH   1  27
ATOM     27  C   UNL A   1      34.468  29.734  27.621  1.00  0.00     0.188 C 
BRANCH  27  28
ATOM     28  O   UNL A   1      34.741  31.102  27.435  1.00  0.00    -0.376 OA
BRANCH  28  29
ATOM     29  C   UNL A   1      34.264  32.037  28.388  1.00  0.00     0.202 C 
BRANCH  29  30
ATOM     30  C   UNL A   1      35.154  32.945  29.269  1.00  0.00     0.261 C 
BRANCH  30  31
ATOM     31  O   UNL A   1      36.510  32.552  29.521  1.00  0.00    -0.460 OA
BRANCH  31  32
ATOM     32  C   UNL A   1      36.671  31.495  30.358  1.00  0.00     0.338 C 
ATOM     33  O   UNL A   1      35.881  31.102  31.198  1.00  0.00    -0.246 OA
BRANCH  32  34
ATOM     34  C   UNL A   1      37.886  30.743  29.971  1.00  0.00     0.060 A 
ATOM     35  C   UNL A   1      38.845  30.430  30.948  1.00  0.00     0.016 A 
ATOM     36  C   UNL A   1      38.108  30.406  28.637  1.00  0.00     0.016 A 
ATOM     37  C   UNL A   1      40.038  29.798  30.589  1.00  0.00     0.010 A 
ATOM     38  C   UNL A   1      39.316  29.800  28.276  1.00  0.00     0.010 A 
ATOM     39  C   UNL A   1      40.301  29.519  29.242  1.00  0.00    -0.014 A 
BRANCH  39  40
ATOM     40  C   UNL A   1      41.656  29.083  28.814  1.00  0.00     0.031 A 
ATOM     41  C   UNL A   1      42.769  30.087  28.788  1.00  0.00     0.074 A 
ATOM     42  C   UNL A   1      41.904  27.815  28.441  1.00  0.00     0.049 A 
ATOM     43  N   UNL A   1      43.999  29.943  28.373  1.00  0.00    -0.248 NA
ATOM     44  C   UNL A   1      42.448  31.435  29.279  1.00  0.00     0.031 C 
ATOM     45  C   UNL A   1      40.918  26.746  28.457  1.00  0.00     0.029 A 
ATOM     46  N   UNL A   1      43.047  27.210  27.973  1.00  0.00    -0.354 N 
ATOM     47  C   UNL A   1      44.598  31.185  28.532  1.00  0.00     0.074 A 
ATOM     48  C   UNL A   1      43.584  32.078  29.052  1.00  0.00     0.031 C 
ATOM     49  C   UNL A   1      41.499  25.615  28.026  1.00  0.00     0.029 A 
ATOM     50  C   UNL A   1      42.881  25.880  27.665  1.00  0.00     0.049 A 
ATOM     51  H   UNL A   1      43.903  27.684  27.869  1.00  0.00     0.167 HD
ATOM     52  C   UNL A   1      45.876  31.542  28.268  1.00  0.00     0.037 A 
ATOM     53  C   UNL A   1      43.725  24.970  27.138  1.00  0.00     0.037 A 
ATOM     54  C   UNL A   1      46.873  30.644  27.739  1.00  0.00     0.049 A 
ATOM     55  C   UNL A   1      45.121  25.406  26.795  1.00  0.00     0.074 A 
ATOM     56  C   UNL A   1      48.198  30.912  27.446  1.00  0.00     0.029 A 
ATOM     57  N   UNL A   1      46.656  29.312  27.412  1.00  0.00    -0.354 N 
ATOM     58  N   UNL A   1      45.677  26.582  26.962  1.00  0.00    -0.248 NA
ATOM     59  C   UNL A   1      46.003  24.402  26.184  1.00  0.00     0.031 C 
ATOM     60  C   UNL A   1      48.762  29.766  26.877  1.00  0.00     0.029 A 
ATOM     61  C   UNL A   1      47.814  28.757  26.887  1.00  0.00     0.049 A 
ATOM     62  H   UNL A   1      45.805  28.832  27.532  1.00  0.00     0.167 HD
ATOM     63  C   UNL A   1      46.983  26.451  26.506  1.00  0.00     0.074 A 
ATOM     64  C   UNL A   1      47.137  25.079  26.071  1.00  0.00     0.031 C 
ATOM     65  C   UNL A   1      47.962  27.388  26.454  1.00  0.00     0.037 A 
BRANCH  52  66
ATOM     66  C   UNL A   1      46.254  32.978  28.506  1.00  0.00     0.058 A 
ATOM     67  C   UNL A   1      46.664  33.442  29.767  1.00  0.00     0.135 A 
ATOM     68  C   UNL A   1      46.214  33.904  27.451  1.00  0.00     0.135 A 
ATOM     69  F   UNL A   1      46.700  32.606  30.817  1.00  0.00    -0.206 F 
ATOM     70  C   UNL A   1      46.986  34.777  29.980  1.00  0.00     0.059 A 
ATOM     71  C   UNL A   1      46.568  35.237  27.633  1.00  0.00     0.059 A 
ATOM     72  F   UNL A   1      45.824  33.518  26.226  1.00  0.00    -0.206 F 
ATOM     73  C   UNL A   1      46.937  35.667  28.905  1.00  0.00     0.060 A 
BRANCH  73  74
ATOM     74  S   UNL A   1      47.357  37.396  29.202  1.00  0.00     0.124 S 
ATOM     75  O   UNL A   1      48.388  37.623  28.194  1.00  0.00    -0.237 OA
ATOM     76  O   UNL A   1      46.083  38.069  28.969  1.00  0.00    -0.237 OA
ATOM     77  O   UNL A   1      47.822  37.402  30.586  1.00  0.00    -0.744 OA
ENDBRANCH  73  74
ENDBRANCH  52  66
BRANCH  53  78
ATOM     78  C   UNL A   1      43.280  23.564  26.900  1.00  0.00     0.058 A 
ATOM     79  C   UNL A   1      43.095  22.671  27.969  1.00  0.00     0.135 A 
ATOM     80  C   UNL A   1      43.033  23.079  25.604  1.00  0.00     0.135 A 
ATOM     81  F   UNL A   1      43.330  23.074  29.227  1.00  0.00    -0.206 F 
ATOM     82  C   UNL A   1      42.700  21.352  27.763  1.00  0.00     0.059 A 
ATOM     83  C   UNL A   1      42.604  21.774  25.376  1.00  0.00     0.059 A 
ATOM     84  F   UNL A   1      43.175  23.889  24.543  1.00  0.00    -0.206 F 
ATOM     85  C   UNL A   1      42.451  20.913  26.461  1.00  0.00     0.060 A 
BRANCH  85  86
ATOM     86  S   UNL A   1      41.900  19.212  26.210  1.00  0.00     0.124 S 
ATOM     87  O   UNL A   1      40.464  19.390  26.027  1.00  0.00    -0.237 OA
ATOM     88  O   UNL A   1      42.652  18.819  25.023  1.00  0.00    -0.237 OA
ATOM     89  O   UNL A   1      42.299  18.544  27.445  1.00  0.00    -0.744 OA
ENDBRANCH  85  86
ENDBRANCH  53  78
BRANCH  65  90
ATOM     90  C   UNL A   1      49.308  26.951  25.944  1.00  0.00     0.058 A 
ATOM     91  C   UNL A   1      49.689  27.124  24.604  1.00  0.00     0.135 A 
ATOM     92  C   UNL A   1      50.248  26.390  26.823  1.00  0.00     0.135 A 
ATOM     93  F   UNL A   1      48.826  27.646  23.716  1.00  0.00    -0.206 F 
ATOM     94  C   UNL A   1      50.943  26.731  24.148  1.00  0.00     0.059 A 
ATOM     95  C   UNL A   1      51.521  26.025  26.398  1.00  0.00     0.059 A 
ATOM     96  F   UNL A   1      49.940  26.207  28.117  1.00  0.00    -0.206 F 
ATOM     97  C   UNL A   1      51.855  26.189  25.055  1.00  0.00     0.060 A 
BRANCH  97  98
ATOM     98  S   UNL A   1      53.493  25.724  24.458  1.00  0.00     0.124 S 
ATOM     99  O   UNL A   1      54.350  26.649  25.192  1.00  0.00    -0.237 OA
ATOM    100  O   UNL A   1      53.582  24.323  24.859  1.00  0.00    -0.237 OA
ATOM    101  O   UNL A   1      53.410  25.953  23.018  1.00  0.00    -0.744 OA
ENDBRANCH  97  98
ENDBRANCH  65  90
ENDBRANCH  39  40
ENDBRANCH  32  34
ENDBRANCH  31  32
ENDBRANCH  30  31
ENDBRANCH  29  30
ENDBRANCH  28  29
ENDBRANCH  27  28
ENDBRANCH   1  27
TORSDOF 24
ENDMDL
