MODEL 1
REMARK VINA RESULT:     -11.1      0.000      0.000
REMARK SMILES O=C(OCCOCCOCCOC(=O)[C@H]1CCCN(C(=O)C2CCN(S(=O)(=O)c3ccccc3)CC2)C1)c1ccc(-c2c3nc(c(-c4c(F)cc(S(=O)(=O)[O-])cc4F)c4ccc([nH]4)c(-c4c(F)cc(S(=O)(=O)[O-])cc4F)c4nc(c(-c5c(F)cc(S(=O)(=O)[O-])cc5F)c5ccc2[nH]5)C=C4)C=C3)cc1
REMARK SMILES IDX 8 1 7 2 6 3 5 4 4 5 3 6 2 7 1 8 38 9 39 10 103 11 40 12
REMARK SMILES IDX 102 13 41 14 42 15 43 16 96 17 44 18 101 19 95 20 97 21
REMARK SMILES IDX 45 22 100 23 94 24 93 25 46 27 80 28 59 29 79 30 60 31 63 32
REMARK SMILES IDX 78 33 98 34 61 35 62 36 77 38 99 39 64 40 47 41 48 42 57 43
REMARK SMILES IDX 49 44 50 45 56 46 58 47 51 48 52 49 53 50 54 51 55 52 81 53
REMARK SMILES IDX 82 54 91 55 83 56 84 57 90 58 92 59 85 60 86 61 87 62 88 63
REMARK SMILES IDX 89 64 65 65 66 66 75 67 67 68 68 69 74 70 76 71 69 72 70 73
REMARK SMILES IDX 71 74 72 75 73 76 9 77 10 78 11 79 12 80 13 81 14 82 15 83
REMARK SMILES IDX 16 84 37 85 17 86 19 87 18 88 20 89 21 90 22 91 23 92 36 93
REMARK SMILES IDX 24 94 35 95 25 96 26 97 27 98 28 99 29 100 30 101 34 102
REMARK SMILES IDX 31 103 33 104 32 105
REMARK H PARENT 97 26 63 37
REMARK Flexibility Score: inf
ROOT
ATOM      1  C   UNL A   1      45.363  22.074  24.128  1.00  0.00     0.188 C 
ENDROOT
BRANCH   1   2
ATOM      2  C   UNL A   1      45.843  23.195  25.052  1.00  0.00     0.188 C 
BRANCH   2   3
ATOM      3  O   UNL A   1      45.553  24.495  24.527  1.00  0.00    -0.376 OA
BRANCH   3   4
ATOM      4  C   UNL A   1      44.587  25.216  25.300  1.00  0.00     0.202 C 
BRANCH   4   5
ATOM      5  C   UNL A   1      43.141  24.713  25.162  1.00  0.00     0.261 C 
BRANCH   5   6
ATOM      6  O   UNL A   1      42.187  25.783  25.055  1.00  0.00    -0.460 OA
BRANCH   6   7
ATOM      7  C   UNL A   1      42.323  27.068  25.475  1.00  0.00     0.338 C 
ATOM      8  O   UNL A   1      42.569  27.936  24.639  1.00  0.00    -0.246 OA
BRANCH   7   9
ATOM      9  C   UNL A   1      42.147  27.492  26.899  1.00  0.00     0.060 A 
ATOM     10  C   UNL A   1      41.326  26.851  27.826  1.00  0.00     0.016 A 
ATOM     11  C   UNL A   1      42.892  28.598  27.342  1.00  0.00     0.016 A 
ATOM     12  C   UNL A   1      41.107  27.379  29.092  1.00  0.00     0.010 A 
ATOM     13  C   UNL A   1      42.744  29.086  28.645  1.00  0.00     0.010 A 
ATOM     14  C   UNL A   1      41.801  28.509  29.510  1.00  0.00    -0.014 A 
BRANCH  14  15
ATOM     15  C   UNL A   1      41.416  29.170  30.778  1.00  0.00     0.031 A 
ATOM     16  C   UNL A   1      40.293  30.164  30.726  1.00  0.00     0.074 A 
ATOM     17  C   UNL A   1      42.006  28.841  31.945  1.00  0.00     0.049 A 
ATOM     18  N   UNL A   1      39.916  31.035  31.619  1.00  0.00    -0.248 NA
ATOM     19  C   UNL A   1      39.483  30.177  29.493  1.00  0.00     0.031 C 
ATOM     20  C   UNL A   1      43.009  27.791  32.110  1.00  0.00     0.029 A 
ATOM     21  N   UNL A   1      41.889  29.368  33.205  1.00  0.00    -0.354 N 
ATOM     22  C   UNL A   1      38.813  31.679  31.068  1.00  0.00     0.074 A 
ATOM     23  C   UNL A   1      38.629  31.158  29.735  1.00  0.00     0.031 C 
ATOM     24  C   UNL A   1      43.479  27.800  33.368  1.00  0.00     0.029 A 
ATOM     25  C   UNL A   1      42.815  28.863  34.099  1.00  0.00     0.049 A 
ATOM     26  H   UNL A   1      41.213  30.040  33.449  1.00  0.00     0.167 HD
ATOM     27  C   UNL A   1      38.009  32.597  31.652  1.00  0.00     0.037 A 
ATOM     28  C   UNL A   1      43.126  29.270  35.343  1.00  0.00     0.037 A 
ATOM     29  C   UNL A   1      38.231  33.079  32.988  1.00  0.00     0.049 A 
ATOM     30  C   UNL A   1      42.378  30.452  35.881  1.00  0.00     0.074 A 
ATOM     31  C   UNL A   1      37.527  34.033  33.698  1.00  0.00     0.029 A 
ATOM     32  N   UNL A   1      39.246  32.621  33.822  1.00  0.00    -0.354 N 
ATOM     33  N   UNL A   1      41.428  31.153  35.304  1.00  0.00    -0.248 NA
ATOM     34  C   UNL A   1      42.734  30.899  37.231  1.00  0.00     0.031 C 
ATOM     35  C   UNL A   1      38.138  34.174  34.949  1.00  0.00     0.029 A 
ATOM     36  C   UNL A   1      39.196  33.280  35.033  1.00  0.00     0.049 A 
ATOM     37  H   UNL A   1      39.903  31.928  33.582  1.00  0.00     0.167 HD
ATOM     38  C   UNL A   1      41.057  32.115  36.229  1.00  0.00     0.074 A 
ATOM     39  C   UNL A   1      41.903  31.919  37.393  1.00  0.00     0.031 C 
ATOM     40  C   UNL A   1      40.086  33.056  36.143  1.00  0.00     0.037 A 
BRANCH  27  41
ATOM     41  C   UNL A   1      36.845  33.114  30.852  1.00  0.00     0.058 A 
ATOM     42  C   UNL A   1      37.014  34.092  29.858  1.00  0.00     0.135 A 
ATOM     43  C   UNL A   1      35.544  32.641  31.085  1.00  0.00     0.135 A 
ATOM     44  F   UNL A   1      38.232  34.602  29.612  1.00  0.00    -0.206 F 
ATOM     45  C   UNL A   1      35.934  34.603  29.144  1.00  0.00     0.059 A 
ATOM     46  C   UNL A   1      34.451  33.120  30.365  1.00  0.00     0.059 A 
ATOM     47  F   UNL A   1      35.321  31.715  32.030  1.00  0.00    -0.206 F 
ATOM     48  C   UNL A   1      34.655  34.113  29.407  1.00  0.00     0.060 A 
BRANCH  48  49
ATOM     49  S   UNL A   1      33.263  34.794  28.480  1.00  0.00     0.124 S 
ATOM     50  O   UNL A   1      32.487  35.426  29.543  1.00  0.00    -0.237 OA
ATOM     51  O   UNL A   1      33.923  35.705  27.551  1.00  0.00    -0.237 OA
ATOM     52  O   UNL A   1      32.651  33.617  27.872  1.00  0.00    -0.744 OA
ENDBRANCH  48  49
ENDBRANCH  27  41
BRANCH  28  53
ATOM     53  C   UNL A   1      44.253  28.658  36.102  1.00  0.00     0.058 A 
ATOM     54  C   UNL A   1      45.565  29.142  36.038  1.00  0.00     0.135 A 
ATOM     55  C   UNL A   1      44.019  27.549  36.927  1.00  0.00     0.135 A 
ATOM     56  F   UNL A   1      45.858  30.183  35.243  1.00  0.00    -0.206 F 
ATOM     57  C   UNL A   1      46.597  28.562  36.781  1.00  0.00     0.059 A 
ATOM     58  C   UNL A   1      45.021  26.966  37.695  1.00  0.00     0.059 A 
ATOM     59  F   UNL A   1      42.800  27.000  36.959  1.00  0.00    -0.206 F 
ATOM     60  C   UNL A   1      46.312  27.480  37.616  1.00  0.00     0.060 A 
BRANCH  60  61
ATOM     61  S   UNL A   1      47.605  26.737  38.638  1.00  0.00     0.124 S 
ATOM     62  O   UNL A   1      46.873  26.419  39.859  1.00  0.00    -0.237 OA
ATOM     63  O   UNL A   1      48.036  25.588  37.846  1.00  0.00    -0.237 OA
ATOM     64  O   UNL A   1      48.584  27.813  38.743  1.00  0.00    -0.744 OA
ENDBRANCH  60  61
ENDBRANCH  28  53
BRANCH  40  65
ATOM     65  C   UNL A   1      39.875  33.891  37.364  1.00  0.00     0.058 A 
ATOM     66  C   UNL A   1      39.047  33.466  38.410  1.00  0.00     0.135 A 
ATOM     67  C   UNL A   1      40.540  35.120  37.487  1.00  0.00     0.135 A 
ATOM     68  F   UNL A   1      38.382  32.304  38.318  1.00  0.00    -0.206 F 
ATOM     69  C   UNL A   1      38.875  34.246  39.545  1.00  0.00     0.059 A 
ATOM     70  C   UNL A   1      40.398  35.905  38.622  1.00  0.00     0.059 A 
ATOM     71  F   UNL A   1      41.343  35.557  36.504  1.00  0.00    -0.206 F 
ATOM     72  C   UNL A   1      39.556  35.462  39.642  1.00  0.00     0.060 A 
BRANCH  72  73
ATOM     73  S   UNL A   1      39.352  36.452  41.135  1.00  0.00     0.124 S 
ATOM     74  O   UNL A   1      38.910  37.727  40.581  1.00  0.00    -0.237 OA
ATOM     75  O   UNL A   1      38.346  35.696  41.874  1.00  0.00    -0.237 OA
ATOM     76  O   UNL A   1      40.687  36.450  41.725  1.00  0.00    -0.744 OA
ENDBRANCH  72  73
ENDBRANCH  40  65
ENDBRANCH  14  15
ENDBRANCH   7   9
ENDBRANCH   6   7
ENDBRANCH   5   6
ENDBRANCH   4   5
ENDBRANCH   3   4
ENDBRANCH   2   3
ENDBRANCH   1   2
BRANCH   1  77
ATOM     77  O   UNL A   1      44.316  21.238  24.624  1.00  0.00    -0.376 OA
BRANCH  77  78
ATOM     78  C   UNL A   1      44.639  19.882  24.925  1.00  0.00     0.202 C 
BRANCH  78  79
ATOM     79  C   UNL A   1      43.475  18.920  25.195  1.00  0.00     0.261 C 
BRANCH  79  80
ATOM     80  O   UNL A   1      42.253  19.582  25.546  1.00  0.00    -0.463 OA
BRANCH  80  81
ATOM     81  C   UNL A   1      41.896  19.513  26.864  1.00  0.00     0.310 C 
ATOM     82  O   UNL A   1      42.449  18.811  27.700  1.00  0.00    -0.252 OA
BRANCH  81  83
ATOM     83  C   UNL A   1      40.765  20.484  27.164  1.00  0.00     0.119 C 
ATOM     84  C   UNL A   1      41.348  21.769  27.768  1.00  0.00     0.019 C 
ATOM     85  C   UNL A   1      39.929  20.703  25.880  1.00  0.00     0.134 C 
ATOM     86  C   UNL A   1      40.356  22.914  27.706  1.00  0.00     0.022 C 
ATOM     87  N   UNL A   1      39.120  21.930  25.898  1.00  0.00    -0.342 N 
ATOM     88  C   UNL A   1      39.885  23.087  26.280  1.00  0.00     0.119 C 
BRANCH  87  89
ATOM     89  C   UNL A   1      37.788  21.915  25.537  1.00  0.00     0.225 C 
ATOM     90  O   UNL A   1      37.153  20.851  25.600  1.00  0.00    -0.275 OA
BRANCH  89  91
ATOM     91  C   UNL A   1      37.006  23.172  25.057  1.00  0.00     0.081 C 
ATOM     92  C   UNL A   1      36.083  23.883  26.038  1.00  0.00     0.030 C 
ATOM     93  C   UNL A   1      36.418  23.148  23.655  1.00  0.00     0.030 C 
ATOM     94  C   UNL A   1      34.588  23.620  25.916  1.00  0.00     0.103 C 
ATOM     95  C   UNL A   1      34.977  22.687  23.563  1.00  0.00     0.103 C 
ATOM     96  N   UNL A   1      34.058  23.329  24.532  1.00  0.00    -0.198 NA
BRANCH  96  97
ATOM     97  S   UNL A   1      32.512  22.516  24.719  1.00  0.00     0.243 S 
ATOM     98  O   UNL A   1      32.317  21.729  23.509  1.00  0.00    -0.207 OA
ATOM     99  O   UNL A   1      32.555  21.881  26.012  1.00  0.00    -0.207 OA
BRANCH  97 100
ATOM    100  C   UNL A   1      31.228  23.747  24.723  1.00  0.00     0.082 A 
ATOM    101  C   UNL A   1      30.906  24.396  23.526  1.00  0.00     0.022 A 
ATOM    102  C   UNL A   1      30.779  24.275  25.941  1.00  0.00     0.022 A 
ATOM    103  C   UNL A   1      30.160  25.577  23.556  1.00  0.00     0.001 A 
ATOM    104  C   UNL A   1      29.985  25.421  25.957  1.00  0.00     0.001 A 
ATOM    105  C   UNL A   1      29.700  26.087  24.769  1.00  0.00     0.000 A 
ENDBRANCH  97 100
ENDBRANCH  96  97
ENDBRANCH  89  91
ENDBRANCH  87  89
ENDBRANCH  81  83
ENDBRANCH  80  81
ENDBRANCH  79  80
ENDBRANCH  78  79
ENDBRANCH  77  78
ENDBRANCH   1  77
TORSDOF 24
ENDMDL
MODEL 2
REMARK VINA RESULT:     -10.7      1.767      3.131
REMARK SMILES O=C(OCCOCCOCCOC(=O)[C@H]1CCCN(C(=O)C2CCN(S(=O)(=O)c3ccccc3)CC2)C1)c1ccc(-c2c3nc(c(-c4c(F)cc(S(=O)(=O)[O-])cc4F)c4ccc([nH]4)c(-c4c(F)cc(S(=O)(=O)[O-])cc4F)c4nc(c(-c5c(F)cc(S(=O)(=O)[O-])cc5F)c5ccc2[nH]5)C=C4)C=C3)cc1
REMARK SMILES IDX 8 1 7 2 6 3 5 4 4 5 3 6 2 7 1 8 38 9 39 10 103 11 40 12
REMARK SMILES IDX 102 13 41 14 42 15 43 16 96 17 44 18 101 19 95 20 97 21
REMARK SMILES IDX 45 22 100 23 94 24 93 25 46 27 80 28 59 29 79 30 60 31 63 32
REMARK SMILES IDX 78 33 98 34 61 35 62 36 77 38 99 39 64 40 47 41 48 42 57 43
REMARK SMILES IDX 49 44 50 45 56 46 58 47 51 48 52 49 53 50 54 51 55 52 81 53
REMARK SMILES IDX 82 54 91 55 83 56 84 57 90 58 92 59 85 60 86 61 87 62 88 63
REMARK SMILES IDX 89 64 65 65 66 66 75 67 67 68 68 69 74 70 76 71 69 72 70 73
REMARK SMILES IDX 71 74 72 75 73 76 9 77 10 78 11 79 12 80 13 81 14 82 15 83
REMARK SMILES IDX 16 84 37 85 17 86 19 87 18 88 20 89 21 90 22 91 23 92 36 93
REMARK SMILES IDX 24 94 35 95 25 96 26 97 27 98 28 99 29 100 30 101 34 102
REMARK SMILES IDX 31 103 33 104 32 105
REMARK H PARENT 97 26 63 37
REMARK Flexibility Score: inf
ROOT
ATOM      1  C   UNL A   1      42.922  21.531  26.863  1.00  0.00     0.188 C 
ENDROOT
BRANCH   1   2
ATOM      2  C   UNL A   1      43.426  20.961  25.535  1.00  0.00     0.188 C 
BRANCH   2   3
ATOM      3  O   UNL A   1      44.054  21.956  24.719  1.00  0.00    -0.376 OA
BRANCH   3   4
ATOM      4  C   UNL A   1      45.154  22.608  25.364  1.00  0.00     0.202 C 
BRANCH   4   5
ATOM      5  C   UNL A   1      45.130  24.143  25.294  1.00  0.00     0.261 C 
BRANCH   5   6
ATOM      6  O   UNL A   1      44.383  24.738  26.367  1.00  0.00    -0.460 OA
BRANCH   6   7
ATOM      7  C   UNL A   1      43.163  25.334  26.306  1.00  0.00     0.338 C 
ATOM      8  O   UNL A   1      42.422  25.059  25.363  1.00  0.00    -0.246 OA
BRANCH   7   9
ATOM      9  C   UNL A   1      42.655  26.278  27.349  1.00  0.00     0.060 A 
ATOM     10  C   UNL A   1      43.168  27.552  27.589  1.00  0.00     0.016 A 
ATOM     11  C   UNL A   1      41.558  25.860  28.120  1.00  0.00     0.016 A 
ATOM     12  C   UNL A   1      42.736  28.321  28.663  1.00  0.00     0.010 A 
ATOM     13  C   UNL A   1      41.057  26.666  29.149  1.00  0.00     0.010 A 
ATOM     14  C   UNL A   1      41.687  27.880  29.462  1.00  0.00    -0.014 A 
BRANCH  14  15
ATOM     15  C   UNL A   1      41.370  28.611  30.711  1.00  0.00     0.031 A 
ATOM     16  C   UNL A   1      40.290  29.651  30.648  1.00  0.00     0.074 A 
ATOM     17  C   UNL A   1      41.980  28.305  31.874  1.00  0.00     0.049 A 
ATOM     18  N   UNL A   1      39.978  30.574  31.512  1.00  0.00    -0.248 NA
ATOM     19  C   UNL A   1      39.444  29.647  29.439  1.00  0.00     0.031 C 
ATOM     20  C   UNL A   1      42.940  27.219  32.056  1.00  0.00     0.029 A 
ATOM     21  N   UNL A   1      41.924  28.889  33.113  1.00  0.00    -0.354 N 
ATOM     22  C   UNL A   1      38.888  31.243  30.966  1.00  0.00     0.074 A 
ATOM     23  C   UNL A   1      38.641  30.676  29.662  1.00  0.00     0.031 C 
ATOM     24  C   UNL A   1      43.449  27.260  33.298  1.00  0.00     0.029 A 
ATOM     25  C   UNL A   1      42.853  28.382  34.001  1.00  0.00     0.049 A 
ATOM     26  H   UNL A   1      41.285  29.600  33.346  1.00  0.00     0.167 HD
ATOM     27  C   UNL A   1      38.142  32.219  31.532  1.00  0.00     0.037 A 
ATOM     28  C   UNL A   1      43.219  28.826  35.218  1.00  0.00     0.037 A 
ATOM     29  C   UNL A   1      38.425  32.747  32.839  1.00  0.00     0.049 A 
ATOM     30  C   UNL A   1      42.539  30.062  35.724  1.00  0.00     0.074 A 
ATOM     31  C   UNL A   1      37.784  33.760  33.526  1.00  0.00     0.029 A 
ATOM     32  N   UNL A   1      39.443  32.280  33.663  1.00  0.00    -0.354 N 
ATOM     33  N   UNL A   1      41.603  30.779  35.145  1.00  0.00    -0.248 NA
ATOM     34  C   UNL A   1      42.954  30.548  37.043  1.00  0.00     0.031 C 
ATOM     35  C   UNL A   1      38.438  33.926  34.752  1.00  0.00     0.029 A 
ATOM     36  C   UNL A   1      39.458  32.991  34.845  1.00  0.00     0.049 A 
ATOM     37  H   UNL A   1      40.062  31.548  33.435  1.00  0.00     0.167 HD
ATOM     38  C   UNL A   1      41.303  31.795  36.038  1.00  0.00     0.074 A 
ATOM     39  C   UNL A   1      42.173  31.611  37.185  1.00  0.00     0.031 C 
ATOM     40  C   UNL A   1      40.371  32.774  35.939  1.00  0.00     0.037 A 
BRANCH  27  41
ATOM     41  C   UNL A   1      36.977  32.754  30.744  1.00  0.00     0.058 A 
ATOM     42  C   UNL A   1      37.143  33.768  29.785  1.00  0.00     0.135 A 
ATOM     43  C   UNL A   1      35.680  32.261  30.951  1.00  0.00     0.135 A 
ATOM     44  F   UNL A   1      38.357  34.297  29.565  1.00  0.00    -0.206 F 
ATOM     45  C   UNL A   1      36.063  34.293  29.083  1.00  0.00     0.059 A 
ATOM     46  C   UNL A   1      34.587  32.755  30.242  1.00  0.00     0.059 A 
ATOM     47  F   UNL A   1      35.460  31.300  31.863  1.00  0.00    -0.206 F 
ATOM     48  C   UNL A   1      34.786  33.783  29.321  1.00  0.00     0.060 A 
BRANCH  48  49
ATOM     49  S   UNL A   1      33.394  34.484  28.410  1.00  0.00     0.124 S 
ATOM     50  O   UNL A   1      32.532  34.935  29.499  1.00  0.00    -0.237 OA
ATOM     51  O   UNL A   1      34.031  35.539  27.629  1.00  0.00    -0.237 OA
ATOM     52  O   UNL A   1      32.889  33.353  27.638  1.00  0.00    -0.744 OA
ENDBRANCH  48  49
ENDBRANCH  27  41
BRANCH  28  53
ATOM     53  C   UNL A   1      44.341  28.197  35.970  1.00  0.00     0.058 A 
ATOM     54  C   UNL A   1      44.151  27.171  36.902  1.00  0.00     0.135 A 
ATOM     55  C   UNL A   1      45.656  28.631  35.754  1.00  0.00     0.135 A 
ATOM     56  F   UNL A   1      42.912  26.732  37.175  1.00  0.00    -0.206 F 
ATOM     57  C   UNL A   1      45.226  26.583  37.575  1.00  0.00     0.059 A 
ATOM     58  C   UNL A   1      46.747  28.050  36.391  1.00  0.00     0.059 A 
ATOM     59  F   UNL A   1      45.880  29.663  34.934  1.00  0.00    -0.206 F 
ATOM     60  C   UNL A   1      46.523  27.023  37.303  1.00  0.00     0.060 A 
BRANCH  60  61
ATOM     61  S   UNL A   1      47.947  26.252  38.107  1.00  0.00     0.124 S 
ATOM     62  O   UNL A   1      47.411  25.943  39.428  1.00  0.00    -0.237 OA
ATOM     63  O   UNL A   1      48.226  25.099  37.257  1.00  0.00    -0.237 OA
ATOM     64  O   UNL A   1      48.952  27.309  38.057  1.00  0.00    -0.744 OA
ENDBRANCH  60  61
ENDBRANCH  28  53
BRANCH  40  65
ATOM     65  C   UNL A   1      40.233  33.668  37.128  1.00  0.00     0.058 A 
ATOM     66  C   UNL A   1      41.004  34.829  37.266  1.00  0.00     0.135 A 
ATOM     67  C   UNL A   1      39.292  33.361  38.121  1.00  0.00     0.135 A 
ATOM     68  F   UNL A   1      41.926  35.143  36.342  1.00  0.00    -0.206 F 
ATOM     69  C   UNL A   1      40.853  35.658  38.368  1.00  0.00     0.059 A 
ATOM     70  C   UNL A   1      39.111  34.187  39.220  1.00  0.00     0.059 A 
ATOM     71  F   UNL A   1      38.535  32.257  38.020  1.00  0.00    -0.206 F 
ATOM     72  C   UNL A   1      39.903  35.329  39.339  1.00  0.00     0.060 A 
BRANCH  72  73
ATOM     73  S   UNL A   1      39.690  36.431  40.749  1.00  0.00     0.124 S 
ATOM     74  O   UNL A   1      38.533  37.217  40.332  1.00  0.00    -0.237 OA
ATOM     75  O   UNL A   1      39.460  35.494  41.844  1.00  0.00    -0.237 OA
ATOM     76  O   UNL A   1      40.956  37.155  40.807  1.00  0.00    -0.744 OA
ENDBRANCH  72  73
ENDBRANCH  40  65
ENDBRANCH  14  15
ENDBRANCH   7   9
ENDBRANCH   6   7
ENDBRANCH   5   6
ENDBRANCH   4   5
ENDBRANCH   3   4
ENDBRANCH   2   3
ENDBRANCH   1   2
BRANCH   1  77
ATOM     77  O   UNL A   1      41.880  20.806  27.518  1.00  0.00    -0.376 OA
BRANCH  77  78
ATOM     78  C   UNL A   1      40.615  21.448  27.660  1.00  0.00     0.202 C 
BRANCH  78  79
ATOM     79  C   UNL A   1      40.199  22.444  26.569  1.00  0.00     0.261 C 
BRANCH  79  80
ATOM     80  O   UNL A   1      38.936  22.137  25.964  1.00  0.00    -0.463 OA
BRANCH  80  81
ATOM     81  C   UNL A   1      37.990  23.122  26.029  1.00  0.00     0.310 C 
ATOM     82  O   UNL A   1      38.166  24.225  26.529  1.00  0.00    -0.252 OA
BRANCH  81  83
ATOM     83  C   UNL A   1      36.713  22.686  25.327  1.00  0.00     0.119 C 
ATOM     84  C   UNL A   1      36.648  21.152  25.303  1.00  0.00     0.019 C 
ATOM     85  C   UNL A   1      35.502  23.367  26.007  1.00  0.00     0.134 C 
ATOM     86  C   UNL A   1      35.247  20.659  25.003  1.00  0.00     0.022 C 
ATOM     87  N   UNL A   1      34.219  22.697  25.745  1.00  0.00    -0.342 N 
ATOM     88  C   UNL A   1      34.280  21.281  25.984  1.00  0.00     0.119 C 
BRANCH  87  89
ATOM     89  C   UNL A   1      33.105  23.413  25.355  1.00  0.00     0.225 C 
ATOM     90  O   UNL A   1      32.370  23.914  26.220  1.00  0.00    -0.275 OA
BRANCH  89  91
ATOM     91  C   UNL A   1      32.704  23.651  23.870  1.00  0.00     0.081 C 
ATOM     92  C   UNL A   1      33.335  24.812  23.114  1.00  0.00     0.030 C 
ATOM     93  C   UNL A   1      31.242  23.470  23.494  1.00  0.00     0.030 C 
ATOM     94  C   UNL A   1      32.503  26.074  22.938  1.00  0.00     0.103 C 
ATOM     95  C   UNL A   1      30.403  24.732  23.524  1.00  0.00     0.103 C 
ATOM     96  N   UNL A   1      31.007  25.895  22.833  1.00  0.00    -0.198 NA
BRANCH  96  97
ATOM     97  S   UNL A   1      30.261  27.439  23.217  1.00  0.00     0.243 S 
ATOM     98  O   UNL A   1      30.630  28.347  22.140  1.00  0.00    -0.207 OA
ATOM     99  O   UNL A   1      28.878  27.149  23.497  1.00  0.00    -0.207 OA
BRANCH  97 100
ATOM    100  C   UNL A   1      31.027  28.079  24.690  1.00  0.00     0.082 A 
ATOM    101  C   UNL A   1      31.760  29.268  24.612  1.00  0.00     0.022 A 
ATOM    102  C   UNL A   1      31.159  27.255  25.816  1.00  0.00     0.022 A 
ATOM    103  C   UNL A   1      32.636  29.612  25.645  1.00  0.00     0.001 A 
ATOM    104  C   UNL A   1      31.989  27.636  26.869  1.00  0.00     0.001 A 
ATOM    105  C   UNL A   1      32.748  28.798  26.772  1.00  0.00     0.000 A 
ENDBRANCH  97 100
ENDBRANCH  96  97
ENDBRANCH  89  91
ENDBRANCH  87  89
ENDBRANCH  81  83
ENDBRANCH  80  81
ENDBRANCH  79  80
ENDBRANCH  78  79
ENDBRANCH  77  78
ENDBRANCH   1  77
TORSDOF 24
ENDMDL
MODEL 3
REMARK VINA RESULT:     -10.3      5.740     12.306
REMARK SMILES O=C(OCCOCCOCCOC(=O)[C@H]1CCCN(C(=O)C2CCN(S(=O)(=O)c3ccccc3)CC2)C1)c1ccc(-c2c3nc(c(-c4c(F)cc(S(=O)(=O)[O-])cc4F)c4ccc([nH]4)c(-c4c(F)cc(S(=O)(=O)[O-])cc4F)c4nc(c(-c5c(F)cc(S(=O)(=O)[O-])cc5F)c5ccc2[nH]5)C=C4)C=C3)cc1
REMARK SMILES IDX 8 1 7 2 6 3 5 4 4 5 3 6 2 7 1 8 38 9 39 10 103 11 40 12
REMARK SMILES IDX 102 13 41 14 42 15 43 16 96 17 44 18 101 19 95 20 97 21
REMARK SMILES IDX 45 22 100 23 94 24 93 25 46 27 80 28 59 29 79 30 60 31 63 32
REMARK SMILES IDX 78 33 98 34 61 35 62 36 77 38 99 39 64 40 47 41 48 42 57 43
REMARK SMILES IDX 49 44 50 45 56 46 58 47 51 48 52 49 53 50 54 51 55 52 81 53
REMARK SMILES IDX 82 54 91 55 83 56 84 57 90 58 92 59 85 60 86 61 87 62 88 63
REMARK SMILES IDX 89 64 65 65 66 66 75 67 67 68 68 69 74 70 76 71 69 72 70 73
REMARK SMILES IDX 71 74 72 75 73 76 9 77 10 78 11 79 12 80 13 81 14 82 15 83
REMARK SMILES IDX 16 84 37 85 17 86 19 87 18 88 20 89 21 90 22 91 23 92 36 93
REMARK SMILES IDX 24 94 35 95 25 96 26 97 27 98 28 99 29 100 30 101 34 102
REMARK SMILES IDX 31 103 33 104 32 105
REMARK H PARENT 97 26 63 37
REMARK Flexibility Score: inf
ROOT
ATOM      1  C   UNL A   1      35.405  34.085  28.841  1.00  0.00     0.188 C 
ENDROOT
BRANCH   1   2
ATOM      2  C   UNL A   1      34.378  34.583  29.861  1.00  0.00     0.188 C 
BRANCH   2   3
ATOM      3  O   UNL A   1      34.625  34.070  31.176  1.00  0.00    -0.376 OA
BRANCH   3   4
ATOM      4  C   UNL A   1      36.003  34.132  31.559  1.00  0.00     0.202 C 
BRANCH   4   5
ATOM      5  C   UNL A   1      36.337  33.441  32.891  1.00  0.00     0.261 C 
BRANCH   5   6
ATOM      6  O   UNL A   1      37.205  32.308  32.728  1.00  0.00    -0.460 OA
BRANCH   6   7
ATOM      7  C   UNL A   1      37.140  31.335  31.782  1.00  0.00     0.338 C 
ATOM      8  O   UNL A   1      36.032  30.962  31.398  1.00  0.00    -0.246 OA
BRANCH   7   9
ATOM      9  C   UNL A   1      38.348  30.720  31.150  1.00  0.00     0.060 A 
ATOM     10  C   UNL A   1      39.455  30.237  31.846  1.00  0.00     0.016 A 
ATOM     11  C   UNL A   1      38.350  30.589  29.751  1.00  0.00     0.016 A 
ATOM     12  C   UNL A   1      40.598  29.802  31.188  1.00  0.00     0.010 A 
ATOM     13  C   UNL A   1      39.465  30.071  29.081  1.00  0.00     0.010 A 
ATOM     14  C   UNL A   1      40.621  29.729  29.800  1.00  0.00    -0.014 A 
BRANCH  14  15
ATOM     15  C   UNL A   1      41.901  29.453  29.108  1.00  0.00     0.031 A 
ATOM     16  C   UNL A   1      42.167  28.039  28.683  1.00  0.00     0.074 A 
ATOM     17  C   UNL A   1      42.763  30.447  28.811  1.00  0.00     0.049 A 
ATOM     18  N   UNL A   1      43.277  27.491  28.277  1.00  0.00    -0.248 NA
ATOM     19  C   UNL A   1      41.018  27.114  28.723  1.00  0.00     0.031 C 
ATOM     20  C   UNL A   1      42.524  31.866  29.064  1.00  0.00     0.029 A 
ATOM     21  N   UNL A   1      44.023  30.429  28.273  1.00  0.00    -0.354 N 
ATOM     22  C   UNL A   1      42.956  26.168  27.989  1.00  0.00     0.074 A 
ATOM     23  C   UNL A   1      41.570  25.973  28.342  1.00  0.00     0.031 C 
ATOM     24  C   UNL A   1      43.624  32.576  28.764  1.00  0.00     0.029 A 
ATOM     25  C   UNL A   1      44.650  31.660  28.302  1.00  0.00     0.049 A 
ATOM     26  H   UNL A   1      44.440  29.618  27.902  1.00  0.00     0.167 HD
ATOM     27  C   UNL A   1      43.750  25.220  27.441  1.00  0.00     0.037 A 
ATOM     28  C   UNL A   1      45.931  31.985  28.047  1.00  0.00     0.037 A 
ATOM     29  C   UNL A   1      45.124  25.467  27.101  1.00  0.00     0.049 A 
ATOM     30  C   UNL A   1      46.855  30.866  27.671  1.00  0.00     0.074 A 
ATOM     31  C   UNL A   1      46.061  24.598  26.576  1.00  0.00     0.029 A 
ATOM     32  N   UNL A   1      45.753  26.699  27.248  1.00  0.00    -0.354 N 
ATOM     33  N   UNL A   1      46.583  29.588  27.534  1.00  0.00    -0.248 NA
ATOM     34  C   UNL A   1      48.252  31.225  27.409  1.00  0.00     0.031 C 
ATOM     35  C   UNL A   1      47.266  25.297  26.438  1.00  0.00     0.029 A 
ATOM     36  C   UNL A   1      47.068  26.611  26.837  1.00  0.00     0.049 A 
ATOM     37  H   UNL A   1      45.322  27.515  27.593  1.00  0.00     0.167 HD
ATOM     38  C   UNL A   1      47.772  28.990  27.152  1.00  0.00     0.074 A 
ATOM     39  C   UNL A   1      48.770  30.043  27.102  1.00  0.00     0.031 C 
ATOM     40  C   UNL A   1      48.017  27.695  26.838  1.00  0.00     0.037 A 
BRANCH  27  41
ATOM     41  C   UNL A   1      43.146  23.866  27.187  1.00  0.00     0.058 A 
ATOM     42  C   UNL A   1      42.737  23.474  25.900  1.00  0.00     0.135 A 
ATOM     43  C   UNL A   1      42.962  22.951  28.234  1.00  0.00     0.135 A 
ATOM     44  F   UNL A   1      42.863  24.320  24.865  1.00  0.00    -0.206 F 
ATOM     45  C   UNL A   1      42.141  22.239  25.668  1.00  0.00     0.059 A 
ATOM     46  C   UNL A   1      42.390  21.698  28.021  1.00  0.00     0.059 A 
ATOM     47  F   UNL A   1      43.324  23.275  29.486  1.00  0.00    -0.206 F 
ATOM     48  C   UNL A   1      41.968  21.358  26.736  1.00  0.00     0.060 A 
BRANCH  48  49
ATOM     49  S   UNL A   1      41.182  19.763  26.419  1.00  0.00     0.124 S 
ATOM     50  O   UNL A   1      41.275  19.128  27.731  1.00  0.00    -0.237 OA
ATOM     51  O   UNL A   1      39.841  20.154  25.998  1.00  0.00    -0.237 OA
ATOM     52  O   UNL A   1      42.017  19.175  25.377  1.00  0.00    -0.744 OA
ENDBRANCH  48  49
ENDBRANCH  27  41
BRANCH  28  53
ATOM     53  C   UNL A   1      46.439  33.369  28.257  1.00  0.00     0.058 A 
ATOM     54  C   UNL A   1      46.330  34.375  27.289  1.00  0.00     0.135 A 
ATOM     55  C   UNL A   1      47.057  33.710  29.468  1.00  0.00     0.135 A 
ATOM     56  F   UNL A   1      45.775  34.103  26.098  1.00  0.00    -0.206 F 
ATOM     57  C   UNL A   1      46.794  35.672  27.525  1.00  0.00     0.059 A 
ATOM     58  C   UNL A   1      47.507  34.998  29.739  1.00  0.00     0.059 A 
ATOM     59  F   UNL A   1      47.257  32.764  30.392  1.00  0.00    -0.206 F 
ATOM     60  C   UNL A   1      47.372  35.976  28.759  1.00  0.00     0.060 A 
BRANCH  60  61
ATOM     61  S   UNL A   1      47.933  37.655  29.127  1.00  0.00     0.124 S 
ATOM     62  O   UNL A   1      47.773  38.312  27.834  1.00  0.00    -0.237 OA
ATOM     63  O   UNL A   1      47.013  38.092  30.172  1.00  0.00    -0.237 OA
ATOM     64  O   UNL A   1      49.307  37.441  29.568  1.00  0.00    -0.744 OA
ENDBRANCH  60  61
ENDBRANCH  28  53
BRANCH  40  65
ATOM     65  C   UNL A   1      49.403  27.385  26.371  1.00  0.00     0.058 A 
ATOM     66  C   UNL A   1      49.753  27.451  25.017  1.00  0.00     0.135 A 
ATOM     67  C   UNL A   1      50.391  27.047  27.308  1.00  0.00     0.135 A 
ATOM     68  F   UNL A   1      48.828  27.755  24.093  1.00  0.00    -0.206 F 
ATOM     69  C   UNL A   1      51.048  27.177  24.601  1.00  0.00     0.059 A 
ATOM     70  C   UNL A   1      51.696  26.790  26.915  1.00  0.00     0.059 A 
ATOM     71  F   UNL A   1      50.090  26.977  28.614  1.00  0.00    -0.206 F 
ATOM     72  C   UNL A   1      52.012  26.850  25.558  1.00  0.00     0.060 A 
BRANCH  72  73
ATOM     73  S   UNL A   1      53.700  26.530  25.012  1.00  0.00     0.124 S 
ATOM     74  O   UNL A   1      54.142  27.868  24.632  1.00  0.00    -0.237 OA
ATOM     75  O   UNL A   1      54.316  25.973  26.213  1.00  0.00    -0.237 OA
ATOM     76  O   UNL A   1      53.525  25.588  23.910  1.00  0.00    -0.744 OA
ENDBRANCH  72  73
ENDBRANCH  40  65
ENDBRANCH  14  15
ENDBRANCH   7   9
ENDBRANCH   6   7
ENDBRANCH   5   6
ENDBRANCH   4   5
ENDBRANCH   3   4
ENDBRANCH   2   3
ENDBRANCH   1   2
BRANCH   1  77
ATOM     77  O   UNL A   1      34.889  33.516  27.637  1.00  0.00    -0.376 OA
BRANCH  77  78
ATOM     78  C   UNL A   1      33.812  32.588  27.753  1.00  0.00     0.202 C 
BRANCH  78  79
ATOM     79  C   UNL A   1      34.148  31.095  27.642  1.00  0.00     0.261 C 
BRANCH  79  80
ATOM     80  O   UNL A   1      33.425  30.420  26.604  1.00  0.00    -0.463 OA
BRANCH  80  81
ATOM     81  C   UNL A   1      33.414  29.055  26.677  1.00  0.00     0.310 C 
ATOM     82  O   UNL A   1      33.955  28.400  27.557  1.00  0.00    -0.252 OA
BRANCH  81  83
ATOM     83  C   UNL A   1      32.572  28.466  25.555  1.00  0.00     0.119 C 
ATOM     84  C   UNL A   1      31.494  29.479  25.147  1.00  0.00     0.019 C 
ATOM     85  C   UNL A   1      33.502  28.022  24.401  1.00  0.00     0.134 C 
ATOM     86  C   UNL A   1      30.900  29.145  23.793  1.00  0.00     0.022 C 
ATOM     87  N   UNL A   1      32.818  27.874  23.109  1.00  0.00    -0.342 N 
ATOM     88  C   UNL A   1      32.014  29.019  22.778  1.00  0.00     0.119 C 
BRANCH  87  89
ATOM     89  C   UNL A   1      33.002  26.752  22.326  1.00  0.00     0.225 C 
ATOM     90  O   UNL A   1      34.022  26.659  21.626  1.00  0.00    -0.275 OA
BRANCH  89  91
ATOM     91  C   UNL A   1      32.000  25.561  22.269  1.00  0.00     0.081 C 
ATOM     92  C   UNL A   1      30.929  25.449  23.345  1.00  0.00     0.030 C 
ATOM     93  C   UNL A   1      32.545  24.195  21.882  1.00  0.00     0.030 C 
ATOM     94  C   UNL A   1      31.160  24.449  24.469  1.00  0.00     0.103 C 
ATOM     95  C   UNL A   1      32.949  23.305  23.039  1.00  0.00     0.103 C 
ATOM     96  N   UNL A   1      31.946  23.206  24.125  1.00  0.00    -0.198 NA
BRANCH  96  97
ATOM     97  S   UNL A   1      32.561  22.536  25.627  1.00  0.00     0.243 S 
ATOM     98  O   UNL A   1      32.110  23.430  26.686  1.00  0.00    -0.207 OA
ATOM     99  O   UNL A   1      32.182  21.146  25.623  1.00  0.00    -0.207 OA
BRANCH  97 100
ATOM    100  C   UNL A   1      34.336  22.651  25.606  1.00  0.00     0.082 A 
ATOM    101  C   UNL A   1      34.938  23.904  25.760  1.00  0.00     0.022 A 
ATOM    102  C   UNL A   1      35.094  21.571  25.132  1.00  0.00     0.022 A 
ATOM    103  C   UNL A   1      36.282  24.076  25.417  1.00  0.00     0.001 A 
ATOM    104  C   UNL A   1      36.449  21.737  24.849  1.00  0.00     0.001 A 
ATOM    105  C   UNL A   1      37.035  22.994  24.964  1.00  0.00     0.000 A 
ENDBRANCH  97 100
ENDBRANCH  96  97
ENDBRANCH  89  91
ENDBRANCH  87  89
ENDBRANCH  81  83
ENDBRANCH  80  81
ENDBRANCH  79  80
ENDBRANCH  78  79
ENDBRANCH  77  78
ENDBRANCH   1  77
TORSDOF 24
ENDMDL
