MODEL 1
REMARK VINA RESULT:     -10.4      0.000      0.000
REMARK SMILES COc1ccc(OCc2nc(C)no2)c(/C=C/C(=O)OCCOCCOCCOC(=O)c2ccc(-c3c4nc(c(-c5c(F)cc(S(=O)(=O)[O-])cc5F)c5ccc([nH]5)c(-c5c(F)cc(S(=O)(=O)[O-])cc5F)c5nc(c(-c6c(F)cc(S(=O)(=O)[O-])cc6F)c6ccc3[nH]6)C=C5)C=C4)cc2)c1
REMARK SMILES IDX 24 1 23 2 22 3 21 4 20 5 18 6 19 7 17 8 16 9 15 10 3 11 4 12
REMARK SMILES IDX 98 13 5 14 6 15 2 16 1 17 7 18 8 19 9 20 10 21 14 22 11 23
REMARK SMILES IDX 13 24 12 25 25 26 26 27 27 28 28 29 29 30 30 31 31 32 32 33
REMARK SMILES IDX 33 34 97 35 34 36 96 37 35 38 36 39 37 40 90 41 38 42 95 43
REMARK SMILES IDX 89 44 91 45 39 46 94 47 88 48 87 49 40 51 74 52 53 53 73 54
REMARK SMILES IDX 54 55 57 56 72 57 92 58 55 59 56 60 71 62 93 63 58 64 41 65
REMARK SMILES IDX 42 66 51 67 43 68 44 69 50 70 52 71 45 72 46 73 47 74 48 75
REMARK SMILES IDX 49 76 75 77 76 78 85 79 77 80 78 81 84 82 86 83 79 84 80 85
REMARK SMILES IDX 81 86 82 87 83 88 59 89 60 90 69 91 61 92 62 93 68 94 70 95
REMARK SMILES IDX 63 96 64 97 65 98 66 99 67 100
REMARK H PARENT 91 50 57 61
REMARK Flexibility Score: inf
ROOT
ATOM      1  C   UNL A   1      35.519  22.009  25.167  1.00  0.00     0.188 C 
ENDROOT
BRANCH   1   2
ATOM      2  O   UNL A   1      34.882  22.186  26.419  1.00  0.00    -0.376 OA
BRANCH   2   3
ATOM      3  C   UNL A   1      33.865  23.172  26.538  1.00  0.00     0.202 C 
BRANCH   3   4
ATOM      4  C   UNL A   1      32.461  22.845  27.090  1.00  0.00     0.261 C 
BRANCH   4   5
ATOM      5  O   UNL A   1      31.409  23.065  26.153  1.00  0.00    -0.460 OA
BRANCH   5   6
ATOM      6  C   UNL A   1      30.360  23.795  26.592  1.00  0.00     0.330 C 
ATOM      7  O   UNL A   1      29.526  23.473  27.416  1.00  0.00    -0.247 OA
BRANCH   6   8
ATOM      8  C   UNL A   1      30.508  25.150  26.042  1.00  0.00     0.094 C 
ATOM      9  C   UNL A   1      30.347  25.425  24.743  1.00  0.00     0.019 C 
BRANCH   9  10
ATOM     10  C   UNL A   1      30.377  26.772  24.114  1.00  0.00     0.020 A 
ATOM     11  C   UNL A   1      29.013  28.505  23.043  1.00  0.00     0.119 A 
ATOM     12  C   UNL A   1      30.100  29.376  23.061  1.00  0.00     0.050 A 
ATOM     13  C   UNL A   1      29.162  27.210  23.550  1.00  0.00     0.058 A 
ATOM     14  C   UNL A   1      31.324  28.965  23.589  1.00  0.00     0.051 A 
ATOM     15  C   UNL A   1      31.462  27.681  24.128  1.00  0.00     0.127 A 
BRANCH  11  16
ATOM     16  O   UNL A   1      27.866  29.020  22.500  1.00  0.00    -0.497 OA
ATOM     17  C   UNL A   1      28.019  30.146  21.645  1.00  0.00     0.278 C 
ENDBRANCH  11  16
BRANCH  15  18
ATOM     18  O   UNL A   1      32.687  27.308  24.626  1.00  0.00    -0.483 OA
BRANCH  18  19
ATOM     19  C   UNL A   1      33.736  27.216  23.628  1.00  0.00     0.329 C 
BRANCH  19  20
ATOM     20  C   UNL A   1      33.666  25.901  22.937  1.00  0.00     0.264 A 
ATOM     21  N   UNL A   1      33.552  24.694  23.452  1.00  0.00    -0.193 NA
ATOM     22  O   UNL A   1      33.540  25.919  21.576  1.00  0.00    -0.336 OA
ATOM     23  C   UNL A   1      33.226  23.946  22.356  1.00  0.00     0.169 A 
ATOM     24  N   UNL A   1      33.258  24.604  21.191  1.00  0.00    -0.063 NA
ATOM     25  C   UNL A   1      32.764  22.554  22.489  1.00  0.00     0.093 C 
ENDBRANCH  19  20
ENDBRANCH  18  19
ENDBRANCH  15  18
ENDBRANCH   9  10
ENDBRANCH   6   8
ENDBRANCH   5   6
ENDBRANCH   4   5
ENDBRANCH   3   4
ENDBRANCH   2   3
ENDBRANCH   1   2
BRANCH   1  26
ATOM     26  C   UNL A   1      36.523  20.830  25.148  1.00  0.00     0.188 C 
BRANCH  26  27
ATOM     27  O   UNL A   1      37.921  21.071  25.036  1.00  0.00    -0.376 OA
BRANCH  27  28
ATOM     28  C   UNL A   1      38.527  22.004  25.922  1.00  0.00     0.202 C 
BRANCH  28  29
ATOM     29  C   UNL A   1      38.559  23.506  25.578  1.00  0.00     0.261 C 
BRANCH  29  30
ATOM     30  O   UNL A   1      38.827  24.401  26.670  1.00  0.00    -0.460 OA
BRANCH  30  31
ATOM     31  C   UNL A   1      40.004  25.074  26.586  1.00  0.00     0.338 C 
ATOM     32  O   UNL A   1      40.752  25.131  25.625  1.00  0.00    -0.246 OA
BRANCH  31  33
ATOM     33  C   UNL A   1      40.195  25.909  27.789  1.00  0.00     0.060 A 
ATOM     34  C   UNL A   1      39.275  25.775  28.837  1.00  0.00     0.016 A 
ATOM     35  C   UNL A   1      41.204  26.871  27.853  1.00  0.00     0.016 A 
ATOM     36  C   UNL A   1      39.344  26.619  29.943  1.00  0.00     0.010 A 
ATOM     37  C   UNL A   1      41.256  27.736  28.955  1.00  0.00     0.010 A 
ATOM     38  C   UNL A   1      40.309  27.633  29.989  1.00  0.00    -0.014 A 
BRANCH  38  39
ATOM     39  C   UNL A   1      40.210  28.673  31.044  1.00  0.00     0.031 A 
ATOM     40  C   UNL A   1      41.131  28.594  32.232  1.00  0.00     0.074 A 
ATOM     41  C   UNL A   1      39.350  29.701  30.922  1.00  0.00     0.049 A 
ATOM     42  N   UNL A   1      41.234  29.403  33.255  1.00  0.00    -0.248 NA
ATOM     43  C   UNL A   1      42.061  27.453  32.269  1.00  0.00     0.031 C 
ATOM     44  C   UNL A   1      38.431  29.908  29.802  1.00  0.00     0.029 A 
ATOM     45  N   UNL A   1      39.112  30.768  31.753  1.00  0.00    -0.354 N 
ATOM     46  C   UNL A   1      42.233  28.868  34.061  1.00  0.00     0.074 A 
ATOM     47  C   UNL A   1      42.689  27.654  33.419  1.00  0.00     0.031 C 
ATOM     48  C   UNL A   1      37.725  31.031  30.020  1.00  0.00     0.029 A 
ATOM     49  C   UNL A   1      38.124  31.611  31.302  1.00  0.00     0.049 A 
ATOM     50  H   UNL A   1      39.604  30.915  32.593  1.00  0.00     0.167 HD
ATOM     51  C   UNL A   1      42.730  29.349  35.226  1.00  0.00     0.037 A 
ATOM     52  C   UNL A   1      37.595  32.713  31.868  1.00  0.00     0.037 A 
ATOM     53  C   UNL A   1      42.282  30.561  35.860  1.00  0.00     0.049 A 
ATOM     54  C   UNL A   1      38.126  33.193  33.195  1.00  0.00     0.074 A 
ATOM     55  C   UNL A   1      42.752  31.149  37.021  1.00  0.00     0.029 A 
ATOM     56  N   UNL A   1      41.251  31.364  35.394  1.00  0.00    -0.354 N 
ATOM     57  N   UNL A   1      39.101  32.701  33.923  1.00  0.00    -0.248 NA
ATOM     58  C   UNL A   1      37.486  34.383  33.775  1.00  0.00     0.031 C 
ATOM     59  C   UNL A   1      41.972  32.281  37.286  1.00  0.00     0.029 A 
ATOM     60  C   UNL A   1      41.050  32.426  36.262  1.00  0.00     0.049 A 
ATOM     61  H   UNL A   1      40.738  31.204  34.570  1.00  0.00     0.167 HD
ATOM     62  C   UNL A   1      39.206  33.536  35.032  1.00  0.00     0.074 A 
ATOM     63  C   UNL A   1      38.209  34.573  34.870  1.00  0.00     0.031 C 
ATOM     64  C   UNL A   1      40.053  33.453  36.089  1.00  0.00     0.037 A 
BRANCH  51  65
ATOM     65  C   UNL A   1      43.804  28.549  35.911  1.00  0.00     0.058 A 
ATOM     66  C   UNL A   1      45.167  28.831  35.730  1.00  0.00     0.135 A 
ATOM     67  C   UNL A   1      43.460  27.518  36.799  1.00  0.00     0.135 A 
ATOM     68  F   UNL A   1      45.552  29.794  34.878  1.00  0.00    -0.206 F 
ATOM     69  C   UNL A   1      46.152  28.108  36.397  1.00  0.00     0.059 A 
ATOM     70  C   UNL A   1      44.427  26.799  37.495  1.00  0.00     0.059 A 
ATOM     71  F   UNL A   1      42.171  27.204  37.005  1.00  0.00    -0.206 F 
ATOM     72  C   UNL A   1      45.772  27.096  37.279  1.00  0.00     0.060 A 
BRANCH  72  73
ATOM     73  S   UNL A   1      47.061  26.183  38.154  1.00  0.00     0.124 S 
ATOM     74  O   UNL A   1      46.843  24.827  37.659  1.00  0.00    -0.237 OA
ATOM     75  O   UNL A   1      48.278  26.839  37.689  1.00  0.00    -0.237 OA
ATOM     76  O   UNL A   1      46.735  26.397  39.561  1.00  0.00    -0.744 OA
ENDBRANCH  72  73
ENDBRANCH  51  65
BRANCH  52  77
ATOM     77  C   UNL A   1      36.491  33.448  31.193  1.00  0.00     0.058 A 
ATOM     78  C   UNL A   1      35.175  33.378  31.674  1.00  0.00     0.135 A 
ATOM     79  C   UNL A   1      36.725  34.209  30.037  1.00  0.00     0.135 A 
ATOM     80  F   UNL A   1      34.900  32.656  32.770  1.00  0.00    -0.206 F 
ATOM     81  C   UNL A   1      34.125  34.014  31.019  1.00  0.00     0.059 A 
ATOM     82  C   UNL A   1      35.697  34.876  29.380  1.00  0.00     0.059 A 
ATOM     83  F   UNL A   1      37.968  34.315  29.542  1.00  0.00    -0.206 F 
ATOM     84  C   UNL A   1      34.397  34.761  29.872  1.00  0.00     0.060 A 
BRANCH  84  85
ATOM     85  S   UNL A   1      33.033  35.609  29.047  1.00  0.00     0.124 S 
ATOM     86  O   UNL A   1      32.240  36.062  30.184  1.00  0.00    -0.237 OA
ATOM     87  O   UNL A   1      33.729  36.651  28.297  1.00  0.00    -0.237 OA
ATOM     88  O   UNL A   1      32.431  34.559  28.232  1.00  0.00    -0.744 OA
ENDBRANCH  84  85
ENDBRANCH  52  77
BRANCH  64  89
ATOM     89  C   UNL A   1      39.957  34.529  37.137  1.00  0.00     0.058 A 
ATOM     90  C   UNL A   1      39.118  34.399  38.255  1.00  0.00     0.135 A 
ATOM     91  C   UNL A   1      40.731  35.696  37.032  1.00  0.00     0.135 A 
ATOM     92  F   UNL A   1      38.355  33.305  38.403  1.00  0.00    -0.206 F 
ATOM     93  C   UNL A   1      39.021  35.405  39.212  1.00  0.00     0.059 A 
ATOM     94  C   UNL A   1      40.672  36.702  37.993  1.00  0.00     0.059 A 
ATOM     95  F   UNL A   1      41.561  35.867  35.991  1.00  0.00    -0.206 F 
ATOM     96  C   UNL A   1      39.799  36.555  39.070  1.00  0.00     0.060 A 
BRANCH  96  97
ATOM     97  S   UNL A   1      39.667  37.852  40.318  1.00  0.00     0.124 S 
ATOM     98  O   UNL A   1      38.320  38.358  40.074  1.00  0.00    -0.237 OA
ATOM     99  O   UNL A   1      39.851  37.112  41.562  1.00  0.00    -0.237 OA
ATOM    100  O   UNL A   1      40.752  38.767  39.974  1.00  0.00    -0.744 OA
ENDBRANCH  96  97
ENDBRANCH  64  89
ENDBRANCH  38  39
ENDBRANCH  31  33
ENDBRANCH  30  31
ENDBRANCH  29  30
ENDBRANCH  28  29
ENDBRANCH  27  28
ENDBRANCH  26  27
ENDBRANCH   1  26
TORSDOF 25
ENDMDL
MODEL 2
REMARK VINA RESULT:     -10.3      2.396      4.166
REMARK SMILES COc1ccc(OCc2nc(C)no2)c(/C=C/C(=O)OCCOCCOCCOC(=O)c2ccc(-c3c4nc(c(-c5c(F)cc(S(=O)(=O)[O-])cc5F)c5ccc([nH]5)c(-c5c(F)cc(S(=O)(=O)[O-])cc5F)c5nc(c(-c6c(F)cc(S(=O)(=O)[O-])cc6F)c6ccc3[nH]6)C=C5)C=C4)cc2)c1
REMARK SMILES IDX 24 1 23 2 22 3 21 4 20 5 18 6 19 7 17 8 16 9 15 10 3 11 4 12
REMARK SMILES IDX 98 13 5 14 6 15 2 16 1 17 7 18 8 19 9 20 10 21 14 22 11 23
REMARK SMILES IDX 13 24 12 25 25 26 26 27 27 28 28 29 29 30 30 31 31 32 32 33
REMARK SMILES IDX 33 34 97 35 34 36 96 37 35 38 36 39 37 40 90 41 38 42 95 43
REMARK SMILES IDX 89 44 91 45 39 46 94 47 88 48 87 49 40 51 74 52 53 53 73 54
REMARK SMILES IDX 54 55 57 56 72 57 92 58 55 59 56 60 71 62 93 63 58 64 41 65
REMARK SMILES IDX 42 66 51 67 43 68 44 69 50 70 52 71 45 72 46 73 47 74 48 75
REMARK SMILES IDX 49 76 75 77 76 78 85 79 77 80 78 81 84 82 86 83 79 84 80 85
REMARK SMILES IDX 81 86 82 87 83 88 59 89 60 90 69 91 61 92 62 93 68 94 70 95
REMARK SMILES IDX 63 96 64 97 65 98 66 99 67 100
REMARK H PARENT 91 50 57 61
REMARK Flexibility Score: inf
ROOT
ATOM      1  C   UNL A   1      42.014  19.535  27.415  1.00  0.00     0.188 C 
ENDROOT
BRANCH   1   2
ATOM      2  O   UNL A   1      40.792  20.156  27.767  1.00  0.00    -0.376 OA
BRANCH   2   3
ATOM      3  C   UNL A   1      40.483  21.427  27.210  1.00  0.00     0.202 C 
BRANCH   3   4
ATOM      4  C   UNL A   1      39.562  21.586  25.981  1.00  0.00     0.261 C 
BRANCH   4   5
ATOM      5  O   UNL A   1      38.262  22.078  26.296  1.00  0.00    -0.460 OA
BRANCH   5   6
ATOM      6  C   UNL A   1      38.079  23.411  26.170  1.00  0.00     0.330 C 
ATOM      7  O   UNL A   1      38.884  24.294  26.397  1.00  0.00    -0.247 OA
BRANCH   6   8
ATOM      8  C   UNL A   1      36.781  23.615  25.511  1.00  0.00     0.094 C 
ATOM      9  C   UNL A   1      36.266  22.739  24.641  1.00  0.00     0.019 C 
BRANCH   9  10
ATOM     10  C   UNL A   1      34.924  22.811  24.005  1.00  0.00     0.020 A 
ATOM     11  C   UNL A   1      33.564  24.003  22.350  1.00  0.00     0.119 A 
ATOM     12  C   UNL A   1      32.553  23.054  22.493  1.00  0.00     0.050 A 
ATOM     13  C   UNL A   1      34.728  23.887  23.115  1.00  0.00     0.058 A 
ATOM     14  C   UNL A   1      32.705  21.991  23.383  1.00  0.00     0.051 A 
ATOM     15  C   UNL A   1      33.886  21.857  24.122  1.00  0.00     0.127 A 
BRANCH  11  16
ATOM     16  O   UNL A   1      33.300  25.000  21.448  1.00  0.00    -0.497 OA
ATOM     17  C   UNL A   1      32.199  25.850  21.745  1.00  0.00     0.278 C 
ENDBRANCH  11  16
BRANCH  15  18
ATOM     18  O   UNL A   1      33.993  20.804  24.999  1.00  0.00    -0.483 OA
BRANCH  18  19
ATOM     19  C   UNL A   1      32.800  19.984  25.098  1.00  0.00     0.329 C 
BRANCH  19  20
ATOM     20  C   UNL A   1      33.174  18.547  25.173  1.00  0.00     0.264 A 
ATOM     21  N   UNL A   1      32.541  17.551  25.757  1.00  0.00    -0.193 NA
ATOM     22  O   UNL A   1      34.229  18.137  24.407  1.00  0.00    -0.336 OA
ATOM     23  C   UNL A   1      33.175  16.461  25.231  1.00  0.00     0.169 A 
ATOM     24  N   UNL A   1      34.233  16.739  24.460  1.00  0.00    -0.063 NA
ATOM     25  C   UNL A   1      32.642  15.101  25.418  1.00  0.00     0.093 C 
ENDBRANCH  19  20
ENDBRANCH  18  19
ENDBRANCH  15  18
ENDBRANCH   9  10
ENDBRANCH   6   8
ENDBRANCH   5   6
ENDBRANCH   4   5
ENDBRANCH   3   4
ENDBRANCH   2   3
ENDBRANCH   1   2
BRANCH   1  26
ATOM     26  C   UNL A   1      42.625  20.080  26.101  1.00  0.00     0.188 C 
BRANCH  26  27
ATOM     27  O   UNL A   1      43.855  20.796  26.116  1.00  0.00    -0.376 OA
BRANCH  27  28
ATOM     28  C   UNL A   1      44.043  21.851  25.181  1.00  0.00     0.202 C 
BRANCH  28  29
ATOM     29  C   UNL A   1      42.975  22.950  25.011  1.00  0.00     0.261 C 
BRANCH  29  30
ATOM     30  O   UNL A   1      42.740  23.787  26.155  1.00  0.00    -0.460 OA
BRANCH  30  31
ATOM     31  C   UNL A   1      43.276  25.032  26.076  1.00  0.00     0.338 C 
ATOM     32  O   UNL A   1      44.060  25.443  25.238  1.00  0.00    -0.246 OA
BRANCH  31  33
ATOM     33  C   UNL A   1      42.634  25.923  27.064  1.00  0.00     0.060 A 
ATOM     34  C   UNL A   1      42.994  27.277  27.060  1.00  0.00     0.016 A 
ATOM     35  C   UNL A   1      41.764  25.426  28.035  1.00  0.00     0.016 A 
ATOM     36  C   UNL A   1      42.504  28.136  28.043  1.00  0.00     0.010 A 
ATOM     37  C   UNL A   1      41.294  26.285  29.037  1.00  0.00     0.010 A 
ATOM     38  C   UNL A   1      41.686  27.636  29.063  1.00  0.00    -0.014 A 
BRANCH  38  39
ATOM     39  C   UNL A   1      41.383  28.500  30.231  1.00  0.00     0.031 A 
ATOM     40  C   UNL A   1      42.233  28.375  31.467  1.00  0.00     0.074 A 
ATOM     41  C   UNL A   1      40.400  29.417  30.176  1.00  0.00     0.049 A 
ATOM     42  N   UNL A   1      42.164  29.041  32.591  1.00  0.00    -0.248 NA
ATOM     43  C   UNL A   1      43.306  27.367  31.429  1.00  0.00     0.031 C 
ATOM     44  C   UNL A   1      39.530  29.657  29.025  1.00  0.00     0.029 A 
ATOM     45  N   UNL A   1      39.969  30.319  31.117  1.00  0.00    -0.354 N 
ATOM     46  C   UNL A   1      43.177  28.532  33.396  1.00  0.00     0.074 A 
ATOM     47  C   UNL A   1      43.832  27.485  32.641  1.00  0.00     0.031 C 
ATOM     48  C   UNL A   1      38.666  30.640  29.330  1.00  0.00     0.029 A 
ATOM     49  C   UNL A   1      38.905  31.084  30.703  1.00  0.00     0.049 A 
ATOM     50  H   UNL A   1      40.385  30.411  32.005  1.00  0.00     0.167 HD
ATOM     51  C   UNL A   1      43.533  28.906  34.648  1.00  0.00     0.037 A 
ATOM     52  C   UNL A   1      38.197  32.021  31.364  1.00  0.00     0.037 A 
ATOM     53  C   UNL A   1      42.886  29.953  35.396  1.00  0.00     0.049 A 
ATOM     54  C   UNL A   1      38.578  32.377  32.779  1.00  0.00     0.074 A 
ATOM     55  C   UNL A   1      43.202  30.430  36.656  1.00  0.00     0.029 A 
ATOM     56  N   UNL A   1      41.786  30.675  34.960  1.00  0.00    -0.354 N 
ATOM     57  N   UNL A   1      39.565  31.917  33.511  1.00  0.00    -0.248 NA
ATOM     58  C   UNL A   1      37.748  33.385  33.456  1.00  0.00     0.031 C 
ATOM     59  C   UNL A   1      42.261  31.406  37.003  1.00  0.00     0.029 A 
ATOM     60  C   UNL A   1      41.390  31.572  35.939  1.00  0.00     0.049 A 
ATOM     61  H   UNL A   1      41.349  30.566  34.084  1.00  0.00     0.167 HD
ATOM     62  C   UNL A   1      39.489  32.598  34.723  1.00  0.00     0.074 A 
ATOM     63  C   UNL A   1      38.371  33.512  34.619  1.00  0.00     0.031 C 
ATOM     64  C   UNL A   1      40.274  32.478  35.823  1.00  0.00     0.037 A 
BRANCH  51  65
ATOM     65  C   UNL A   1      44.663  28.163  35.305  1.00  0.00     0.058 A 
ATOM     66  C   UNL A   1      45.995  28.593  35.198  1.00  0.00     0.135 A 
ATOM     67  C   UNL A   1      44.401  27.033  36.096  1.00  0.00     0.135 A 
ATOM     68  F   UNL A   1      46.303  29.657  34.439  1.00  0.00    -0.206 F 
ATOM     69  C   UNL A   1      47.029  27.918  35.840  1.00  0.00     0.059 A 
ATOM     70  C   UNL A   1      45.416  26.357  36.766  1.00  0.00     0.059 A 
ATOM     71  F   UNL A   1      43.146  26.577  36.228  1.00  0.00    -0.206 F 
ATOM     72  C   UNL A   1      46.730  26.803  36.624  1.00  0.00     0.060 A 
BRANCH  72  73
ATOM     73  S   UNL A   1      48.080  25.953  37.469  1.00  0.00     0.124 S 
ATOM     74  O   UNL A   1      48.730  25.264  36.358  1.00  0.00    -0.237 OA
ATOM     75  O   UNL A   1      48.828  27.061  38.053  1.00  0.00    -0.237 OA
ATOM     76  O   UNL A   1      47.393  25.091  38.426  1.00  0.00    -0.744 OA
ENDBRANCH  72  73
ENDBRANCH  51  65
BRANCH  52  77
ATOM     77  C   UNL A   1      37.046  32.696  30.706  1.00  0.00     0.058 A 
ATOM     78  C   UNL A   1      37.239  33.798  29.859  1.00  0.00     0.135 A 
ATOM     79  C   UNL A   1      35.728  32.271  30.934  1.00  0.00     0.135 A 
ATOM     80  F   UNL A   1      38.480  34.247  29.618  1.00  0.00    -0.206 F 
ATOM     81  C   UNL A   1      36.168  34.472  29.283  1.00  0.00     0.059 A 
ATOM     82  C   UNL A   1      34.641  32.911  30.348  1.00  0.00     0.059 A 
ATOM     83  F   UNL A   1      35.489  31.216  31.727  1.00  0.00    -0.206 F 
ATOM     84  C   UNL A   1      34.871  34.021  29.535  1.00  0.00     0.060 A 
BRANCH  84  85
ATOM     85  S   UNL A   1      33.488  34.882  28.757  1.00  0.00     0.124 S 
ATOM     86  O   UNL A   1      33.122  33.951  27.696  1.00  0.00    -0.237 OA
ATOM     87  O   UNL A   1      32.540  34.998  29.861  1.00  0.00    -0.237 OA
ATOM     88  O   UNL A   1      34.083  36.141  28.318  1.00  0.00    -0.744 OA
ENDBRANCH  84  85
ENDBRANCH  52  77
BRANCH  64  89
ATOM     89  C   UNL A   1      39.971  33.378  36.990  1.00  0.00     0.058 A 
ATOM     90  C   UNL A   1      38.974  33.063  37.927  1.00  0.00     0.135 A 
ATOM     91  C   UNL A   1      40.700  34.563  37.185  1.00  0.00     0.135 A 
ATOM     92  F   UNL A   1      38.245  31.944  37.786  1.00  0.00    -0.206 F 
ATOM     93  C   UNL A   1      38.686  33.907  38.995  1.00  0.00     0.059 A 
ATOM     94  C   UNL A   1      40.448  35.408  38.262  1.00  0.00     0.059 A 
ATOM     95  F   UNL A   1      41.674  34.907  36.327  1.00  0.00    -0.206 F 
ATOM     96  C   UNL A   1      39.426  35.080  39.152  1.00  0.00     0.060 A 
BRANCH  96  97
ATOM     97  S   UNL A   1      39.045  36.168  40.541  1.00  0.00     0.124 S 
ATOM     98  O   UNL A   1      38.463  37.320  39.861  1.00  0.00    -0.237 OA
ATOM     99  O   UNL A   1      38.118  35.361  41.328  1.00  0.00    -0.237 OA
ATOM    100  O   UNL A   1      40.347  36.397  41.161  1.00  0.00    -0.744 OA
ENDBRANCH  96  97
ENDBRANCH  64  89
ENDBRANCH  38  39
ENDBRANCH  31  33
ENDBRANCH  30  31
ENDBRANCH  29  30
ENDBRANCH  28  29
ENDBRANCH  27  28
ENDBRANCH  26  27
ENDBRANCH   1  26
TORSDOF 25
ENDMDL
MODEL 3
REMARK VINA RESULT:      -9.8      1.931      3.076
REMARK SMILES COc1ccc(OCc2nc(C)no2)c(/C=C/C(=O)OCCOCCOCCOC(=O)c2ccc(-c3c4nc(c(-c5c(F)cc(S(=O)(=O)[O-])cc5F)c5ccc([nH]5)c(-c5c(F)cc(S(=O)(=O)[O-])cc5F)c5nc(c(-c6c(F)cc(S(=O)(=O)[O-])cc6F)c6ccc3[nH]6)C=C5)C=C4)cc2)c1
REMARK SMILES IDX 24 1 23 2 22 3 21 4 20 5 18 6 19 7 17 8 16 9 15 10 3 11 4 12
REMARK SMILES IDX 98 13 5 14 6 15 2 16 1 17 7 18 8 19 9 20 10 21 14 22 11 23
REMARK SMILES IDX 13 24 12 25 25 26 26 27 27 28 28 29 29 30 30 31 31 32 32 33
REMARK SMILES IDX 33 34 97 35 34 36 96 37 35 38 36 39 37 40 90 41 38 42 95 43
REMARK SMILES IDX 89 44 91 45 39 46 94 47 88 48 87 49 40 51 74 52 53 53 73 54
REMARK SMILES IDX 54 55 57 56 72 57 92 58 55 59 56 60 71 62 93 63 58 64 41 65
REMARK SMILES IDX 42 66 51 67 43 68 44 69 50 70 52 71 45 72 46 73 47 74 48 75
REMARK SMILES IDX 49 76 75 77 76 78 85 79 77 80 78 81 84 82 86 83 79 84 80 85
REMARK SMILES IDX 81 86 82 87 83 88 59 89 60 90 69 91 61 92 62 93 68 94 70 95
REMARK SMILES IDX 63 96 64 97 65 98 66 99 67 100
REMARK H PARENT 91 50 57 61
REMARK Flexibility Score: inf
ROOT
ATOM      1  C   UNL A   1      39.629  21.298  26.473  1.00  0.00     0.188 C 
ENDROOT
BRANCH   1   2
ATOM      2  O   UNL A   1      38.677  21.202  25.430  1.00  0.00    -0.376 OA
BRANCH   2   3
ATOM      3  C   UNL A   1      37.304  21.415  25.733  1.00  0.00     0.202 C 
BRANCH   3   4
ATOM      4  C   UNL A   1      36.661  22.818  25.701  1.00  0.00     0.261 C 
BRANCH   4   5
ATOM      5  O   UNL A   1      35.380  22.850  25.077  1.00  0.00    -0.460 OA
BRANCH   5   6
ATOM      6  C   UNL A   1      35.099  23.948  24.342  1.00  0.00     0.330 C 
ATOM      7  O   UNL A   1      35.030  24.031  23.131  1.00  0.00    -0.247 OA
BRANCH   6   8
ATOM      8  C   UNL A   1      34.688  25.006  25.274  1.00  0.00     0.094 C 
ATOM      9  C   UNL A   1      33.732  25.896  24.982  1.00  0.00     0.019 C 
BRANCH   9  10
ATOM     10  C   UNL A   1      33.182  26.934  25.895  1.00  0.00     0.020 A 
ATOM     11  C   UNL A   1      33.394  29.266  26.621  1.00  0.00     0.119 A 
ATOM     12  C   UNL A   1      32.221  29.144  27.363  1.00  0.00     0.050 A 
ATOM     13  C   UNL A   1      33.875  28.161  25.911  1.00  0.00     0.058 A 
ATOM     14  C   UNL A   1      31.525  27.935  27.390  1.00  0.00     0.051 A 
ATOM     15  C   UNL A   1      31.988  26.842  26.649  1.00  0.00     0.127 A 
BRANCH  11  16
ATOM     16  O   UNL A   1      33.988  30.499  26.673  1.00  0.00    -0.497 OA
ATOM     17  C   UNL A   1      34.873  30.731  27.763  1.00  0.00     0.278 C 
ENDBRANCH  11  16
BRANCH  15  18
ATOM     18  O   UNL A   1      31.283  25.663  26.711  1.00  0.00    -0.483 OA
BRANCH  18  19
ATOM     19  C   UNL A   1      30.533  25.352  25.509  1.00  0.00     0.329 C 
BRANCH  19  20
ATOM     20  C   UNL A   1      30.947  24.025  24.980  1.00  0.00     0.264 A 
ATOM     21  N   UNL A   1      31.029  23.617  23.731  1.00  0.00    -0.193 NA
ATOM     22  O   UNL A   1      31.473  23.135  25.873  1.00  0.00    -0.336 OA
ATOM     23  C   UNL A   1      31.748  22.461  23.855  1.00  0.00     0.169 A 
ATOM     24  N   UNL A   1      31.997  22.082  25.115  1.00  0.00    -0.063 NA
ATOM     25  C   UNL A   1      32.294  21.768  22.677  1.00  0.00     0.093 C 
ENDBRANCH  19  20
ENDBRANCH  18  19
ENDBRANCH  15  18
ENDBRANCH   9  10
ENDBRANCH   6   8
ENDBRANCH   5   6
ENDBRANCH   4   5
ENDBRANCH   3   4
ENDBRANCH   2   3
ENDBRANCH   1   2
BRANCH   1  26
ATOM     26  C   UNL A   1      41.026  20.756  26.081  1.00  0.00     0.188 C 
BRANCH  26  27
ATOM     27  O   UNL A   1      41.967  21.592  25.418  1.00  0.00    -0.376 OA
BRANCH  27  28
ATOM     28  C   UNL A   1      42.384  22.793  26.056  1.00  0.00     0.202 C 
BRANCH  28  29
ATOM     29  C   UNL A   1      43.808  22.922  26.633  1.00  0.00     0.261 C 
BRANCH  29  30
ATOM     30  O   UNL A   1      44.197  24.235  27.070  1.00  0.00    -0.460 OA
BRANCH  30  31
ATOM     31  C   UNL A   1      43.622  25.261  26.392  1.00  0.00     0.338 C 
ATOM     32  O   UNL A   1      43.510  25.373  25.184  1.00  0.00    -0.246 OA
BRANCH  31  33
ATOM     33  C   UNL A   1      42.960  26.183  27.337  1.00  0.00     0.060 A 
ATOM     34  C   UNL A   1      43.429  27.501  27.407  1.00  0.00     0.016 A 
ATOM     35  C   UNL A   1      41.958  25.742  28.203  1.00  0.00     0.016 A 
ATOM     36  C   UNL A   1      42.916  28.379  28.361  1.00  0.00     0.010 A 
ATOM     37  C   UNL A   1      41.462  26.618  29.178  1.00  0.00     0.010 A 
ATOM     38  C   UNL A   1      41.960  27.930  29.281  1.00  0.00    -0.014 A 
BRANCH  38  39
ATOM     39  C   UNL A   1      41.614  28.793  30.438  1.00  0.00     0.031 A 
ATOM     40  C   UNL A   1      42.465  28.722  31.678  1.00  0.00     0.074 A 
ATOM     41  C   UNL A   1      40.591  29.663  30.369  1.00  0.00     0.049 A 
ATOM     42  N   UNL A   1      42.362  29.398  32.793  1.00  0.00    -0.248 NA
ATOM     43  C   UNL A   1      43.583  27.764  31.655  1.00  0.00     0.031 C 
ATOM     44  C   UNL A   1      39.715  29.850  29.212  1.00  0.00     0.029 A 
ATOM     45  N   UNL A   1      40.116  30.556  31.297  1.00  0.00    -0.354 N 
ATOM     46  C   UNL A   1      43.394  28.945  33.608  1.00  0.00     0.074 A 
ATOM     47  C   UNL A   1      44.099  27.921  32.867  1.00  0.00     0.031 C 
ATOM     48  C   UNL A   1      38.805  30.796  29.503  1.00  0.00     0.029 A 
ATOM     49  C   UNL A   1      39.019  31.266  30.871  1.00  0.00     0.049 A 
ATOM     50  H   UNL A   1      40.524  30.677  32.185  1.00  0.00     0.167 HD
ATOM     51  C   UNL A   1      43.728  29.350  34.856  1.00  0.00     0.037 A 
ATOM     52  C   UNL A   1      38.267  32.178  31.519  1.00  0.00     0.037 A 
ATOM     53  C   UNL A   1      43.032  30.374  35.590  1.00  0.00     0.049 A 
ATOM     54  C   UNL A   1      38.626  32.568  32.931  1.00  0.00     0.074 A 
ATOM     55  C   UNL A   1      43.320  30.881  36.844  1.00  0.00     0.029 A 
ATOM     56  N   UNL A   1      41.901  31.041  35.141  1.00  0.00    -0.354 N 
ATOM     57  N   UNL A   1      39.630  32.162  33.671  1.00  0.00    -0.248 NA
ATOM     58  C   UNL A   1      37.748  33.544  33.593  1.00  0.00     0.031 C 
ATOM     59  C   UNL A   1      42.334  31.817  37.177  1.00  0.00     0.029 A 
ATOM     60  C   UNL A   1      41.461  31.930  36.108  1.00  0.00     0.049 A 
ATOM     61  H   UNL A   1      41.472  30.901  34.265  1.00  0.00     0.167 HD
ATOM     62  C   UNL A   1      39.519  32.853  34.875  1.00  0.00     0.074 A 
ATOM     63  C   UNL A   1      38.361  33.714  34.756  1.00  0.00     0.031 C 
ATOM     64  C   UNL A   1      40.305  32.783  35.978  1.00  0.00     0.037 A 
BRANCH  51  65
ATOM     65  C   UNL A   1      44.889  28.667  35.526  1.00  0.00     0.058 A 
ATOM     66  C   UNL A   1      46.199  29.160  35.421  1.00  0.00     0.135 A 
ATOM     67  C   UNL A   1      44.676  27.533  36.325  1.00  0.00     0.135 A 
ATOM     68  F   UNL A   1      46.460  30.230  34.655  1.00  0.00    -0.206 F 
ATOM     69  C   UNL A   1      47.261  28.541  36.074  1.00  0.00     0.059 A 
ATOM     70  C   UNL A   1      45.719  26.912  37.006  1.00  0.00     0.059 A 
ATOM     71  F   UNL A   1      43.443  27.018  36.455  1.00  0.00    -0.206 F 
ATOM     72  C   UNL A   1      47.011  27.419  36.866  1.00  0.00     0.060 A 
BRANCH  72  73
ATOM     73  S   UNL A   1      48.395  26.642  37.726  1.00  0.00     0.124 S 
ATOM     74  O   UNL A   1      48.508  25.375  37.009  1.00  0.00    -0.237 OA
ATOM     75  O   UNL A   1      49.476  27.595  37.502  1.00  0.00    -0.237 OA
ATOM     76  O   UNL A   1      47.927  26.542  39.105  1.00  0.00    -0.744 OA
ENDBRANCH  72  73
ENDBRANCH  51  65
BRANCH  52  77
ATOM     77  C   UNL A   1      37.088  32.791  30.849  1.00  0.00     0.058 A 
ATOM     78  C   UNL A   1      37.241  33.843  29.934  1.00  0.00     0.135 A 
ATOM     79  C   UNL A   1      35.783  32.357  31.134  1.00  0.00     0.135 A 
ATOM     80  F   UNL A   1      38.467  34.299  29.637  1.00  0.00    -0.206 F 
ATOM     81  C   UNL A   1      36.144  34.462  29.344  1.00  0.00     0.059 A 
ATOM     82  C   UNL A   1      34.672  32.942  30.536  1.00  0.00     0.059 A 
ATOM     83  F   UNL A   1      35.584  31.348  31.994  1.00  0.00    -0.206 F 
ATOM     84  C   UNL A   1      34.862  34.004  29.653  1.00  0.00     0.060 A 
BRANCH  84  85
ATOM     85  S   UNL A   1      33.445  34.792  28.858  1.00  0.00     0.124 S 
ATOM     86  O   UNL A   1      33.060  33.784  27.879  1.00  0.00    -0.237 OA
ATOM     87  O   UNL A   1      32.529  34.978  29.980  1.00  0.00    -0.237 OA
ATOM     88  O   UNL A   1      34.011  36.022  28.313  1.00  0.00    -0.744 OA
ENDBRANCH  84  85
ENDBRANCH  52  77
BRANCH  64  89
ATOM     89  C   UNL A   1      39.956  33.682  37.133  1.00  0.00     0.058 A 
ATOM     90  C   UNL A   1      39.094  33.265  38.160  1.00  0.00     0.135 A 
ATOM     91  C   UNL A   1      40.507  34.970  37.225  1.00  0.00     0.135 A 
ATOM     92  F   UNL A   1      38.537  32.044  38.120  1.00  0.00    -0.206 F 
ATOM     93  C   UNL A   1      38.762  34.107  39.217  1.00  0.00     0.059 A 
ATOM     94  C   UNL A   1      40.212  35.818  38.289  1.00  0.00     0.059 A 
ATOM     95  F   UNL A   1      41.349  35.415  36.278  1.00  0.00    -0.206 F 
ATOM     96  C   UNL A   1      39.323  35.383  39.271  1.00  0.00     0.060 A 
BRANCH  96  97
ATOM     97  S   UNL A   1      38.886  36.467  40.647  1.00  0.00     0.124 S 
ATOM     98  O   UNL A   1      38.631  37.727  39.959  1.00  0.00    -0.237 OA
ATOM     99  O   UNL A   1      37.715  35.803  41.210  1.00  0.00    -0.237 OA
ATOM    100  O   UNL A   1      40.078  36.442  41.490  1.00  0.00    -0.744 OA
ENDBRANCH  96  97
ENDBRANCH  64  89
ENDBRANCH  38  39
ENDBRANCH  31  33
ENDBRANCH  30  31
ENDBRANCH  29  30
ENDBRANCH  28  29
ENDBRANCH  27  28
ENDBRANCH  26  27
ENDBRANCH   1  26
TORSDOF 25
ENDMDL
