MODEL 1
REMARK VINA RESULT:     -10.9      0.000      0.000
REMARK SMILES O=C(OCCOCCOCCOC(=O)c1ccc2c(=O)n(Cc3cccnc3)c(=O)[nH]c2c1)c1ccc(-c2c3nc(c(-c4c(F)cc(S(=O)(=O)[O-])cc4F)c4ccc([nH]4)c(-c4c(F)cc(S(=O)(=O)[O-])cc4F)c4nc(c(-c5c(F)cc(S(=O)(=O)[O-])cc5F)c5ccc2[nH]5)C=C4)C=C3)cc1
REMARK SMILES IDX 7 1 6 2 5 3 4 4 3 5 2 6 1 7 34 8 35 9 99 10 36 11 98 12
REMARK SMILES IDX 37 13 38 14 39 15 92 16 40 17 97 18 91 19 93 20 41 21 96 22
REMARK SMILES IDX 90 23 89 24 42 26 76 27 55 28 75 29 56 30 59 31 74 32 94 33
REMARK SMILES IDX 57 34 58 35 73 37 95 38 60 39 43 40 44 41 53 42 45 43 46 44
REMARK SMILES IDX 52 45 54 46 47 47 48 48 49 49 50 50 51 51 77 52 78 53 87 54
REMARK SMILES IDX 79 55 80 56 86 57 88 58 81 59 82 60 83 61 84 62 85 63 61 64
REMARK SMILES IDX 62 65 71 66 63 67 64 68 70 69 72 70 65 71 66 72 67 73 68 74
REMARK SMILES IDX 69 75 8 76 9 77 10 78 11 79 12 80 13 81 14 82 15 83 16 84
REMARK SMILES IDX 33 85 17 86 32 87 18 88 31 89 19 90 29 91 20 93 21 94 30 95
REMARK SMILES IDX 22 96 23 97 24 98 28 99 25 100 27 101 26 102
REMARK H PARENT 93 25 59 36 31 92
REMARK Flexibility Score: inf
ROOT
ATOM      1  C   UNL A   1      33.921  35.291  31.140  1.00  0.00     0.188 C 
ENDROOT
BRANCH   1   2
ATOM      2  O   UNL A   1      34.303  34.589  32.334  1.00  0.00    -0.376 OA
BRANCH   2   3
ATOM      3  C   UNL A   1      35.701  34.671  32.617  1.00  0.00     0.202 C 
BRANCH   3   4
ATOM      4  C   UNL A   1      36.321  33.370  33.139  1.00  0.00     0.261 C 
BRANCH   4   5
ATOM      5  O   UNL A   1      37.168  32.726  32.179  1.00  0.00    -0.460 OA
BRANCH   5   6
ATOM      6  C   UNL A   1      37.256  31.412  31.859  1.00  0.00     0.338 C 
ATOM      7  O   UNL A   1      36.256  30.721  32.062  1.00  0.00    -0.246 OA
BRANCH   6   8
ATOM      8  C   UNL A   1      38.469  30.723  31.292  1.00  0.00     0.060 A 
ATOM      9  C   UNL A   1      38.560  30.683  29.884  1.00  0.00     0.016 A 
ATOM     10  C   UNL A   1      39.507  30.125  32.012  1.00  0.00     0.016 A 
ATOM     11  C   UNL A   1      39.663  30.117  29.233  1.00  0.00     0.010 A 
ATOM     12  C   UNL A   1      40.627  29.588  31.373  1.00  0.00     0.010 A 
ATOM     13  C   UNL A   1      40.722  29.599  29.982  1.00  0.00    -0.014 A 
BRANCH  13  14
ATOM     14  C   UNL A   1      42.009  29.239  29.353  1.00  0.00     0.031 A 
ATOM     15  C   UNL A   1      43.063  30.268  29.081  1.00  0.00     0.074 A 
ATOM     16  C   UNL A   1      42.143  27.977  28.906  1.00  0.00     0.049 A 
ATOM     17  N   UNL A   1      44.269  30.100  28.608  1.00  0.00    -0.248 NA
ATOM     18  C   UNL A   1      42.712  31.672  29.342  1.00  0.00     0.031 C 
ATOM     19  C   UNL A   1      41.104  26.944  28.987  1.00  0.00     0.029 A 
ATOM     20  N   UNL A   1      43.179  27.353  28.267  1.00  0.00    -0.354 N 
ATOM     21  C   UNL A   1      44.843  31.364  28.568  1.00  0.00     0.074 A 
ATOM     22  C   UNL A   1      43.822  32.303  28.977  1.00  0.00     0.031 C 
ATOM     23  C   UNL A   1      41.555  25.819  28.413  1.00  0.00     0.029 A 
ATOM     24  C   UNL A   1      42.914  26.046  27.938  1.00  0.00     0.049 A 
ATOM     25  H   UNL A   1      44.033  27.799  28.063  1.00  0.00     0.167 HD
ATOM     26  C   UNL A   1      46.120  31.690  28.257  1.00  0.00     0.037 A 
ATOM     27  C   UNL A   1      43.692  25.126  27.337  1.00  0.00     0.037 A 
ATOM     28  C   UNL A   1      47.100  30.717  27.835  1.00  0.00     0.049 A 
ATOM     29  C   UNL A   1      45.107  25.498  27.009  1.00  0.00     0.074 A 
ATOM     30  C   UNL A   1      48.451  30.894  27.601  1.00  0.00     0.029 A 
ATOM     31  N   UNL A   1      46.820  29.382  27.569  1.00  0.00    -0.354 N 
ATOM     32  N   UNL A   1      45.702  26.659  27.158  1.00  0.00    -0.248 NA
ATOM     33  C   UNL A   1      45.966  24.443  26.460  1.00  0.00     0.031 C 
ATOM     34  C   UNL A   1      48.978  29.682  27.142  1.00  0.00     0.029 A 
ATOM     35  C   UNL A   1      47.963  28.738  27.129  1.00  0.00     0.049 A 
ATOM     36  H   UNL A   1      45.939  28.957  27.679  1.00  0.00     0.167 HD
ATOM     37  C   UNL A   1      47.016  26.466  26.755  1.00  0.00     0.074 A 
ATOM     38  C   UNL A   1      47.127  25.077  26.350  1.00  0.00     0.031 C 
ATOM     39  C   UNL A   1      48.039  27.353  26.730  1.00  0.00     0.037 A 
BRANCH  26  40
ATOM     40  C   UNL A   1      46.568  33.118  28.437  1.00  0.00     0.058 A 
ATOM     41  C   UNL A   1      47.131  33.539  29.652  1.00  0.00     0.135 A 
ATOM     42  C   UNL A   1      46.575  34.034  27.374  1.00  0.00     0.135 A 
ATOM     43  F   UNL A   1      47.099  32.729  30.717  1.00  0.00    -0.206 F 
ATOM     44  C   UNL A   1      47.709  34.792  29.804  1.00  0.00     0.059 A 
ATOM     45  C   UNL A   1      47.157  35.295  27.497  1.00  0.00     0.059 A 
ATOM     46  F   UNL A   1      46.033  33.701  26.192  1.00  0.00    -0.206 F 
ATOM     47  C   UNL A   1      47.733  35.659  28.713  1.00  0.00     0.060 A 
BRANCH  47  48
ATOM     48  S   UNL A   1      48.531  37.265  28.924  1.00  0.00     0.124 S 
ATOM     49  O   UNL A   1      48.972  37.192  30.314  1.00  0.00    -0.237 OA
ATOM     50  O   UNL A   1      49.586  37.213  27.918  1.00  0.00    -0.237 OA
ATOM     51  O   UNL A   1      47.457  38.217  28.660  1.00  0.00    -0.744 OA
ENDBRANCH  47  48
ENDBRANCH  26  40
BRANCH  27  52
ATOM     52  C   UNL A   1      43.155  23.764  27.098  1.00  0.00     0.058 A 
ATOM     53  C   UNL A   1      42.896  23.311  25.797  1.00  0.00     0.135 A 
ATOM     54  C   UNL A   1      42.974  22.858  28.156  1.00  0.00     0.135 A 
ATOM     55  F   UNL A   1      43.063  24.138  24.755  1.00  0.00    -0.206 F 
ATOM     56  C   UNL A   1      42.471  22.010  25.550  1.00  0.00     0.059 A 
ATOM     57  C   UNL A   1      42.567  21.546  27.932  1.00  0.00     0.059 A 
ATOM     58  F   UNL A   1      43.237  23.235  29.416  1.00  0.00    -0.206 F 
ATOM     59  C   UNL A   1      42.314  21.132  26.625  1.00  0.00     0.060 A 
BRANCH  59  60
ATOM     60  S   UNL A   1      41.833  19.425  26.285  1.00  0.00     0.124 S 
ATOM     61  O   UNL A   1      42.185  18.765  27.537  1.00  0.00    -0.237 OA
ATOM     62  O   UNL A   1      40.405  19.556  26.011  1.00  0.00    -0.237 OA
ATOM     63  O   UNL A   1      42.653  19.069  25.131  1.00  0.00    -0.744 OA
ENDBRANCH  59  60
ENDBRANCH  27  52
BRANCH  39  64
ATOM     64  C   UNL A   1      49.367  26.856  26.247  1.00  0.00     0.058 A 
ATOM     65  C   UNL A   1      49.801  27.104  24.936  1.00  0.00     0.135 A 
ATOM     66  C   UNL A   1      50.251  26.214  27.128  1.00  0.00     0.135 A 
ATOM     67  F   UNL A   1      48.986  27.708  24.057  1.00  0.00    -0.206 F 
ATOM     68  C   UNL A   1      51.072  26.733  24.514  1.00  0.00     0.059 A 
ATOM     69  C   UNL A   1      51.534  25.852  26.732  1.00  0.00     0.059 A 
ATOM     70  F   UNL A   1      49.882  25.968  28.396  1.00  0.00    -0.206 F 
ATOM     71  C   UNL A   1      51.934  26.115  25.423  1.00  0.00     0.060 A 
BRANCH  71  72
ATOM     72  S   UNL A   1      53.608  25.714  24.881  1.00  0.00     0.124 S 
ATOM     73  O   UNL A   1      53.460  25.730  23.430  1.00  0.00    -0.237 OA
ATOM     74  O   UNL A   1      54.390  26.807  25.451  1.00  0.00    -0.237 OA
ATOM     75  O   UNL A   1      53.852  24.403  25.473  1.00  0.00    -0.744 OA
ENDBRANCH  71  72
ENDBRANCH  39  64
ENDBRANCH  13  14
ENDBRANCH   6   8
ENDBRANCH   5   6
ENDBRANCH   4   5
ENDBRANCH   3   4
ENDBRANCH   2   3
ENDBRANCH   1   2
BRANCH   1  76
ATOM     76  C   UNL A   1      34.038  34.385  29.913  1.00  0.00     0.188 C 
BRANCH  76  77
ATOM     77  O   UNL A   1      34.239  32.998  30.194  1.00  0.00    -0.376 OA
BRANCH  77  78
ATOM     78  C   UNL A   1      34.832  32.209  29.170  1.00  0.00     0.202 C 
BRANCH  78  79
ATOM     79  C   UNL A   1      34.123  32.158  27.812  1.00  0.00     0.261 C 
BRANCH  79  80
ATOM     80  O   UNL A   1      33.636  30.868  27.404  1.00  0.00    -0.460 OA
BRANCH  80  81
ATOM     81  C   UNL A   1      32.387  30.915  26.876  1.00  0.00     0.338 C 
ATOM     82  O   UNL A   1      31.580  31.823  26.982  1.00  0.00    -0.246 OA
BRANCH  81  83
ATOM     83  C   UNL A   1      32.026  29.647  26.219  1.00  0.00     0.062 A 
ATOM     84  C   UNL A   1      32.304  29.566  24.848  1.00  0.00     0.016 A 
ATOM     85  C   UNL A   1      31.612  28.516  26.937  1.00  0.00     0.042 A 
ATOM     86  C   UNL A   1      32.241  28.337  24.201  1.00  0.00     0.017 A 
ATOM     87  C   UNL A   1      31.545  27.284  26.272  1.00  0.00     0.056 A 
ATOM     88  C   UNL A   1      31.898  27.197  24.928  1.00  0.00     0.064 A 
ATOM     89  N   UNL A   1      31.167  26.123  26.945  1.00  0.00    -0.307 N 
ATOM     90  C   UNL A   1      31.988  25.864  24.309  1.00  0.00     0.264 A 
ATOM     91  C   UNL A   1      31.074  24.887  26.350  1.00  0.00     0.329 A 
ATOM     92  H   UNL A   1      30.952  26.192  27.903  1.00  0.00     0.171 HD
ATOM     93  O   UNL A   1      32.608  25.745  23.255  1.00  0.00    -0.268 OA
ATOM     94  N   UNL A   1      31.434  24.806  25.018  1.00  0.00    -0.255 N 
ATOM     95  O   UNL A   1      30.727  23.926  27.036  1.00  0.00    -0.248 OA
BRANCH  94  96
ATOM     96  C   UNL A   1      31.369  23.513  24.341  1.00  0.00     0.168 C 
BRANCH  96  97
ATOM     97  C   UNL A   1      32.518  22.610  24.708  1.00  0.00    -0.010 A 
ATOM     98  C   UNL A   1      33.847  22.970  24.460  1.00  0.00     0.009 A 
ATOM     99  C   UNL A   1      32.302  21.361  25.279  1.00  0.00     0.116 A 
ATOM    100  C   UNL A   1      34.877  22.078  24.738  1.00  0.00     0.020 A 
ATOM    101  N   UNL A   1      33.284  20.488  25.597  1.00  0.00    -0.264 NA
ATOM    102  C   UNL A   1      34.551  20.855  25.293  1.00  0.00     0.111 A 
ENDBRANCH  96  97
ENDBRANCH  94  96
ENDBRANCH  81  83
ENDBRANCH  80  81
ENDBRANCH  79  80
ENDBRANCH  78  79
ENDBRANCH  77  78
ENDBRANCH  76  77
ENDBRANCH   1  76
TORSDOF 22
ENDMDL
MODEL 2
REMARK VINA RESULT:     -10.2      3.172     10.271
REMARK SMILES O=C(OCCOCCOCCOC(=O)c1ccc2c(=O)n(Cc3cccnc3)c(=O)[nH]c2c1)c1ccc(-c2c3nc(c(-c4c(F)cc(S(=O)(=O)[O-])cc4F)c4ccc([nH]4)c(-c4c(F)cc(S(=O)(=O)[O-])cc4F)c4nc(c(-c5c(F)cc(S(=O)(=O)[O-])cc5F)c5ccc2[nH]5)C=C4)C=C3)cc1
REMARK SMILES IDX 7 1 6 2 5 3 4 4 3 5 2 6 1 7 34 8 35 9 99 10 36 11 98 12
REMARK SMILES IDX 37 13 38 14 39 15 92 16 40 17 97 18 91 19 93 20 41 21 96 22
REMARK SMILES IDX 90 23 89 24 42 26 76 27 55 28 75 29 56 30 59 31 74 32 94 33
REMARK SMILES IDX 57 34 58 35 73 37 95 38 60 39 43 40 44 41 53 42 45 43 46 44
REMARK SMILES IDX 52 45 54 46 47 47 48 48 49 49 50 50 51 51 77 52 78 53 87 54
REMARK SMILES IDX 79 55 80 56 86 57 88 58 81 59 82 60 83 61 84 62 85 63 61 64
REMARK SMILES IDX 62 65 71 66 63 67 64 68 70 69 72 70 65 71 66 72 67 73 68 74
REMARK SMILES IDX 69 75 8 76 9 77 10 78 11 79 12 80 13 81 14 82 15 83 16 84
REMARK SMILES IDX 33 85 17 86 32 87 18 88 31 89 19 90 29 91 20 93 21 94 30 95
REMARK SMILES IDX 22 96 23 97 24 98 28 99 25 100 27 101 26 102
REMARK H PARENT 93 25 59 36 31 92
REMARK Flexibility Score: inf
ROOT
ATOM      1  C   UNL A   1      36.729  18.435  24.980  1.00  0.00     0.188 C 
ENDROOT
BRANCH   1   2
ATOM      2  O   UNL A   1      35.738  19.442  24.722  1.00  0.00    -0.376 OA
BRANCH   2   3
ATOM      3  C   UNL A   1      36.194  20.769  24.994  1.00  0.00     0.202 C 
BRANCH   3   4
ATOM      4  C   UNL A   1      37.716  20.909  25.099  1.00  0.00     0.261 C 
BRANCH   4   5
ATOM      5  O   UNL A   1      38.128  21.885  26.063  1.00  0.00    -0.460 OA
BRANCH   5   6
ATOM      6  C   UNL A   1      39.375  22.318  26.367  1.00  0.00     0.338 C 
ATOM      7  O   UNL A   1      40.296  21.514  26.214  1.00  0.00    -0.246 OA
BRANCH   6   8
ATOM      8  C   UNL A   1      39.731  23.686  26.886  1.00  0.00     0.060 A 
ATOM      9  C   UNL A   1      40.637  23.724  27.968  1.00  0.00     0.016 A 
ATOM     10  C   UNL A   1      39.262  24.913  26.408  1.00  0.00     0.016 A 
ATOM     11  C   UNL A   1      41.088  24.935  28.509  1.00  0.00     0.010 A 
ATOM     12  C   UNL A   1      39.731  26.125  26.919  1.00  0.00     0.010 A 
ATOM     13  C   UNL A   1      40.661  26.145  27.956  1.00  0.00    -0.014 A 
BRANCH  13  14
ATOM     14  C   UNL A   1      41.306  27.425  28.312  1.00  0.00     0.031 A 
ATOM     15  C   UNL A   1      42.793  27.595  28.256  1.00  0.00     0.074 A 
ATOM     16  C   UNL A   1      40.518  28.389  28.821  1.00  0.00     0.049 A 
ATOM     17  N   UNL A   1      43.502  28.673  28.462  1.00  0.00    -0.248 NA
ATOM     18  C   UNL A   1      43.595  26.397  27.964  1.00  0.00     0.031 C 
ATOM     19  C   UNL A   1      39.076  28.256  29.059  1.00  0.00     0.029 A 
ATOM     20  N   UNL A   1      40.810  29.651  29.263  1.00  0.00    -0.354 N 
ATOM     21  C   UNL A   1      44.826  28.301  28.268  1.00  0.00     0.074 A 
ATOM     22  C   UNL A   1      44.831  26.876  28.020  1.00  0.00     0.031 C 
ATOM     23  C   UNL A   1      38.614  29.388  29.609  1.00  0.00     0.029 A 
ATOM     24  C   UNL A   1      39.718  30.328  29.750  1.00  0.00     0.049 A 
ATOM     25  H   UNL A   1      41.716  30.036  29.235  1.00  0.00     0.167 HD
ATOM     26  C   UNL A   1      45.923  29.096  28.260  1.00  0.00     0.037 A 
ATOM     27  C   UNL A   1      39.618  31.579  30.238  1.00  0.00     0.037 A 
ATOM     28  C   UNL A   1      45.869  30.513  28.533  1.00  0.00     0.049 A 
ATOM     29  C   UNL A   1      40.838  32.451  30.212  1.00  0.00     0.074 A 
ATOM     30  C   UNL A   1      46.882  31.451  28.446  1.00  0.00     0.029 A 
ATOM     31  N   UNL A   1      44.734  31.189  28.964  1.00  0.00    -0.354 N 
ATOM     32  N   UNL A   1      42.057  32.139  29.838  1.00  0.00    -0.248 NA
ATOM     33  C   UNL A   1      40.673  33.844  30.641  1.00  0.00     0.031 C 
ATOM     34  C   UNL A   1      46.375  32.682  28.876  1.00  0.00     0.029 A 
ATOM     35  C   UNL A   1      45.035  32.520  29.191  1.00  0.00     0.049 A 
ATOM     36  H   UNL A   1      43.847  30.782  29.088  1.00  0.00     0.167 HD
ATOM     37  C   UNL A   1      42.799  33.306  29.954  1.00  0.00     0.074 A 
ATOM     38  C   UNL A   1      41.892  34.329  30.438  1.00  0.00     0.031 C 
ATOM     39  C   UNL A   1      44.108  33.514  29.678  1.00  0.00     0.037 A 
BRANCH  26  40
ATOM     40  C   UNL A   1      47.249  28.498  27.867  1.00  0.00     0.058 A 
ATOM     41  C   UNL A   1      48.054  27.859  28.823  1.00  0.00     0.135 A 
ATOM     42  C   UNL A   1      47.663  28.427  26.527  1.00  0.00     0.135 A 
ATOM     43  F   UNL A   1      47.740  27.943  30.121  1.00  0.00    -0.206 F 
ATOM     44  C   UNL A   1      49.196  27.149  28.474  1.00  0.00     0.059 A 
ATOM     45  C   UNL A   1      48.801  27.714  26.149  1.00  0.00     0.059 A 
ATOM     46  F   UNL A   1      46.950  29.035  25.566  1.00  0.00    -0.206 F 
ATOM     47  C   UNL A   1      49.552  27.068  27.129  1.00  0.00     0.060 A 
BRANCH  47  48
ATOM     48  S   UNL A   1      51.015  26.101  26.697  1.00  0.00     0.124 S 
ATOM     49  O   UNL A   1      50.685  25.661  25.345  1.00  0.00    -0.237 OA
ATOM     50  O   UNL A   1      52.076  27.096  26.801  1.00  0.00    -0.237 OA
ATOM     51  O   UNL A   1      51.039  25.049  27.708  1.00  0.00    -0.744 OA
ENDBRANCH  47  48
ENDBRANCH  26  40
BRANCH  27  52
ATOM     52  C   UNL A   1      38.299  32.075  30.702  1.00  0.00     0.058 A 
ATOM     53  C   UNL A   1      37.899  31.913  32.036  1.00  0.00     0.135 A 
ATOM     54  C   UNL A   1      37.452  32.798  29.846  1.00  0.00     0.135 A 
ATOM     55  F   UNL A   1      38.679  31.237  32.892  1.00  0.00    -0.206 F 
ATOM     56  C   UNL A   1      36.703  32.444  32.506  1.00  0.00     0.059 A 
ATOM     57  C   UNL A   1      36.259  33.354  30.299  1.00  0.00     0.059 A 
ATOM     58  F   UNL A   1      37.805  33.004  28.569  1.00  0.00    -0.206 F 
ATOM     59  C   UNL A   1      35.891  33.168  31.631  1.00  0.00     0.060 A 
BRANCH  59  60
ATOM     60  S   UNL A   1      34.377  33.915  32.271  1.00  0.00     0.124 S 
ATOM     61  O   UNL A   1      33.709  32.763  32.867  1.00  0.00    -0.237 OA
ATOM     62  O   UNL A   1      34.895  34.908  33.208  1.00  0.00    -0.237 OA
ATOM     63  O   UNL A   1      33.743  34.465  31.077  1.00  0.00    -0.744 OA
ENDBRANCH  59  60
ENDBRANCH  27  52
BRANCH  39  64
ATOM     64  C   UNL A   1      44.644  34.897  29.893  1.00  0.00     0.058 A 
ATOM     65  C   UNL A   1      44.554  35.873  28.890  1.00  0.00     0.135 A 
ATOM     66  C   UNL A   1      45.160  35.274  31.142  1.00  0.00     0.135 A 
ATOM     67  F   UNL A   1      44.074  35.555  27.677  1.00  0.00    -0.206 F 
ATOM     68  C   UNL A   1      44.958  37.183  29.120  1.00  0.00     0.059 A 
ATOM     69  C   UNL A   1      45.552  36.584  31.400  1.00  0.00     0.059 A 
ATOM     70  F   UNL A   1      45.252  34.375  32.136  1.00  0.00    -0.206 F 
ATOM     71  C   UNL A   1      45.447  37.531  30.381  1.00  0.00     0.060 A 
BRANCH  71  72
ATOM     72  S   UNL A   1      45.890  39.253  30.685  1.00  0.00     0.124 S 
ATOM     73  O   UNL A   1      47.248  39.306  30.152  1.00  0.00    -0.237 OA
ATOM     74  O   UNL A   1      44.879  39.975  29.919  1.00  0.00    -0.237 OA
ATOM     75  O   UNL A   1      45.779  39.381  32.135  1.00  0.00    -0.744 OA
ENDBRANCH  71  72
ENDBRANCH  39  64
ENDBRANCH  13  14
ENDBRANCH   6   8
ENDBRANCH   5   6
ENDBRANCH   4   5
ENDBRANCH   3   4
ENDBRANCH   2   3
ENDBRANCH   1   2
BRANCH   1  76
ATOM     76  C   UNL A   1      36.072  17.080  25.258  1.00  0.00     0.188 C 
BRANCH  76  77
ATOM     77  O   UNL A   1      34.793  16.887  24.651  1.00  0.00    -0.376 OA
BRANCH  77  78
ATOM     78  C   UNL A   1      33.709  16.563  25.514  1.00  0.00     0.202 C 
BRANCH  78  79
ATOM     79  C   UNL A   1      32.403  17.346  25.338  1.00  0.00     0.261 C 
BRANCH  79  80
ATOM     80  O   UNL A   1      32.514  18.778  25.395  1.00  0.00    -0.460 OA
BRANCH  80  81
ATOM     81  C   UNL A   1      32.410  19.368  24.178  1.00  0.00     0.338 C 
ATOM     82  O   UNL A   1      32.492  18.823  23.089  1.00  0.00    -0.246 OA
BRANCH  81  83
ATOM     83  C   UNL A   1      32.295  20.832  24.290  1.00  0.00     0.062 A 
ATOM     84  C   UNL A   1      32.899  21.574  23.266  1.00  0.00     0.016 A 
ATOM     85  C   UNL A   1      31.474  21.454  25.241  1.00  0.00     0.042 A 
ATOM     86  C   UNL A   1      32.627  22.932  23.144  1.00  0.00     0.017 A 
ATOM     87  C   UNL A   1      31.213  22.824  25.112  1.00  0.00     0.056 A 
ATOM     88  C   UNL A   1      31.754  23.540  24.048  1.00  0.00     0.064 A 
ATOM     89  N   UNL A   1      30.382  23.487  26.014  1.00  0.00    -0.307 N 
ATOM     90  C   UNL A   1      31.320  24.932  23.841  1.00  0.00     0.264 A 
ATOM     91  C   UNL A   1      30.093  24.829  25.947  1.00  0.00     0.329 A 
ATOM     92  H   UNL A   1      29.979  22.963  26.743  1.00  0.00     0.171 HD
ATOM     93  O   UNL A   1      31.517  25.454  22.746  1.00  0.00    -0.268 OA
ATOM     94  N   UNL A   1      30.626  25.532  24.884  1.00  0.00    -0.255 N 
ATOM     95  O   UNL A   1      29.348  25.315  26.798  1.00  0.00    -0.248 OA
BRANCH  94  96
ATOM     96  C   UNL A   1      30.337  26.959  24.757  1.00  0.00     0.168 C 
BRANCH  96  97
ATOM     97  C   UNL A   1      31.450  27.823  25.292  1.00  0.00    -0.010 A 
ATOM     98  C   UNL A   1      31.927  28.932  24.585  1.00  0.00     0.009 A 
ATOM     99  C   UNL A   1      32.073  27.531  26.500  1.00  0.00     0.116 A 
ATOM    100  C   UNL A   1      33.009  29.659  25.072  1.00  0.00     0.020 A 
ATOM    101  N   UNL A   1      33.101  28.242  27.018  1.00  0.00    -0.264 NA
ATOM    102  C   UNL A   1      33.565  29.275  26.277  1.00  0.00     0.111 A 
ENDBRANCH  96  97
ENDBRANCH  94  96
ENDBRANCH  81  83
ENDBRANCH  80  81
ENDBRANCH  79  80
ENDBRANCH  78  79
ENDBRANCH  77  78
ENDBRANCH  76  77
ENDBRANCH   1  76
TORSDOF 22
ENDMDL
MODEL 3
REMARK VINA RESULT:      -9.9      3.233     10.312
REMARK SMILES O=C(OCCOCCOCCOC(=O)c1ccc2c(=O)n(Cc3cccnc3)c(=O)[nH]c2c1)c1ccc(-c2c3nc(c(-c4c(F)cc(S(=O)(=O)[O-])cc4F)c4ccc([nH]4)c(-c4c(F)cc(S(=O)(=O)[O-])cc4F)c4nc(c(-c5c(F)cc(S(=O)(=O)[O-])cc5F)c5ccc2[nH]5)C=C4)C=C3)cc1
REMARK SMILES IDX 7 1 6 2 5 3 4 4 3 5 2 6 1 7 34 8 35 9 99 10 36 11 98 12
REMARK SMILES IDX 37 13 38 14 39 15 92 16 40 17 97 18 91 19 93 20 41 21 96 22
REMARK SMILES IDX 90 23 89 24 42 26 76 27 55 28 75 29 56 30 59 31 74 32 94 33
REMARK SMILES IDX 57 34 58 35 73 37 95 38 60 39 43 40 44 41 53 42 45 43 46 44
REMARK SMILES IDX 52 45 54 46 47 47 48 48 49 49 50 50 51 51 77 52 78 53 87 54
REMARK SMILES IDX 79 55 80 56 86 57 88 58 81 59 82 60 83 61 84 62 85 63 61 64
REMARK SMILES IDX 62 65 71 66 63 67 64 68 70 69 72 70 65 71 66 72 67 73 68 74
REMARK SMILES IDX 69 75 8 76 9 77 10 78 11 79 12 80 13 81 14 82 15 83 16 84
REMARK SMILES IDX 33 85 17 86 32 87 18 88 31 89 19 90 29 91 20 93 21 94 30 95
REMARK SMILES IDX 22 96 23 97 24 98 28 99 25 100 27 101 26 102
REMARK H PARENT 93 25 59 36 31 92
REMARK Flexibility Score: inf
ROOT
ATOM      1  C   UNL A   1      36.962  18.636  25.067  1.00  0.00     0.188 C 
ENDROOT
BRANCH   1   2
ATOM      2  O   UNL A   1      36.074  19.677  24.630  1.00  0.00    -0.376 OA
BRANCH   2   3
ATOM      3  C   UNL A   1      36.484  20.982  25.045  1.00  0.00     0.202 C 
BRANCH   3   4
ATOM      4  C   UNL A   1      37.976  21.107  25.367  1.00  0.00     0.261 C 
BRANCH   4   5
ATOM      5  O   UNL A   1      38.300  22.311  26.074  1.00  0.00    -0.460 OA
BRANCH   5   6
ATOM      6  C   UNL A   1      39.467  22.672  26.662  1.00  0.00     0.338 C 
ATOM      7  O   UNL A   1      40.285  21.775  26.874  1.00  0.00    -0.246 OA
BRANCH   6   8
ATOM      8  C   UNL A   1      39.843  24.066  27.089  1.00  0.00     0.060 A 
ATOM      9  C   UNL A   1      40.572  24.171  28.294  1.00  0.00     0.016 A 
ATOM     10  C   UNL A   1      39.548  25.257  26.420  1.00  0.00     0.016 A 
ATOM     11  C   UNL A   1      41.027  25.406  28.774  1.00  0.00     0.010 A 
ATOM     12  C   UNL A   1      40.025  26.489  26.874  1.00  0.00     0.010 A 
ATOM     13  C   UNL A   1      40.784  26.570  28.040  1.00  0.00    -0.014 A 
BRANCH  13  14
ATOM     14  C   UNL A   1      41.463  27.841  28.363  1.00  0.00     0.031 A 
ATOM     15  C   UNL A   1      42.952  27.978  28.276  1.00  0.00     0.074 A 
ATOM     16  C   UNL A   1      40.706  28.830  28.872  1.00  0.00     0.049 A 
ATOM     17  N   UNL A   1      43.688  29.042  28.451  1.00  0.00    -0.248 NA
ATOM     18  C   UNL A   1      43.721  26.758  27.988  1.00  0.00     0.031 C 
ATOM     19  C   UNL A   1      39.266  28.731  29.139  1.00  0.00     0.029 A 
ATOM     20  N   UNL A   1      41.033  30.091  29.289  1.00  0.00    -0.354 N 
ATOM     21  C   UNL A   1      44.999  28.639  28.238  1.00  0.00     0.074 A 
ATOM     22  C   UNL A   1      44.969  27.211  28.012  1.00  0.00     0.031 C 
ATOM     23  C   UNL A   1      38.839  29.882  29.681  1.00  0.00     0.029 A 
ATOM     24  C   UNL A   1      39.966  30.799  29.786  1.00  0.00     0.049 A 
ATOM     25  H   UNL A   1      41.947  30.456  29.237  1.00  0.00     0.167 HD
ATOM     26  C   UNL A   1      46.113  29.410  28.196  1.00  0.00     0.037 A 
ATOM     27  C   UNL A   1      39.903  32.059  30.255  1.00  0.00     0.037 A 
ATOM     28  C   UNL A   1      46.095  30.831  28.448  1.00  0.00     0.049 A 
ATOM     29  C   UNL A   1      41.140  32.904  30.192  1.00  0.00     0.074 A 
ATOM     30  C   UNL A   1      47.125  31.745  28.326  1.00  0.00     0.029 A 
ATOM     31  N   UNL A   1      44.983  31.539  28.890  1.00  0.00    -0.354 N 
ATOM     32  N   UNL A   1      42.345  32.560  29.800  1.00  0.00    -0.248 NA
ATOM     33  C   UNL A   1      41.013  34.307  30.602  1.00  0.00     0.031 C 
ATOM     34  C   UNL A   1      46.654  32.994  28.746  1.00  0.00     0.029 A 
ATOM     35  C   UNL A   1      45.317  32.866  29.090  1.00  0.00     0.049 A 
ATOM     36  H   UNL A   1      44.090  31.153  29.037  1.00  0.00     0.167 HD
ATOM     37  C   UNL A   1      43.114  33.713  29.883  1.00  0.00     0.074 A 
ATOM     38  C   UNL A   1      42.238  34.762  30.368  1.00  0.00     0.031 C 
ATOM     39  C   UNL A   1      44.422  33.888  29.578  1.00  0.00     0.037 A 
BRANCH  26  40
ATOM     40  C   UNL A   1      47.418  28.776  27.787  1.00  0.00     0.058 A 
ATOM     41  C   UNL A   1      48.307  28.288  28.756  1.00  0.00     0.135 A 
ATOM     42  C   UNL A   1      47.729  28.521  26.442  1.00  0.00     0.135 A 
ATOM     43  F   UNL A   1      48.092  28.552  30.051  1.00  0.00    -0.206 F 
ATOM     44  C   UNL A   1      49.435  27.549  28.421  1.00  0.00     0.059 A 
ATOM     45  C   UNL A   1      48.850  27.775  26.078  1.00  0.00     0.059 A 
ATOM     46  F   UNL A   1      46.931  28.979  25.465  1.00  0.00    -0.206 F 
ATOM     47  C   UNL A   1      49.689  27.282  27.077  1.00  0.00     0.060 A 
BRANCH  47  48
ATOM     48  S   UNL A   1      51.135  26.281  26.671  1.00  0.00     0.124 S 
ATOM     49  O   UNL A   1      51.231  25.417  27.844  1.00  0.00    -0.237 OA
ATOM     50  O   UNL A   1      50.716  25.631  25.434  1.00  0.00    -0.237 OA
ATOM     51  O   UNL A   1      52.203  27.266  26.533  1.00  0.00    -0.744 OA
ENDBRANCH  47  48
ENDBRANCH  26  40
BRANCH  27  52
ATOM     52  C   UNL A   1      38.604  32.592  30.737  1.00  0.00     0.058 A 
ATOM     53  C   UNL A   1      37.724  33.243  29.861  1.00  0.00     0.135 A 
ATOM     54  C   UNL A   1      38.179  32.382  32.058  1.00  0.00     0.135 A 
ATOM     55  F   UNL A   1      38.084  33.458  28.587  1.00  0.00    -0.206 F 
ATOM     56  C   UNL A   1      36.470  33.675  30.278  1.00  0.00     0.059 A 
ATOM     57  C   UNL A   1      36.920  32.790  32.494  1.00  0.00     0.059 A 
ATOM     58  F   UNL A   1      38.973  31.738  32.927  1.00  0.00    -0.206 F 
ATOM     59  C   UNL A   1      36.074  33.439  31.596  1.00  0.00     0.060 A 
BRANCH  59  60
ATOM     60  S   UNL A   1      34.415  33.938  32.105  1.00  0.00     0.124 S 
ATOM     61  O   UNL A   1      34.704  35.049  33.004  1.00  0.00    -0.237 OA
ATOM     62  O   UNL A   1      33.796  34.292  30.831  1.00  0.00    -0.237 OA
ATOM     63  O   UNL A   1      33.882  32.735  32.738  1.00  0.00    -0.744 OA
ENDBRANCH  59  60
ENDBRANCH  27  52
BRANCH  39  64
ATOM     64  C   UNL A   1      44.991  35.262  29.761  1.00  0.00     0.058 A 
ATOM     65  C   UNL A   1      45.627  35.629  30.956  1.00  0.00     0.135 A 
ATOM     66  C   UNL A   1      44.987  36.181  28.701  1.00  0.00     0.135 A 
ATOM     67  F   UNL A   1      45.648  34.783  31.999  1.00  0.00    -0.206 F 
ATOM     68  C   UNL A   1      46.244  36.866  31.094  1.00  0.00     0.059 A 
ATOM     69  C   UNL A   1      45.615  37.417  28.811  1.00  0.00     0.059 A 
ATOM     70  F   UNL A   1      44.401  35.866  27.534  1.00  0.00    -0.206 F 
ATOM     71  C   UNL A   1      46.240  37.750  30.013  1.00  0.00     0.060 A 
BRANCH  71  72
ATOM     72  S   UNL A   1      47.116  39.318  30.182  1.00  0.00     0.124 S 
ATOM     73  O   UNL A   1      46.015  40.275  30.155  1.00  0.00    -0.237 OA
ATOM     74  O   UNL A   1      47.789  39.162  31.468  1.00  0.00    -0.237 OA
ATOM     75  O   UNL A   1      47.998  39.343  29.020  1.00  0.00    -0.744 OA
ENDBRANCH  71  72
ENDBRANCH  39  64
ENDBRANCH  13  14
ENDBRANCH   6   8
ENDBRANCH   5   6
ENDBRANCH   4   5
ENDBRANCH   3   4
ENDBRANCH   2   3
ENDBRANCH   1   2
BRANCH   1  76
ATOM     76  C   UNL A   1      36.277  17.269  24.996  1.00  0.00     0.188 C 
BRANCH  76  77
ATOM     77  O   UNL A   1      34.917  17.289  24.560  1.00  0.00    -0.376 OA
BRANCH  77  78
ATOM     78  C   UNL A   1      33.952  16.695  25.421  1.00  0.00     0.202 C 
BRANCH  78  79
ATOM     79  C   UNL A   1      32.477  16.812  25.023  1.00  0.00     0.261 C 
BRANCH  79  80
ATOM     80  O   UNL A   1      31.951  18.147  24.940  1.00  0.00    -0.460 OA
BRANCH  80  81
ATOM     81  C   UNL A   1      32.147  18.722  23.727  1.00  0.00     0.338 C 
ATOM     82  O   UNL A   1      32.287  18.149  22.659  1.00  0.00    -0.246 OA
BRANCH  81  83
ATOM     83  C   UNL A   1      32.298  20.183  23.835  1.00  0.00     0.062 A 
ATOM     84  C   UNL A   1      32.618  20.675  25.107  1.00  0.00     0.016 A 
ATOM     85  C   UNL A   1      32.319  21.024  22.712  1.00  0.00     0.042 A 
ATOM     86  C   UNL A   1      33.031  21.994  25.255  1.00  0.00     0.017 A 
ATOM     87  C   UNL A   1      32.731  22.353  22.875  1.00  0.00     0.056 A 
ATOM     88  C   UNL A   1      33.121  22.814  24.130  1.00  0.00     0.064 A 
ATOM     89  N   UNL A   1      32.797  23.224  21.788  1.00  0.00    -0.307 N 
ATOM     90  C   UNL A   1      33.715  24.157  24.233  1.00  0.00     0.264 A 
ATOM     91  C   UNL A   1      33.184  24.539  21.882  1.00  0.00     0.329 A 
ATOM     92  H   UNL A   1      32.550  22.877  20.901  1.00  0.00     0.171 HD
ATOM     93  O   UNL A   1      34.359  24.441  25.241  1.00  0.00    -0.268 OA
ATOM     94  N   UNL A   1      33.579  24.989  23.129  1.00  0.00    -0.255 N 
ATOM     95  O   UNL A   1      33.204  25.223  20.859  1.00  0.00    -0.248 OA
BRANCH  94  96
ATOM     96  C   UNL A   1      34.015  26.374  23.281  1.00  0.00     0.168 C 
BRANCH  96  97
ATOM     97  C   UNL A   1      32.881  27.301  23.638  1.00  0.00    -0.010 A 
ATOM     98  C   UNL A   1      32.397  27.403  24.946  1.00  0.00     0.009 A 
ATOM     99  C   UNL A   1      32.245  28.069  22.670  1.00  0.00     0.116 A 
ATOM    100  C   UNL A   1      31.297  28.208  25.224  1.00  0.00     0.020 A 
ATOM    101  N   UNL A   1      31.198  28.890  22.916  1.00  0.00    -0.264 NA
ATOM    102  C   UNL A   1      30.729  28.920  24.185  1.00  0.00     0.111 A 
ENDBRANCH  96  97
ENDBRANCH  94  96
ENDBRANCH  81  83
ENDBRANCH  80  81
ENDBRANCH  79  80
ENDBRANCH  78  79
ENDBRANCH  77  78
ENDBRANCH  76  77
ENDBRANCH   1  76
TORSDOF 22
ENDMDL
