MODEL 1
REMARK VINA RESULT:      -9.6      0.000      0.000
REMARK SMILES Cc1nnc(S[C@@H](C)CCO)c(C(=O)OCCOCCOCCOC(=O)c2ccc(-c3c4nc(c(-c5c(F)cc(S(=O)(=O)[O-])cc5F)c5ccc([nH]5)c(-c5c(F)cc(S(=O)(=O)[O-])cc5F)c5nc(c(-c6c(F)cc(S(=O)(=O)[O-])cc6F)c6ccc3[nH]6)C=C5)C=C4)cc2)c1C
REMARK SMILES IDX 19 1 18 2 17 3 16 4 15 5 13 6 14 7 12 8 1 9 2 10 3 11 93 12
REMARK SMILES IDX 4 13 94 14 5 15 6 16 7 17 8 18 9 19 10 20 11 21 20 23 21 24
REMARK SMILES IDX 22 25 23 26 24 27 25 28 26 29 27 30 28 31 92 32 29 33 91 34
REMARK SMILES IDX 30 35 31 36 32 37 85 38 33 39 90 40 84 41 86 42 34 43 89 44
REMARK SMILES IDX 83 45 82 46 35 48 69 49 48 50 68 51 49 52 52 53 67 54 87 55
REMARK SMILES IDX 50 56 51 57 66 59 88 60 53 61 36 62 37 63 46 64 38 65 39 66
REMARK SMILES IDX 45 67 47 68 40 69 41 70 42 71 43 72 44 73 70 74 71 75 80 76
REMARK SMILES IDX 72 77 73 78 79 79 81 80 74 81 75 82 76 83 77 84 78 85 54 86
REMARK SMILES IDX 55 87 64 88 56 89 57 90 63 91 65 92 58 93 59 94 60 95 61 96
REMARK SMILES IDX 62 97
REMARK H PARENT 11 22 86 47 52 58
REMARK Flexibility Score: inf
ROOT
ATOM      1  C   UNL A   1      33.591  33.187  28.065  1.00  0.00     0.188 C 
ENDROOT
BRANCH   1   2
ATOM      2  O   UNL A   1      33.431  31.866  27.555  1.00  0.00    -0.376 OA
BRANCH   2   3
ATOM      3  C   UNL A   1      34.477  30.941  27.814  1.00  0.00     0.202 C 
BRANCH   3   4
ATOM      4  C   UNL A   1      34.262  29.698  26.965  1.00  0.00     0.261 C 
BRANCH   4   5
ATOM      5  O   UNL A   1      32.981  29.789  26.319  1.00  0.00    -0.460 OA
BRANCH   5   6
ATOM      6  C   UNL A   1      32.138  28.735  26.369  1.00  0.00     0.341 C 
ATOM      7  O   UNL A   1      31.678  28.245  27.380  1.00  0.00    -0.246 OA
BRANCH   6   8
ATOM      8  C   UNL A   1      31.882  28.301  24.980  1.00  0.00     0.098 A 
ATOM      9  C   UNL A   1      33.119  25.580  22.545  1.00  0.00     0.069 C 
ATOM     10  C   UNL A   1      32.406  26.728  23.191  1.00  0.00     0.064 A 
ATOM     11  N   UNL A   1      31.503  27.343  22.425  1.00  0.00    -0.155 NA
ATOM     12  C   UNL A   1      32.640  27.171  24.491  1.00  0.00    -0.011 A 
ATOM     13  N   UNL A   1      30.802  28.430  22.908  1.00  0.00    -0.143 NA
ATOM     14  C   UNL A   1      33.723  26.498  25.305  1.00  0.00     0.047 C 
ATOM     15  C   UNL A   1      30.953  28.941  24.154  1.00  0.00     0.134 A 
BRANCH  15  16
ATOM     16  S   UNL A   1      29.867  30.347  24.213  1.00  0.00    -0.100 SA
BRANCH  16  17
ATOM     17  C   UNL A   1      28.564  30.474  22.918  1.00  0.00     0.052 C 
ATOM     18  C   UNL A   1      27.586  29.303  22.963  1.00  0.00     0.020 C 
BRANCH  17  19
ATOM     19  C   UNL A   1      27.917  31.847  22.783  1.00  0.00     0.043 C 
BRANCH  19  20
ATOM     20  C   UNL A   1      28.871  32.981  22.425  1.00  0.00     0.157 C 
BRANCH  20  21
ATOM     21  O   UNL A   1      28.436  34.179  23.048  1.00  0.00    -0.396 OA
ATOM     22  H   UNL A   1      29.201  34.748  23.225  1.00  0.00     0.210 HD
ENDBRANCH  20  21
ENDBRANCH  19  20
ENDBRANCH  17  19
ENDBRANCH  16  17
ENDBRANCH  15  16
ENDBRANCH   6   8
ENDBRANCH   5   6
ENDBRANCH   4   5
ENDBRANCH   3   4
ENDBRANCH   2   3
ENDBRANCH   1   2
BRANCH   1  23
ATOM     23  C   UNL A   1      34.599  33.199  29.218  1.00  0.00     0.188 C 
BRANCH  23  24
ATOM     24  O   UNL A   1      34.097  33.268  30.549  1.00  0.00    -0.376 OA
BRANCH  24  25
ATOM     25  C   UNL A   1      34.855  32.682  31.599  1.00  0.00     0.202 C 
BRANCH  25  26
ATOM     26  C   UNL A   1      36.323  32.377  31.295  1.00  0.00     0.261 C 
BRANCH  26  27
ATOM     27  O   UNL A   1      36.832  31.178  31.916  1.00  0.00    -0.460 OA
BRANCH  27  28
ATOM     28  C   UNL A   1      37.094  30.150  31.071  1.00  0.00     0.338 C 
ATOM     29  O   UNL A   1      36.315  29.280  30.719  1.00  0.00    -0.246 OA
BRANCH  28  30
ATOM     30  C   UNL A   1      38.470  30.245  30.530  1.00  0.00     0.060 A 
ATOM     31  C   UNL A   1      38.652  30.164  29.143  1.00  0.00     0.016 A 
ATOM     32  C   UNL A   1      39.582  30.271  31.378  1.00  0.00     0.016 A 
ATOM     33  C   UNL A   1      39.940  30.063  28.603  1.00  0.00     0.010 A 
ATOM     34  C   UNL A   1      40.871  30.150  30.836  1.00  0.00     0.010 A 
ATOM     35  C   UNL A   1      41.059  30.012  29.448  1.00  0.00    -0.014 A 
BRANCH  35  36
ATOM     36  C   UNL A   1      42.391  29.612  28.913  1.00  0.00     0.031 A 
ATOM     37  C   UNL A   1      42.616  28.168  28.551  1.00  0.00     0.074 A 
ATOM     38  C   UNL A   1      43.399  30.490  28.759  1.00  0.00     0.049 A 
ATOM     39  N   UNL A   1      43.687  27.595  28.067  1.00  0.00    -0.248 NA
ATOM     40  C   UNL A   1      41.480  27.254  28.751  1.00  0.00     0.031 C 
ATOM     41  C   UNL A   1      43.314  31.923  29.001  1.00  0.00     0.029 A 
ATOM     42  N   UNL A   1      44.704  30.298  28.371  1.00  0.00    -0.354 N 
ATOM     43  C   UNL A   1      43.339  26.269  27.849  1.00  0.00     0.074 A 
ATOM     44  C   UNL A   1      41.977  26.107  28.315  1.00  0.00     0.031 C 
ATOM     45  C   UNL A   1      44.521  32.481  28.810  1.00  0.00     0.029 A 
ATOM     46  C   UNL A   1      45.469  31.442  28.416  1.00  0.00     0.049 A 
ATOM     47  H   UNL A   1      45.058  29.425  28.087  1.00  0.00     0.167 HD
ATOM     48  C   UNL A   1      44.074  25.278  27.289  1.00  0.00     0.037 A 
ATOM     49  C   UNL A   1      46.779  31.634  28.166  1.00  0.00     0.037 A 
ATOM     50  C   UNL A   1      45.447  25.412  26.883  1.00  0.00     0.049 A 
ATOM     51  C   UNL A   1      47.627  30.481  27.700  1.00  0.00     0.074 A 
ATOM     52  C   UNL A   1      46.274  24.455  26.324  1.00  0.00     0.029 A 
ATOM     53  N   UNL A   1      46.204  26.566  27.014  1.00  0.00    -0.354 N 
ATOM     54  N   UNL A   1      47.268  29.244  27.454  1.00  0.00    -0.248 NA
ATOM     55  C   UNL A   1      49.054  30.749  27.466  1.00  0.00     0.031 C 
ATOM     56  C   UNL A   1      47.546  25.015  26.164  1.00  0.00     0.029 A 
ATOM     57  C   UNL A   1      47.499  26.335  26.579  1.00  0.00     0.049 A 
ATOM     58  H   UNL A   1      45.869  27.424  27.365  1.00  0.00     0.167 HD
ATOM     59  C   UNL A   1      48.413  28.599  26.997  1.00  0.00     0.074 A 
ATOM     60  C   UNL A   1      49.480  29.579  27.010  1.00  0.00     0.031 C 
ATOM     61  C   UNL A   1      48.559  27.313  26.592  1.00  0.00     0.037 A 
BRANCH  48  62
ATOM     62  C   UNL A   1      43.393  23.956  27.091  1.00  0.00     0.058 A 
ATOM     63  C   UNL A   1      42.910  23.573  25.830  1.00  0.00     0.135 A 
ATOM     64  C   UNL A   1      43.226  23.063  28.160  1.00  0.00     0.135 A 
ATOM     65  F   UNL A   1      43.030  24.402  24.779  1.00  0.00    -0.206 F 
ATOM     66  C   UNL A   1      42.262  22.359  25.638  1.00  0.00     0.059 A 
ATOM     67  C   UNL A   1      42.598  21.833  27.987  1.00  0.00     0.059 A 
ATOM     68  F   UNL A   1      43.664  23.385  29.386  1.00  0.00    -0.206 F 
ATOM     69  C   UNL A   1      42.106  21.497  26.725  1.00  0.00     0.060 A 
BRANCH  69  70
ATOM     70  S   UNL A   1      41.244  19.934  26.465  1.00  0.00     0.124 S 
ATOM     71  O   UNL A   1      42.007  19.361  25.358  1.00  0.00    -0.237 OA
ATOM     72  O   UNL A   1      41.404  19.270  27.755  1.00  0.00    -0.237 OA
ATOM     73  O   UNL A   1      39.882  20.345  26.139  1.00  0.00    -0.744 OA
ENDBRANCH  69  70
ENDBRANCH  48  62
BRANCH  49  74
ATOM     74  C   UNL A   1      47.374  32.988  28.327  1.00  0.00     0.058 A 
ATOM     75  C   UNL A   1      47.930  33.391  29.550  1.00  0.00     0.135 A 
ATOM     76  C   UNL A   1      47.400  33.904  27.263  1.00  0.00     0.135 A 
ATOM     77  F   UNL A   1      47.915  32.554  30.599  1.00  0.00    -0.206 F 
ATOM     78  C   UNL A   1      48.484  34.655  29.718  1.00  0.00     0.059 A 
ATOM     79  C   UNL A   1      47.965  35.169  27.402  1.00  0.00     0.059 A 
ATOM     80  F   UNL A   1      46.883  33.566  26.072  1.00  0.00    -0.206 F 
ATOM     81  C   UNL A   1      48.500  35.537  28.635  1.00  0.00     0.060 A 
BRANCH  81  82
ATOM     82  S   UNL A   1      49.262  37.160  28.856  1.00  0.00     0.124 S 
ATOM     83  O   UNL A   1      49.488  37.187  30.297  1.00  0.00    -0.237 OA
ATOM     84  O   UNL A   1      50.458  37.051  28.025  1.00  0.00    -0.237 OA
ATOM     85  O   UNL A   1      48.244  38.081  28.361  1.00  0.00    -0.744 OA
ENDBRANCH  81  82
ENDBRANCH  49  74
BRANCH  61  86
ATOM     86  C   UNL A   1      49.912  26.877  26.102  1.00  0.00     0.058 A 
ATOM     87  C   UNL A   1      50.293  27.034  24.761  1.00  0.00     0.135 A 
ATOM     88  C   UNL A   1      50.870  26.384  27.003  1.00  0.00     0.135 A 
ATOM     89  F   UNL A   1      49.413  27.493  23.858  1.00  0.00    -0.206 F 
ATOM     90  C   UNL A   1      51.577  26.717  24.330  1.00  0.00     0.059 A 
ATOM     91  C   UNL A   1      52.167  26.083  26.598  1.00  0.00     0.059 A 
ATOM     92  F   UNL A   1      50.558  26.222  28.299  1.00  0.00    -0.206 F 
ATOM     93  C   UNL A   1      52.511  26.251  25.258  1.00  0.00     0.060 A 
BRANCH  93  94
ATOM     94  S   UNL A   1      54.195  25.913  24.696  1.00  0.00     0.124 S 
ATOM     95  O   UNL A   1      54.310  24.481  24.953  1.00  0.00    -0.237 OA
ATOM     96  O   UNL A   1      54.137  26.302  23.291  1.00  0.00    -0.237 OA
ATOM     97  O   UNL A   1      55.016  26.770  25.545  1.00  0.00    -0.744 OA
ENDBRANCH  93  94
ENDBRANCH  61  86
ENDBRANCH  35  36
ENDBRANCH  28  30
ENDBRANCH  27  28
ENDBRANCH  26  27
ENDBRANCH  25  26
ENDBRANCH  24  25
ENDBRANCH  23  24
ENDBRANCH   1  23
TORSDOF 25
ENDMDL
MODEL 2
REMARK VINA RESULT:      -9.5      4.657     10.012
REMARK SMILES Cc1nnc(S[C@@H](C)CCO)c(C(=O)OCCOCCOCCOC(=O)c2ccc(-c3c4nc(c(-c5c(F)cc(S(=O)(=O)[O-])cc5F)c5ccc([nH]5)c(-c5c(F)cc(S(=O)(=O)[O-])cc5F)c5nc(c(-c6c(F)cc(S(=O)(=O)[O-])cc6F)c6ccc3[nH]6)C=C5)C=C4)cc2)c1C
REMARK SMILES IDX 19 1 18 2 17 3 16 4 15 5 13 6 14 7 12 8 1 9 2 10 3 11 93 12
REMARK SMILES IDX 4 13 94 14 5 15 6 16 7 17 8 18 9 19 10 20 11 21 20 23 21 24
REMARK SMILES IDX 22 25 23 26 24 27 25 28 26 29 27 30 28 31 92 32 29 33 91 34
REMARK SMILES IDX 30 35 31 36 32 37 85 38 33 39 90 40 84 41 86 42 34 43 89 44
REMARK SMILES IDX 83 45 82 46 35 48 69 49 48 50 68 51 49 52 52 53 67 54 87 55
REMARK SMILES IDX 50 56 51 57 66 59 88 60 53 61 36 62 37 63 46 64 38 65 39 66
REMARK SMILES IDX 45 67 47 68 40 69 41 70 42 71 43 72 44 73 70 74 71 75 80 76
REMARK SMILES IDX 72 77 73 78 79 79 81 80 74 81 75 82 76 83 77 84 78 85 54 86
REMARK SMILES IDX 55 87 64 88 56 89 57 90 63 91 65 92 58 93 59 94 60 95 61 96
REMARK SMILES IDX 62 97
REMARK H PARENT 11 22 86 47 52 58
REMARK Flexibility Score: inf
ROOT
ATOM      1  C   UNL A   1      31.468  22.320  25.626  1.00  0.00     0.188 C 
ENDROOT
BRANCH   1   2
ATOM      2  O   UNL A   1      30.767  23.345  24.927  1.00  0.00    -0.376 OA
BRANCH   2   3
ATOM      3  C   UNL A   1      31.097  23.536  23.559  1.00  0.00     0.202 C 
BRANCH   3   4
ATOM      4  C   UNL A   1      31.582  24.964  23.362  1.00  0.00     0.261 C 
BRANCH   4   5
ATOM      5  O   UNL A   1      30.445  25.821  23.159  1.00  0.00    -0.460 OA
BRANCH   5   6
ATOM      6  C   UNL A   1      29.875  26.428  24.222  1.00  0.00     0.341 C 
ATOM      7  O   UNL A   1      28.887  26.041  24.812  1.00  0.00    -0.246 OA
BRANCH   6   8
ATOM      8  C   UNL A   1      30.672  27.634  24.528  1.00  0.00     0.098 A 
ATOM      9  C   UNL A   1      33.260  28.782  27.144  1.00  0.00     0.069 C 
ATOM     10  C   UNL A   1      32.320  28.692  25.982  1.00  0.00     0.064 A 
ATOM     11  N   UNL A   1      32.249  29.784  25.218  1.00  0.00    -0.155 NA
ATOM     12  C   UNL A   1      31.544  27.575  25.680  1.00  0.00    -0.011 A 
ATOM     13  N   UNL A   1      31.398  29.823  24.133  1.00  0.00    -0.143 NA
ATOM     14  C   UNL A   1      31.593  26.382  26.609  1.00  0.00     0.047 C 
ATOM     15  C   UNL A   1      30.600  28.795  23.752  1.00  0.00     0.134 A 
BRANCH  15  16
ATOM     16  S   UNL A   1      29.689  29.408  22.355  1.00  0.00    -0.100 SA
BRANCH  16  17
ATOM     17  C   UNL A   1      27.950  29.946  22.638  1.00  0.00     0.052 C 
ATOM     18  C   UNL A   1      27.091  28.834  23.234  1.00  0.00     0.020 C 
BRANCH  17  19
ATOM     19  C   UNL A   1      27.794  31.307  23.305  1.00  0.00     0.043 C 
BRANCH  19  20
ATOM     20  C   UNL A   1      28.828  32.351  22.898  1.00  0.00     0.157 C 
BRANCH  20  21
ATOM     21  O   UNL A   1      28.181  33.593  22.671  1.00  0.00    -0.396 OA
ATOM     22  H   UNL A   1      27.288  33.567  23.046  1.00  0.00     0.210 HD
ENDBRANCH  20  21
ENDBRANCH  19  20
ENDBRANCH  17  19
ENDBRANCH  16  17
ENDBRANCH  15  16
ENDBRANCH   6   8
ENDBRANCH   5   6
ENDBRANCH   4   5
ENDBRANCH   3   4
ENDBRANCH   2   3
ENDBRANCH   1   2
BRANCH   1  23
ATOM     23  C   UNL A   1      32.886  22.162  25.070  1.00  0.00     0.188 C 
BRANCH  23  24
ATOM     24  O   UNL A   1      33.935  22.903  25.686  1.00  0.00    -0.376 OA
BRANCH  24  25
ATOM     25  C   UNL A   1      35.258  22.387  25.637  1.00  0.00     0.202 C 
BRANCH  25  26
ATOM     26  C   UNL A   1      36.254  23.139  24.752  1.00  0.00     0.261 C 
BRANCH  26  27
ATOM     27  O   UNL A   1      37.151  24.017  25.464  1.00  0.00    -0.460 OA
BRANCH  27  28
ATOM     28  C   UNL A   1      38.309  23.449  25.886  1.00  0.00     0.338 C 
ATOM     29  O   UNL A   1      38.726  22.342  25.593  1.00  0.00    -0.246 OA
BRANCH  28  30
ATOM     30  C   UNL A   1      39.091  24.395  26.717  1.00  0.00     0.060 A 
ATOM     31  C   UNL A   1      38.803  24.480  28.085  1.00  0.00     0.016 A 
ATOM     32  C   UNL A   1      39.997  25.289  26.138  1.00  0.00     0.016 A 
ATOM     33  C   UNL A   1      39.384  25.486  28.869  1.00  0.00     0.010 A 
ATOM     34  C   UNL A   1      40.563  26.307  26.921  1.00  0.00     0.010 A 
ATOM     35  C   UNL A   1      40.236  26.434  28.283  1.00  0.00    -0.014 A 
BRANCH  35  36
ATOM     36  C   UNL A   1      40.619  27.666  29.029  1.00  0.00     0.031 A 
ATOM     37  C   UNL A   1      41.948  27.696  29.735  1.00  0.00     0.074 A 
ATOM     38  C   UNL A   1      39.813  28.742  29.106  1.00  0.00     0.049 A 
ATOM     39  N   UNL A   1      42.490  28.657  30.438  1.00  0.00    -0.248 NA
ATOM     40  C   UNL A   1      42.781  26.487  29.623  1.00  0.00     0.031 C 
ATOM     41  C   UNL A   1      38.534  28.888  28.426  1.00  0.00     0.029 A 
ATOM     42  N   UNL A   1      39.950  29.916  29.808  1.00  0.00    -0.354 N 
ATOM     43  C   UNL A   1      43.746  28.194  30.803  1.00  0.00     0.074 A 
ATOM     44  C   UNL A   1      43.863  26.842  30.299  1.00  0.00     0.031 C 
ATOM     45  C   UNL A   1      37.972  30.056  28.778  1.00  0.00     0.029 A 
ATOM     46  C   UNL A   1      38.861  30.753  29.703  1.00  0.00     0.049 A 
ATOM     47  H   UNL A   1      40.750  30.138  30.335  1.00  0.00     0.167 HD
ATOM     48  C   UNL A   1      44.728  28.843  31.475  1.00  0.00     0.037 A 
ATOM     49  C   UNL A   1      38.609  31.944  30.281  1.00  0.00     0.037 A 
ATOM     50  C   UNL A   1      44.599  30.161  32.035  1.00  0.00     0.049 A 
ATOM     51  C   UNL A   1      39.649  32.580  31.165  1.00  0.00     0.074 A 
ATOM     52  C   UNL A   1      45.537  30.887  32.748  1.00  0.00     0.029 A 
ATOM     53  N   UNL A   1      43.455  30.942  31.969  1.00  0.00    -0.354 N 
ATOM     54  N   UNL A   1      40.852  32.149  31.459  1.00  0.00    -0.248 NA
ATOM     55  C   UNL A   1      39.305  33.869  31.784  1.00  0.00     0.031 C 
ATOM     56  C   UNL A   1      44.943  32.086  33.157  1.00  0.00     0.029 A 
ATOM     57  C   UNL A   1      43.652  32.128  32.659  1.00  0.00     0.049 A 
ATOM     58  H   UNL A   1      42.626  30.690  31.501  1.00  0.00     0.167 HD
ATOM     59  C   UNL A   1      41.422  33.131  32.262  1.00  0.00     0.074 A 
ATOM     60  C   UNL A   1      40.430  34.175  32.417  1.00  0.00     0.031 C 
ATOM     61  C   UNL A   1      42.662  33.167  32.810  1.00  0.00     0.037 A 
BRANCH  48  62
ATOM     62  C   UNL A   1      46.031  28.117  31.640  1.00  0.00     0.058 A 
ATOM     63  C   UNL A   1      46.244  27.252  32.726  1.00  0.00     0.135 A 
ATOM     64  C   UNL A   1      47.069  28.276  30.711  1.00  0.00     0.135 A 
ATOM     65  F   UNL A   1      45.286  27.081  33.652  1.00  0.00    -0.206 F 
ATOM     66  C   UNL A   1      47.452  26.589  32.900  1.00  0.00     0.059 A 
ATOM     67  C   UNL A   1      48.280  27.606  30.853  1.00  0.00     0.059 A 
ATOM     68  F   UNL A   1      46.917  29.096  29.660  1.00  0.00    -0.206 F 
ATOM     69  C   UNL A   1      48.467  26.776  31.959  1.00  0.00     0.060 A 
BRANCH  69  70
ATOM     70  S   UNL A   1      50.038  25.924  32.210  1.00  0.00     0.124 S 
ATOM     71  O   UNL A   1      50.993  27.015  32.033  1.00  0.00    -0.237 OA
ATOM     72  O   UNL A   1      49.903  25.415  33.571  1.00  0.00    -0.237 OA
ATOM     73  O   UNL A   1      50.047  24.909  31.162  1.00  0.00    -0.744 OA
ENDBRANCH  69  70
ENDBRANCH  48  62
BRANCH  49  74
ATOM     74  C   UNL A   1      37.316  32.634  30.024  1.00  0.00     0.058 A 
ATOM     75  C   UNL A   1      37.228  33.674  29.087  1.00  0.00     0.135 A 
ATOM     76  C   UNL A   1      36.146  32.267  30.707  1.00  0.00     0.135 A 
ATOM     77  F   UNL A   1      38.324  34.069  28.421  1.00  0.00    -0.206 F 
ATOM     78  C   UNL A   1      36.028  34.333  28.840  1.00  0.00     0.059 A 
ATOM     79  C   UNL A   1      34.930  32.900  30.464  1.00  0.00     0.059 A 
ATOM     80  F   UNL A   1      36.178  31.276  31.611  1.00  0.00    -0.206 F 
ATOM     81  C   UNL A   1      34.883  33.936  29.532  1.00  0.00     0.060 A 
BRANCH  81  82
ATOM     82  S   UNL A   1      33.323  34.771  29.169  1.00  0.00     0.124 S 
ATOM     83  O   UNL A   1      32.686  33.827  28.258  1.00  0.00    -0.237 OA
ATOM     84  O   UNL A   1      32.721  34.883  30.495  1.00  0.00    -0.237 OA
ATOM     85  O   UNL A   1      33.747  36.034  28.572  1.00  0.00    -0.744 OA
ENDBRANCH  81  82
ENDBRANCH  49  74
BRANCH  61  86
ATOM     86  C   UNL A   1      43.045  34.378  33.613  1.00  0.00     0.058 A 
ATOM     87  C   UNL A   1      42.970  34.384  35.014  1.00  0.00     0.135 A 
ATOM     88  C   UNL A   1      43.581  35.511  32.980  1.00  0.00     0.135 A 
ATOM     89  F   UNL A   1      42.457  33.329  35.668  1.00  0.00    -0.206 F 
ATOM     90  C   UNL A   1      43.413  35.471  35.760  1.00  0.00     0.059 A 
ATOM     91  C   UNL A   1      44.052  36.600  33.709  1.00  0.00     0.059 A 
ATOM     92  F   UNL A   1      43.682  35.554  31.643  1.00  0.00    -0.206 F 
ATOM     93  C   UNL A   1      43.961  36.572  35.099  1.00  0.00     0.060 A 
BRANCH  93  94
ATOM     94  S   UNL A   1      44.598  37.945  36.085  1.00  0.00     0.124 S 
ATOM     95  O   UNL A   1      44.520  39.051  35.138  1.00  0.00    -0.237 OA
ATOM     96  O   UNL A   1      43.652  37.994  37.196  1.00  0.00    -0.237 OA
ATOM     97  O   UNL A   1      45.947  37.515  36.438  1.00  0.00    -0.744 OA
ENDBRANCH  93  94
ENDBRANCH  61  86
ENDBRANCH  35  36
ENDBRANCH  28  30
ENDBRANCH  27  28
ENDBRANCH  26  27
ENDBRANCH  25  26
ENDBRANCH  24  25
ENDBRANCH  23  24
ENDBRANCH   1  23
TORSDOF 25
ENDMDL
MODEL 3
REMARK VINA RESULT:      -9.4      5.684     10.401
REMARK SMILES Cc1nnc(S[C@@H](C)CCO)c(C(=O)OCCOCCOCCOC(=O)c2ccc(-c3c4nc(c(-c5c(F)cc(S(=O)(=O)[O-])cc5F)c5ccc([nH]5)c(-c5c(F)cc(S(=O)(=O)[O-])cc5F)c5nc(c(-c6c(F)cc(S(=O)(=O)[O-])cc6F)c6ccc3[nH]6)C=C5)C=C4)cc2)c1C
REMARK SMILES IDX 19 1 18 2 17 3 16 4 15 5 13 6 14 7 12 8 1 9 2 10 3 11 93 12
REMARK SMILES IDX 4 13 94 14 5 15 6 16 7 17 8 18 9 19 10 20 11 21 20 23 21 24
REMARK SMILES IDX 22 25 23 26 24 27 25 28 26 29 27 30 28 31 92 32 29 33 91 34
REMARK SMILES IDX 30 35 31 36 32 37 85 38 33 39 90 40 84 41 86 42 34 43 89 44
REMARK SMILES IDX 83 45 82 46 35 48 69 49 48 50 68 51 49 52 52 53 67 54 87 55
REMARK SMILES IDX 50 56 51 57 66 59 88 60 53 61 36 62 37 63 46 64 38 65 39 66
REMARK SMILES IDX 45 67 47 68 40 69 41 70 42 71 43 72 44 73 70 74 71 75 80 76
REMARK SMILES IDX 72 77 73 78 79 79 81 80 74 81 75 82 76 83 77 84 78 85 54 86
REMARK SMILES IDX 55 87 64 88 56 89 57 90 63 91 65 92 58 93 59 94 60 95 61 96
REMARK SMILES IDX 62 97
REMARK H PARENT 11 22 86 47 52 58
REMARK Flexibility Score: inf
ROOT
ATOM      1  C   UNL A   1      33.796  25.225  24.066  1.00  0.00     0.188 C 
ENDROOT
BRANCH   1   2
ATOM      2  O   UNL A   1      32.610  24.545  24.466  1.00  0.00    -0.376 OA
BRANCH   2   3
ATOM      3  C   UNL A   1      31.939  23.777  23.478  1.00  0.00     0.202 C 
BRANCH   3   4
ATOM      4  C   UNL A   1      32.876  22.688  22.976  1.00  0.00     0.261 C 
BRANCH   4   5
ATOM      5  O   UNL A   1      32.291  21.404  23.252  1.00  0.00    -0.460 OA
BRANCH   5   6
ATOM      6  C   UNL A   1      32.353  20.903  24.504  1.00  0.00     0.341 C 
ATOM      7  O   UNL A   1      31.564  21.133  25.398  1.00  0.00    -0.246 OA
BRANCH   6   8
ATOM      8  C   UNL A   1      33.544  20.032  24.578  1.00  0.00     0.098 A 
ATOM      9  C   UNL A   1      34.491  16.380  23.780  1.00  0.00     0.069 C 
ATOM     10  C   UNL A   1      34.500  17.822  24.187  1.00  0.00     0.064 A 
ATOM     11  N   UNL A   1      35.674  18.285  24.622  1.00  0.00    -0.155 NA
ATOM     12  C   UNL A   1      33.390  18.661  24.145  1.00  0.00    -0.011 A 
ATOM     13  N   UNL A   1      35.795  19.593  25.046  1.00  0.00    -0.143 NA
ATOM     14  C   UNL A   1      32.058  18.084  23.717  1.00  0.00     0.047 C 
ATOM     15  C   UNL A   1      34.779  20.491  25.047  1.00  0.00     0.134 A 
BRANCH  15  16
ATOM     16  S   UNL A   1      35.472  21.973  25.741  1.00  0.00    -0.100 SA
BRANCH  16  17
ATOM     17  C   UNL A   1      36.949  22.696  24.912  1.00  0.00     0.052 C 
ATOM     18  C   UNL A   1      36.693  23.001  23.438  1.00  0.00     0.020 C 
BRANCH  17  19
ATOM     19  C   UNL A   1      37.647  23.807  25.686  1.00  0.00     0.043 C 
BRANCH  19  20
ATOM     20  C   UNL A   1      38.883  23.375  26.466  1.00  0.00     0.157 C 
BRANCH  20  21
ATOM     21  O   UNL A   1      39.530  22.316  25.778  1.00  0.00    -0.396 OA
ATOM     22  H   UNL A   1      39.722  22.590  24.868  1.00  0.00     0.210 HD
ENDBRANCH  20  21
ENDBRANCH  19  20
ENDBRANCH  17  19
ENDBRANCH  16  17
ENDBRANCH  15  16
ENDBRANCH   6   8
ENDBRANCH   5   6
ENDBRANCH   4   5
ENDBRANCH   3   4
ENDBRANCH   2   3
ENDBRANCH   1   2
BRANCH   1  23
ATOM     23  C   UNL A   1      33.454  26.428  23.182  1.00  0.00     0.188 C 
BRANCH  23  24
ATOM     24  O   UNL A   1      34.027  27.689  23.514  1.00  0.00    -0.376 OA
BRANCH  24  25
ATOM     25  C   UNL A   1      33.244  28.629  24.238  1.00  0.00     0.202 C 
BRANCH  25  26
ATOM     26  C   UNL A   1      33.164  28.429  25.753  1.00  0.00     0.261 C 
BRANCH  26  27
ATOM     27  O   UNL A   1      34.407  28.631  26.456  1.00  0.00    -0.460 OA
BRANCH  27  28
ATOM     28  C   UNL A   1      34.500  29.789  27.156  1.00  0.00     0.338 C 
ATOM     29  O   UNL A   1      33.663  30.674  27.213  1.00  0.00    -0.246 OA
BRANCH  28  30
ATOM     30  C   UNL A   1      35.751  29.831  27.949  1.00  0.00     0.060 A 
ATOM     31  C   UNL A   1      36.958  30.080  27.283  1.00  0.00     0.016 A 
ATOM     32  C   UNL A   1      35.761  29.489  29.306  1.00  0.00     0.016 A 
ATOM     33  C   UNL A   1      38.178  29.945  27.958  1.00  0.00     0.010 A 
ATOM     34  C   UNL A   1      36.985  29.336  29.974  1.00  0.00     0.010 A 
ATOM     35  C   UNL A   1      38.203  29.530  29.298  1.00  0.00    -0.014 A 
BRANCH  35  36
ATOM     36  C   UNL A   1      39.483  29.101  29.930  1.00  0.00     0.031 A 
ATOM     37  C   UNL A   1      39.994  29.875  31.116  1.00  0.00     0.074 A 
ATOM     38  C   UNL A   1      40.201  28.060  29.468  1.00  0.00     0.049 A 
ATOM     39  N   UNL A   1      41.076  29.681  31.825  1.00  0.00    -0.248 NA
ATOM     40  C   UNL A   1      39.171  31.008  31.568  1.00  0.00     0.031 C 
ATOM     41  C   UNL A   1      39.806  27.179  28.379  1.00  0.00     0.029 A 
ATOM     42  N   UNL A   1      41.428  27.575  29.856  1.00  0.00    -0.354 N 
ATOM     43  C   UNL A   1      41.036  30.627  32.839  1.00  0.00     0.074 A 
ATOM     44  C   UNL A   1      39.856  31.437  32.617  1.00  0.00     0.031 C 
ATOM     45  C   UNL A   1      40.787  26.293  28.143  1.00  0.00     0.029 A 
ATOM     46  C   UNL A   1      41.881  26.533  29.079  1.00  0.00     0.049 A 
ATOM     47  H   UNL A   1      41.934  27.938  30.618  1.00  0.00     0.167 HD
ATOM     48  C   UNL A   1      41.887  30.795  33.879  1.00  0.00     0.037 A 
ATOM     49  C   UNL A   1      43.041  25.847  29.117  1.00  0.00     0.037 A 
ATOM     50  C   UNL A   1      43.095  30.039  34.073  1.00  0.00     0.049 A 
ATOM     51  C   UNL A   1      44.057  26.159  30.183  1.00  0.00     0.074 A 
ATOM     52  C   UNL A   1      44.027  30.155  35.089  1.00  0.00     0.029 A 
ATOM     53  N   UNL A   1      43.553  29.044  33.223  1.00  0.00    -0.354 N 
ATOM     54  N   UNL A   1      43.980  27.025  31.164  1.00  0.00    -0.248 NA
ATOM     55  C   UNL A   1      45.312  25.392  30.158  1.00  0.00     0.031 C 
ATOM     56  C   UNL A   1      45.075  29.265  34.826  1.00  0.00     0.029 A 
ATOM     57  C   UNL A   1      44.772  28.562  33.672  1.00  0.00     0.049 A 
ATOM     58  H   UNL A   1      43.081  28.727  32.419  1.00  0.00     0.167 HD
ATOM     59  C   UNL A   1      45.154  26.879  31.895  1.00  0.00     0.074 A 
ATOM     60  C   UNL A   1      45.931  25.848  31.239  1.00  0.00     0.031 C 
ATOM     61  C   UNL A   1      45.544  27.534  33.017  1.00  0.00     0.037 A 
BRANCH  48  62
ATOM     62  C   UNL A   1      41.532  31.850  34.885  1.00  0.00     0.058 A 
ATOM     63  C   UNL A   1      40.691  31.559  35.971  1.00  0.00     0.135 A 
ATOM     64  C   UNL A   1      42.036  33.154  34.773  1.00  0.00     0.135 A 
ATOM     65  F   UNL A   1      40.169  30.330  36.112  1.00  0.00    -0.206 F 
ATOM     66  C   UNL A   1      40.340  32.533  36.899  1.00  0.00     0.059 A 
ATOM     67  C   UNL A   1      41.715  34.139  35.701  1.00  0.00     0.059 A 
ATOM     68  F   UNL A   1      42.839  33.483  33.749  1.00  0.00    -0.206 F 
ATOM     69  C   UNL A   1      40.854  33.822  36.752  1.00  0.00     0.060 A 
BRANCH  69  70
ATOM     70  S   UNL A   1      40.373  35.080  37.953  1.00  0.00     0.124 S 
ATOM     71  O   UNL A   1      41.134  34.666  39.129  1.00  0.00    -0.237 OA
ATOM     72  O   UNL A   1      40.819  36.312  37.310  1.00  0.00    -0.237 OA
ATOM     73  O   UNL A   1      38.926  34.918  38.055  1.00  0.00    -0.744 OA
ENDBRANCH  69  70
ENDBRANCH  48  62
BRANCH  49  74
ATOM     74  C   UNL A   1      43.300  24.772  28.122  1.00  0.00     0.058 A 
ATOM     75  C   UNL A   1      43.911  25.060  26.892  1.00  0.00     0.135 A 
ATOM     76  C   UNL A   1      42.945  23.439  28.380  1.00  0.00     0.135 A 
ATOM     77  F   UNL A   1      44.255  26.322  26.595  1.00  0.00    -0.206 F 
ATOM     78  C   UNL A   1      44.154  24.067  25.950  1.00  0.00     0.059 A 
ATOM     79  C   UNL A   1      43.194  22.425  27.460  1.00  0.00     0.059 A 
ATOM     80  F   UNL A   1      42.360  23.113  29.543  1.00  0.00    -0.206 F 
ATOM     81  C   UNL A   1      43.795  22.750  26.245  1.00  0.00     0.060 A 
BRANCH  81  82
ATOM     82  S   UNL A   1      44.156  21.464  25.028  1.00  0.00     0.124 S 
ATOM     83  O   UNL A   1      45.468  21.001  25.469  1.00  0.00    -0.237 OA
ATOM     84  O   UNL A   1      43.050  20.534  25.230  1.00  0.00    -0.237 OA
ATOM     85  O   UNL A   1      44.137  22.185  23.759  1.00  0.00    -0.744 OA
ENDBRANCH  81  82
ENDBRANCH  49  74
BRANCH  61  86
ATOM     86  C   UNL A   1      46.859  27.152  33.636  1.00  0.00     0.058 A 
ATOM     87  C   UNL A   1      46.959  26.102  34.562  1.00  0.00     0.135 A 
ATOM     88  C   UNL A   1      48.047  27.781  33.228  1.00  0.00     0.135 A 
ATOM     89  F   UNL A   1      45.852  25.474  34.992  1.00  0.00    -0.206 F 
ATOM     90  C   UNL A   1      48.189  25.689  35.062  1.00  0.00     0.059 A 
ATOM     91  C   UNL A   1      49.291  27.368  33.697  1.00  0.00     0.059 A 
ATOM     92  F   UNL A   1      48.008  28.785  32.338  1.00  0.00    -0.206 F 
ATOM     93  C   UNL A   1      49.351  26.322  34.616  1.00  0.00     0.060 A 
BRANCH  93  94
ATOM     94  S   UNL A   1      50.947  25.727  35.220  1.00  0.00     0.124 S 
ATOM     95  O   UNL A   1      51.667  25.494  33.973  1.00  0.00    -0.237 OA
ATOM     96  O   UNL A   1      51.415  26.853  36.022  1.00  0.00    -0.237 OA
ATOM     97  O   UNL A   1      50.599  24.528  35.976  1.00  0.00    -0.744 OA
ENDBRANCH  93  94
ENDBRANCH  61  86
ENDBRANCH  35  36
ENDBRANCH  28  30
ENDBRANCH  27  28
ENDBRANCH  26  27
ENDBRANCH  25  26
ENDBRANCH  24  25
ENDBRANCH  23  24
ENDBRANCH   1  23
TORSDOF 25
ENDMDL
