MODEL 1
REMARK VINA RESULT:     -10.9      0.000      0.000
REMARK SMILES Nc1nc2ccccc2nc1N1CCC(C(=O)OCCOCCOCCOC(=O)c2ccc(-c3c4nc(c(-c5c(F)cc(S(=O)(=O)[O-])cc5F)c5ccc([nH]5)c(-c5c(F)cc(S(=O)(=O)[O-])cc5F)c5nc(c(-c6c(F)cc(S(=O)(=O)[O-])cc6F)c6ccc3[nH]6)C=C5)C=C4)cc2)CC1
REMARK SMILES IDX 23 1 22 2 21 3 20 4 19 5 18 6 16 7 17 8 15 9 12 10 13 11
REMARK SMILES IDX 97 12 14 13 96 14 11 15 2 16 3 17 4 18 10 19 5 20 9 21 6 22
REMARK SMILES IDX 8 23 7 24 1 25 24 28 25 29 26 30 27 31 28 32 29 33 30 34
REMARK SMILES IDX 31 35 95 36 32 37 94 38 33 39 34 40 35 41 88 42 36 43 93 44
REMARK SMILES IDX 87 45 89 46 37 47 92 48 86 49 85 50 38 52 72 53 51 54 71 55
REMARK SMILES IDX 52 56 55 57 70 58 90 59 53 60 54 61 69 63 91 64 56 65 39 66
REMARK SMILES IDX 40 67 49 68 41 69 42 70 48 71 50 72 43 73 44 74 45 75 46 76
REMARK SMILES IDX 47 77 73 78 74 79 83 80 75 81 76 82 82 83 84 84 77 85 78 86
REMARK SMILES IDX 79 87 80 88 81 89 57 90 58 91 67 92 59 93 60 94 66 95 68 96
REMARK SMILES IDX 61 97 62 98 63 99 64 100 65 101
REMARK H PARENT 1 26 1 27 89 51 55 62
REMARK Flexibility Score: inf
ROOT
ATOM      1  C   UNL A   1      42.155  20.291  26.430  1.00  0.00     0.188 C 
ENDROOT
BRANCH   1   2
ATOM      2  C   UNL A   1      40.643  20.493  26.515  1.00  0.00     0.188 C 
BRANCH   2   3
ATOM      3  O   UNL A   1      40.204  21.661  27.196  1.00  0.00    -0.376 OA
BRANCH   3   4
ATOM      4  C   UNL A   1      39.279  22.496  26.505  1.00  0.00     0.202 C 
BRANCH   4   5
ATOM      5  C   UNL A   1      38.337  21.805  25.512  1.00  0.00     0.261 C 
BRANCH   5   6
ATOM      6  O   UNL A   1      36.934  22.026  25.767  1.00  0.00    -0.463 OA
BRANCH   6   7
ATOM      7  C   UNL A   1      36.108  21.018  25.379  1.00  0.00     0.309 C 
ATOM      8  O   UNL A   1      36.489  19.912  25.009  1.00  0.00    -0.252 OA
BRANCH   7   9
ATOM      9  C   UNL A   1      34.629  21.343  25.503  1.00  0.00     0.103 C 
ATOM     10  N   UNL A   1      32.339  23.071  25.764  1.00  0.00    -0.353 N 
ATOM     11  C   UNL A   1      32.638  22.139  26.846  1.00  0.00     0.119 C 
ATOM     12  C   UNL A   1      32.820  22.728  24.429  1.00  0.00     0.119 C 
ATOM     13  C   UNL A   1      34.123  21.763  26.889  1.00  0.00     0.037 C 
ATOM     14  C   UNL A   1      34.312  22.436  24.477  1.00  0.00     0.037 C 
BRANCH  10  15
ATOM     15  C   UNL A   1      32.173  24.425  26.052  1.00  0.00     0.172 A 
ATOM     16  C   UNL A   1      30.909  24.939  26.459  1.00  0.00     0.167 A 
ATOM     17  N   UNL A   1      30.701  26.247  26.712  1.00  0.00    -0.226 NA
ATOM     18  C   UNL A   1      31.765  27.052  26.593  1.00  0.00     0.091 A 
ATOM     19  N   UNL A   1      33.244  25.248  25.970  1.00  0.00    -0.225 NA
ATOM     20  C   UNL A   1      31.607  28.410  26.840  1.00  0.00     0.031 A 
ATOM     21  C   UNL A   1      33.039  26.556  26.226  1.00  0.00     0.091 A 
ATOM     22  C   UNL A   1      32.676  29.298  26.730  1.00  0.00     0.002 A 
ATOM     23  C   UNL A   1      34.097  27.451  26.122  1.00  0.00     0.031 A 
ATOM     24  C   UNL A   1      33.927  28.816  26.369  1.00  0.00     0.002 A 
BRANCH  16  25
ATOM     25  N   UNL A   1      29.794  24.122  26.614  1.00  0.00    -0.381 N 
ATOM     26  H   UNL A   1      29.699  23.310  26.066  1.00  0.00     0.158 HD
ATOM     27  H   UNL A   1      29.099  24.356  27.271  1.00  0.00     0.158 HD
ENDBRANCH  16  25
ENDBRANCH  10  15
ENDBRANCH   7   9
ENDBRANCH   6   7
ENDBRANCH   5   6
ENDBRANCH   4   5
ENDBRANCH   3   4
ENDBRANCH   2   3
ENDBRANCH   1   2
BRANCH   1  28
ATOM     28  O   UNL A   1      42.839  21.049  25.439  1.00  0.00    -0.376 OA
BRANCH  28  29
ATOM     29  C   UNL A   1      43.681  22.095  25.940  1.00  0.00     0.202 C 
BRANCH  29  30
ATOM     30  C   UNL A   1      43.329  23.535  25.506  1.00  0.00     0.261 C 
BRANCH  30  31
ATOM     31  O   UNL A   1      42.304  24.191  26.283  1.00  0.00    -0.460 OA
BRANCH  31  32
ATOM     32  C   UNL A   1      41.972  25.465  25.962  1.00  0.00     0.338 C 
ATOM     33  O   UNL A   1      41.561  25.848  24.880  1.00  0.00    -0.246 OA
BRANCH  32  34
ATOM     34  C   UNL A   1      41.904  26.262  27.224  1.00  0.00     0.060 A 
ATOM     35  C   UNL A   1      42.843  27.252  27.529  1.00  0.00     0.016 A 
ATOM     36  C   UNL A   1      40.927  25.922  28.173  1.00  0.00     0.016 A 
ATOM     37  C   UNL A   1      42.782  27.921  28.760  1.00  0.00     0.010 A 
ATOM     38  C   UNL A   1      40.872  26.586  29.405  1.00  0.00     0.010 A 
ATOM     39  C   UNL A   1      41.782  27.612  29.698  1.00  0.00    -0.014 A 
BRANCH  39  40
ATOM     40  C   UNL A   1      41.543  28.514  30.857  1.00  0.00     0.031 A 
ATOM     41  C   UNL A   1      42.366  28.481  32.112  1.00  0.00     0.074 A 
ATOM     42  C   UNL A   1      40.513  29.378  30.759  1.00  0.00     0.049 A 
ATOM     43  N   UNL A   1      42.286  29.264  33.161  1.00  0.00    -0.248 NA
ATOM     44  C   UNL A   1      43.397  27.442  32.214  1.00  0.00     0.031 C 
ATOM     45  C   UNL A   1      39.618  29.480  29.605  1.00  0.00     0.029 A 
ATOM     46  N   UNL A   1      40.047  30.329  31.630  1.00  0.00    -0.354 N 
ATOM     47  C   UNL A   1      43.272  28.834  34.041  1.00  0.00     0.074 A 
ATOM     48  C   UNL A   1      43.906  27.686  33.418  1.00  0.00     0.031 C 
ATOM     49  C   UNL A   1      38.727  30.456  29.827  1.00  0.00     0.029 A 
ATOM     50  C   UNL A   1      38.971  31.033  31.146  1.00  0.00     0.049 A 
ATOM     51  H   UNL A   1      40.445  30.491  32.516  1.00  0.00     0.167 HD
ATOM     52  C   UNL A   1      43.623  29.358  35.243  1.00  0.00     0.037 A 
ATOM     53  C   UNL A   1      38.261  32.039  31.691  1.00  0.00     0.037 A 
ATOM     54  C   UNL A   1      42.970  30.485  35.869  1.00  0.00     0.049 A 
ATOM     55  C   UNL A   1      38.644  32.575  33.038  1.00  0.00     0.074 A 
ATOM     56  C   UNL A   1      43.286  31.104  37.070  1.00  0.00     0.029 A 
ATOM     57  N   UNL A   1      41.864  31.155  35.364  1.00  0.00    -0.354 N 
ATOM     58  N   UNL A   1      39.626  32.202  33.823  1.00  0.00    -0.248 NA
ATOM     59  C   UNL A   1      37.831  33.677  33.570  1.00  0.00     0.031 C 
ATOM     60  C   UNL A   1      42.345  32.111  37.312  1.00  0.00     0.029 A 
ATOM     61  C   UNL A   1      41.472  32.160  36.239  1.00  0.00     0.049 A 
ATOM     62  H   UNL A   1      41.423  30.948  34.509  1.00  0.00     0.167 HD
ATOM     63  C   UNL A   1      39.563  33.040  34.931  1.00  0.00     0.074 A 
ATOM     64  C   UNL A   1      38.453  33.945  34.710  1.00  0.00     0.031 C 
ATOM     65  C   UNL A   1      40.361  33.056  36.027  1.00  0.00     0.037 A 
BRANCH  52  66
ATOM     66  C   UNL A   1      44.783  28.732  35.974  1.00  0.00     0.058 A 
ATOM     67  C   UNL A   1      44.591  27.658  36.858  1.00  0.00     0.135 A 
ATOM     68  C   UNL A   1      46.103  29.142  35.724  1.00  0.00     0.135 A 
ATOM     69  F   UNL A   1      43.352  27.223  37.134  1.00  0.00    -0.206 F 
ATOM     70  C   UNL A   1      45.664  27.028  37.483  1.00  0.00     0.059 A 
ATOM     71  C   UNL A   1      47.192  28.510  36.319  1.00  0.00     0.059 A 
ATOM     72  F   UNL A   1      46.346  30.157  34.879  1.00  0.00    -0.206 F 
ATOM     73  C   UNL A   1      46.962  27.461  37.207  1.00  0.00     0.060 A 
BRANCH  73  74
ATOM     74  S   UNL A   1      48.340  26.622  38.019  1.00  0.00     0.124 S 
ATOM     75  O   UNL A   1      47.662  25.952  39.124  1.00  0.00    -0.237 OA
ATOM     76  O   UNL A   1      48.841  25.750  36.961  1.00  0.00    -0.237 OA
ATOM     77  O   UNL A   1      49.229  27.715  38.401  1.00  0.00    -0.744 OA
ENDBRANCH  73  74
ENDBRANCH  52  66
BRANCH  53  78
ATOM     78  C   UNL A   1      37.142  32.634  30.916  1.00  0.00     0.058 A 
ATOM     79  C   UNL A   1      35.847  32.108  31.014  1.00  0.00     0.135 A 
ATOM     80  C   UNL A   1      37.333  33.771  30.117  1.00  0.00     0.135 A 
ATOM     81  F   UNL A   1      35.621  31.018  31.765  1.00  0.00    -0.206 F 
ATOM     82  C   UNL A   1      34.776  32.688  30.347  1.00  0.00     0.059 A 
ATOM     83  C   UNL A   1      36.273  34.385  29.459  1.00  0.00     0.059 A 
ATOM     84  F   UNL A   1      38.553  34.321  30.009  1.00  0.00    -0.206 F 
ATOM     85  C   UNL A   1      34.998  33.832  29.579  1.00  0.00     0.060 A 
BRANCH  85  86
ATOM     86  S   UNL A   1      33.583  34.622  28.783  1.00  0.00     0.124 S 
ATOM     87  O   UNL A   1      32.754  34.967  29.933  1.00  0.00    -0.237 OA
ATOM     88  O   UNL A   1      34.209  35.742  28.089  1.00  0.00    -0.237 OA
ATOM     89  O   UNL A   1      33.055  33.573  27.917  1.00  0.00    -0.744 OA
ENDBRANCH  85  86
ENDBRANCH  53  78
BRANCH  65  90
ATOM     90  C   UNL A   1      40.077  34.097  37.077  1.00  0.00     0.058 A 
ATOM     91  C   UNL A   1      40.577  35.405  36.974  1.00  0.00     0.135 A 
ATOM     92  C   UNL A   1      39.259  33.797  38.179  1.00  0.00     0.135 A 
ATOM     93  F   UNL A   1      41.372  35.745  35.947  1.00  0.00    -0.206 F 
ATOM     94  C   UNL A   1      40.292  36.372  37.935  1.00  0.00     0.059 A 
ATOM     95  C   UNL A   1      38.940  34.755  39.138  1.00  0.00     0.059 A 
ATOM     96  F   UNL A   1      38.750  32.563  38.326  1.00  0.00    -0.206 F 
ATOM     97  C   UNL A   1      39.469  36.038  39.012  1.00  0.00     0.060 A 
BRANCH  97  98
ATOM     98  S   UNL A   1      39.082  37.313  40.231  1.00  0.00     0.124 S 
ATOM     99  O   UNL A   1      38.278  38.242  39.443  1.00  0.00    -0.237 OA
ATOM    100  O   UNL A   1      38.359  36.559  41.251  1.00  0.00    -0.237 OA
ATOM    101  O   UNL A   1      40.394  37.807  40.637  1.00  0.00    -0.744 OA
ENDBRANCH  97  98
ENDBRANCH  65  90
ENDBRANCH  39  40
ENDBRANCH  32  34
ENDBRANCH  31  32
ENDBRANCH  30  31
ENDBRANCH  29  30
ENDBRANCH  28  29
ENDBRANCH   1  28
TORSDOF 22
ENDMDL
MODEL 2
REMARK VINA RESULT:     -10.5      1.892      3.092
REMARK SMILES Nc1nc2ccccc2nc1N1CCC(C(=O)OCCOCCOCCOC(=O)c2ccc(-c3c4nc(c(-c5c(F)cc(S(=O)(=O)[O-])cc5F)c5ccc([nH]5)c(-c5c(F)cc(S(=O)(=O)[O-])cc5F)c5nc(c(-c6c(F)cc(S(=O)(=O)[O-])cc6F)c6ccc3[nH]6)C=C5)C=C4)cc2)CC1
REMARK SMILES IDX 23 1 22 2 21 3 20 4 19 5 18 6 16 7 17 8 15 9 12 10 13 11
REMARK SMILES IDX 97 12 14 13 96 14 11 15 2 16 3 17 4 18 10 19 5 20 9 21 6 22
REMARK SMILES IDX 8 23 7 24 1 25 24 28 25 29 26 30 27 31 28 32 29 33 30 34
REMARK SMILES IDX 31 35 95 36 32 37 94 38 33 39 34 40 35 41 88 42 36 43 93 44
REMARK SMILES IDX 87 45 89 46 37 47 92 48 86 49 85 50 38 52 72 53 51 54 71 55
REMARK SMILES IDX 52 56 55 57 70 58 90 59 53 60 54 61 69 63 91 64 56 65 39 66
REMARK SMILES IDX 40 67 49 68 41 69 42 70 48 71 50 72 43 73 44 74 45 75 46 76
REMARK SMILES IDX 47 77 73 78 74 79 83 80 75 81 76 82 82 83 84 84 77 85 78 86
REMARK SMILES IDX 79 87 80 88 81 89 57 90 58 91 67 92 59 93 60 94 66 95 68 96
REMARK SMILES IDX 61 97 62 98 63 99 64 100 65 101
REMARK H PARENT 1 26 1 27 89 51 55 62
REMARK Flexibility Score: inf
ROOT
ATOM      1  C   UNL A   1      39.024  21.610  25.773  1.00  0.00     0.188 C 
ENDROOT
BRANCH   1   2
ATOM      2  C   UNL A   1      37.766  21.049  25.113  1.00  0.00     0.188 C 
BRANCH   2   3
ATOM      3  O   UNL A   1      36.993  21.969  24.353  1.00  0.00    -0.376 OA
BRANCH   3   4
ATOM      4  C   UNL A   1      35.821  22.488  24.974  1.00  0.00     0.202 C 
BRANCH   4   5
ATOM      5  C   UNL A   1      35.586  24.000  24.847  1.00  0.00     0.261 C 
BRANCH   5   6
ATOM      6  O   UNL A   1      34.287  24.360  24.335  1.00  0.00    -0.463 OA
BRANCH   6   7
ATOM      7  C   UNL A   1      33.359  24.677  25.278  1.00  0.00     0.309 C 
ATOM      8  O   UNL A   1      32.582  23.873  25.784  1.00  0.00    -0.252 OA
BRANCH   7   9
ATOM      9  C   UNL A   1      33.397  26.129  25.725  1.00  0.00     0.103 C 
ATOM     10  N   UNL A   1      32.451  28.844  25.897  1.00  0.00    -0.353 N 
ATOM     11  C   UNL A   1      33.730  28.590  25.243  1.00  0.00     0.119 C 
ATOM     12  C   UNL A   1      31.996  27.870  26.886  1.00  0.00     0.119 C 
ATOM     13  C   UNL A   1      33.816  27.169  24.678  1.00  0.00     0.037 C 
ATOM     14  C   UNL A   1      32.013  26.474  26.281  1.00  0.00     0.037 C 
BRANCH  10  15
ATOM     15  C   UNL A   1      31.470  29.573  25.226  1.00  0.00     0.172 A 
ATOM     16  C   UNL A   1      31.124  30.892  25.639  1.00  0.00     0.167 A 
ATOM     17  N   UNL A   1      30.158  31.615  25.039  1.00  0.00    -0.226 NA
ATOM     18  C   UNL A   1      29.548  31.039  23.995  1.00  0.00     0.091 A 
ATOM     19  N   UNL A   1      30.866  29.022  24.148  1.00  0.00    -0.225 NA
ATOM     20  C   UNL A   1      28.542  31.739  23.339  1.00  0.00     0.031 A 
ATOM     21  C   UNL A   1      29.901  29.744  23.544  1.00  0.00     0.091 A 
ATOM     22  C   UNL A   1      27.869  31.192  22.247  1.00  0.00     0.002 A 
ATOM     23  C   UNL A   1      29.224  29.211  22.453  1.00  0.00     0.031 A 
ATOM     24  C   UNL A   1      28.211  29.921  21.803  1.00  0.00     0.002 A 
BRANCH  16  25
ATOM     25  N   UNL A   1      31.759  31.522  26.706  1.00  0.00    -0.381 N 
ATOM     26  H   UNL A   1      32.004  31.006  27.507  1.00  0.00     0.158 HD
ATOM     27  H   UNL A   1      31.962  32.484  26.658  1.00  0.00     0.158 HD
ENDBRANCH  16  25
ENDBRANCH  10  15
ENDBRANCH   7   9
ENDBRANCH   6   7
ENDBRANCH   5   6
ENDBRANCH   4   5
ENDBRANCH   3   4
ENDBRANCH   2   3
ENDBRANCH   1   2
BRANCH   1  28
ATOM     28  O   UNL A   1      39.915  20.659  26.344  1.00  0.00    -0.376 OA
BRANCH  28  29
ATOM     29  C   UNL A   1      41.221  21.156  26.660  1.00  0.00     0.202 C 
BRANCH  29  30
ATOM     30  C   UNL A   1      41.287  22.410  27.559  1.00  0.00     0.261 C 
BRANCH  30  31
ATOM     31  O   UNL A   1      42.452  23.245  27.385  1.00  0.00    -0.460 OA
BRANCH  31  32
ATOM     32  C   UNL A   1      42.301  24.433  26.752  1.00  0.00     0.338 C 
ATOM     33  O   UNL A   1      42.206  24.598  25.547  1.00  0.00    -0.246 OA
BRANCH  32  34
ATOM     34  C   UNL A   1      41.968  25.469  27.777  1.00  0.00     0.060 A 
ATOM     35  C   UNL A   1      40.706  25.543  28.376  1.00  0.00     0.016 A 
ATOM     36  C   UNL A   1      42.924  26.458  28.057  1.00  0.00     0.016 A 
ATOM     37  C   UNL A   1      40.416  26.578  29.275  1.00  0.00     0.010 A 
ATOM     38  C   UNL A   1      42.630  27.496  28.950  1.00  0.00     0.010 A 
ATOM     39  C   UNL A   1      41.383  27.550  29.590  1.00  0.00    -0.014 A 
BRANCH  39  40
ATOM     40  C   UNL A   1      41.177  28.458  30.749  1.00  0.00     0.031 A 
ATOM     41  C   UNL A   1      42.002  28.400  32.002  1.00  0.00     0.074 A 
ATOM     42  C   UNL A   1      40.174  29.354  30.654  1.00  0.00     0.049 A 
ATOM     43  N   UNL A   1      41.950  29.184  33.051  1.00  0.00    -0.248 NA
ATOM     44  C   UNL A   1      43.000  27.329  32.099  1.00  0.00     0.031 C 
ATOM     45  C   UNL A   1      39.279  29.485  29.503  1.00  0.00     0.029 A 
ATOM     46  N   UNL A   1      39.741  30.319  31.528  1.00  0.00    -0.354 N 
ATOM     47  C   UNL A   1      42.926  28.723  33.927  1.00  0.00     0.074 A 
ATOM     48  C   UNL A   1      43.522  27.557  33.302  1.00  0.00     0.031 C 
ATOM     49  C   UNL A   1      38.419  30.488  29.729  1.00  0.00     0.029 A 
ATOM     50  C   UNL A   1      38.686  31.057  31.047  1.00  0.00     0.049 A 
ATOM     51  H   UNL A   1      40.147  30.469  32.412  1.00  0.00     0.167 HD
ATOM     52  C   UNL A   1      43.297  29.236  35.128  1.00  0.00     0.037 A 
ATOM     53  C   UNL A   1      38.009  32.084  31.594  1.00  0.00     0.037 A 
ATOM     54  C   UNL A   1      42.682  30.383  35.757  1.00  0.00     0.049 A 
ATOM     55  C   UNL A   1      38.414  32.608  32.941  1.00  0.00     0.074 A 
ATOM     56  C   UNL A   1      43.021  30.992  36.956  1.00  0.00     0.029 A 
ATOM     57  N   UNL A   1      41.596  31.087  35.255  1.00  0.00    -0.354 N 
ATOM     58  N   UNL A   1      39.386  32.205  33.722  1.00  0.00    -0.248 NA
ATOM     59  C   UNL A   1      37.637  33.735  33.475  1.00  0.00     0.031 C 
ATOM     60  C   UNL A   1      42.113  32.028  37.202  1.00  0.00     0.029 A 
ATOM     61  C   UNL A   1      41.238  32.104  36.132  1.00  0.00     0.049 A 
ATOM     62  H   UNL A   1      41.145  30.894  34.402  1.00  0.00     0.167 HD
ATOM     63  C   UNL A   1      39.354  33.043  34.830  1.00  0.00     0.074 A 
ATOM     64  C   UNL A   1      38.272  33.983  34.613  1.00  0.00     0.031 C 
ATOM     65  C   UNL A   1      40.155  33.035  35.924  1.00  0.00     0.037 A 
BRANCH  52  66
ATOM     66  C   UNL A   1      44.439  28.574  35.855  1.00  0.00     0.058 A 
ATOM     67  C   UNL A   1      44.214  27.527  36.763  1.00  0.00     0.135 A 
ATOM     68  C   UNL A   1      45.773  28.920  35.577  1.00  0.00     0.135 A 
ATOM     69  F   UNL A   1      42.961  27.153  37.067  1.00  0.00    -0.206 F 
ATOM     70  C   UNL A   1      45.267  26.863  37.386  1.00  0.00     0.059 A 
ATOM     71  C   UNL A   1      46.842  28.252  36.170  1.00  0.00     0.059 A 
ATOM     72  F   UNL A   1      46.047  29.905  34.708  1.00  0.00    -0.206 F 
ATOM     73  C   UNL A   1      46.579  27.232  37.082  1.00  0.00     0.060 A 
BRANCH  73  74
ATOM     74  S   UNL A   1      47.930  26.349  37.892  1.00  0.00     0.124 S 
ATOM     75  O   UNL A   1      48.949  27.390  37.977  1.00  0.00    -0.237 OA
ATOM     76  O   UNL A   1      47.326  25.948  39.158  1.00  0.00    -0.237 OA
ATOM     77  O   UNL A   1      48.227  25.258  36.968  1.00  0.00    -0.744 OA
ENDBRANCH  73  74
ENDBRANCH  52  66
BRANCH  53  78
ATOM     78  C   UNL A   1      36.907  32.714  30.823  1.00  0.00     0.058 A 
ATOM     79  C   UNL A   1      35.576  32.339  31.046  1.00  0.00     0.135 A 
ATOM     80  C   UNL A   1      37.157  33.741  29.901  1.00  0.00     0.135 A 
ATOM     81  F   UNL A   1      35.292  31.359  31.918  1.00  0.00    -0.206 F 
ATOM     82  C   UNL A   1      34.526  32.960  30.381  1.00  0.00     0.059 A 
ATOM     83  C   UNL A   1      36.123  34.395  29.240  1.00  0.00     0.059 A 
ATOM     84  F   UNL A   1      38.416  34.146  29.670  1.00  0.00    -0.206 F 
ATOM     85  C   UNL A   1      34.810  33.993  29.486  1.00  0.00     0.060 A 
BRANCH  85  86
ATOM     86  S   UNL A   1      33.432  34.845  28.691  1.00  0.00     0.124 S 
ATOM     87  O   UNL A   1      34.086  36.041  28.170  1.00  0.00    -0.237 OA
ATOM     88  O   UNL A   1      33.003  33.868  27.696  1.00  0.00    -0.237 OA
ATOM     89  O   UNL A   1      32.494  35.065  29.786  1.00  0.00    -0.744 OA
ENDBRANCH  85  86
ENDBRANCH  53  78
BRANCH  65  90
ATOM     90  C   UNL A   1      39.908  34.084  36.975  1.00  0.00     0.058 A 
ATOM     91  C   UNL A   1      39.111  33.826  38.102  1.00  0.00     0.135 A 
ATOM     92  C   UNL A   1      40.510  35.350  36.877  1.00  0.00     0.135 A 
ATOM     93  F   UNL A   1      38.503  32.638  38.242  1.00  0.00    -0.206 F 
ATOM     94  C   UNL A   1      38.905  34.791  39.084  1.00  0.00     0.059 A 
ATOM     95  C   UNL A   1      40.339  36.321  37.860  1.00  0.00     0.059 A 
ATOM     96  F   UNL A   1      41.286  35.649  35.823  1.00  0.00    -0.206 F 
ATOM     97  C   UNL A   1      39.527  36.035  38.956  1.00  0.00     0.060 A 
BRANCH  97  98
ATOM     98  S   UNL A   1      39.276  37.264  40.256  1.00  0.00     0.124 S 
ATOM     99  O   UNL A   1      40.651  37.617  40.599  1.00  0.00    -0.237 OA
ATOM    100  O   UNL A   1      38.512  38.297  39.564  1.00  0.00    -0.237 OA
ATOM    101  O   UNL A   1      38.542  36.531  41.283  1.00  0.00    -0.744 OA
ENDBRANCH  97  98
ENDBRANCH  65  90
ENDBRANCH  39  40
ENDBRANCH  32  34
ENDBRANCH  31  32
ENDBRANCH  30  31
ENDBRANCH  29  30
ENDBRANCH  28  29
ENDBRANCH   1  28
TORSDOF 22
ENDMDL
MODEL 3
REMARK VINA RESULT:     -10.4      1.911      8.663
REMARK SMILES Nc1nc2ccccc2nc1N1CCC(C(=O)OCCOCCOCCOC(=O)c2ccc(-c3c4nc(c(-c5c(F)cc(S(=O)(=O)[O-])cc5F)c5ccc([nH]5)c(-c5c(F)cc(S(=O)(=O)[O-])cc5F)c5nc(c(-c6c(F)cc(S(=O)(=O)[O-])cc6F)c6ccc3[nH]6)C=C5)C=C4)cc2)CC1
REMARK SMILES IDX 23 1 22 2 21 3 20 4 19 5 18 6 16 7 17 8 15 9 12 10 13 11
REMARK SMILES IDX 97 12 14 13 96 14 11 15 2 16 3 17 4 18 10 19 5 20 9 21 6 22
REMARK SMILES IDX 8 23 7 24 1 25 24 28 25 29 26 30 27 31 28 32 29 33 30 34
REMARK SMILES IDX 31 35 95 36 32 37 94 38 33 39 34 40 35 41 88 42 36 43 93 44
REMARK SMILES IDX 87 45 89 46 37 47 92 48 86 49 85 50 38 52 72 53 51 54 71 55
REMARK SMILES IDX 52 56 55 57 70 58 90 59 53 60 54 61 69 63 91 64 56 65 39 66
REMARK SMILES IDX 40 67 49 68 41 69 42 70 48 71 50 72 43 73 44 74 45 75 46 76
REMARK SMILES IDX 47 77 73 78 74 79 83 80 75 81 76 82 82 83 84 84 77 85 78 86
REMARK SMILES IDX 79 87 80 88 81 89 57 90 58 91 67 92 59 93 60 94 66 95 68 96
REMARK SMILES IDX 61 97 62 98 63 99 64 100 65 101
REMARK H PARENT 1 26 1 27 89 51 55 62
REMARK Flexibility Score: inf
ROOT
ATOM      1  C   UNL A   1      44.230  21.509  25.383  1.00  0.00     0.188 C 
ENDROOT
BRANCH   1   2
ATOM      2  C   UNL A   1      43.047  21.453  26.347  1.00  0.00     0.188 C 
BRANCH   2   3
ATOM      3  O   UNL A   1      42.141  20.372  26.165  1.00  0.00    -0.376 OA
BRANCH   3   4
ATOM      4  C   UNL A   1      40.836  20.529  26.715  1.00  0.00     0.202 C 
BRANCH   4   5
ATOM      5  C   UNL A   1      40.282  21.959  26.774  1.00  0.00     0.261 C 
BRANCH   5   6
ATOM      6  O   UNL A   1      39.185  22.211  25.872  1.00  0.00    -0.463 OA
BRANCH   6   7
ATOM      7  C   UNL A   1      38.487  23.353  26.112  1.00  0.00     0.309 C 
ATOM      8  O   UNL A   1      38.932  24.323  26.719  1.00  0.00    -0.252 OA
BRANCH   7   9
ATOM      9  C   UNL A   1      37.097  23.373  25.500  1.00  0.00     0.103 C 
ATOM     10  N   UNL A   1      34.531  22.274  24.786  1.00  0.00    -0.353 N 
ATOM     11  C   UNL A   1      35.447  22.661  23.718  1.00  0.00     0.119 C 
ATOM     12  C   UNL A   1      34.684  22.939  26.077  1.00  0.00     0.119 C 
ATOM     13  C   UNL A   1      36.910  22.626  24.173  1.00  0.00     0.037 C 
ATOM     14  C   UNL A   1      36.125  22.825  26.550  1.00  0.00     0.037 C 
BRANCH  10  15
ATOM     15  C   UNL A   1      33.991  20.988  24.793  1.00  0.00     0.172 A 
ATOM     16  C   UNL A   1      32.588  20.783  24.924  1.00  0.00     0.167 A 
ATOM     17  N   UNL A   1      32.032  19.557  24.971  1.00  0.00    -0.226 NA
ATOM     18  C   UNL A   1      32.871  18.518  24.854  1.00  0.00     0.091 A 
ATOM     19  N   UNL A   1      34.820  19.929  24.643  1.00  0.00    -0.225 NA
ATOM     20  C   UNL A   1      32.351  17.231  24.898  1.00  0.00     0.031 A 
ATOM     21  C   UNL A   1      34.264  18.701  24.687  1.00  0.00     0.091 A 
ATOM     22  C   UNL A   1      33.175  16.111  24.784  1.00  0.00     0.002 A 
ATOM     23  C   UNL A   1      35.074  17.576  24.573  1.00  0.00     0.031 A 
ATOM     24  C   UNL A   1      34.543  16.285  24.622  1.00  0.00     0.002 A 
BRANCH  16  25
ATOM     25  N   UNL A   1      31.692  21.843  25.023  1.00  0.00    -0.381 N 
ATOM     26  H   UNL A   1      31.986  22.758  24.809  1.00  0.00     0.158 HD
ATOM     27  H   UNL A   1      30.764  21.678  25.307  1.00  0.00     0.158 HD
ENDBRANCH  16  25
ENDBRANCH  10  15
ENDBRANCH   7   9
ENDBRANCH   6   7
ENDBRANCH   5   6
ENDBRANCH   4   5
ENDBRANCH   3   4
ENDBRANCH   2   3
ENDBRANCH   1   2
BRANCH   1  28
ATOM     28  O   UNL A   1      45.486  21.871  25.946  1.00  0.00    -0.376 OA
BRANCH  28  29
ATOM     29  C   UNL A   1      45.843  23.252  25.810  1.00  0.00     0.202 C 
BRANCH  29  30
ATOM     30  C   UNL A   1      45.121  24.249  26.742  1.00  0.00     0.261 C 
BRANCH  30  31
ATOM     31  O   UNL A   1      44.449  25.346  26.085  1.00  0.00    -0.460 OA
BRANCH  31  32
ATOM     32  C   UNL A   1      43.095  25.338  26.046  1.00  0.00     0.338 C 
ATOM     33  O   UNL A   1      42.400  24.570  25.400  1.00  0.00    -0.246 OA
BRANCH  32  34
ATOM     34  C   UNL A   1      42.590  26.215  27.144  1.00  0.00     0.060 A 
ATOM     35  C   UNL A   1      41.676  25.758  28.100  1.00  0.00     0.016 A 
ATOM     36  C   UNL A   1      42.967  27.567  27.142  1.00  0.00     0.016 A 
ATOM     37  C   UNL A   1      41.172  26.640  29.067  1.00  0.00     0.010 A 
ATOM     38  C   UNL A   1      42.457  28.448  28.104  1.00  0.00     0.010 A 
ATOM     39  C   UNL A   1      41.577  27.986  29.093  1.00  0.00    -0.014 A 
BRANCH  39  40
ATOM     40  C   UNL A   1      41.276  28.831  30.279  1.00  0.00     0.031 A 
ATOM     41  C   UNL A   1      40.163  29.838  30.316  1.00  0.00     0.074 A 
ATOM     42  C   UNL A   1      42.075  28.684  31.355  1.00  0.00     0.049 A 
ATOM     43  N   UNL A   1      39.771  30.585  31.319  1.00  0.00    -0.248 NA
ATOM     44  C   UNL A   1      39.401  30.042  29.079  1.00  0.00     0.031 C 
ATOM     45  C   UNL A   1      43.212  27.764  31.429  1.00  0.00     0.029 A 
ATOM     46  N   UNL A   1      42.056  29.293  32.584  1.00  0.00    -0.354 N 
ATOM     47  C   UNL A   1      38.698  31.333  30.849  1.00  0.00     0.074 A 
ATOM     48  C   UNL A   1      38.533  30.980  29.451  1.00  0.00     0.031 C 
ATOM     49  C   UNL A   1      43.767  27.851  32.645  1.00  0.00     0.029 A 
ATOM     50  C   UNL A   1      43.042  28.846  33.430  1.00  0.00     0.049 A 
ATOM     51  H   UNL A   1      41.401  29.984  32.834  1.00  0.00     0.167 HD
ATOM     52  C   UNL A   1      37.917  32.214  31.525  1.00  0.00     0.037 A 
ATOM     53  C   UNL A   1      43.331  29.186  34.701  1.00  0.00     0.037 A 
ATOM     54  C   UNL A   1      38.103  32.580  32.911  1.00  0.00     0.049 A 
ATOM     55  C   UNL A   1      42.477  30.192  35.415  1.00  0.00     0.074 A 
ATOM     56  C   UNL A   1      37.335  33.437  33.685  1.00  0.00     0.029 A 
ATOM     57  N   UNL A   1      39.130  32.130  33.729  1.00  0.00    -0.354 N 
ATOM     58  N   UNL A   1      41.422  30.835  34.975  1.00  0.00    -0.248 NA
ATOM     59  C   UNL A   1      42.844  30.511  36.800  1.00  0.00     0.031 C 
ATOM     60  C   UNL A   1      37.924  33.543  34.950  1.00  0.00     0.029 A 
ATOM     61  C   UNL A   1      39.030  32.712  34.987  1.00  0.00     0.049 A 
ATOM     62  H   UNL A   1      39.828  31.492  33.458  1.00  0.00     0.167 HD
ATOM     63  C   UNL A   1      40.985  31.616  36.038  1.00  0.00     0.074 A 
ATOM     64  C   UNL A   1      41.884  31.358  37.145  1.00  0.00     0.031 C 
ATOM     65  C   UNL A   1      39.929  32.465  36.089  1.00  0.00     0.037 A 
BRANCH  52  66
ATOM     66  C   UNL A   1      36.767  32.849  30.787  1.00  0.00     0.058 A 
ATOM     67  C   UNL A   1      35.442  32.450  31.023  1.00  0.00     0.135 A 
ATOM     68  C   UNL A   1      36.976  33.925  29.907  1.00  0.00     0.135 A 
ATOM     69  F   UNL A   1      35.181  31.429  31.854  1.00  0.00    -0.206 F 
ATOM     70  C   UNL A   1      34.368  33.079  30.398  1.00  0.00     0.059 A 
ATOM     71  C   UNL A   1      35.916  34.584  29.291  1.00  0.00     0.059 A 
ATOM     72  F   UNL A   1      38.222  34.355  29.653  1.00  0.00    -0.206 F 
ATOM     73  C   UNL A   1      34.615  34.147  29.534  1.00  0.00     0.060 A 
BRANCH  73  74
ATOM     74  S   UNL A   1      33.208  34.957  28.744  1.00  0.00     0.124 S 
ATOM     75  O   UNL A   1      32.746  33.916  27.832  1.00  0.00    -0.237 OA
ATOM     76  O   UNL A   1      32.334  35.240  29.877  1.00  0.00    -0.237 OA
ATOM     77  O   UNL A   1      33.802  36.129  28.106  1.00  0.00    -0.744 OA
ENDBRANCH  73  74
ENDBRANCH  52  66
BRANCH  53  78
ATOM     78  C   UNL A   1      44.462  28.512  35.388  1.00  0.00     0.058 A 
ATOM     79  C   UNL A   1      45.703  29.150  35.513  1.00  0.00     0.135 A 
ATOM     80  C   UNL A   1      44.306  27.252  35.984  1.00  0.00     0.135 A 
ATOM     81  F   UNL A   1      45.897  30.355  34.954  1.00  0.00    -0.206 F 
ATOM     82  C   UNL A   1      46.754  28.563  36.206  1.00  0.00     0.059 A 
ATOM     83  C   UNL A   1      45.334  26.654  36.704  1.00  0.00     0.059 A 
ATOM     84  F   UNL A   1      43.127  26.612  35.907  1.00  0.00    -0.206 F 
ATOM     85  C   UNL A   1      46.556  27.318  36.806  1.00  0.00     0.060 A 
BRANCH  85  86
ATOM     86  S   UNL A   1      47.904  26.605  37.772  1.00  0.00     0.124 S 
ATOM     87  O   UNL A   1      47.695  25.177  37.558  1.00  0.00    -0.237 OA
ATOM     88  O   UNL A   1      49.079  27.182  37.127  1.00  0.00    -0.237 OA
ATOM     89  O   UNL A   1      47.641  27.085  39.124  1.00  0.00    -0.744 OA
ENDBRANCH  85  86
ENDBRANCH  53  78
BRANCH  65  90
ATOM     90  C   UNL A   1      39.670  33.175  37.391  1.00  0.00     0.058 A 
ATOM     91  C   UNL A   1      40.361  34.345  37.744  1.00  0.00     0.135 A 
ATOM     92  C   UNL A   1      38.686  32.705  38.278  1.00  0.00     0.135 A 
ATOM     93  F   UNL A   1      41.317  34.833  36.939  1.00  0.00    -0.206 F 
ATOM     94  C   UNL A   1      40.101  35.013  38.938  1.00  0.00     0.059 A 
ATOM     95  C   UNL A   1      38.392  33.371  39.465  1.00  0.00     0.059 A 
ATOM     96  F   UNL A   1      37.992  31.593  37.989  1.00  0.00    -0.206 F 
ATOM     97  C   UNL A   1      39.111  34.520  39.790  1.00  0.00     0.060 A 
BRANCH  97  98
ATOM     98  S   UNL A   1      38.763  35.416  41.319  1.00  0.00     0.124 S 
ATOM     99  O   UNL A   1      39.747  34.841  42.230  1.00  0.00    -0.237 OA
ATOM    100  O   UNL A   1      38.997  36.802  40.927  1.00  0.00    -0.237 OA
ATOM    101  O   UNL A   1      37.372  35.077  41.605  1.00  0.00    -0.744 OA
ENDBRANCH  97  98
ENDBRANCH  65  90
ENDBRANCH  39  40
ENDBRANCH  32  34
ENDBRANCH  31  32
ENDBRANCH  30  31
ENDBRANCH  29  30
ENDBRANCH  28  29
ENDBRANCH   1  28
TORSDOF 22
ENDMDL
