MODEL 1
REMARK VINA RESULT:     -10.3      0.000      0.000
REMARK SMILES C[C@@H]1[NH2+]CC[C@@H]1C(=O)N1[C@@H](C(=O)OCCOCCOCCOC(=O)c2ccc(-c3c4nc(c(-c5c(F)cc(S(=O)(=O)[O-])cc5F)c5ccc([nH]5)c(-c5c(F)cc(S(=O)(=O)[O-])cc5F)c5nc(c(-c6c(F)cc(S(=O)(=O)[O-])cc6F)c6ccc3[nH]6)C=C5)C=C4)cc2)CC[C@H]2CCCC[C@H]21
REMARK SMILES IDX 18 1 17 2 16 3 15 4 14 5 13 6 11 7 12 8 10 9 9 10 98 11
REMARK SMILES IDX 91 12 93 13 97 14 92 15 94 16 96 17 95 18 7 19 8 20 6 21
REMARK SMILES IDX 1 22 2 23 3 24 4 25 5 28 19 29 20 30 21 31 22 32 23 33 24 34
REMARK SMILES IDX 25 35 26 36 90 37 27 38 89 39 28 40 29 41 30 42 83 43 31 44
REMARK SMILES IDX 88 45 82 46 84 47 32 48 87 49 81 50 80 51 33 53 67 54 46 55
REMARK SMILES IDX 66 56 47 57 50 58 65 59 85 60 48 61 49 62 64 64 86 65 51 66
REMARK SMILES IDX 34 67 35 68 44 69 36 70 37 71 43 72 45 73 38 74 39 75 40 76
REMARK SMILES IDX 41 77 42 78 68 79 69 80 78 81 70 82 71 83 77 84 79 85 72 86
REMARK SMILES IDX 73 87 74 88 75 89 76 90 52 91 53 92 62 93 54 94 55 95 61 96
REMARK SMILES IDX 63 97 56 98 57 99 58 100 59 101 60 102
REMARK H PARENT 3 26 3 27 84 52 50 63
REMARK Flexibility Score: inf
ROOT
ATOM      1  C   UNL A   1      34.743  31.527  28.072  1.00  0.00     0.188 C 
ENDROOT
BRANCH   1   2
ATOM      2  C   UNL A   1      34.324  30.465  27.053  1.00  0.00     0.188 C 
BRANCH   2   3
ATOM      3  O   UNL A   1      33.813  29.304  27.671  1.00  0.00    -0.376 OA
BRANCH   3   4
ATOM      4  C   UNL A   1      32.531  28.879  27.250  1.00  0.00     0.202 C 
BRANCH   4   5
ATOM      5  C   UNL A   1      32.254  27.425  26.799  1.00  0.00     0.261 C 
BRANCH   5   6
ATOM      6  O   UNL A   1      33.332  26.545  26.434  1.00  0.00    -0.462 OA
BRANCH   6   7
ATOM      7  C   UNL A   1      33.647  26.545  25.119  1.00  0.00     0.328 C 
ATOM      8  O   UNL A   1      33.429  27.516  24.400  1.00  0.00    -0.250 OA
BRANCH   7   9
ATOM      9  C   UNL A   1      34.295  25.244  24.568  1.00  0.00     0.195 C 
ATOM     10  N   UNL A   1      33.348  24.378  23.836  1.00  0.00    -0.325 N 
ATOM     11  C   UNL A   1      33.905  23.207  23.119  1.00  0.00     0.089 C 
ATOM     12  C   UNL A   1      35.261  24.452  25.441  1.00  0.00     0.037 C 
ATOM     13  C   UNL A   1      35.062  22.492  23.886  1.00  0.00     0.012 C 
ATOM     14  C   UNL A   1      32.912  22.126  22.680  1.00  0.00     0.025 C 
ATOM     15  C   UNL A   1      36.028  23.481  24.539  1.00  0.00     0.008 C 
ATOM     16  C   UNL A   1      34.621  21.424  24.911  1.00  0.00     0.006 C 
ATOM     17  C   UNL A   1      32.305  21.312  23.822  1.00  0.00     0.002 C 
ATOM     18  C   UNL A   1      33.122  21.285  25.106  1.00  0.00     0.000 C 
BRANCH  10  19
ATOM     19  C   UNL A   1      32.017  24.567  24.139  1.00  0.00     0.232 C 
ATOM     20  O   UNL A   1      31.661  24.508  25.320  1.00  0.00    -0.274 OA
BRANCH  19  21
ATOM     21  C   UNL A   1      31.040  24.952  23.001  1.00  0.00     0.142 C 
ATOM     22  C   UNL A   1      32.731  26.092  21.275  1.00  0.00     0.076 C 
ATOM     23  C   UNL A   1      31.392  26.081  22.009  1.00  0.00     0.192 C 
ATOM     24  N   UNL A   1      31.083  27.359  22.689  1.00  0.00    -0.343 N 
ATOM     25  C   UNL A   1      30.227  27.040  23.836  1.00  0.00     0.261 C 
ATOM     26  H   UNL A   1      30.595  27.986  22.051  1.00  0.00     0.346 HD
ATOM     27  H   UNL A   1      31.938  27.825  22.994  1.00  0.00     0.346 HD
ATOM     28  C   UNL A   1      29.796  25.595  23.637  1.00  0.00     0.081 C 
ENDBRANCH  19  21
ENDBRANCH  10  19
ENDBRANCH   7   9
ENDBRANCH   6   7
ENDBRANCH   5   6
ENDBRANCH   4   5
ENDBRANCH   3   4
ENDBRANCH   2   3
ENDBRANCH   1   2
BRANCH   1  29
ATOM     29  O   UNL A   1      35.371  32.731  27.667  1.00  0.00    -0.376 OA
BRANCH  29  30
ATOM     30  C   UNL A   1      35.926  33.591  28.653  1.00  0.00     0.202 C 
BRANCH  30  31
ATOM     31  C   UNL A   1      35.968  33.174  30.141  1.00  0.00     0.261 C 
BRANCH  31  32
ATOM     32  O   UNL A   1      37.224  32.705  30.660  1.00  0.00    -0.460 OA
BRANCH  32  33
ATOM     33  C   UNL A   1      37.250  31.406  31.055  1.00  0.00     0.338 C 
ATOM     34  O   UNL A   1      36.353  30.797  31.619  1.00  0.00    -0.246 OA
BRANCH  33  35
ATOM     35  C   UNL A   1      38.438  30.745  30.453  1.00  0.00     0.060 A 
ATOM     36  C   UNL A   1      39.488  30.358  31.310  1.00  0.00     0.016 A 
ATOM     37  C   UNL A   1      38.511  30.463  29.090  1.00  0.00     0.016 A 
ATOM     38  C   UNL A   1      40.613  29.709  30.809  1.00  0.00     0.010 A 
ATOM     39  C   UNL A   1      39.670  29.870  28.577  1.00  0.00     0.010 A 
ATOM     40  C   UNL A   1      40.739  29.526  29.430  1.00  0.00    -0.014 A 
BRANCH  40  41
ATOM     41  C   UNL A   1      42.087  29.280  28.861  1.00  0.00     0.031 A 
ATOM     42  C   UNL A   1      42.375  27.888  28.364  1.00  0.00     0.074 A 
ATOM     43  C   UNL A   1      43.015  30.247  28.756  1.00  0.00     0.049 A 
ATOM     44  N   UNL A   1      43.491  27.377  27.917  1.00  0.00    -0.248 NA
ATOM     45  C   UNL A   1      41.244  26.943  28.379  1.00  0.00     0.031 C 
ATOM     46  C   UNL A   1      42.833  31.646  29.131  1.00  0.00     0.029 A 
ATOM     47  N   UNL A   1      44.312  30.183  28.310  1.00  0.00    -0.354 N 
ATOM     48  C   UNL A   1      43.202  26.049  27.619  1.00  0.00     0.074 A 
ATOM     49  C   UNL A   1      41.814  25.827  27.954  1.00  0.00     0.031 C 
ATOM     50  C   UNL A   1      43.988  32.306  28.925  1.00  0.00     0.029 A 
ATOM     51  C   UNL A   1      44.999  31.366  28.440  1.00  0.00     0.049 A 
ATOM     52  H   UNL A   1      44.713  29.366  27.933  1.00  0.00     0.167 HD
ATOM     53  C   UNL A   1      44.020  25.100  27.109  1.00  0.00     0.037 A 
ATOM     54  C   UNL A   1      46.303  31.643  28.224  1.00  0.00     0.037 A 
ATOM     55  C   UNL A   1      45.401  25.328  26.782  1.00  0.00     0.049 A 
ATOM     56  C   UNL A   1      47.219  30.548  27.733  1.00  0.00     0.074 A 
ATOM     57  C   UNL A   1      46.318  24.434  26.258  1.00  0.00     0.029 A 
ATOM     58  N   UNL A   1      46.067  26.533  26.952  1.00  0.00    -0.354 N 
ATOM     59  N   UNL A   1      46.939  29.295  27.456  1.00  0.00    -0.248 NA
ATOM     60  C   UNL A   1      48.631  30.904  27.525  1.00  0.00     0.031 C 
ATOM     61  C   UNL A   1      47.552  25.083  26.164  1.00  0.00     0.029 A 
ATOM     62  C   UNL A   1      47.389  26.400  26.565  1.00  0.00     0.049 A 
ATOM     63  H   UNL A   1      45.659  27.360  27.297  1.00  0.00     0.167 HD
ATOM     64  C   UNL A   1      48.128  28.727  27.005  1.00  0.00     0.074 A 
ATOM     65  C   UNL A   1      49.128  29.773  27.043  1.00  0.00     0.031 C 
ATOM     66  C   UNL A   1      48.369  27.457  26.591  1.00  0.00     0.037 A 
BRANCH  53  67
ATOM     67  C   UNL A   1      43.450  23.722  26.919  1.00  0.00     0.058 A 
ATOM     68  C   UNL A   1      43.041  23.255  25.660  1.00  0.00     0.135 A 
ATOM     69  C   UNL A   1      43.331  22.849  28.012  1.00  0.00     0.135 A 
ATOM     70  F   UNL A   1      43.107  24.055  24.585  1.00  0.00    -0.206 F 
ATOM     71  C   UNL A   1      42.511  21.978  25.496  1.00  0.00     0.059 A 
ATOM     72  C   UNL A   1      42.833  21.558  27.866  1.00  0.00     0.059 A 
ATOM     73  F   UNL A   1      43.698  23.248  29.240  1.00  0.00    -0.206 F 
ATOM     74  C   UNL A   1      42.413  21.137  26.606  1.00  0.00     0.060 A 
BRANCH  74  75
ATOM     75  S   UNL A   1      41.735  19.480  26.374  1.00  0.00     0.124 S 
ATOM     76  O   UNL A   1      40.319  19.771  26.174  1.00  0.00    -0.237 OA
ATOM     77  O   UNL A   1      42.457  19.011  25.197  1.00  0.00    -0.237 OA
ATOM     78  O   UNL A   1      42.065  18.799  27.623  1.00  0.00    -0.744 OA
ENDBRANCH  74  75
ENDBRANCH  53  67
BRANCH  54  79
ATOM     79  C   UNL A   1      46.830  33.010  28.490  1.00  0.00     0.058 A 
ATOM     80  C   UNL A   1      46.860  33.985  27.481  1.00  0.00     0.135 A 
ATOM     81  C   UNL A   1      47.329  33.366  29.753  1.00  0.00     0.135 A 
ATOM     82  F   UNL A   1      46.411  33.692  26.251  1.00  0.00    -0.206 F 
ATOM     83  C   UNL A   1      47.377  35.257  27.709  1.00  0.00     0.059 A 
ATOM     84  C   UNL A   1      47.824  34.640  30.015  1.00  0.00     0.059 A 
ATOM     85  F   UNL A   1      47.320  32.473  30.755  1.00  0.00    -0.206 F 
ATOM     86  C   UNL A   1      47.853  35.576  28.982  1.00  0.00     0.060 A 
BRANCH  86  87
ATOM     87  S   UNL A   1      48.476  37.245  29.279  1.00  0.00     0.124 S 
ATOM     88  O   UNL A   1      49.403  37.022  30.383  1.00  0.00    -0.237 OA
ATOM     89  O   UNL A   1      49.083  37.576  27.993  1.00  0.00    -0.237 OA
ATOM     90  O   UNL A   1      47.272  38.001  29.609  1.00  0.00    -0.744 OA
ENDBRANCH  86  87
ENDBRANCH  54  79
BRANCH  66  91
ATOM     91  C   UNL A   1      49.751  27.133  26.086  1.00  0.00     0.058 A 
ATOM     92  C   UNL A   1      50.763  26.657  26.934  1.00  0.00     0.135 A 
ATOM     93  C   UNL A   1      50.043  27.243  24.716  1.00  0.00     0.135 A 
ATOM     94  F   UNL A   1      50.539  26.534  28.252  1.00  0.00    -0.206 F 
ATOM     95  C   UNL A   1      52.023  26.325  26.445  1.00  0.00     0.059 A 
ATOM     96  C   UNL A   1      51.286  26.887  24.201  1.00  0.00     0.059 A 
ATOM     97  F   UNL A   1      49.108  27.681  23.858  1.00  0.00    -0.206 F 
ATOM     98  C   UNL A   1      52.273  26.440  25.077  1.00  0.00     0.060 A 
BRANCH  98  99
ATOM     99  S   UNL A   1      53.903  25.977  24.452  1.00  0.00     0.124 S 
ATOM    100  O   UNL A   1      53.986  24.577  24.855  1.00  0.00    -0.237 OA
ATOM    101  O   UNL A   1      53.767  26.217  23.018  1.00  0.00    -0.237 OA
ATOM    102  O   UNL A   1      54.808  26.886  25.150  1.00  0.00    -0.744 OA
ENDBRANCH  98  99
ENDBRANCH  66  91
ENDBRANCH  40  41
ENDBRANCH  33  35
ENDBRANCH  32  33
ENDBRANCH  31  32
ENDBRANCH  30  31
ENDBRANCH  29  30
ENDBRANCH   1  29
TORSDOF 22
ENDMDL
MODEL 2
REMARK VINA RESULT:     -10.2      6.025     11.682
REMARK SMILES C[C@@H]1[NH2+]CC[C@@H]1C(=O)N1[C@@H](C(=O)OCCOCCOCCOC(=O)c2ccc(-c3c4nc(c(-c5c(F)cc(S(=O)(=O)[O-])cc5F)c5ccc([nH]5)c(-c5c(F)cc(S(=O)(=O)[O-])cc5F)c5nc(c(-c6c(F)cc(S(=O)(=O)[O-])cc6F)c6ccc3[nH]6)C=C5)C=C4)cc2)CC[C@H]2CCCC[C@H]21
REMARK SMILES IDX 18 1 17 2 16 3 15 4 14 5 13 6 11 7 12 8 10 9 9 10 98 11
REMARK SMILES IDX 91 12 93 13 97 14 92 15 94 16 96 17 95 18 7 19 8 20 6 21
REMARK SMILES IDX 1 22 2 23 3 24 4 25 5 28 19 29 20 30 21 31 22 32 23 33 24 34
REMARK SMILES IDX 25 35 26 36 90 37 27 38 89 39 28 40 29 41 30 42 83 43 31 44
REMARK SMILES IDX 88 45 82 46 84 47 32 48 87 49 81 50 80 51 33 53 67 54 46 55
REMARK SMILES IDX 66 56 47 57 50 58 65 59 85 60 48 61 49 62 64 64 86 65 51 66
REMARK SMILES IDX 34 67 35 68 44 69 36 70 37 71 43 72 45 73 38 74 39 75 40 76
REMARK SMILES IDX 41 77 42 78 68 79 69 80 78 81 70 82 71 83 77 84 79 85 72 86
REMARK SMILES IDX 73 87 74 88 75 89 76 90 52 91 53 92 62 93 54 94 55 95 61 96
REMARK SMILES IDX 63 97 56 98 57 99 58 100 59 101 60 102
REMARK H PARENT 3 26 3 27 84 52 50 63
REMARK Flexibility Score: inf
ROOT
ATOM      1  C   UNL A   1      39.990  21.847  26.814  1.00  0.00     0.188 C 
ENDROOT
BRANCH   1   2
ATOM      2  C   UNL A   1      38.760  22.454  26.137  1.00  0.00     0.188 C 
BRANCH   2   3
ATOM      3  O   UNL A   1      38.353  21.715  25.006  1.00  0.00    -0.376 OA
BRANCH   3   4
ATOM      4  C   UNL A   1      36.968  21.714  24.720  1.00  0.00     0.202 C 
BRANCH   4   5
ATOM      5  C   UNL A   1      36.325  22.746  23.761  1.00  0.00     0.261 C 
BRANCH   5   6
ATOM      6  O   UNL A   1      35.168  23.503  24.156  1.00  0.00    -0.462 OA
BRANCH   6   7
ATOM      7  C   UNL A   1      34.431  23.991  23.133  1.00  0.00     0.328 C 
ATOM      8  O   UNL A   1      34.213  23.335  22.118  1.00  0.00    -0.250 OA
BRANCH   7   9
ATOM      9  C   UNL A   1      33.880  25.434  23.311  1.00  0.00     0.195 C 
ATOM     10  N   UNL A   1      32.800  25.533  24.314  1.00  0.00    -0.325 N 
ATOM     11  C   UNL A   1      32.334  26.889  24.687  1.00  0.00     0.089 C 
ATOM     12  C   UNL A   1      33.623  26.303  22.084  1.00  0.00     0.037 C 
ATOM     13  C   UNL A   1      32.269  27.885  23.485  1.00  0.00     0.012 C 
ATOM     14  C   UNL A   1      30.997  26.984  25.429  1.00  0.00     0.025 C 
ATOM     15  C   UNL A   1      33.474  27.752  22.553  1.00  0.00     0.008 C 
ATOM     16  C   UNL A   1      30.960  27.857  22.668  1.00  0.00     0.006 C 
ATOM     17  C   UNL A   1      29.770  26.644  24.584  1.00  0.00     0.002 C 
ATOM     18  C   UNL A   1      29.952  26.799  23.081  1.00  0.00     0.000 C 
BRANCH  10  19
ATOM     19  C   UNL A   1      32.128  24.359  24.578  1.00  0.00     0.232 C 
ATOM     20  O   UNL A   1      31.321  23.934  23.745  1.00  0.00    -0.274 OA
BRANCH  19  21
ATOM     21  C   UNL A   1      32.489  23.565  25.858  1.00  0.00     0.142 C 
ATOM     22  C   UNL A   1      32.711  21.100  24.853  1.00  0.00     0.076 C 
ATOM     23  C   UNL A   1      32.221  22.048  25.945  1.00  0.00     0.192 C 
ATOM     24  N   UNL A   1      30.785  21.885  26.265  1.00  0.00    -0.343 N 
ATOM     25  C   UNL A   1      30.302  23.183  26.745  1.00  0.00     0.261 C 
ATOM     26  H   UNL A   1      30.665  21.177  26.989  1.00  0.00     0.346 HD
ATOM     27  H   UNL A   1      30.261  21.584  25.443  1.00  0.00     0.346 HD
ATOM     28  C   UNL A   1      31.547  24.023  26.985  1.00  0.00     0.081 C 
ENDBRANCH  19  21
ENDBRANCH  10  19
ENDBRANCH   7   9
ENDBRANCH   6   7
ENDBRANCH   5   6
ENDBRANCH   4   5
ENDBRANCH   3   4
ENDBRANCH   2   3
ENDBRANCH   1   2
BRANCH   1  29
ATOM     29  O   UNL A   1      41.037  21.263  26.056  1.00  0.00    -0.376 OA
BRANCH  29  30
ATOM     30  C   UNL A   1      42.378  21.661  26.303  1.00  0.00     0.202 C 
BRANCH  30  31
ATOM     31  C   UNL A   1      42.930  22.994  25.747  1.00  0.00     0.261 C 
BRANCH  31  32
ATOM     32  O   UNL A   1      42.154  24.180  25.984  1.00  0.00    -0.460 OA
BRANCH  32  33
ATOM     33  C   UNL A   1      42.849  25.346  26.002  1.00  0.00     0.338 C 
ATOM     34  O   UNL A   1      43.625  25.745  25.146  1.00  0.00    -0.246 OA
BRANCH  33  35
ATOM     35  C   UNL A   1      42.320  26.205  27.094  1.00  0.00     0.060 A 
ATOM     36  C   UNL A   1      42.866  27.495  27.248  1.00  0.00     0.016 A 
ATOM     37  C   UNL A   1      41.280  25.785  27.922  1.00  0.00     0.016 A 
ATOM     38  C   UNL A   1      42.391  28.355  28.234  1.00  0.00     0.010 A 
ATOM     39  C   UNL A   1      40.848  26.625  28.954  1.00  0.00     0.010 A 
ATOM     40  C   UNL A   1      41.429  27.897  29.136  1.00  0.00    -0.014 A 
BRANCH  40  41
ATOM     41  C   UNL A   1      41.267  28.604  30.430  1.00  0.00     0.031 A 
ATOM     42  C   UNL A   1      40.160  29.620  30.519  1.00  0.00     0.074 A 
ATOM     43  C   UNL A   1      42.041  28.344  31.498  1.00  0.00     0.049 A 
ATOM     44  N   UNL A   1      39.862  30.446  31.487  1.00  0.00    -0.248 NA
ATOM     45  C   UNL A   1      39.269  29.720  29.348  1.00  0.00     0.031 C 
ATOM     46  C   UNL A   1      43.093  27.333  31.562  1.00  0.00     0.029 A 
ATOM     47  N   UNL A   1      42.063  28.932  32.739  1.00  0.00    -0.354 N 
ATOM     48  C   UNL A   1      38.767  31.174  31.034  1.00  0.00     0.074 A 
ATOM     49  C   UNL A   1      38.465  30.710  29.699  1.00  0.00     0.031 C 
ATOM     50  C   UNL A   1      43.679  27.390  32.772  1.00  0.00     0.029 A 
ATOM     51  C   UNL A   1      43.067  28.467  33.553  1.00  0.00     0.049 A 
ATOM     52  H   UNL A   1      41.420  29.624  33.019  1.00  0.00     0.167 HD
ATOM     53  C   UNL A   1      38.073  32.143  31.674  1.00  0.00     0.037 A 
ATOM     54  C   UNL A   1      43.465  28.887  34.772  1.00  0.00     0.037 A 
ATOM     55  C   UNL A   1      38.381  32.602  33.001  1.00  0.00     0.049 A 
ATOM     56  C   UNL A   1      42.728  30.026  35.436  1.00  0.00     0.074 A 
ATOM     57  C   UNL A   1      37.739  33.577  33.743  1.00  0.00     0.029 A 
ATOM     58  N   UNL A   1      39.422  32.123  33.783  1.00  0.00    -0.354 N 
ATOM     59  N   UNL A   1      41.696  30.711  35.001  1.00  0.00    -0.248 NA
ATOM     60  C   UNL A   1      43.211  30.450  36.759  1.00  0.00     0.031 C 
ATOM     61  C   UNL A   1      38.426  33.727  34.951  1.00  0.00     0.029 A 
ATOM     62  C   UNL A   1      39.455  32.798  34.991  1.00  0.00     0.049 A 
ATOM     63  H   UNL A   1      40.045  31.409  33.518  1.00  0.00     0.167 HD
ATOM     64  C   UNL A   1      41.383  31.617  36.011  1.00  0.00     0.074 A 
ATOM     65  C   UNL A   1      42.333  31.390  37.081  1.00  0.00     0.031 C 
ATOM     66  C   UNL A   1      40.397  32.548  36.054  1.00  0.00     0.037 A 
BRANCH  53  67
ATOM     67  C   UNL A   1      36.944  32.796  30.928  1.00  0.00     0.058 A 
ATOM     68  C   UNL A   1      37.168  33.784  29.956  1.00  0.00     0.135 A 
ATOM     69  C   UNL A   1      35.616  32.413  31.178  1.00  0.00     0.135 A 
ATOM     70  F   UNL A   1      38.414  34.207  29.695  1.00  0.00    -0.206 F 
ATOM     71  C   UNL A   1      36.114  34.385  29.275  1.00  0.00     0.059 A 
ATOM     72  C   UNL A   1      34.549  32.980  30.487  1.00  0.00     0.059 A 
ATOM     73  F   UNL A   1      35.343  31.482  32.105  1.00  0.00    -0.206 F 
ATOM     74  C   UNL A   1      34.808  33.975  29.546  1.00  0.00     0.060 A 
BRANCH  74  75
ATOM     75  S   UNL A   1      33.453  34.756  28.645  1.00  0.00     0.124 S 
ATOM     76  O   UNL A   1      33.070  33.695  27.719  1.00  0.00    -0.237 OA
ATOM     77  O   UNL A   1      32.498  35.045  29.708  1.00  0.00    -0.237 OA
ATOM     78  O   UNL A   1      34.080  35.924  28.034  1.00  0.00    -0.744 OA
ENDBRANCH  74  75
ENDBRANCH  53  67
BRANCH  54  79
ATOM     79  C   UNL A   1      44.631  28.247  35.440  1.00  0.00     0.058 A 
ATOM     80  C   UNL A   1      44.462  27.158  36.309  1.00  0.00     0.135 A 
ATOM     81  C   UNL A   1      45.937  28.719  35.237  1.00  0.00     0.135 A 
ATOM     82  F   UNL A   1      43.233  26.677  36.551  1.00  0.00    -0.206 F 
ATOM     83  C   UNL A   1      45.540  26.569  36.962  1.00  0.00     0.059 A 
ATOM     84  C   UNL A   1      47.036  28.130  35.855  1.00  0.00     0.059 A 
ATOM     85  F   UNL A   1      46.157  29.756  34.414  1.00  0.00    -0.206 F 
ATOM     86  C   UNL A   1      46.825  27.060  36.725  1.00  0.00     0.060 A 
BRANCH  86  87
ATOM     87  S   UNL A   1      48.222  26.257  37.540  1.00  0.00     0.124 S 
ATOM     88  O   UNL A   1      48.868  25.579  36.420  1.00  0.00    -0.237 OA
ATOM     89  O   UNL A   1      48.945  27.396  38.097  1.00  0.00    -0.237 OA
ATOM     90  O   UNL A   1      47.584  25.386  38.522  1.00  0.00    -0.744 OA
ENDBRANCH  86  87
ENDBRANCH  54  79
BRANCH  66  91
ATOM     91  C   UNL A   1      40.246  33.356  37.316  1.00  0.00     0.058 A 
ATOM     92  C   UNL A   1      41.032  34.489  37.575  1.00  0.00     0.135 A 
ATOM     93  C   UNL A   1      39.252  33.022  38.251  1.00  0.00     0.135 A 
ATOM     94  F   UNL A   1      41.998  34.853  36.717  1.00  0.00    -0.206 F 
ATOM     95  C   UNL A   1      40.855  35.248  38.729  1.00  0.00     0.059 A 
ATOM     96  C   UNL A   1      39.036  33.785  39.395  1.00  0.00     0.059 A 
ATOM     97  F   UNL A   1      38.462  31.955  38.047  1.00  0.00    -0.206 F 
ATOM     98  C   UNL A   1      39.852  34.889  39.631  1.00  0.00     0.060 A 
BRANCH  98  99
ATOM     99  S   UNL A   1      39.612  35.900  41.108  1.00  0.00     0.124 S 
ATOM    100  O   UNL A   1      39.021  34.937  42.031  1.00  0.00    -0.237 OA
ATOM    101  O   UNL A   1      40.973  36.324  41.419  1.00  0.00    -0.237 OA
ATOM    102  O   UNL A   1      38.719  36.962  40.653  1.00  0.00    -0.744 OA
ENDBRANCH  98  99
ENDBRANCH  66  91
ENDBRANCH  40  41
ENDBRANCH  33  35
ENDBRANCH  32  33
ENDBRANCH  31  32
ENDBRANCH  30  31
ENDBRANCH  29  30
ENDBRANCH   1  29
TORSDOF 22
ENDMDL
MODEL 3
REMARK VINA RESULT:     -10.1      3.016      8.728
REMARK SMILES C[C@@H]1[NH2+]CC[C@@H]1C(=O)N1[C@@H](C(=O)OCCOCCOCCOC(=O)c2ccc(-c3c4nc(c(-c5c(F)cc(S(=O)(=O)[O-])cc5F)c5ccc([nH]5)c(-c5c(F)cc(S(=O)(=O)[O-])cc5F)c5nc(c(-c6c(F)cc(S(=O)(=O)[O-])cc6F)c6ccc3[nH]6)C=C5)C=C4)cc2)CC[C@H]2CCCC[C@H]21
REMARK SMILES IDX 18 1 17 2 16 3 15 4 14 5 13 6 11 7 12 8 10 9 9 10 98 11
REMARK SMILES IDX 91 12 93 13 97 14 92 15 94 16 96 17 95 18 7 19 8 20 6 21
REMARK SMILES IDX 1 22 2 23 3 24 4 25 5 28 19 29 20 30 21 31 22 32 23 33 24 34
REMARK SMILES IDX 25 35 26 36 90 37 27 38 89 39 28 40 29 41 30 42 83 43 31 44
REMARK SMILES IDX 88 45 82 46 84 47 32 48 87 49 81 50 80 51 33 53 67 54 46 55
REMARK SMILES IDX 66 56 47 57 50 58 65 59 85 60 48 61 49 62 64 64 86 65 51 66
REMARK SMILES IDX 34 67 35 68 44 69 36 70 37 71 43 72 45 73 38 74 39 75 40 76
REMARK SMILES IDX 41 77 42 78 68 79 69 80 78 81 70 82 71 83 77 84 79 85 72 86
REMARK SMILES IDX 73 87 74 88 75 89 76 90 52 91 53 92 62 93 54 94 55 95 61 96
REMARK SMILES IDX 63 97 56 98 57 99 58 100 59 101 60 102
REMARK H PARENT 3 26 3 27 84 52 50 63
REMARK Flexibility Score: inf
ROOT
ATOM      1  C   UNL A   1      31.108  29.155  24.204  1.00  0.00     0.188 C 
ENDROOT
BRANCH   1   2
ATOM      2  C   UNL A   1      30.311  29.382  22.918  1.00  0.00     0.188 C 
BRANCH   2   3
ATOM      3  O   UNL A   1      30.175  28.201  22.158  1.00  0.00    -0.376 OA
BRANCH   3   4
ATOM      4  C   UNL A   1      31.336  27.404  22.020  1.00  0.00     0.202 C 
BRANCH   4   5
ATOM      5  C   UNL A   1      31.304  25.867  22.203  1.00  0.00     0.261 C 
BRANCH   5   6
ATOM      6  O   UNL A   1      32.494  25.077  22.034  1.00  0.00    -0.462 OA
BRANCH   6   7
ATOM      7  C   UNL A   1      33.373  25.146  23.060  1.00  0.00     0.328 C 
ATOM      8  O   UNL A   1      33.566  26.187  23.681  1.00  0.00    -0.250 OA
BRANCH   7   9
ATOM      9  C   UNL A   1      34.130  23.833  23.404  1.00  0.00     0.195 C 
ATOM     10  N   UNL A   1      33.445  23.005  24.418  1.00  0.00    -0.325 N 
ATOM     11  C   UNL A   1      33.991  21.653  24.682  1.00  0.00     0.089 C 
ATOM     12  C   UNL A   1      35.643  23.859  23.593  1.00  0.00     0.037 C 
ATOM     13  C   UNL A   1      35.551  21.590  24.662  1.00  0.00     0.012 C 
ATOM     14  C   UNL A   1      33.522  20.953  25.961  1.00  0.00     0.025 C 
ATOM     15  C   UNL A   1      36.154  22.417  23.526  1.00  0.00     0.008 C 
ATOM     16  C   UNL A   1      36.247  21.933  25.997  1.00  0.00     0.006 C 
ATOM     17  C   UNL A   1      34.048  21.569  27.258  1.00  0.00     0.002 C 
ATOM     18  C   UNL A   1      35.328  22.381  27.119  1.00  0.00     0.000 C 
BRANCH  10  19
ATOM     19  C   UNL A   1      32.557  23.678  25.230  1.00  0.00     0.232 C 
ATOM     20  O   UNL A   1      33.001  24.421  26.111  1.00  0.00    -0.274 OA
BRANCH  19  21
ATOM     21  C   UNL A   1      31.041  23.560  24.936  1.00  0.00     0.142 C 
ATOM     22  C   UNL A   1      30.245  26.049  25.490  1.00  0.00     0.076 C 
ATOM     23  C   UNL A   1      30.036  24.540  25.578  1.00  0.00     0.192 C 
ATOM     24  N   UNL A   1      29.793  24.058  26.957  1.00  0.00    -0.343 N 
ATOM     25  C   UNL A   1      30.278  22.676  27.022  1.00  0.00     0.261 C 
ATOM     26  H   UNL A   1      28.796  24.090  27.169  1.00  0.00     0.346 HD
ATOM     27  H   UNL A   1      30.276  24.645  27.638  1.00  0.00     0.346 HD
ATOM     28  C   UNL A   1      30.530  22.261  25.581  1.00  0.00     0.081 C 
ENDBRANCH  19  21
ENDBRANCH  10  19
ENDBRANCH   7   9
ENDBRANCH   6   7
ENDBRANCH   5   6
ENDBRANCH   4   5
ENDBRANCH   3   4
ENDBRANCH   2   3
ENDBRANCH   1   2
BRANCH   1  29
ATOM     29  O   UNL A   1      31.465  30.234  25.051  1.00  0.00    -0.376 OA
BRANCH  29  30
ATOM     30  C   UNL A   1      32.645  30.138  25.838  1.00  0.00     0.202 C 
BRANCH  30  31
ATOM     31  C   UNL A   1      32.745  30.837  27.213  1.00  0.00     0.261 C 
BRANCH  31  32
ATOM     32  O   UNL A   1      33.775  30.387  28.108  1.00  0.00    -0.460 OA
BRANCH  32  33
ATOM     33  C   UNL A   1      34.798  31.257  28.313  1.00  0.00     0.338 C 
ATOM     34  O   UNL A   1      34.702  32.442  28.594  1.00  0.00    -0.246 OA
BRANCH  33  35
ATOM     35  C   UNL A   1      36.068  30.489  28.415  1.00  0.00     0.060 A 
ATOM     36  C   UNL A   1      36.358  29.844  29.633  1.00  0.00     0.016 A 
ATOM     37  C   UNL A   1      36.937  30.358  27.333  1.00  0.00     0.016 A 
ATOM     38  C   UNL A   1      37.517  29.087  29.780  1.00  0.00     0.010 A 
ATOM     39  C   UNL A   1      38.134  29.652  27.500  1.00  0.00     0.010 A 
ATOM     40  C   UNL A   1      38.444  29.047  28.735  1.00  0.00    -0.014 A 
BRANCH  40  41
ATOM     41  C   UNL A   1      39.843  28.658  29.035  1.00  0.00     0.031 A 
ATOM     42  C   UNL A   1      40.710  29.688  29.709  1.00  0.00     0.074 A 
ATOM     43  C   UNL A   1      40.329  27.436  28.756  1.00  0.00     0.049 A 
ATOM     44  N   UNL A   1      41.985  29.648  29.991  1.00  0.00    -0.248 NA
ATOM     45  C   UNL A   1      40.042  30.938  30.115  1.00  0.00     0.031 C 
ATOM     46  C   UNL A   1      39.572  26.330  28.175  1.00  0.00     0.029 A 
ATOM     47  N   UNL A   1      41.596  26.930  28.915  1.00  0.00    -0.354 N 
ATOM     48  C   UNL A   1      42.274  30.872  30.587  1.00  0.00     0.074 A 
ATOM     49  C   UNL A   1      41.050  31.639  30.607  1.00  0.00     0.031 C 
ATOM     50  C   UNL A   1      40.397  25.282  28.000  1.00  0.00     0.029 A 
ATOM     51  C   UNL A   1      41.747  25.656  28.422  1.00  0.00     0.049 A 
ATOM     52  H   UNL A   1      42.327  27.433  29.342  1.00  0.00     0.167 HD
ATOM     53  C   UNL A   1      43.455  31.315  31.076  1.00  0.00     0.037 A 
ATOM     54  C   UNL A   1      42.857  24.898  28.296  1.00  0.00     0.037 A 
ATOM     55  C   UNL A   1      44.670  30.547  31.049  1.00  0.00     0.049 A 
ATOM     56  C   UNL A   1      44.182  25.444  28.773  1.00  0.00     0.074 A 
ATOM     57  C   UNL A   1      45.921  30.902  31.519  1.00  0.00     0.029 A 
ATOM     58  N   UNL A   1      44.788  29.271  30.518  1.00  0.00    -0.354 N 
ATOM     59  N   UNL A   1      44.448  26.602  29.332  1.00  0.00    -0.248 NA
ATOM     60  C   UNL A   1      45.360  24.580  28.601  1.00  0.00     0.031 C 
ATOM     61  C   UNL A   1      46.809  29.864  31.222  1.00  0.00     0.029 A 
ATOM     62  C   UNL A   1      46.097  28.834  30.628  1.00  0.00     0.049 A 
ATOM     63  H   UNL A   1      44.051  28.754  30.122  1.00  0.00     0.167 HD
ATOM     64  C   UNL A   1      45.812  26.588  29.614  1.00  0.00     0.074 A 
ATOM     65  C   UNL A   1      46.314  25.305  29.167  1.00  0.00     0.031 C 
ATOM     66  C   UNL A   1      46.578  27.545  30.195  1.00  0.00     0.037 A 
BRANCH  53  67
ATOM     67  C   UNL A   1      43.494  32.709  31.638  1.00  0.00     0.058 A 
ATOM     68  C   UNL A   1      43.278  32.967  33.001  1.00  0.00     0.135 A 
ATOM     69  C   UNL A   1      43.773  33.801  30.800  1.00  0.00     0.135 A 
ATOM     70  F   UNL A   1      42.982  31.964  33.842  1.00  0.00    -0.206 F 
ATOM     71  C   UNL A   1      43.312  34.262  33.509  1.00  0.00     0.059 A 
ATOM     72  C   UNL A   1      43.843  35.101  31.293  1.00  0.00     0.059 A 
ATOM     73  F   UNL A   1      43.977  33.613  29.488  1.00  0.00    -0.206 F 
ATOM     74  C   UNL A   1      43.598  35.322  32.647  1.00  0.00     0.060 A 
BRANCH  74  75
ATOM     75  S   UNL A   1      43.651  36.994  33.325  1.00  0.00     0.124 S 
ATOM     76  O   UNL A   1      43.636  37.802  32.109  1.00  0.00    -0.237 OA
ATOM     77  O   UNL A   1      42.437  37.041  34.131  1.00  0.00    -0.237 OA
ATOM     78  O   UNL A   1      44.902  37.017  34.077  1.00  0.00    -0.744 OA
ENDBRANCH  74  75
ENDBRANCH  53  67
BRANCH  54  79
ATOM     79  C   UNL A   1      42.774  23.548  27.673  1.00  0.00     0.058 A 
ATOM     80  C   UNL A   1      42.400  22.424  28.425  1.00  0.00     0.135 A 
ATOM     81  C   UNL A   1      43.080  23.351  26.317  1.00  0.00     0.135 A 
ATOM     82  F   UNL A   1      42.113  22.554  29.729  1.00  0.00    -0.206 F 
ATOM     83  C   UNL A   1      42.347  21.153  27.861  1.00  0.00     0.059 A 
ATOM     84  C   UNL A   1      43.006  22.095  25.723  1.00  0.00     0.059 A 
ATOM     85  F   UNL A   1      43.440  24.393  25.551  1.00  0.00    -0.206 F 
ATOM     86  C   UNL A   1      42.647  20.999  26.507  1.00  0.00     0.060 A 
BRANCH  86  87
ATOM     87  S   UNL A   1      42.527  19.353  25.775  1.00  0.00     0.124 S 
ATOM     88  O   UNL A   1      43.157  18.527  26.800  1.00  0.00    -0.237 OA
ATOM     89  O   UNL A   1      41.084  19.192  25.625  1.00  0.00    -0.237 OA
ATOM     90  O   UNL A   1      43.270  19.484  24.526  1.00  0.00    -0.744 OA
ENDBRANCH  86  87
ENDBRANCH  54  79
BRANCH  66  91
ATOM     91  C   UNL A   1      48.030  27.230  30.441  1.00  0.00     0.058 A 
ATOM     92  C   UNL A   1      48.459  26.524  31.575  1.00  0.00     0.135 A 
ATOM     93  C   UNL A   1      48.999  27.589  29.488  1.00  0.00     0.135 A 
ATOM     94  F   UNL A   1      47.577  26.157  32.517  1.00  0.00    -0.206 F 
ATOM     95  C   UNL A   1      49.801  26.207  31.768  1.00  0.00     0.059 A 
ATOM     96  C   UNL A   1      50.341  27.254  29.645  1.00  0.00     0.059 A 
ATOM     97  F   UNL A   1      48.643  28.254  28.377  1.00  0.00    -0.206 F 
ATOM     98  C   UNL A   1      50.733  26.573  30.796  1.00  0.00     0.060 A 
BRANCH  98  99
ATOM     99  S   UNL A   1      52.466  26.128  31.044  1.00  0.00     0.124 S 
ATOM    100  O   UNL A   1      52.949  26.046  29.671  1.00  0.00    -0.237 OA
ATOM    101  O   UNL A   1      52.967  27.253  31.827  1.00  0.00    -0.237 OA
ATOM    102  O   UNL A   1      52.392  24.858  31.760  1.00  0.00    -0.744 OA
ENDBRANCH  98  99
ENDBRANCH  66  91
ENDBRANCH  40  41
ENDBRANCH  33  35
ENDBRANCH  32  33
ENDBRANCH  31  32
ENDBRANCH  30  31
ENDBRANCH  29  30
ENDBRANCH   1  29
TORSDOF 22
ENDMDL
