MODEL 1
REMARK VINA RESULT:     -10.5      0.000      0.000
REMARK SMILES COc1ccc(/C=C(\Sc2nc(C)n[nH]2)C(=O)OCCOCCOCCOC(=O)c2ccc(-c3c4nc(c(-c5c(F)cc(S(=O)(=O)[O-])cc5F)c5ccc([nH]5)c(-c5c(F)cc(S(=O)(=O)[O-])cc5F)c5nc(c(-c6c(F)cc(S(=O)(=O)[O-])cc6F)c6ccc3[nH]6)C=C5)C=C4)cc2)c(OC)c1
REMARK SMILES IDX 23 1 22 2 21 3 20 4 19 5 18 6 16 7 17 8 8 9 7 10 6 11 3 12
REMARK SMILES IDX 4 13 99 14 5 15 96 16 2 17 1 18 97 19 98 20 9 21 10 22 11 23
REMARK SMILES IDX 15 24 12 25 14 26 13 28 24 29 25 30 26 31 27 32 28 33 29 34
REMARK SMILES IDX 30 35 31 36 95 37 32 38 94 39 33 40 34 41 35 42 88 43 36 44
REMARK SMILES IDX 93 45 87 46 89 47 37 48 92 49 86 50 85 51 38 53 72 54 51 55
REMARK SMILES IDX 71 56 52 57 55 58 70 59 90 60 53 61 54 62 69 64 91 65 56 66
REMARK SMILES IDX 39 67 40 68 49 69 41 70 42 71 48 72 50 73 43 74 44 75 45 76
REMARK SMILES IDX 46 77 47 78 73 79 74 80 83 81 75 82 76 83 82 84 84 85 77 86
REMARK SMILES IDX 78 87 79 88 80 89 81 90 57 91 58 92 67 93 59 94 60 95 66 96
REMARK SMILES IDX 68 97 61 98 62 99 63 100 64 101 65 102
REMARK H PARENT 15 27 89 52 55 63
REMARK Flexibility Score: inf
ROOT
ATOM      1  C   UNL A   1      39.578  21.986  26.353  1.00  0.00     0.188 C 
ENDROOT
BRANCH   1   2
ATOM      2  C   UNL A   1      38.184  22.323  25.771  1.00  0.00     0.188 C 
BRANCH   2   3
ATOM      3  O   UNL A   1      37.197  21.311  25.603  1.00  0.00    -0.376 OA
BRANCH   3   4
ATOM      4  C   UNL A   1      35.829  21.680  25.494  1.00  0.00     0.202 C 
BRANCH   4   5
ATOM      5  C   UNL A   1      34.823  20.627  25.000  1.00  0.00     0.261 C 
BRANCH   5   6
ATOM      6  O   UNL A   1      33.467  20.877  25.406  1.00  0.00    -0.459 OA
BRANCH   6   7
ATOM      7  C   UNL A   1      32.576  21.221  24.440  1.00  0.00     0.345 C 
ATOM      8  O   UNL A   1      32.130  20.483  23.573  1.00  0.00    -0.246 OA
BRANCH   7   9
ATOM      9  C   UNL A   1      32.101  22.632  24.646  1.00  0.00     0.101 C 
ATOM     10  C   UNL A   1      31.599  23.199  23.526  1.00  0.00     0.035 C 
BRANCH  10  11
ATOM     11  C   UNL A   1      31.035  24.540  23.270  1.00  0.00     0.018 A 
ATOM     12  C   UNL A   1      30.325  27.266  23.139  1.00  0.00     0.122 A 
ATOM     13  C   UNL A   1      29.553  26.359  23.866  1.00  0.00     0.047 A 
ATOM     14  C   UNL A   1      31.360  26.779  22.348  1.00  0.00     0.093 A 
ATOM     15  C   UNL A   1      29.887  25.002  23.914  1.00  0.00     0.016 A 
ATOM     16  C   UNL A   1      31.677  25.414  22.371  1.00  0.00     0.129 A 
BRANCH  12  17
ATOM     17  O   UNL A   1      30.018  28.577  23.357  1.00  0.00    -0.497 OA
ATOM     18  C   UNL A   1      28.723  29.046  23.015  1.00  0.00     0.278 C 
ENDBRANCH  12  17
BRANCH  16  19
ATOM     19  O   UNL A   1      32.678  24.912  21.570  1.00  0.00    -0.496 OA
ATOM     20  C   UNL A   1      32.762  25.586  20.308  1.00  0.00     0.278 C 
ENDBRANCH  16  19
ENDBRANCH  10  11
BRANCH   9  21
ATOM     21  S   UNL A   1      32.210  23.176  26.286  1.00  0.00    -0.043 SA
BRANCH  21  22
ATOM     22  C   UNL A   1      32.489  24.865  26.197  1.00  0.00     0.188 A 
ATOM     23  N   UNL A   1      31.718  25.796  26.709  1.00  0.00    -0.206 NA
ATOM     24  N   UNL A   1      33.580  25.437  25.623  1.00  0.00    -0.254 N 
ATOM     25  C   UNL A   1      32.362  26.955  26.355  1.00  0.00     0.148 A 
ATOM     26  N   UNL A   1      33.539  26.780  25.735  1.00  0.00    -0.158 NA
ATOM     27  H   UNL A   1      34.305  24.936  25.185  1.00  0.00     0.192 HD
ATOM     28  C   UNL A   1      31.767  28.284  26.604  1.00  0.00     0.092 C 
ENDBRANCH  21  22
ENDBRANCH   9  21
ENDBRANCH   7   9
ENDBRANCH   6   7
ENDBRANCH   5   6
ENDBRANCH   4   5
ENDBRANCH   3   4
ENDBRANCH   2   3
ENDBRANCH   1   2
BRANCH   1  29
ATOM     29  O   UNL A   1      40.027  20.663  26.106  1.00  0.00    -0.376 OA
BRANCH  29  30
ATOM     30  C   UNL A   1      41.055  20.178  26.963  1.00  0.00     0.202 C 
BRANCH  30  31
ATOM     31  C   UNL A   1      42.217  19.488  26.251  1.00  0.00     0.261 C 
BRANCH  31  32
ATOM     32  O   UNL A   1      43.448  20.197  26.311  1.00  0.00    -0.460 OA
BRANCH  32  33
ATOM     33  C   UNL A   1      43.979  20.547  25.123  1.00  0.00     0.338 C 
ATOM     34  O   UNL A   1      44.153  19.824  24.158  1.00  0.00    -0.246 OA
BRANCH  33  35
ATOM     35  C   UNL A   1      44.369  21.961  25.190  1.00  0.00     0.060 A 
ATOM     36  C   UNL A   1      45.341  22.312  26.128  1.00  0.00     0.016 A 
ATOM     37  C   UNL A   1      43.587  22.923  24.531  1.00  0.00     0.016 A 
ATOM     38  C   UNL A   1      45.361  23.611  26.586  1.00  0.00     0.010 A 
ATOM     39  C   UNL A   1      43.600  24.217  24.997  1.00  0.00     0.010 A 
ATOM     40  C   UNL A   1      44.410  24.509  26.092  1.00  0.00    -0.014 A 
BRANCH  40  41
ATOM     41  C   UNL A   1      44.179  25.713  26.861  1.00  0.00     0.031 A 
ATOM     42  C   UNL A   1      45.191  26.776  26.724  1.00  0.00     0.074 A 
ATOM     43  C   UNL A   1      43.058  25.851  27.595  1.00  0.00     0.049 A 
ATOM     44  N   UNL A   1      45.952  27.282  27.637  1.00  0.00    -0.248 NA
ATOM     45  C   UNL A   1      45.447  27.278  25.367  1.00  0.00     0.031 C 
ATOM     46  C   UNL A   1      41.852  25.014  27.570  1.00  0.00     0.029 A 
ATOM     47  N   UNL A   1      42.725  26.851  28.451  1.00  0.00    -0.354 N 
ATOM     48  C   UNL A   1      46.658  28.301  27.009  1.00  0.00     0.074 A 
ATOM     49  C   UNL A   1      46.414  28.164  25.594  1.00  0.00     0.031 C 
ATOM     50  C   UNL A   1      40.853  25.663  28.209  1.00  0.00     0.029 A 
ATOM     51  C   UNL A   1      41.381  26.888  28.785  1.00  0.00     0.049 A 
ATOM     52  H   UNL A   1      43.382  27.494  28.804  1.00  0.00     0.167 HD
ATOM     53  C   UNL A   1      47.243  29.316  27.698  1.00  0.00     0.037 A 
ATOM     54  C   UNL A   1      40.742  27.908  29.404  1.00  0.00     0.037 A 
ATOM     55  C   UNL A   1      47.420  29.002  29.088  1.00  0.00     0.049 A 
ATOM     56  C   UNL A   1      41.772  28.731  30.090  1.00  0.00     0.074 A 
ATOM     57  C   UNL A   1      48.134  28.036  29.774  1.00  0.00     0.029 A 
ATOM     58  N   UNL A   1      46.527  29.518  29.994  1.00  0.00    -0.354 N 
ATOM     59  N   UNL A   1      42.483  28.328  31.110  1.00  0.00    -0.248 NA
ATOM     60  C   UNL A   1      42.312  29.882  29.380  1.00  0.00     0.031 C 
ATOM     61  C   UNL A   1      47.334  27.709  30.908  1.00  0.00     0.029 A 
ATOM     62  C   UNL A   1      46.189  28.507  30.862  1.00  0.00     0.049 A 
ATOM     63  H   UNL A   1      46.190  30.443  30.018  1.00  0.00     0.167 HD
ATOM     64  C   UNL A   1      43.734  28.903  30.930  1.00  0.00     0.074 A 
ATOM     65  C   UNL A   1      43.534  29.931  29.916  1.00  0.00     0.031 C 
ATOM     66  C   UNL A   1      44.866  28.315  31.421  1.00  0.00     0.037 A 
BRANCH  53  67
ATOM     67  C   UNL A   1      47.395  30.697  27.130  1.00  0.00     0.058 A 
ATOM     68  C   UNL A   1      48.662  31.298  27.037  1.00  0.00     0.135 A 
ATOM     69  C   UNL A   1      46.290  31.542  26.875  1.00  0.00     0.135 A 
ATOM     70  F   UNL A   1      49.773  30.592  27.300  1.00  0.00    -0.206 F 
ATOM     71  C   UNL A   1      48.820  32.650  26.729  1.00  0.00     0.059 A 
ATOM     72  C   UNL A   1      46.426  32.873  26.508  1.00  0.00     0.059 A 
ATOM     73  F   UNL A   1      45.028  31.127  27.058  1.00  0.00    -0.206 F 
ATOM     74  C   UNL A   1      47.693  33.430  26.473  1.00  0.00     0.060 A 
BRANCH  74  75
ATOM     75  S   UNL A   1      47.881  35.194  26.160  1.00  0.00     0.124 S 
ATOM     76  O   UNL A   1      49.027  35.205  25.258  1.00  0.00    -0.237 OA
ATOM     77  O   UNL A   1      46.594  35.541  25.565  1.00  0.00    -0.237 OA
ATOM     78  O   UNL A   1      48.116  35.746  27.490  1.00  0.00    -0.744 OA
ENDBRANCH  74  75
ENDBRANCH  53  67
BRANCH  54  79
ATOM     79  C   UNL A   1      39.368  28.400  29.124  1.00  0.00     0.058 A 
ATOM     80  C   UNL A   1      38.418  28.525  30.150  1.00  0.00     0.135 A 
ATOM     81  C   UNL A   1      39.039  29.009  27.894  1.00  0.00     0.135 A 
ATOM     82  F   UNL A   1      38.663  28.003  31.362  1.00  0.00    -0.206 F 
ATOM     83  C   UNL A   1      37.232  29.246  29.982  1.00  0.00     0.059 A 
ATOM     84  C   UNL A   1      37.856  29.716  27.696  1.00  0.00     0.059 A 
ATOM     85  F   UNL A   1      39.902  29.019  26.868  1.00  0.00    -0.206 F 
ATOM     86  C   UNL A   1      36.967  29.853  28.754  1.00  0.00     0.060 A 
BRANCH  86  87
ATOM     87  S   UNL A   1      35.526  30.929  28.584  1.00  0.00     0.124 S 
ATOM     88  O   UNL A   1      35.307  31.358  29.961  1.00  0.00    -0.237 OA
ATOM     89  O   UNL A   1      36.014  31.952  27.664  1.00  0.00    -0.237 OA
ATOM     90  O   UNL A   1      34.503  30.041  28.037  1.00  0.00    -0.744 OA
ENDBRANCH  86  87
ENDBRANCH  54  79
BRANCH  66  91
ATOM     91  C   UNL A   1      44.704  27.193  32.418  1.00  0.00     0.058 A 
ATOM     92  C   UNL A   1      44.550  27.393  33.801  1.00  0.00     0.135 A 
ATOM     93  C   UNL A   1      44.548  25.882  31.942  1.00  0.00     0.135 A 
ATOM     94  F   UNL A   1      44.574  28.626  34.325  1.00  0.00    -0.206 F 
ATOM     95  C   UNL A   1      44.298  26.334  34.676  1.00  0.00     0.059 A 
ATOM     96  C   UNL A   1      44.264  24.814  32.793  1.00  0.00     0.059 A 
ATOM     97  F   UNL A   1      44.616  25.631  30.624  1.00  0.00    -0.206 F 
ATOM     98  C   UNL A   1      44.153  25.046  34.163  1.00  0.00     0.060 A 
BRANCH  98  99
ATOM     99  S   UNL A   1      43.731  23.696  35.286  1.00  0.00     0.124 S 
ATOM    100  O   UNL A   1      43.861  24.331  36.593  1.00  0.00    -0.237 OA
ATOM    101  O   UNL A   1      42.371  23.354  34.879  1.00  0.00    -0.237 OA
ATOM    102  O   UNL A   1      44.734  22.677  34.984  1.00  0.00    -0.744 OA
ENDBRANCH  98  99
ENDBRANCH  66  91
ENDBRANCH  40  41
ENDBRANCH  33  35
ENDBRANCH  32  33
ENDBRANCH  31  32
ENDBRANCH  30  31
ENDBRANCH  29  30
ENDBRANCH   1  29
TORSDOF 25
ENDMDL
MODEL 2
REMARK VINA RESULT:      -9.5      1.432      2.072
REMARK SMILES COc1ccc(/C=C(\Sc2nc(C)n[nH]2)C(=O)OCCOCCOCCOC(=O)c2ccc(-c3c4nc(c(-c5c(F)cc(S(=O)(=O)[O-])cc5F)c5ccc([nH]5)c(-c5c(F)cc(S(=O)(=O)[O-])cc5F)c5nc(c(-c6c(F)cc(S(=O)(=O)[O-])cc6F)c6ccc3[nH]6)C=C5)C=C4)cc2)c(OC)c1
REMARK SMILES IDX 23 1 22 2 21 3 20 4 19 5 18 6 16 7 17 8 8 9 7 10 6 11 3 12
REMARK SMILES IDX 4 13 99 14 5 15 96 16 2 17 1 18 97 19 98 20 9 21 10 22 11 23
REMARK SMILES IDX 15 24 12 25 14 26 13 28 24 29 25 30 26 31 27 32 28 33 29 34
REMARK SMILES IDX 30 35 31 36 95 37 32 38 94 39 33 40 34 41 35 42 88 43 36 44
REMARK SMILES IDX 93 45 87 46 89 47 37 48 92 49 86 50 85 51 38 53 72 54 51 55
REMARK SMILES IDX 71 56 52 57 55 58 70 59 90 60 53 61 54 62 69 64 91 65 56 66
REMARK SMILES IDX 39 67 40 68 49 69 41 70 42 71 48 72 50 73 43 74 44 75 45 76
REMARK SMILES IDX 46 77 47 78 73 79 74 80 83 81 75 82 76 83 82 84 84 85 77 86
REMARK SMILES IDX 78 87 79 88 80 89 81 90 57 91 58 92 67 93 59 94 60 95 66 96
REMARK SMILES IDX 68 97 61 98 62 99 63 100 64 101 65 102
REMARK H PARENT 15 27 89 52 55 63
REMARK Flexibility Score: inf
ROOT
ATOM      1  C   UNL A   1      39.492  23.202  27.104  1.00  0.00     0.188 C 
ENDROOT
BRANCH   1   2
ATOM      2  C   UNL A   1      38.361  23.776  26.218  1.00  0.00     0.188 C 
BRANCH   2   3
ATOM      3  O   UNL A   1      37.528  22.918  25.446  1.00  0.00    -0.376 OA
BRANCH   3   4
ATOM      4  C   UNL A   1      36.156  23.248  25.271  1.00  0.00     0.202 C 
BRANCH   4   5
ATOM      5  C   UNL A   1      35.109  22.498  26.111  1.00  0.00     0.261 C 
BRANCH   5   6
ATOM      6  O   UNL A   1      34.247  23.357  26.875  1.00  0.00    -0.459 OA
BRANCH   6   7
ATOM      7  C   UNL A   1      32.940  23.422  26.509  1.00  0.00     0.345 C 
ATOM      8  O   UNL A   1      32.061  22.633  26.826  1.00  0.00    -0.246 OA
BRANCH   7   9
ATOM      9  C   UNL A   1      32.675  24.685  25.739  1.00  0.00     0.101 C 
ATOM     10  C   UNL A   1      31.539  24.640  25.007  1.00  0.00     0.035 C 
BRANCH  10  11
ATOM     11  C   UNL A   1      30.903  25.631  24.115  1.00  0.00     0.018 A 
ATOM     12  C   UNL A   1      30.119  27.828  22.531  1.00  0.00     0.122 A 
ATOM     13  C   UNL A   1      29.532  27.598  23.776  1.00  0.00     0.047 A 
ATOM     14  C   UNL A   1      30.981  26.870  22.011  1.00  0.00     0.093 A 
ATOM     15  C   UNL A   1      29.901  26.496  24.555  1.00  0.00     0.016 A 
ATOM     16  C   UNL A   1      31.328  25.748  22.777  1.00  0.00     0.129 A 
BRANCH  12  17
ATOM     17  O   UNL A   1      29.833  29.044  21.984  1.00  0.00    -0.497 OA
ATOM     18  C   UNL A   1      28.679  29.743  22.426  1.00  0.00     0.278 C 
ENDBRANCH  12  17
BRANCH  16  19
ATOM     19  O   UNL A   1      32.156  24.775  22.264  1.00  0.00    -0.496 OA
ATOM     20  C   UNL A   1      32.907  25.233  21.132  1.00  0.00     0.278 C 
ENDBRANCH  16  19
ENDBRANCH  10  11
BRANCH   9  21
ATOM     21  S   UNL A   1      33.825  25.943  26.040  1.00  0.00    -0.043 SA
BRANCH  21  22
ATOM     22  C   UNL A   1      32.902  27.323  26.468  1.00  0.00     0.188 A 
ATOM     23  N   UNL A   1      32.931  28.484  25.857  1.00  0.00    -0.206 NA
ATOM     24  N   UNL A   1      31.986  27.356  27.471  1.00  0.00    -0.254 N 
ATOM     25  C   UNL A   1      32.041  29.234  26.582  1.00  0.00     0.148 A 
ATOM     26  N   UNL A   1      31.396  28.566  27.549  1.00  0.00    -0.158 NA
ATOM     27  H   UNL A   1      31.779  26.597  28.062  1.00  0.00     0.192 HD
ATOM     28  C   UNL A   1      31.857  30.679  26.333  1.00  0.00     0.092 C 
ENDBRANCH  21  22
ENDBRANCH   9  21
ENDBRANCH   7   9
ENDBRANCH   6   7
ENDBRANCH   5   6
ENDBRANCH   4   5
ENDBRANCH   3   4
ENDBRANCH   2   3
ENDBRANCH   1   2
BRANCH   1  29
ATOM     29  O   UNL A   1      39.782  21.829  26.890  1.00  0.00    -0.376 OA
BRANCH  29  30
ATOM     30  C   UNL A   1      41.121  21.423  27.149  1.00  0.00     0.202 C 
BRANCH  30  31
ATOM     31  C   UNL A   1      41.643  20.306  26.247  1.00  0.00     0.261 C 
BRANCH  31  32
ATOM     32  O   UNL A   1      43.053  20.126  26.288  1.00  0.00    -0.460 OA
BRANCH  32  33
ATOM     33  C   UNL A   1      43.706  20.355  25.132  1.00  0.00     0.338 C 
ATOM     34  O   UNL A   1      43.843  19.578  24.204  1.00  0.00    -0.246 OA
BRANCH  33  35
ATOM     35  C   UNL A   1      44.280  21.705  25.185  1.00  0.00     0.060 A 
ATOM     36  C   UNL A   1      45.383  21.898  26.018  1.00  0.00     0.016 A 
ATOM     37  C   UNL A   1      43.564  22.781  24.635  1.00  0.00     0.016 A 
ATOM     38  C   UNL A   1      45.620  23.167  26.497  1.00  0.00     0.010 A 
ATOM     39  C   UNL A   1      43.794  24.046  25.124  1.00  0.00     0.010 A 
ATOM     40  C   UNL A   1      44.746  24.195  26.129  1.00  0.00    -0.014 A 
BRANCH  40  41
ATOM     41  C   UNL A   1      44.756  25.391  26.944  1.00  0.00     0.031 A 
ATOM     42  C   UNL A   1      45.939  26.260  26.808  1.00  0.00     0.074 A 
ATOM     43  C   UNL A   1      43.698  25.700  27.718  1.00  0.00     0.049 A 
ATOM     44  N   UNL A   1      46.802  26.587  27.712  1.00  0.00    -0.248 NA
ATOM     45  C   UNL A   1      46.246  26.758  25.461  1.00  0.00     0.031 C 
ATOM     46  C   UNL A   1      42.360  25.094  27.705  1.00  0.00     0.029 A 
ATOM     47  N   UNL A   1      43.572  26.710  28.616  1.00  0.00    -0.354 N 
ATOM     48  C   UNL A   1      47.664  27.485  27.095  1.00  0.00     0.074 A 
ATOM     49  C   UNL A   1      47.362  27.448  25.685  1.00  0.00     0.031 C 
ATOM     50  C   UNL A   1      41.512  25.887  28.396  1.00  0.00     0.029 A 
ATOM     51  C   UNL A   1      42.266  26.975  28.994  1.00  0.00     0.049 A 
ATOM     52  H   UNL A   1      44.343  27.212  28.968  1.00  0.00     0.167 HD
ATOM     53  C   UNL A   1      48.439  28.352  27.797  1.00  0.00     0.037 A 
ATOM     54  C   UNL A   1      41.837  28.069  29.666  1.00  0.00     0.037 A 
ATOM     55  C   UNL A   1      48.593  27.960  29.170  1.00  0.00     0.049 A 
ATOM     56  C   UNL A   1      43.017  28.668  30.345  1.00  0.00     0.074 A 
ATOM     57  C   UNL A   1      49.139  26.857  29.801  1.00  0.00     0.029 A 
ATOM     58  N   UNL A   1      47.832  28.593  30.121  1.00  0.00    -0.354 N 
ATOM     59  N   UNL A   1      43.670  28.106  31.327  1.00  0.00    -0.248 NA
ATOM     60  C   UNL A   1      43.736  29.729  29.655  1.00  0.00     0.031 C 
ATOM     61  C   UNL A   1      48.323  26.636  30.949  1.00  0.00     0.029 A 
ATOM     62  C   UNL A   1      47.340  27.627  30.966  1.00  0.00     0.049 A 
ATOM     63  H   UNL A   1      47.667  29.562  30.185  1.00  0.00     0.167 HD
ATOM     64  C   UNL A   1      44.999  28.454  31.126  1.00  0.00     0.074 A 
ATOM     65  C   UNL A   1      44.961  29.539  30.153  1.00  0.00     0.031 C 
ATOM     66  C   UNL A   1      46.018  27.655  31.561  1.00  0.00     0.037 A 
BRANCH  53  67
ATOM     67  C   UNL A   1      48.823  29.704  27.269  1.00  0.00     0.058 A 
ATOM     68  C   UNL A   1      50.170  30.022  27.025  1.00  0.00     0.135 A 
ATOM     69  C   UNL A   1      47.912  30.784  27.205  1.00  0.00     0.135 A 
ATOM     70  F   UNL A   1      51.119  29.076  27.101  1.00  0.00    -0.206 F 
ATOM     71  C   UNL A   1      50.586  31.327  26.752  1.00  0.00     0.059 A 
ATOM     72  C   UNL A   1      48.294  32.077  26.877  1.00  0.00     0.059 A 
ATOM     73  F   UNL A   1      46.623  30.640  27.546  1.00  0.00    -0.206 F 
ATOM     74  C   UNL A   1      49.639  32.348  26.688  1.00  0.00     0.060 A 
BRANCH  74  75
ATOM     75  S   UNL A   1      50.175  34.047  26.422  1.00  0.00     0.124 S 
ATOM     76  O   UNL A   1      51.618  33.924  26.598  1.00  0.00    -0.237 OA
ATOM     77  O   UNL A   1      49.716  34.306  25.061  1.00  0.00    -0.237 OA
ATOM     78  O   UNL A   1      49.470  34.786  27.465  1.00  0.00    -0.744 OA
ENDBRANCH  74  75
ENDBRANCH  53  67
BRANCH  54  79
ATOM     79  C   UNL A   1      40.568  28.810  29.446  1.00  0.00     0.058 A 
ATOM     80  C   UNL A   1      40.211  29.274  28.170  1.00  0.00     0.135 A 
ATOM     81  C   UNL A   1      39.556  28.847  30.428  1.00  0.00     0.135 A 
ATOM     82  F   UNL A   1      41.103  29.246  27.168  1.00  0.00    -0.206 F 
ATOM     83  C   UNL A   1      38.915  29.709  27.873  1.00  0.00     0.059 A 
ATOM     84  C   UNL A   1      38.264  29.293  30.161  1.00  0.00     0.059 A 
ATOM     85  F   UNL A   1      39.761  28.359  31.660  1.00  0.00    -0.206 F 
ATOM     86  C   UNL A   1      37.943  29.698  28.873  1.00  0.00     0.060 A 
BRANCH  86  87
ATOM     87  S   UNL A   1      36.230  30.091  28.454  1.00  0.00     0.124 S 
ATOM     88  O   UNL A   1      35.606  30.155  29.771  1.00  0.00    -0.237 OA
ATOM     89  O   UNL A   1      36.370  31.361  27.750  1.00  0.00    -0.237 OA
ATOM     90  O   UNL A   1      35.818  28.963  27.622  1.00  0.00    -0.744 OA
ENDBRANCH  86  87
ENDBRANCH  54  79
BRANCH  66  91
ATOM     91  C   UNL A   1      45.683  26.543  32.526  1.00  0.00     0.058 A 
ATOM     92  C   UNL A   1      45.222  25.276  32.129  1.00  0.00     0.135 A 
ATOM     93  C   UNL A   1      45.984  26.715  33.886  1.00  0.00     0.135 A 
ATOM     94  F   UNL A   1      45.017  24.993  30.836  1.00  0.00    -0.206 F 
ATOM     95  C   UNL A   1      45.024  24.242  33.046  1.00  0.00     0.059 A 
ATOM     96  C   UNL A   1      45.825  25.687  34.815  1.00  0.00     0.059 A 
ATOM     97  F   UNL A   1      46.492  27.880  34.322  1.00  0.00    -0.206 F 
ATOM     98  C   UNL A   1      45.332  24.455  34.389  1.00  0.00     0.060 A 
BRANCH  98  99
ATOM     99  S   UNL A   1      45.167  23.085  35.556  1.00  0.00     0.124 S 
ATOM    100  O   UNL A   1      43.751  22.754  35.443  1.00  0.00    -0.237 OA
ATOM    101  O   UNL A   1      46.095  22.094  35.018  1.00  0.00    -0.237 OA
ATOM    102  O   UNL A   1      45.572  23.674  36.830  1.00  0.00    -0.744 OA
ENDBRANCH  98  99
ENDBRANCH  66  91
ENDBRANCH  40  41
ENDBRANCH  33  35
ENDBRANCH  32  33
ENDBRANCH  31  32
ENDBRANCH  30  31
ENDBRANCH  29  30
ENDBRANCH   1  29
TORSDOF 25
ENDMDL
MODEL 3
REMARK VINA RESULT:      -9.3      1.857      2.934
REMARK SMILES COc1ccc(/C=C(\Sc2nc(C)n[nH]2)C(=O)OCCOCCOCCOC(=O)c2ccc(-c3c4nc(c(-c5c(F)cc(S(=O)(=O)[O-])cc5F)c5ccc([nH]5)c(-c5c(F)cc(S(=O)(=O)[O-])cc5F)c5nc(c(-c6c(F)cc(S(=O)(=O)[O-])cc6F)c6ccc3[nH]6)C=C5)C=C4)cc2)c(OC)c1
REMARK SMILES IDX 23 1 22 2 21 3 20 4 19 5 18 6 16 7 17 8 8 9 7 10 6 11 3 12
REMARK SMILES IDX 4 13 99 14 5 15 96 16 2 17 1 18 97 19 98 20 9 21 10 22 11 23
REMARK SMILES IDX 15 24 12 25 14 26 13 28 24 29 25 30 26 31 27 32 28 33 29 34
REMARK SMILES IDX 30 35 31 36 95 37 32 38 94 39 33 40 34 41 35 42 88 43 36 44
REMARK SMILES IDX 93 45 87 46 89 47 37 48 92 49 86 50 85 51 38 53 72 54 51 55
REMARK SMILES IDX 71 56 52 57 55 58 70 59 90 60 53 61 54 62 69 64 91 65 56 66
REMARK SMILES IDX 39 67 40 68 49 69 41 70 42 71 48 72 50 73 43 74 44 75 45 76
REMARK SMILES IDX 46 77 47 78 73 79 74 80 83 81 75 82 76 83 82 84 84 85 77 86
REMARK SMILES IDX 78 87 79 88 80 89 81 90 57 91 58 92 67 93 59 94 60 95 66 96
REMARK SMILES IDX 68 97 61 98 62 99 63 100 64 101 65 102
REMARK H PARENT 15 27 89 52 55 63
REMARK Flexibility Score: inf
ROOT
ATOM      1  C   UNL A   1      39.588  23.019  27.068  1.00  0.00     0.188 C 
ENDROOT
BRANCH   1   2
ATOM      2  C   UNL A   1      38.398  23.436  26.170  1.00  0.00     0.188 C 
BRANCH   2   3
ATOM      3  O   UNL A   1      37.596  22.458  25.516  1.00  0.00    -0.376 OA
BRANCH   3   4
ATOM      4  C   UNL A   1      36.186  22.630  25.467  1.00  0.00     0.202 C 
BRANCH   4   5
ATOM      5  C   UNL A   1      35.335  22.030  26.599  1.00  0.00     0.261 C 
BRANCH   5   6
ATOM      6  O   UNL A   1      34.491  22.984  27.265  1.00  0.00    -0.459 OA
BRANCH   6   7
ATOM      7  C   UNL A   1      33.151  22.765  27.234  1.00  0.00     0.345 C 
ATOM      8  O   UNL A   1      32.450  22.432  28.180  1.00  0.00    -0.246 OA
BRANCH   7   9
ATOM      9  C   UNL A   1      32.597  23.108  25.879  1.00  0.00     0.101 C 
ATOM     10  C   UNL A   1      33.250  24.125  25.273  1.00  0.00     0.035 C 
BRANCH  10  11
ATOM     11  C   UNL A   1      33.051  24.782  23.965  1.00  0.00     0.018 A 
ATOM     12  C   UNL A   1      32.175  25.821  21.494  1.00  0.00     0.122 A 
ATOM     13  C   UNL A   1      33.013  24.706  21.546  1.00  0.00     0.047 A 
ATOM     14  C   UNL A   1      31.906  26.510  22.672  1.00  0.00     0.093 A 
ATOM     15  C   UNL A   1      33.470  24.202  22.767  1.00  0.00     0.016 A 
ATOM     16  C   UNL A   1      32.389  26.023  23.895  1.00  0.00     0.129 A 
BRANCH  12  17
ATOM     17  O   UNL A   1      31.632  26.069  20.268  1.00  0.00    -0.497 OA
ATOM     18  C   UNL A   1      32.239  25.496  19.119  1.00  0.00     0.278 C 
ENDBRANCH  12  17
BRANCH  16  19
ATOM     19  O   UNL A   1      32.157  26.710  25.065  1.00  0.00    -0.496 OA
ATOM     20  C   UNL A   1      31.102  27.672  24.939  1.00  0.00     0.278 C 
ENDBRANCH  16  19
ENDBRANCH  10  11
BRANCH   9  21
ATOM     21  S   UNL A   1      31.318  22.063  25.361  1.00  0.00    -0.043 SA
BRANCH  21  22
ATOM     22  C   UNL A   1      32.055  20.544  25.056  1.00  0.00     0.188 A 
ATOM     23  N   UNL A   1      32.245  20.009  23.873  1.00  0.00    -0.206 NA
ATOM     24  N   UNL A   1      32.577  19.736  26.015  1.00  0.00    -0.254 N 
ATOM     25  C   UNL A   1      32.844  18.812  24.172  1.00  0.00     0.148 A 
ATOM     26  N   UNL A   1      33.118  18.626  25.472  1.00  0.00    -0.158 NA
ATOM     27  H   UNL A   1      32.564  19.935  26.979  1.00  0.00     0.192 HD
ATOM     28  C   UNL A   1      33.116  17.796  23.134  1.00  0.00     0.092 C 
ENDBRANCH  21  22
ENDBRANCH   9  21
ENDBRANCH   7   9
ENDBRANCH   6   7
ENDBRANCH   5   6
ENDBRANCH   4   5
ENDBRANCH   3   4
ENDBRANCH   2   3
ENDBRANCH   1   2
BRANCH   1  29
ATOM     29  O   UNL A   1      39.942  21.647  26.993  1.00  0.00    -0.376 OA
BRANCH  29  30
ATOM     30  C   UNL A   1      41.326  21.348  27.137  1.00  0.00     0.202 C 
BRANCH  30  31
ATOM     31  C   UNL A   1      41.838  20.219  26.244  1.00  0.00     0.261 C 
BRANCH  31  32
ATOM     32  O   UNL A   1      43.254  20.088  26.215  1.00  0.00    -0.460 OA
BRANCH  32  33
ATOM     33  C   UNL A   1      43.844  20.376  25.038  1.00  0.00     0.338 C 
ATOM     34  O   UNL A   1      43.932  19.646  24.067  1.00  0.00    -0.246 OA
BRANCH  33  35
ATOM     35  C   UNL A   1      44.418  21.724  25.127  1.00  0.00     0.060 A 
ATOM     36  C   UNL A   1      45.480  21.910  26.013  1.00  0.00     0.016 A 
ATOM     37  C   UNL A   1      43.731  22.805  24.550  1.00  0.00     0.016 A 
ATOM     38  C   UNL A   1      45.695  23.176  26.511  1.00  0.00     0.010 A 
ATOM     39  C   UNL A   1      43.940  24.067  25.056  1.00  0.00     0.010 A 
ATOM     40  C   UNL A   1      44.842  24.207  26.107  1.00  0.00    -0.014 A 
BRANCH  40  41
ATOM     41  C   UNL A   1      44.816  25.399  26.929  1.00  0.00     0.031 A 
ATOM     42  C   UNL A   1      45.976  26.300  26.806  1.00  0.00     0.074 A 
ATOM     43  C   UNL A   1      43.745  25.676  27.697  1.00  0.00     0.049 A 
ATOM     44  N   UNL A   1      46.825  26.643  27.718  1.00  0.00    -0.248 NA
ATOM     45  C   UNL A   1      46.279  26.813  25.463  1.00  0.00     0.031 C 
ATOM     46  C   UNL A   1      42.424  25.035  27.672  1.00  0.00     0.029 A 
ATOM     47  N   UNL A   1      43.587  26.677  28.600  1.00  0.00    -0.354 N 
ATOM     48  C   UNL A   1      47.666  27.568  27.111  1.00  0.00     0.074 A 
ATOM     49  C   UNL A   1      47.375  27.530  25.699  1.00  0.00     0.031 C 
ATOM     50  C   UNL A   1      41.550  25.802  28.361  1.00  0.00     0.029 A 
ATOM     51  C   UNL A   1      42.272  26.905  28.971  1.00  0.00     0.049 A 
ATOM     52  H   UNL A   1      44.342  27.197  28.960  1.00  0.00     0.167 HD
ATOM     53  C   UNL A   1      48.415  28.451  27.823  1.00  0.00     0.037 A 
ATOM     54  C   UNL A   1      41.810  27.984  29.646  1.00  0.00     0.037 A 
ATOM     55  C   UNL A   1      48.570  28.055  29.195  1.00  0.00     0.049 A 
ATOM     56  C   UNL A   1      42.969  28.610  30.336  1.00  0.00     0.074 A 
ATOM     57  C   UNL A   1      49.139  26.963  29.824  1.00  0.00     0.029 A 
ATOM     58  N   UNL A   1      47.785  28.663  30.144  1.00  0.00    -0.354 N 
ATOM     59  N   UNL A   1      43.629  28.060  31.320  1.00  0.00    -0.248 NA
ATOM     60  C   UNL A   1      43.664  29.693  29.657  1.00  0.00     0.031 C 
ATOM     61  C   UNL A   1      48.322  26.715  30.965  1.00  0.00     0.029 A 
ATOM     62  C   UNL A   1      47.313  27.679  30.980  1.00  0.00     0.049 A 
ATOM     63  H   UNL A   1      47.595  29.626  30.213  1.00  0.00     0.167 HD
ATOM     64  C   UNL A   1      44.950  28.444  31.129  1.00  0.00     0.074 A 
ATOM     65  C   UNL A   1      44.890  29.532  30.162  1.00  0.00     0.031 C 
ATOM     66  C   UNL A   1      45.987  27.669  31.566  1.00  0.00     0.037 A 
BRANCH  53  67
ATOM     67  C   UNL A   1      48.766  29.816  27.306  1.00  0.00     0.058 A 
ATOM     68  C   UNL A   1      50.107  30.172  27.076  1.00  0.00     0.135 A 
ATOM     69  C   UNL A   1      47.826  30.870  27.237  1.00  0.00     0.135 A 
ATOM     70  F   UNL A   1      51.080  29.251  27.158  1.00  0.00    -0.206 F 
ATOM     71  C   UNL A   1      50.489  31.488  26.814  1.00  0.00     0.059 A 
ATOM     72  C   UNL A   1      48.176  32.174  26.919  1.00  0.00     0.059 A 
ATOM     73  F   UNL A   1      46.539  30.689  27.565  1.00  0.00    -0.206 F 
ATOM     74  C   UNL A   1      49.514  32.483  26.744  1.00  0.00     0.060 A 
BRANCH  74  75
ATOM     75  S   UNL A   1      50.007  34.197  26.492  1.00  0.00     0.124 S 
ATOM     76  O   UNL A   1      51.396  34.166  26.936  1.00  0.00    -0.237 OA
ATOM     77  O   UNL A   1      49.796  34.371  25.059  1.00  0.00    -0.237 OA
ATOM     78  O   UNL A   1      49.085  34.938  27.347  1.00  0.00    -0.744 OA
ENDBRANCH  74  75
ENDBRANCH  53  67
BRANCH  54  79
ATOM     79  C   UNL A   1      40.523  28.692  29.421  1.00  0.00     0.058 A 
ATOM     80  C   UNL A   1      40.182  29.192  28.154  1.00  0.00     0.135 A 
ATOM     81  C   UNL A   1      39.487  28.661  30.379  1.00  0.00     0.135 A 
ATOM     82  F   UNL A   1      41.098  29.229  27.175  1.00  0.00    -0.206 F 
ATOM     83  C   UNL A   1      38.880  29.597  27.841  1.00  0.00     0.059 A 
ATOM     84  C   UNL A   1      38.188  29.077  30.096  1.00  0.00     0.059 A 
ATOM     85  F   UNL A   1      39.678  28.135  31.597  1.00  0.00    -0.206 F 
ATOM     86  C   UNL A   1      37.885  29.520  28.815  1.00  0.00     0.060 A 
BRANCH  86  87
ATOM     87  S   UNL A   1      36.171  29.874  28.369  1.00  0.00     0.124 S 
ATOM     88  O   UNL A   1      35.502  29.804  29.663  1.00  0.00    -0.237 OA
ATOM     89  O   UNL A   1      36.277  31.202  27.774  1.00  0.00    -0.237 OA
ATOM     90  O   UNL A   1      35.836  28.802  27.435  1.00  0.00    -0.744 OA
ENDBRANCH  86  87
ENDBRANCH  54  79
BRANCH  66  91
ATOM     91  C   UNL A   1      45.675  26.543  32.523  1.00  0.00     0.058 A 
ATOM     92  C   UNL A   1      45.227  25.274  32.118  1.00  0.00     0.135 A 
ATOM     93  C   UNL A   1      45.985  26.705  33.882  1.00  0.00     0.135 A 
ATOM     94  F   UNL A   1      45.014  25.001  30.823  1.00  0.00    -0.206 F 
ATOM     95  C   UNL A   1      45.051  24.228  33.026  1.00  0.00     0.059 A 
ATOM     96  C   UNL A   1      45.849  25.666  34.802  1.00  0.00     0.059 A 
ATOM     97  F   UNL A   1      46.482  27.872  34.326  1.00  0.00    -0.206 F 
ATOM     98  C   UNL A   1      45.368  24.432  34.368  1.00  0.00     0.060 A 
BRANCH  98  99
ATOM     99  S   UNL A   1      45.231  23.048  35.522  1.00  0.00     0.124 S 
ATOM    100  O   UNL A   1      44.899  23.722  36.772  1.00  0.00    -0.237 OA
ATOM    101  O   UNL A   1      44.164  22.244  34.932  1.00  0.00    -0.237 OA
ATOM    102  O   UNL A   1      46.557  22.435  35.475  1.00  0.00    -0.744 OA
ENDBRANCH  98  99
ENDBRANCH  66  91
ENDBRANCH  40  41
ENDBRANCH  33  35
ENDBRANCH  32  33
ENDBRANCH  31  32
ENDBRANCH  30  31
ENDBRANCH  29  30
ENDBRANCH   1  29
TORSDOF 25
ENDMDL
