MODEL 1
REMARK VINA RESULT:      -8.8      0.000      0.000
REMARK SMILES O=C(OCCOCCOCCOC(=O)c1cc(-c2ccccc2)nc(Nc2nc3ccccc3s2)n1)c1ccc(-c2c3nc(c(-c4c(F)cc(S(=O)(=O)[O-])cc4F)c4ccc([nH]4)c(-c4c(F)cc(S(=O)(=O)[O-])cc4F)c4nc(c(-c5c(F)cc(S(=O)(=O)[O-])cc5F)c5ccc2[nH]5)C=C4)C=C3)cc1
REMARK SMILES IDX 7 1 6 2 5 3 4 4 3 5 2 6 1 7 37 8 38 9 102 10 39 11 101 12
REMARK SMILES IDX 40 13 41 14 42 15 95 16 43 17 100 18 94 19 96 20 44 21 99 22
REMARK SMILES IDX 93 23 92 24 45 26 79 27 58 28 78 29 59 30 62 31 77 32 97 33
REMARK SMILES IDX 60 34 61 35 76 37 98 38 63 39 46 40 47 41 56 42 48 43 49 44
REMARK SMILES IDX 55 45 57 46 50 47 51 48 52 49 53 50 54 51 80 52 81 53 90 54
REMARK SMILES IDX 82 55 83 56 89 57 91 58 84 59 85 60 86 61 87 62 88 63 64 64
REMARK SMILES IDX 65 65 74 66 66 67 67 68 73 69 75 70 68 71 69 72 70 73 71 74
REMARK SMILES IDX 72 75 8 76 9 77 10 78 11 79 12 80 13 81 14 82 15 83 16 84
REMARK SMILES IDX 36 85 17 86 25 87 24 88 18 89 19 90 23 91 20 92 22 93 21 94
REMARK SMILES IDX 26 95 27 97 28 98 35 99 29 100 34 101 30 102 33 103 31 104
REMARK SMILES IDX 32 105
REMARK H PARENT 96 25 62 36 26 96
REMARK Flexibility Score: inf
ROOT
ATOM      1  C   UNL A   1      51.706  23.695  37.360  1.00  0.00     0.188 C 
ENDROOT
BRANCH   1   2
ATOM      2  O   UNL A   1      51.994  25.090  37.318  1.00  0.00    -0.376 OA
BRANCH   2   3
ATOM      3  C   UNL A   1      50.879  25.959  37.070  1.00  0.00     0.202 C 
BRANCH   3   4
ATOM      4  C   UNL A   1      49.728  25.376  36.236  1.00  0.00     0.261 C 
BRANCH   4   5
ATOM      5  O   UNL A   1      48.704  26.359  36.076  1.00  0.00    -0.460 OA
BRANCH   5   6
ATOM      6  C   UNL A   1      47.479  26.023  36.566  1.00  0.00     0.338 C 
ATOM      7  O   UNL A   1      47.175  24.958  37.054  1.00  0.00    -0.246 OA
BRANCH   6   8
ATOM      8  C   UNL A   1      46.611  27.201  36.325  1.00  0.00     0.060 A 
ATOM      9  C   UNL A   1      45.284  27.105  36.753  1.00  0.00     0.016 A 
ATOM     10  C   UNL A   1      47.039  28.322  35.615  1.00  0.00     0.016 A 
ATOM     11  C   UNL A   1      44.342  27.992  36.309  1.00  0.00     0.010 A 
ATOM     12  C   UNL A   1      46.088  29.267  35.208  1.00  0.00     0.010 A 
ATOM     13  C   UNL A   1      44.726  29.051  35.489  1.00  0.00    -0.014 A 
BRANCH  13  14
ATOM     14  C   UNL A   1      43.617  29.717  34.778  1.00  0.00     0.031 A 
ATOM     15  C   UNL A   1      43.221  29.173  33.431  1.00  0.00     0.074 A 
ATOM     16  C   UNL A   1      42.819  30.561  35.459  1.00  0.00     0.049 A 
ATOM     17  N   UNL A   1      42.229  29.523  32.659  1.00  0.00    -0.248 NA
ATOM     18  C   UNL A   1      44.030  28.061  32.895  1.00  0.00     0.031 C 
ATOM     19  C   UNL A   1      43.027  30.983  36.850  1.00  0.00     0.029 A 
ATOM     20  N   UNL A   1      41.639  31.158  35.115  1.00  0.00    -0.354 N 
ATOM     21  C   UNL A   1      42.307  28.695  31.544  1.00  0.00     0.074 A 
ATOM     22  C   UNL A   1      43.449  27.831  31.727  1.00  0.00     0.031 C 
ATOM     23  C   UNL A   1      41.994  31.745  37.245  1.00  0.00     0.029 A 
ATOM     24  C   UNL A   1      41.097  31.925  36.119  1.00  0.00     0.049 A 
ATOM     25  H   UNL A   1      41.219  31.049  34.231  1.00  0.00     0.167 HD
ATOM     26  C   UNL A   1      41.490  28.667  30.466  1.00  0.00     0.037 A 
ATOM     27  C   UNL A   1      40.016  32.721  36.097  1.00  0.00     0.037 A 
ATOM     28  C   UNL A   1      40.358  29.542  30.325  1.00  0.00     0.049 A 
ATOM     29  C   UNL A   1      39.243  32.806  34.820  1.00  0.00     0.074 A 
ATOM     30  C   UNL A   1      39.480  29.663  29.265  1.00  0.00     0.029 A 
ATOM     31  N   UNL A   1      39.955  30.457  31.289  1.00  0.00    -0.354 N 
ATOM     32  N   UNL A   1      39.411  32.125  33.712  1.00  0.00    -0.248 NA
ATOM     33  C   UNL A   1      38.146  33.777  34.787  1.00  0.00     0.031 C 
ATOM     34  C   UNL A   1      38.585  30.695  29.563  1.00  0.00     0.029 A 
ATOM     35  C   UNL A   1      38.862  31.171  30.835  1.00  0.00     0.049 A 
ATOM     36  H   UNL A   1      40.384  30.579  32.167  1.00  0.00     0.167 HD
ATOM     37  C   UNL A   1      38.435  32.585  32.844  1.00  0.00     0.074 A 
ATOM     38  C   UNL A   1      37.681  33.597  33.560  1.00  0.00     0.031 C 
ATOM     39  C   UNL A   1      38.172  32.197  31.574  1.00  0.00     0.037 A 
BRANCH  26  40
ATOM     40  C   UNL A   1      41.853  27.737  29.341  1.00  0.00     0.058 A 
ATOM     41  C   UNL A   1      42.975  27.942  28.521  1.00  0.00     0.135 A 
ATOM     42  C   UNL A   1      41.036  26.629  29.062  1.00  0.00     0.135 A 
ATOM     43  F   UNL A   1      43.777  29.000  28.723  1.00  0.00    -0.206 F 
ATOM     44  C   UNL A   1      43.254  27.101  27.446  1.00  0.00     0.059 A 
ATOM     45  C   UNL A   1      41.311  25.760  28.010  1.00  0.00     0.059 A 
ATOM     46  F   UNL A   1      39.945  26.390  29.805  1.00  0.00    -0.206 F 
ATOM     47  C   UNL A   1      42.413  26.015  27.196  1.00  0.00     0.060 A 
BRANCH  47  48
ATOM     48  S   UNL A   1      42.771  24.947  25.784  1.00  0.00     0.124 S 
ATOM     49  O   UNL A   1      42.253  25.745  24.677  1.00  0.00    -0.237 OA
ATOM     50  O   UNL A   1      44.222  24.819  25.850  1.00  0.00    -0.237 OA
ATOM     51  O   UNL A   1      42.023  23.728  26.081  1.00  0.00    -0.744 OA
ENDBRANCH  47  48
ENDBRANCH  26  40
BRANCH  27  52
ATOM     52  C   UNL A   1      39.665  33.602  37.236  1.00  0.00     0.058 A 
ATOM     53  C   UNL A   1      40.268  34.850  37.429  1.00  0.00     0.135 A 
ATOM     54  C   UNL A   1      38.778  33.138  38.217  1.00  0.00     0.135 A 
ATOM     55  F   UNL A   1      41.140  35.324  36.526  1.00  0.00    -0.206 F 
ATOM     56  C   UNL A   1      40.000  35.615  38.564  1.00  0.00     0.059 A 
ATOM     57  C   UNL A   1      38.518  33.870  39.369  1.00  0.00     0.059 A 
ATOM     58  F   UNL A   1      38.171  31.951  38.065  1.00  0.00    -0.206 F 
ATOM     59  C   UNL A   1      39.126  35.113  39.531  1.00  0.00     0.060 A 
BRANCH  59  60
ATOM     60  S   UNL A   1      38.716  36.133  40.965  1.00  0.00     0.124 S 
ATOM     61  O   UNL A   1      37.572  35.420  41.519  1.00  0.00    -0.237 OA
ATOM     62  O   UNL A   1      39.947  36.081  41.748  1.00  0.00    -0.237 OA
ATOM     63  O   UNL A   1      38.421  37.437  40.374  1.00  0.00    -0.744 OA
ENDBRANCH  59  60
ENDBRANCH  27  52
BRANCH  39  64
ATOM     64  C   UNL A   1      37.007  32.864  30.915  1.00  0.00     0.058 A 
ATOM     65  C   UNL A   1      37.163  34.014  30.131  1.00  0.00     0.135 A 
ATOM     66  C   UNL A   1      35.719  32.333  31.077  1.00  0.00     0.135 A 
ATOM     67  F   UNL A   1      38.376  34.569  29.974  1.00  0.00    -0.206 F 
ATOM     68  C   UNL A   1      36.070  34.635  29.543  1.00  0.00     0.059 A 
ATOM     69  C   UNL A   1      34.617  32.917  30.473  1.00  0.00     0.059 A 
ATOM     70  F   UNL A   1      35.527  31.235  31.826  1.00  0.00    -0.206 F 
ATOM     71  C   UNL A   1      34.802  34.075  29.716  1.00  0.00     0.060 A 
BRANCH  71  72
ATOM     72  S   UNL A   1      33.394  34.867  28.918  1.00  0.00     0.124 S 
ATOM     73  O   UNL A   1      32.575  35.235  30.067  1.00  0.00    -0.237 OA
ATOM     74  O   UNL A   1      34.025  35.975  28.206  1.00  0.00    -0.237 OA
ATOM     75  O   UNL A   1      32.849  33.813  28.068  1.00  0.00    -0.744 OA
ENDBRANCH  71  72
ENDBRANCH  39  64
ENDBRANCH  13  14
ENDBRANCH   6   8
ENDBRANCH   5   6
ENDBRANCH   4   5
ENDBRANCH   3   4
ENDBRANCH   2   3
ENDBRANCH   1   2
BRANCH   1  76
ATOM     76  C   UNL A   1      52.911  22.785  37.104  1.00  0.00     0.188 C 
BRANCH  76  77
ATOM     77  O   UNL A   1      52.678  21.542  36.446  1.00  0.00    -0.376 OA
BRANCH  77  78
ATOM     78  C   UNL A   1      52.615  21.539  35.026  1.00  0.00     0.202 C 
BRANCH  78  79
ATOM     79  C   UNL A   1      51.461  20.799  34.334  1.00  0.00     0.261 C 
BRANCH  79  80
ATOM     80  O   UNL A   1      50.190  21.458  34.385  1.00  0.00    -0.459 OA
BRANCH  80  81
ATOM     81  C   UNL A   1      49.130  20.630  34.232  1.00  0.00     0.357 C 
ATOM     82  O   UNL A   1      48.910  19.883  33.290  1.00  0.00    -0.244 OA
BRANCH  81  83
ATOM     83  C   UNL A   1      48.141  20.838  35.308  1.00  0.00     0.154 A 
ATOM     84  C   UNL A   1      47.462  22.013  35.172  1.00  0.00     0.065 A 
ATOM     85  N   UNL A   1      47.698  19.759  35.994  1.00  0.00    -0.206 NA
ATOM     86  C   UNL A   1      46.171  21.979  35.622  1.00  0.00     0.077 A 
ATOM     87  C   UNL A   1      46.489  19.884  36.559  1.00  0.00     0.230 A 
ATOM     88  N   UNL A   1      45.693  20.946  36.350  1.00  0.00    -0.213 NA
BRANCH  86  89
ATOM     89  C   UNL A   1      45.204  22.986  35.171  1.00  0.00     0.000 A 
ATOM     90  C   UNL A   1      44.114  23.370  35.959  1.00  0.00     0.010 A 
ATOM     91  C   UNL A   1      45.349  23.585  33.899  1.00  0.00     0.010 A 
ATOM     92  C   UNL A   1      43.216  24.333  35.497  1.00  0.00     0.001 A 
ATOM     93  C   UNL A   1      44.474  24.569  33.455  1.00  0.00     0.001 A 
ATOM     94  C   UNL A   1      43.406  24.940  34.257  1.00  0.00     0.000 A 
ENDBRANCH  86  89
BRANCH  87  95
ATOM     95  N   UNL A   1      45.874  18.843  37.247  1.00  0.00    -0.300 N 
ATOM     96  H   UNL A   1      45.194  18.324  36.760  1.00  0.00     0.172 HD
BRANCH  95  97
ATOM     97  C   UNL A   1      46.123  18.484  38.516  1.00  0.00     0.190 A 
ATOM     98  N   UNL A   1      46.963  19.077  39.333  1.00  0.00    -0.220 NA
ATOM     99  S   UNL A   1      45.237  17.183  39.225  1.00  0.00    -0.097 S 
ATOM    100  C   UNL A   1      47.026  18.404  40.539  1.00  0.00     0.084 A 
ATOM    101  C   UNL A   1      46.215  17.275  40.636  1.00  0.00     0.056 A 
ATOM    102  C   UNL A   1      47.843  18.738  41.634  1.00  0.00     0.030 A 
ATOM    103  C   UNL A   1      46.262  16.422  41.752  1.00  0.00     0.021 A 
ATOM    104  C   UNL A   1      47.923  17.886  42.738  1.00  0.00     0.002 A 
ATOM    105  C   UNL A   1      47.154  16.730  42.785  1.00  0.00     0.002 A 
ENDBRANCH  95  97
ENDBRANCH  87  95
ENDBRANCH  81  83
ENDBRANCH  80  81
ENDBRANCH  79  80
ENDBRANCH  78  79
ENDBRANCH  77  78
ENDBRANCH  76  77
ENDBRANCH   1  76
TORSDOF 23
ENDMDL
MODEL 2
REMARK VINA RESULT:      -8.8      8.108     13.763
REMARK SMILES O=C(OCCOCCOCCOC(=O)c1cc(-c2ccccc2)nc(Nc2nc3ccccc3s2)n1)c1ccc(-c2c3nc(c(-c4c(F)cc(S(=O)(=O)[O-])cc4F)c4ccc([nH]4)c(-c4c(F)cc(S(=O)(=O)[O-])cc4F)c4nc(c(-c5c(F)cc(S(=O)(=O)[O-])cc5F)c5ccc2[nH]5)C=C4)C=C3)cc1
REMARK SMILES IDX 7 1 6 2 5 3 4 4 3 5 2 6 1 7 37 8 38 9 102 10 39 11 101 12
REMARK SMILES IDX 40 13 41 14 42 15 95 16 43 17 100 18 94 19 96 20 44 21 99 22
REMARK SMILES IDX 93 23 92 24 45 26 79 27 58 28 78 29 59 30 62 31 77 32 97 33
REMARK SMILES IDX 60 34 61 35 76 37 98 38 63 39 46 40 47 41 56 42 48 43 49 44
REMARK SMILES IDX 55 45 57 46 50 47 51 48 52 49 53 50 54 51 80 52 81 53 90 54
REMARK SMILES IDX 82 55 83 56 89 57 91 58 84 59 85 60 86 61 87 62 88 63 64 64
REMARK SMILES IDX 65 65 74 66 66 67 67 68 73 69 75 70 68 71 69 72 70 73 71 74
REMARK SMILES IDX 72 75 8 76 9 77 10 78 11 79 12 80 13 81 14 82 15 83 16 84
REMARK SMILES IDX 36 85 17 86 25 87 24 88 18 89 19 90 23 91 20 92 22 93 21 94
REMARK SMILES IDX 26 95 27 97 28 98 35 99 29 100 34 101 30 102 33 103 31 104
REMARK SMILES IDX 32 105
REMARK H PARENT 96 25 62 36 26 96
REMARK Flexibility Score: inf
ROOT
ATOM      1  C   UNL A   1      38.659  27.859  32.389  1.00  0.00     0.188 C 
ENDROOT
BRANCH   1   2
ATOM      2  O   UNL A   1      37.436  28.370  32.914  1.00  0.00    -0.376 OA
BRANCH   2   3
ATOM      3  C   UNL A   1      36.888  29.514  32.243  1.00  0.00     0.202 C 
BRANCH   3   4
ATOM      4  C   UNL A   1      37.528  30.872  32.569  1.00  0.00     0.261 C 
BRANCH   4   5
ATOM      5  O   UNL A   1      37.812  30.946  33.967  1.00  0.00    -0.460 OA
BRANCH   5   6
ATOM      6  C   UNL A   1      37.707  32.182  34.527  1.00  0.00     0.338 C 
ATOM      7  O   UNL A   1      36.751  32.612  35.133  1.00  0.00    -0.246 OA
BRANCH   6   8
ATOM      8  C   UNL A   1      38.970  32.885  34.195  1.00  0.00     0.060 A 
ATOM      9  C   UNL A   1      38.895  33.894  33.230  1.00  0.00     0.016 A 
ATOM     10  C   UNL A   1      40.204  32.511  34.724  1.00  0.00     0.016 A 
ATOM     11  C   UNL A   1      40.030  34.378  32.637  1.00  0.00     0.010 A 
ATOM     12  C   UNL A   1      41.370  33.049  34.162  1.00  0.00     0.010 A 
ATOM     13  C   UNL A   1      41.276  33.921  33.062  1.00  0.00    -0.014 A 
BRANCH  13  14
ATOM     14  C   UNL A   1      42.389  34.213  32.137  1.00  0.00     0.031 A 
ATOM     15  C   UNL A   1      43.160  35.489  32.351  1.00  0.00     0.074 A 
ATOM     16  C   UNL A   1      42.864  33.226  31.354  1.00  0.00     0.049 A 
ATOM     17  N   UNL A   1      44.227  35.921  31.737  1.00  0.00    -0.248 NA
ATOM     18  C   UNL A   1      42.687  36.385  33.425  1.00  0.00     0.031 C 
ATOM     19  C   UNL A   1      42.284  31.881  31.244  1.00  0.00     0.029 A 
ATOM     20  N   UNL A   1      43.975  33.163  30.562  1.00  0.00    -0.354 N 
ATOM     21  C   UNL A   1      44.538  37.140  32.331  1.00  0.00     0.074 A 
ATOM     22  C   UNL A   1      43.544  37.392  33.346  1.00  0.00     0.031 C 
ATOM     23  C   UNL A   1      43.061  31.122  30.456  1.00  0.00     0.029 A 
ATOM     24  C   UNL A   1      44.144  31.944  29.948  1.00  0.00     0.049 A 
ATOM     25  H   UNL A   1      44.593  33.920  30.441  1.00  0.00     0.167 HD
ATOM     26  C   UNL A   1      45.567  37.970  32.044  1.00  0.00     0.037 A 
ATOM     27  C   UNL A   1      45.056  31.565  29.038  1.00  0.00     0.037 A 
ATOM     28  C   UNL A   1      46.542  37.679  31.028  1.00  0.00     0.049 A 
ATOM     29  C   UNL A   1      46.069  32.578  28.607  1.00  0.00     0.074 A 
ATOM     30  C   UNL A   1      47.601  38.452  30.593  1.00  0.00     0.029 A 
ATOM     31  N   UNL A   1      46.562  36.508  30.279  1.00  0.00    -0.354 N 
ATOM     32  N   UNL A   1      46.268  33.788  29.071  1.00  0.00    -0.248 NA
ATOM     33  C   UNL A   1      46.969  32.177  27.523  1.00  0.00     0.031 C 
ATOM     34  C   UNL A   1      48.224  37.776  29.539  1.00  0.00     0.029 A 
ATOM     35  C   UNL A   1      47.594  36.552  29.362  1.00  0.00     0.049 A 
ATOM     36  H   UNL A   1      45.934  35.758  30.387  1.00  0.00     0.167 HD
ATOM     37  C   UNL A   1      47.322  34.298  28.333  1.00  0.00     0.074 A 
ATOM     38  C   UNL A   1      47.719  33.261  27.398  1.00  0.00     0.031 C 
ATOM     39  C   UNL A   1      47.923  35.507  28.426  1.00  0.00     0.037 A 
BRANCH  26  40
ATOM     40  C   UNL A   1      45.624  39.286  32.770  1.00  0.00     0.058 A 
ATOM     41  C   UNL A   1      46.334  39.459  33.970  1.00  0.00     0.135 A 
ATOM     42  C   UNL A   1      44.925  40.393  32.262  1.00  0.00     0.135 A 
ATOM     43  F   UNL A   1      46.998  38.428  34.518  1.00  0.00    -0.206 F 
ATOM     44  C   UNL A   1      46.320  40.671  34.656  1.00  0.00     0.059 A 
ATOM     45  C   UNL A   1      44.920  41.622  32.916  1.00  0.00     0.059 A 
ATOM     46  F   UNL A   1      44.222  40.284  31.124  1.00  0.00    -0.206 F 
ATOM     47  C   UNL A   1      45.605  41.746  34.123  1.00  0.00     0.060 A 
BRANCH  47  48
ATOM     48  S   UNL A   1      45.573  43.304  35.033  1.00  0.00     0.124 S 
ATOM     49  O   UNL A   1      45.190  44.246  33.986  1.00  0.00    -0.237 OA
ATOM     50  O   UNL A   1      44.564  43.048  36.055  1.00  0.00    -0.237 OA
ATOM     51  O   UNL A   1      46.941  43.439  35.527  1.00  0.00    -0.744 OA
ENDBRANCH  47  48
ENDBRANCH  26  40
BRANCH  27  52
ATOM     52  C   UNL A   1      44.993  30.247  28.364  1.00  0.00     0.058 A 
ATOM     53  C   UNL A   1      45.735  29.145  28.805  1.00  0.00     0.135 A 
ATOM     54  C   UNL A   1      44.250  30.113  27.183  1.00  0.00     0.135 A 
ATOM     55  F   UNL A   1      46.478  29.235  29.918  1.00  0.00    -0.206 F 
ATOM     56  C   UNL A   1      45.741  27.946  28.093  1.00  0.00     0.059 A 
ATOM     57  C   UNL A   1      44.263  28.937  26.443  1.00  0.00     0.059 A 
ATOM     58  F   UNL A   1      43.516  31.142  26.732  1.00  0.00    -0.206 F 
ATOM     59  C   UNL A   1      45.005  27.854  26.909  1.00  0.00     0.060 A 
BRANCH  59  60
ATOM     60  S   UNL A   1      44.948  26.279  26.025  1.00  0.00     0.124 S 
ATOM     61  O   UNL A   1      45.577  25.378  26.982  1.00  0.00    -0.237 OA
ATOM     62  O   UNL A   1      43.516  26.093  25.812  1.00  0.00    -0.237 OA
ATOM     63  O   UNL A   1      45.717  26.549  24.812  1.00  0.00    -0.744 OA
ENDBRANCH  59  60
ENDBRANCH  27  52
BRANCH  39  64
ATOM     64  C   UNL A   1      49.078  35.736  27.505  1.00  0.00     0.058 A 
ATOM     65  C   UNL A   1      50.395  35.459  27.893  1.00  0.00     0.135 A 
ATOM     66  C   UNL A   1      48.850  36.240  26.216  1.00  0.00     0.135 A 
ATOM     67  F   UNL A   1      50.657  35.001  29.128  1.00  0.00    -0.206 F 
ATOM     68  C   UNL A   1      51.460  35.696  27.034  1.00  0.00     0.059 A 
ATOM     69  C   UNL A   1      49.895  36.454  25.331  1.00  0.00     0.059 A 
ATOM     70  F   UNL A   1      47.603  36.523  25.809  1.00  0.00    -0.206 F 
ATOM     71  C   UNL A   1      51.198  36.190  25.754  1.00  0.00     0.060 A 
BRANCH  71  72
ATOM     72  S   UNL A   1      52.584  36.460  24.634  1.00  0.00     0.124 S 
ATOM     73  O   UNL A   1      52.899  37.860  24.890  1.00  0.00    -0.237 OA
ATOM     74  O   UNL A   1      53.563  35.489  25.115  1.00  0.00    -0.237 OA
ATOM     75  O   UNL A   1      52.019  36.172  23.320  1.00  0.00    -0.744 OA
ENDBRANCH  71  72
ENDBRANCH  39  64
ENDBRANCH  13  14
ENDBRANCH   6   8
ENDBRANCH   5   6
ENDBRANCH   4   5
ENDBRANCH   3   4
ENDBRANCH   2   3
ENDBRANCH   1   2
BRANCH   1  76
ATOM     76  C   UNL A   1      38.615  27.493  30.903  1.00  0.00     0.188 C 
BRANCH  76  77
ATOM     77  O   UNL A   1      39.467  28.214  30.016  1.00  0.00    -0.376 OA
BRANCH  77  78
ATOM     78  C   UNL A   1      40.858  27.921  30.040  1.00  0.00     0.202 C 
BRANCH  78  79
ATOM     79  C   UNL A   1      41.460  27.074  28.910  1.00  0.00     0.261 C 
BRANCH  79  80
ATOM     80  O   UNL A   1      40.850  25.793  28.710  1.00  0.00    -0.459 OA
BRANCH  80  81
ATOM     81  C   UNL A   1      40.330  25.614  27.473  1.00  0.00     0.357 C 
ATOM     82  O   UNL A   1      40.282  26.436  26.570  1.00  0.00    -0.244 OA
BRANCH  81  83
ATOM     83  C   UNL A   1      39.661  24.302  27.369  1.00  0.00     0.154 A 
ATOM     84  C   UNL A   1      38.402  24.399  26.854  1.00  0.00     0.065 A 
ATOM     85  N   UNL A   1      40.427  23.188  27.345  1.00  0.00    -0.206 NA
ATOM     86  C   UNL A   1      38.008  23.321  26.109  1.00  0.00     0.077 A 
ATOM     87  C   UNL A   1      39.881  22.118  26.749  1.00  0.00     0.230 A 
ATOM     88  N   UNL A   1      38.714  22.169  26.086  1.00  0.00    -0.213 NA
BRANCH  86  89
ATOM     89  C   UNL A   1      36.896  23.445  25.160  1.00  0.00     0.000 A 
ATOM     90  C   UNL A   1      36.905  22.795  23.921  1.00  0.00     0.010 A 
ATOM     91  C   UNL A   1      35.782  24.254  25.479  1.00  0.00     0.010 A 
ATOM     92  C   UNL A   1      35.828  22.935  23.045  1.00  0.00     0.001 A 
ATOM     93  C   UNL A   1      34.694  24.365  24.620  1.00  0.00     0.001 A 
ATOM     94  C   UNL A   1      34.721  23.704  23.402  1.00  0.00     0.000 A 
ENDBRANCH  86  89
BRANCH  87  95
ATOM     95  N   UNL A   1      40.567  20.917  26.593  1.00  0.00    -0.300 N 
ATOM     96  H   UNL A   1      40.103  20.097  26.878  1.00  0.00     0.172 HD
BRANCH  95  97
ATOM     97  C   UNL A   1      41.803  20.778  26.090  1.00  0.00     0.190 A 
ATOM     98  N   UNL A   1      42.355  19.649  25.708  1.00  0.00    -0.220 NA
ATOM     99  S   UNL A   1      42.778  22.177  25.819  1.00  0.00    -0.097 S 
ATOM    100  C   UNL A   1      43.661  19.859  25.306  1.00  0.00     0.084 A 
ATOM    101  C   UNL A   1      44.107  21.176  25.387  1.00  0.00     0.056 A 
ATOM    102  C   UNL A   1      44.563  18.872  24.866  1.00  0.00     0.030 A 
ATOM    103  C   UNL A   1      45.445  21.523  25.129  1.00  0.00     0.021 A 
ATOM    104  C   UNL A   1      45.901  19.195  24.633  1.00  0.00     0.002 A 
ATOM    105  C   UNL A   1      46.340  20.505  24.784  1.00  0.00     0.002 A 
ENDBRANCH  95  97
ENDBRANCH  87  95
ENDBRANCH  81  83
ENDBRANCH  80  81
ENDBRANCH  79  80
ENDBRANCH  78  79
ENDBRANCH  77  78
ENDBRANCH  76  77
ENDBRANCH   1  76
TORSDOF 23
ENDMDL
MODEL 3
REMARK VINA RESULT:      -8.8      8.958     16.056
REMARK SMILES O=C(OCCOCCOCCOC(=O)c1cc(-c2ccccc2)nc(Nc2nc3ccccc3s2)n1)c1ccc(-c2c3nc(c(-c4c(F)cc(S(=O)(=O)[O-])cc4F)c4ccc([nH]4)c(-c4c(F)cc(S(=O)(=O)[O-])cc4F)c4nc(c(-c5c(F)cc(S(=O)(=O)[O-])cc5F)c5ccc2[nH]5)C=C4)C=C3)cc1
REMARK SMILES IDX 7 1 6 2 5 3 4 4 3 5 2 6 1 7 37 8 38 9 102 10 39 11 101 12
REMARK SMILES IDX 40 13 41 14 42 15 95 16 43 17 100 18 94 19 96 20 44 21 99 22
REMARK SMILES IDX 93 23 92 24 45 26 79 27 58 28 78 29 59 30 62 31 77 32 97 33
REMARK SMILES IDX 60 34 61 35 76 37 98 38 63 39 46 40 47 41 56 42 48 43 49 44
REMARK SMILES IDX 55 45 57 46 50 47 51 48 52 49 53 50 54 51 80 52 81 53 90 54
REMARK SMILES IDX 82 55 83 56 89 57 91 58 84 59 85 60 86 61 87 62 88 63 64 64
REMARK SMILES IDX 65 65 74 66 66 67 67 68 73 69 75 70 68 71 69 72 70 73 71 74
REMARK SMILES IDX 72 75 8 76 9 77 10 78 11 79 12 80 13 81 14 82 15 83 16 84
REMARK SMILES IDX 36 85 17 86 25 87 24 88 18 89 19 90 23 91 20 92 22 93 21 94
REMARK SMILES IDX 26 95 27 97 28 98 35 99 29 100 34 101 30 102 33 103 31 104
REMARK SMILES IDX 32 105
REMARK H PARENT 96 25 62 36 26 96
REMARK Flexibility Score: inf
ROOT
ATOM      1  C   UNL A   1      49.294  40.192  28.263  1.00  0.00     0.188 C 
ENDROOT
BRANCH   1   2
ATOM      2  O   UNL A   1      49.418  38.773  28.335  1.00  0.00    -0.376 OA
BRANCH   2   3
ATOM      3  C   UNL A   1      50.032  38.133  27.207  1.00  0.00     0.202 C 
BRANCH   3   4
ATOM      4  C   UNL A   1      51.149  37.125  27.515  1.00  0.00     0.261 C 
BRANCH   4   5
ATOM      5  O   UNL A   1      50.603  35.807  27.578  1.00  0.00    -0.460 OA
BRANCH   5   6
ATOM      6  C   UNL A   1      50.042  35.455  28.768  1.00  0.00     0.338 C 
ATOM      7  O   UNL A   1      50.453  35.754  29.866  1.00  0.00    -0.246 OA
BRANCH   6   8
ATOM      8  C   UNL A   1      48.877  34.602  28.428  1.00  0.00     0.060 A 
ATOM      9  C   UNL A   1      48.323  33.848  29.466  1.00  0.00     0.016 A 
ATOM     10  C   UNL A   1      48.401  34.458  27.126  1.00  0.00     0.016 A 
ATOM     11  C   UNL A   1      47.465  32.816  29.198  1.00  0.00     0.010 A 
ATOM     12  C   UNL A   1      47.476  33.440  26.854  1.00  0.00     0.010 A 
ATOM     13  C   UNL A   1      47.075  32.569  27.884  1.00  0.00    -0.014 A 
BRANCH  13  14
ATOM     14  C   UNL A   1      46.463  31.245  27.658  1.00  0.00     0.031 A 
ATOM     15  C   UNL A   1      47.380  30.096  27.329  1.00  0.00     0.074 A 
ATOM     16  C   UNL A   1      45.189  31.041  28.042  1.00  0.00     0.049 A 
ATOM     17  N   UNL A   1      47.097  28.831  27.179  1.00  0.00    -0.248 NA
ATOM     18  C   UNL A   1      48.815  30.407  27.181  1.00  0.00     0.031 C 
ATOM     19  C   UNL A   1      44.289  32.076  28.569  1.00  0.00     0.029 A 
ATOM     20  N   UNL A   1      44.447  29.897  28.124  1.00  0.00    -0.354 N 
ATOM     21  C   UNL A   1      48.306  28.204  26.900  1.00  0.00     0.074 A 
ATOM     22  C   UNL A   1      49.328  29.222  26.887  1.00  0.00     0.031 C 
ATOM     23  C   UNL A   1      43.130  31.511  28.944  1.00  0.00     0.029 A 
ATOM     24  C   UNL A   1      43.179  30.098  28.616  1.00  0.00     0.049 A 
ATOM     25  H   UNL A   1      44.788  29.014  27.854  1.00  0.00     0.167 HD
ATOM     26  C   UNL A   1      48.532  26.889  26.676  1.00  0.00     0.037 A 
ATOM     27  C   UNL A   1      42.161  29.231  28.737  1.00  0.00     0.037 A 
ATOM     28  C   UNL A   1      47.485  25.904  26.705  1.00  0.00     0.049 A 
ATOM     29  C   UNL A   1      42.397  27.820  28.300  1.00  0.00     0.074 A 
ATOM     30  C   UNL A   1      47.559  24.549  26.441  1.00  0.00     0.029 A 
ATOM     31  N   UNL A   1      46.160  26.183  27.014  1.00  0.00    -0.354 N 
ATOM     32  N   UNL A   1      43.513  27.262  27.895  1.00  0.00    -0.248 NA
ATOM     33  C   UNL A   1      41.235  26.928  28.323  1.00  0.00     0.031 C 
ATOM     34  C   UNL A   1      46.267  24.022  26.530  1.00  0.00     0.029 A 
ATOM     35  C   UNL A   1      45.399  25.034  26.914  1.00  0.00     0.049 A 
ATOM     36  H   UNL A   1      45.813  27.069  27.268  1.00  0.00     0.167 HD
ATOM     37  C   UNL A   1      43.187  25.946  27.614  1.00  0.00     0.074 A 
ATOM     38  C   UNL A   1      41.773  25.794  27.902  1.00  0.00     0.031 C 
ATOM     39  C   UNL A   1      43.985  24.945  27.174  1.00  0.00     0.037 A 
BRANCH  26  40
ATOM     40  C   UNL A   1      49.927  26.477  26.295  1.00  0.00     0.058 A 
ATOM     41  C   UNL A   1      50.841  25.950  27.223  1.00  0.00     0.135 A 
ATOM     42  C   UNL A   1      50.366  26.641  24.972  1.00  0.00     0.135 A 
ATOM     43  F   UNL A   1      50.487  25.796  28.509  1.00  0.00    -0.206 F 
ATOM     44  C   UNL A   1      52.148  25.634  26.859  1.00  0.00     0.059 A 
ATOM     45  C   UNL A   1      51.659  26.307  24.579  1.00  0.00     0.059 A 
ATOM     46  F   UNL A   1      49.540  27.149  24.044  1.00  0.00    -0.206 F 
ATOM     47  C   UNL A   1      52.549  25.821  25.534  1.00  0.00     0.060 A 
BRANCH  47  48
ATOM     48  S   UNL A   1      54.253  25.432  25.080  1.00  0.00     0.124 S 
ATOM     49  O   UNL A   1      54.998  26.094  26.146  1.00  0.00    -0.237 OA
ATOM     50  O   UNL A   1      54.259  23.973  25.113  1.00  0.00    -0.237 OA
ATOM     51  O   UNL A   1      54.396  26.026  23.754  1.00  0.00    -0.744 OA
ENDBRANCH  47  48
ENDBRANCH  26  40
BRANCH  27  52
ATOM     52  C   UNL A   1      40.805  29.662  29.147  1.00  0.00     0.058 A 
ATOM     53  C   UNL A   1      40.467  29.898  30.485  1.00  0.00     0.135 A 
ATOM     54  C   UNL A   1      39.787  29.738  28.186  1.00  0.00     0.135 A 
ATOM     55  F   UNL A   1      41.405  29.814  31.440  1.00  0.00    -0.206 F 
ATOM     56  C   UNL A   1      39.158  30.200  30.858  1.00  0.00     0.059 A 
ATOM     57  C   UNL A   1      38.470  30.010  28.538  1.00  0.00     0.059 A 
ATOM     58  F   UNL A   1      40.070  29.528  26.891  1.00  0.00    -0.206 F 
ATOM     59  C   UNL A   1      38.165  30.249  29.877  1.00  0.00     0.060 A 
BRANCH  59  60
ATOM     60  S   UNL A   1      36.483  30.715  30.344  1.00  0.00     0.124 S 
ATOM     61  O   UNL A   1      35.777  30.591  29.076  1.00  0.00    -0.237 OA
ATOM     62  O   UNL A   1      36.155  29.721  31.362  1.00  0.00    -0.237 OA
ATOM     63  O   UNL A   1      36.642  32.078  30.848  1.00  0.00    -0.744 OA
ENDBRANCH  59  60
ENDBRANCH  27  52
BRANCH  39  64
ATOM     64  C   UNL A   1      43.331  23.611  27.011  1.00  0.00     0.058 A 
ATOM     65  C   UNL A   1      42.913  23.143  25.758  1.00  0.00     0.135 A 
ATOM     66  C   UNL A   1      43.124  22.796  28.134  1.00  0.00     0.135 A 
ATOM     67  F   UNL A   1      43.070  23.904  24.663  1.00  0.00    -0.206 F 
ATOM     68  C   UNL A   1      42.289  21.911  25.625  1.00  0.00     0.059 A 
ATOM     69  C   UNL A   1      42.530  21.548  28.020  1.00  0.00     0.059 A 
ATOM     70  F   UNL A   1      43.504  23.211  29.353  1.00  0.00    -0.206 F 
ATOM     71  C   UNL A   1      42.106  21.119  26.761  1.00  0.00     0.060 A 
BRANCH  71  72
ATOM     72  S   UNL A   1      41.326  19.506  26.572  1.00  0.00     0.124 S 
ATOM     73  O   UNL A   1      41.274  19.042  27.954  1.00  0.00    -0.237 OA
ATOM     74  O   UNL A   1      40.042  19.853  25.969  1.00  0.00    -0.237 OA
ATOM     75  O   UNL A   1      42.247  18.784  25.700  1.00  0.00    -0.744 OA
ENDBRANCH  71  72
ENDBRANCH  39  64
ENDBRANCH  13  14
ENDBRANCH   6   8
ENDBRANCH   5   6
ENDBRANCH   4   5
ENDBRANCH   3   4
ENDBRANCH   2   3
ENDBRANCH   1   2
BRANCH   1  76
ATOM     76  C   UNL A   1      48.112  40.690  27.427  1.00  0.00     0.188 C 
BRANCH  76  77
ATOM     77  O   UNL A   1      48.043  42.083  27.136  1.00  0.00    -0.376 OA
BRANCH  77  78
ATOM     78  C   UNL A   1      48.346  43.000  28.180  1.00  0.00     0.202 C 
BRANCH  78  79
ATOM     79  C   UNL A   1      47.267  43.994  28.633  1.00  0.00     0.261 C 
BRANCH  79  80
ATOM     80  O   UNL A   1      46.008  43.885  27.958  1.00  0.00    -0.459 OA
BRANCH  80  81
ATOM     81  C   UNL A   1      45.926  44.607  26.816  1.00  0.00     0.357 C 
ATOM     82  O   UNL A   1      46.441  45.694  26.595  1.00  0.00    -0.244 OA
BRANCH  81  83
ATOM     83  C   UNL A   1      44.983  43.985  25.867  1.00  0.00     0.154 A 
ATOM     84  C   UNL A   1      45.401  44.090  24.573  1.00  0.00     0.065 A 
ATOM     85  N   UNL A   1      44.121  43.052  26.332  1.00  0.00    -0.206 NA
ATOM     86  C   UNL A   1      45.039  43.041  23.772  1.00  0.00     0.077 A 
ATOM     87  C   UNL A   1      43.673  42.170  25.428  1.00  0.00     0.230 A 
ATOM     88  N   UNL A   1      44.148  42.108  24.173  1.00  0.00    -0.213 NA
BRANCH  86  89
ATOM     89  C   UNL A   1      45.749  42.793  22.513  1.00  0.00     0.000 A 
ATOM     90  C   UNL A   1      45.372  43.412  21.316  1.00  0.00     0.010 A 
ATOM     91  C   UNL A   1      46.838  41.893  22.481  1.00  0.00     0.010 A 
ATOM     92  C   UNL A   1      46.073  43.154  20.138  1.00  0.00     0.001 A 
ATOM     93  C   UNL A   1      47.558  41.663  21.314  1.00  0.00     0.001 A 
ATOM     94  C   UNL A   1      47.171  42.295  20.142  1.00  0.00     0.000 A 
ENDBRANCH  86  89
BRANCH  87  95
ATOM     95  N   UNL A   1      42.828  41.117  25.765  1.00  0.00    -0.300 N 
ATOM     96  H   UNL A   1      41.868  41.238  25.584  1.00  0.00     0.172 HD
BRANCH  95  97
ATOM     97  C   UNL A   1      43.205  39.951  26.313  1.00  0.00     0.190 A 
ATOM     98  N   UNL A   1      44.436  39.601  26.607  1.00  0.00    -0.220 NA
ATOM     99  S   UNL A   1      42.006  38.797  26.771  1.00  0.00    -0.097 S 
ATOM    100  C   UNL A   1      44.470  38.307  27.093  1.00  0.00     0.084 A 
ATOM    101  C   UNL A   1      43.237  37.664  27.167  1.00  0.00     0.056 A 
ATOM    102  C   UNL A   1      45.622  37.596  27.477  1.00  0.00     0.030 A 
ATOM    103  C   UNL A   1      43.128  36.309  27.525  1.00  0.00     0.021 A 
ATOM    104  C   UNL A   1      45.535  36.242  27.807  1.00  0.00     0.002 A 
ATOM    105  C   UNL A   1      44.301  35.602  27.811  1.00  0.00     0.002 A 
ENDBRANCH  95  97
ENDBRANCH  87  95
ENDBRANCH  81  83
ENDBRANCH  80  81
ENDBRANCH  79  80
ENDBRANCH  78  79
ENDBRANCH  77  78
ENDBRANCH  76  77
ENDBRANCH   1  76
TORSDOF 23
ENDMDL
