MODEL 1
REMARK VINA RESULT:     -10.1      0.000      0.000
REMARK SMILES CCOC(=O)C1=NN(c2ccc(C)cc2Cl)[C@@](C)(C(=O)OCCOCCOCCOC(=O)c2ccc(-c3c4nc(c(-c5c(F)cc(S(=O)(=O)[O-])cc5F)c5ccc([nH]5)c(-c5c(F)cc(S(=O)(=O)[O-])cc5F)c5nc(c(-c6c(F)cc(S(=O)(=O)[O-])cc6F)c6ccc3[nH]6)C=C5)C=C4)cc2)C1
REMARK SMILES IDX 25 1 24 2 23 3 22 4 21 5 19 6 20 7 17 8 6 9 7 10 99 11 8 12
REMARK SMILES IDX 18 13 4 14 5 15 3 16 2 17 1 18 9 19 10 20 15 21 11 22 14 23
REMARK SMILES IDX 16 24 12 25 13 26 26 27 27 28 28 29 29 30 30 31 31 32 32 33
REMARK SMILES IDX 33 34 34 35 98 36 35 37 97 38 36 39 37 40 38 41 91 42 39 43
REMARK SMILES IDX 96 44 90 45 92 46 40 47 95 48 89 49 88 50 41 52 75 53 54 54
REMARK SMILES IDX 74 55 55 56 58 57 73 58 93 59 56 60 57 61 72 63 94 64 59 65
REMARK SMILES IDX 42 66 43 67 52 68 44 69 45 70 51 71 53 72 46 73 47 74 48 75
REMARK SMILES IDX 49 76 50 77 76 78 77 79 86 80 78 81 79 82 85 83 87 84 80 85
REMARK SMILES IDX 81 86 82 87 83 88 84 89 60 90 61 91 70 92 62 93 63 94 69 95
REMARK SMILES IDX 71 96 64 97 65 98 66 99 67 100 68 101
REMARK H PARENT 92 51 58 62
REMARK Flexibility Score: inf
ROOT
ATOM      1  C   UNL A   1      34.168  34.427  28.654  1.00  0.00     0.188 C 
ENDROOT
BRANCH   1   2
ATOM      2  O   UNL A   1      34.227  33.493  27.581  1.00  0.00    -0.376 OA
BRANCH   2   3
ATOM      3  C   UNL A   1      33.498  32.281  27.665  1.00  0.00     0.202 C 
BRANCH   3   4
ATOM      4  C   UNL A   1      34.202  30.980  27.244  1.00  0.00     0.261 C 
BRANCH   4   5
ATOM      5  O   UNL A   1      33.562  30.167  26.228  1.00  0.00    -0.461 OA
BRANCH   5   6
ATOM      6  C   UNL A   1      33.896  28.851  26.240  1.00  0.00     0.334 C 
ATOM      7  O   UNL A   1      34.744  28.402  27.015  1.00  0.00    -0.249 OA
BRANCH   6   8
ATOM      8  C   UNL A   1      33.254  27.929  25.174  1.00  0.00     0.163 C 
ATOM      9  C   UNL A   1      32.162  25.943  25.786  1.00  0.00     0.149 C 
ATOM     10  N   UNL A   1      31.191  26.729  25.438  1.00  0.00    -0.169 NA
ATOM     11  C   UNL A   1      33.539  26.485  25.641  1.00  0.00     0.108 C 
ATOM     12  N   UNL A   1      31.754  27.922  25.016  1.00  0.00    -0.246 N 
ATOM     13  C   UNL A   1      34.041  28.201  23.893  1.00  0.00     0.050 C 
BRANCH   9  14
ATOM     14  C   UNL A   1      32.001  24.569  26.390  1.00  0.00     0.354 C 
ATOM     15  O   UNL A   1      31.147  24.413  27.245  1.00  0.00    -0.245 OA
BRANCH  14  16
ATOM     16  O   UNL A   1      32.832  23.656  25.866  1.00  0.00    -0.461 OA
BRANCH  16  17
ATOM     17  C   UNL A   1      32.966  22.360  26.503  1.00  0.00     0.230 C 
ATOM     18  C   UNL A   1      33.439  22.361  27.948  1.00  0.00     0.049 C 
ENDBRANCH  16  17
ENDBRANCH  14  16
ENDBRANCH   9  14
BRANCH  12  19
ATOM     19  C   UNL A   1      30.926  28.768  24.261  1.00  0.00     0.079 A 
ATOM     20  C   UNL A   1      30.585  30.054  24.712  1.00  0.00     0.030 A 
ATOM     21  C   UNL A   1      30.446  28.464  22.962  1.00  0.00     0.066 A 
ATOM     22  C   UNL A   1      29.702  30.908  24.031  1.00  0.00     0.006 A 
ATOM     23  C   UNL A   1      29.513  29.289  22.297  1.00  0.00     0.026 A 
ATOM     24  Cl  UNL A   1      31.001  27.120  22.023  1.00  0.00    -0.082 Cl
ATOM     25  C   UNL A   1      29.118  30.511  22.837  1.00  0.00    -0.049 A 
ATOM     26  C   UNL A   1      28.105  31.369  22.144  1.00  0.00     0.044 C 
ENDBRANCH  12  19
ENDBRANCH   6   8
ENDBRANCH   5   6
ENDBRANCH   4   5
ENDBRANCH   3   4
ENDBRANCH   2   3
ENDBRANCH   1   2
BRANCH   1  27
ATOM     27  C   UNL A   1      34.888  34.133  29.978  1.00  0.00     0.188 C 
BRANCH  27  28
ATOM     28  O   UNL A   1      34.133  33.356  30.888  1.00  0.00    -0.376 OA
BRANCH  28  29
ATOM     29  C   UNL A   1      34.869  32.570  31.805  1.00  0.00     0.202 C 
BRANCH  29  30
ATOM     30  C   UNL A   1      36.244  33.137  32.178  1.00  0.00     0.261 C 
BRANCH  30  31
ATOM     31  O   UNL A   1      37.295  32.161  32.321  1.00  0.00    -0.460 OA
BRANCH  31  32
ATOM     32  C   UNL A   1      37.024  30.900  31.917  1.00  0.00     0.338 C 
ATOM     33  O   UNL A   1      35.960  30.307  32.033  1.00  0.00    -0.246 OA
BRANCH  32  34
ATOM     34  C   UNL A   1      38.196  30.380  31.177  1.00  0.00     0.060 A 
ATOM     35  C   UNL A   1      39.189  29.694  31.876  1.00  0.00     0.016 A 
ATOM     36  C   UNL A   1      38.339  30.598  29.804  1.00  0.00     0.016 A 
ATOM     37  C   UNL A   1      40.316  29.233  31.197  1.00  0.00     0.010 A 
ATOM     38  C   UNL A   1      39.504  30.167  29.142  1.00  0.00     0.010 A 
ATOM     39  C   UNL A   1      40.524  29.506  29.842  1.00  0.00    -0.014 A 
BRANCH  39  40
ATOM     40  C   UNL A   1      41.874  29.245  29.254  1.00  0.00     0.031 A 
ATOM     41  C   UNL A   1      42.164  27.890  28.651  1.00  0.00     0.074 A 
ATOM     42  C   UNL A   1      42.800  30.218  29.126  1.00  0.00     0.049 A 
ATOM     43  N   UNL A   1      43.271  27.431  28.124  1.00  0.00    -0.248 NA
ATOM     44  C   UNL A   1      41.047  26.933  28.625  1.00  0.00     0.031 C 
ATOM     45  C   UNL A   1      42.626  31.609  29.538  1.00  0.00     0.029 A 
ATOM     46  N   UNL A   1      44.065  30.189  28.582  1.00  0.00    -0.354 N 
ATOM     47  C   UNL A   1      42.999  26.120  27.744  1.00  0.00     0.074 A 
ATOM     48  C   UNL A   1      41.619  25.860  28.096  1.00  0.00     0.031 C 
ATOM     49  C   UNL A   1      43.732  32.303  29.219  1.00  0.00     0.029 A 
ATOM     50  C   UNL A   1      44.722  31.397  28.637  1.00  0.00     0.049 A 
ATOM     51  H   UNL A   1      44.464  29.378  28.190  1.00  0.00     0.167 HD
ATOM     52  C   UNL A   1      43.821  25.212  27.162  1.00  0.00     0.037 A 
ATOM     53  C   UNL A   1      45.982  31.737  28.291  1.00  0.00     0.037 A 
ATOM     54  C   UNL A   1      45.190  25.470  26.786  1.00  0.00     0.049 A 
ATOM     55  C   UNL A   1      46.907  30.687  27.724  1.00  0.00     0.074 A 
ATOM     56  C   UNL A   1      46.102  24.600  26.211  1.00  0.00     0.029 A 
ATOM     57  N   UNL A   1      45.845  26.682  26.944  1.00  0.00    -0.354 N 
ATOM     58  N   UNL A   1      46.655  29.433  27.428  1.00  0.00    -0.248 NA
ATOM     59  C   UNL A   1      48.293  31.097  27.453  1.00  0.00     0.031 C 
ATOM     60  C   UNL A   1      47.323  25.268  26.075  1.00  0.00     0.029 A 
ATOM     61  C   UNL A   1      47.157  26.574  26.502  1.00  0.00     0.049 A 
ATOM     62  H   UNL A   1      45.440  27.499  27.314  1.00  0.00     0.167 HD
ATOM     63  C   UNL A   1      47.845  28.912  26.925  1.00  0.00     0.074 A 
ATOM     64  C   UNL A   1      48.806  29.994  26.925  1.00  0.00     0.031 C 
ATOM     65  C   UNL A   1      48.118  27.650  26.508  1.00  0.00     0.037 A 
BRANCH  52  66
ATOM     66  C   UNL A   1      43.284  23.821  26.951  1.00  0.00     0.058 A 
ATOM     67  C   UNL A   1      42.895  23.347  25.688  1.00  0.00     0.135 A 
ATOM     68  C   UNL A   1      43.192  22.933  28.037  1.00  0.00     0.135 A 
ATOM     69  F   UNL A   1      42.943  24.156  24.618  1.00  0.00    -0.206 F 
ATOM     70  C   UNL A   1      42.411  22.053  25.515  1.00  0.00     0.059 A 
ATOM     71  C   UNL A   1      42.742  21.627  27.882  1.00  0.00     0.059 A 
ATOM     72  F   UNL A   1      43.551  23.333  29.268  1.00  0.00    -0.206 F 
ATOM     73  C   UNL A   1      42.339  21.200  26.619  1.00  0.00     0.060 A 
BRANCH  73  74
ATOM     74  S   UNL A   1      41.713  19.523  26.378  1.00  0.00     0.124 S 
ATOM     75  O   UNL A   1      41.961  18.930  27.688  1.00  0.00    -0.237 OA
ATOM     76  O   UNL A   1      40.312  19.760  26.044  1.00  0.00    -0.237 OA
ATOM     77  O   UNL A   1      42.535  19.005  25.290  1.00  0.00    -0.744 OA
ENDBRANCH  73  74
ENDBRANCH  52  66
BRANCH  53  78
ATOM     78  C   UNL A   1      46.476  33.127  28.516  1.00  0.00     0.058 A 
ATOM     79  C   UNL A   1      47.046  33.513  29.739  1.00  0.00     0.135 A 
ATOM     80  C   UNL A   1      46.355  34.107  27.518  1.00  0.00     0.135 A 
ATOM     81  F   UNL A   1      47.162  32.625  30.737  1.00  0.00    -0.206 F 
ATOM     82  C   UNL A   1      47.467  34.821  29.968  1.00  0.00     0.059 A 
ATOM     83  C   UNL A   1      46.802  35.411  27.710  1.00  0.00     0.059 A 
ATOM     84  F   UNL A   1      45.810  33.797  26.332  1.00  0.00    -0.206 F 
ATOM     85  C   UNL A   1      47.346  35.762  28.944  1.00  0.00     0.060 A 
BRANCH  85  86
ATOM     86  S   UNL A   1      47.941  37.443  29.231  1.00  0.00     0.124 S 
ATOM     87  O   UNL A   1      46.724  38.223  29.037  1.00  0.00    -0.237 OA
ATOM     88  O   UNL A   1      48.436  37.363  30.602  1.00  0.00    -0.237 OA
ATOM     89  O   UNL A   1      48.971  37.615  28.211  1.00  0.00    -0.744 OA
ENDBRANCH  85  86
ENDBRANCH  53  78
BRANCH  65  90
ATOM     90  C   UNL A   1      49.507  27.373  25.988  1.00  0.00     0.058 A 
ATOM     91  C   UNL A   1      49.820  27.462  24.621  1.00  0.00     0.135 A 
ATOM     92  C   UNL A   1      50.544  27.023  26.869  1.00  0.00     0.135 A 
ATOM     93  F   UNL A   1      48.872  27.792  23.731  1.00  0.00    -0.206 F 
ATOM     94  C   UNL A   1      51.094  27.166  24.143  1.00  0.00     0.059 A 
ATOM     95  C   UNL A   1      51.834  26.757  26.417  1.00  0.00     0.059 A 
ATOM     96  F   UNL A   1      50.311  26.939  28.189  1.00  0.00    -0.206 F 
ATOM     97  C   UNL A   1      52.094  26.808  25.049  1.00  0.00     0.060 A 
BRANCH  97  98
ATOM     98  S   UNL A   1      53.739  26.413  24.415  1.00  0.00     0.124 S 
ATOM     99  O   UNL A   1      53.419  25.819  23.122  1.00  0.00    -0.237 OA
ATOM    100  O   UNL A   1      54.380  27.723  24.371  1.00  0.00    -0.237 OA
ATOM    101  O   UNL A   1      54.276  25.493  25.413  1.00  0.00    -0.744 OA
ENDBRANCH  97  98
ENDBRANCH  65  90
ENDBRANCH  39  40
ENDBRANCH  32  34
ENDBRANCH  31  32
ENDBRANCH  30  31
ENDBRANCH  29  30
ENDBRANCH  28  29
ENDBRANCH  27  28
ENDBRANCH   1  27
TORSDOF 24
ENDMDL
MODEL 2
REMARK VINA RESULT:      -9.5      1.545      3.636
REMARK SMILES CCOC(=O)C1=NN(c2ccc(C)cc2Cl)[C@@](C)(C(=O)OCCOCCOCCOC(=O)c2ccc(-c3c4nc(c(-c5c(F)cc(S(=O)(=O)[O-])cc5F)c5ccc([nH]5)c(-c5c(F)cc(S(=O)(=O)[O-])cc5F)c5nc(c(-c6c(F)cc(S(=O)(=O)[O-])cc6F)c6ccc3[nH]6)C=C5)C=C4)cc2)C1
REMARK SMILES IDX 25 1 24 2 23 3 22 4 21 5 19 6 20 7 17 8 6 9 7 10 99 11 8 12
REMARK SMILES IDX 18 13 4 14 5 15 3 16 2 17 1 18 9 19 10 20 15 21 11 22 14 23
REMARK SMILES IDX 16 24 12 25 13 26 26 27 27 28 28 29 29 30 30 31 31 32 32 33
REMARK SMILES IDX 33 34 34 35 98 36 35 37 97 38 36 39 37 40 38 41 91 42 39 43
REMARK SMILES IDX 96 44 90 45 92 46 40 47 95 48 89 49 88 50 41 52 75 53 54 54
REMARK SMILES IDX 74 55 55 56 58 57 73 58 93 59 56 60 57 61 72 63 94 64 59 65
REMARK SMILES IDX 42 66 43 67 52 68 44 69 45 70 51 71 53 72 46 73 47 74 48 75
REMARK SMILES IDX 49 76 50 77 76 78 77 79 86 80 78 81 79 82 85 83 87 84 80 85
REMARK SMILES IDX 81 86 82 87 83 88 84 89 60 90 61 91 70 92 62 93 63 94 69 95
REMARK SMILES IDX 71 96 64 97 65 98 66 99 67 100 68 101
REMARK H PARENT 92 51 58 62
REMARK Flexibility Score: inf
ROOT
ATOM      1  C   UNL A   1      33.531  31.190  27.349  1.00  0.00     0.188 C 
ENDROOT
BRANCH   1   2
ATOM      2  O   UNL A   1      32.867  30.272  26.487  1.00  0.00    -0.376 OA
BRANCH   2   3
ATOM      3  C   UNL A   1      31.851  29.431  27.005  1.00  0.00     0.202 C 
BRANCH   3   4
ATOM      4  C   UNL A   1      32.260  28.056  27.560  1.00  0.00     0.261 C 
BRANCH   4   5
ATOM      5  O   UNL A   1      32.809  27.090  26.627  1.00  0.00    -0.461 OA
BRANCH   5   6
ATOM      6  C   UNL A   1      32.163  25.897  26.579  1.00  0.00     0.334 C 
ATOM      7  O   UNL A   1      31.929  25.241  27.597  1.00  0.00    -0.249 OA
BRANCH   6   8
ATOM      8  C   UNL A   1      31.809  25.320  25.186  1.00  0.00     0.163 C 
ATOM      9  C   UNL A   1      32.865  26.106  23.242  1.00  0.00     0.149 C 
ATOM     10  N   UNL A   1      33.374  24.925  23.408  1.00  0.00    -0.169 NA
ATOM     11  C   UNL A   1      31.823  26.523  24.216  1.00  0.00     0.108 C 
ATOM     12  N   UNL A   1      32.768  24.365  24.521  1.00  0.00    -0.246 N 
ATOM     13  C   UNL A   1      30.375  24.810  25.324  1.00  0.00     0.050 C 
BRANCH   9  14
ATOM     14  C   UNL A   1      33.298  27.105  22.196  1.00  0.00     0.354 C 
ATOM     15  O   UNL A   1      33.555  26.694  21.079  1.00  0.00    -0.245 OA
BRANCH  14  16
ATOM     16  O   UNL A   1      33.315  28.369  22.643  1.00  0.00    -0.461 OA
BRANCH  16  17
ATOM     17  C   UNL A   1      32.168  29.226  22.415  1.00  0.00     0.230 C 
ATOM     18  C   UNL A   1      30.844  28.528  22.144  1.00  0.00     0.049 C 
ENDBRANCH  16  17
ENDBRANCH  14  16
ENDBRANCH   9  14
BRANCH  12  19
ATOM     19  C   UNL A   1      32.895  22.974  24.664  1.00  0.00     0.079 A 
ATOM     20  C   UNL A   1      32.375  22.088  23.705  1.00  0.00     0.030 A 
ATOM     21  C   UNL A   1      33.623  22.340  25.702  1.00  0.00     0.066 A 
ATOM     22  C   UNL A   1      32.409  20.691  23.839  1.00  0.00     0.006 A 
ATOM     23  C   UNL A   1      33.612  20.940  25.877  1.00  0.00     0.026 A 
ATOM     24  Cl  UNL A   1      34.658  23.185  26.803  1.00  0.00    -0.082 Cl
ATOM     25  C   UNL A   1      32.988  20.103  24.954  1.00  0.00    -0.049 A 
ATOM     26  C   UNL A   1      32.951  18.620  25.159  1.00  0.00     0.044 C 
ENDBRANCH  12  19
ENDBRANCH   6   8
ENDBRANCH   5   6
ENDBRANCH   4   5
ENDBRANCH   3   4
ENDBRANCH   2   3
ENDBRANCH   1   2
BRANCH   1  27
ATOM     27  C   UNL A   1      35.036  31.052  27.617  1.00  0.00     0.188 C 
BRANCH  27  28
ATOM     28  O   UNL A   1      35.551  32.005  28.528  1.00  0.00    -0.376 OA
BRANCH  28  29
ATOM     29  C   UNL A   1      35.130  31.880  29.873  1.00  0.00     0.202 C 
BRANCH  29  30
ATOM     30  C   UNL A   1      35.787  32.868  30.845  1.00  0.00     0.261 C 
BRANCH  30  31
ATOM     31  O   UNL A   1      37.100  32.495  31.309  1.00  0.00    -0.460 OA
BRANCH  31  32
ATOM     32  C   UNL A   1      37.258  31.230  31.759  1.00  0.00     0.338 C 
ATOM     33  O   UNL A   1      36.507  30.621  32.508  1.00  0.00    -0.246 OA
BRANCH  32  34
ATOM     34  C   UNL A   1      38.435  30.635  31.088  1.00  0.00     0.060 A 
ATOM     35  C   UNL A   1      39.501  30.180  31.864  1.00  0.00     0.016 A 
ATOM     36  C   UNL A   1      38.510  30.556  29.695  1.00  0.00     0.016 A 
ATOM     37  C   UNL A   1      40.631  29.653  31.243  1.00  0.00     0.010 A 
ATOM     38  C   UNL A   1      39.676  30.063  29.080  1.00  0.00     0.010 A 
ATOM     39  C   UNL A   1      40.767  29.635  29.851  1.00  0.00    -0.014 A 
BRANCH  39  40
ATOM     40  C   UNL A   1      42.109  29.336  29.262  1.00  0.00     0.031 A 
ATOM     41  C   UNL A   1      42.368  27.965  28.681  1.00  0.00     0.074 A 
ATOM     42  C   UNL A   1      43.055  30.287  29.115  1.00  0.00     0.049 A 
ATOM     43  N   UNL A   1      43.463  27.474  28.157  1.00  0.00    -0.248 NA
ATOM     44  C   UNL A   1      41.230  27.032  28.674  1.00  0.00     0.031 C 
ATOM     45  C   UNL A   1      42.913  31.687  29.506  1.00  0.00     0.029 A 
ATOM     46  N   UNL A   1      44.317  30.221  28.568  1.00  0.00    -0.354 N 
ATOM     47  C   UNL A   1      43.161  26.164  27.799  1.00  0.00     0.074 A 
ATOM     48  C   UNL A   1      41.777  25.939  28.161  1.00  0.00     0.031 C 
ATOM     49  C   UNL A   1      44.032  32.352  29.172  1.00  0.00     0.029 A 
ATOM     50  C   UNL A   1      45.001  31.416  28.601  1.00  0.00     0.049 A 
ATOM     51  H   UNL A   1      44.697  29.396  28.188  1.00  0.00     0.167 HD
ATOM     52  C   UNL A   1      43.961  25.229  27.229  1.00  0.00     0.037 A 
ATOM     53  C   UNL A   1      46.266  31.722  28.245  1.00  0.00     0.037 A 
ATOM     54  C   UNL A   1      45.333  25.451  26.844  1.00  0.00     0.049 A 
ATOM     55  C   UNL A   1      47.166  30.644  27.692  1.00  0.00     0.074 A 
ATOM     56  C   UNL A   1      46.225  24.553  26.280  1.00  0.00     0.029 A 
ATOM     57  N   UNL A   1      46.015  26.651  26.980  1.00  0.00    -0.354 N 
ATOM     58  N   UNL A   1      46.886  29.391  27.417  1.00  0.00    -0.248 NA
ATOM     59  C   UNL A   1      48.559  31.020  27.409  1.00  0.00     0.031 C 
ATOM     60  C   UNL A   1      47.459  25.191  26.129  1.00  0.00     0.029 A 
ATOM     61  C   UNL A   1      47.322  26.507  26.535  1.00  0.00     0.049 A 
ATOM     62  H   UNL A   1      45.630  27.482  27.338  1.00  0.00     0.167 HD
ATOM     63  C   UNL A   1      48.063  28.837  26.918  1.00  0.00     0.074 A 
ATOM     64  C   UNL A   1      49.047  29.898  26.898  1.00  0.00     0.031 C 
ATOM     65  C   UNL A   1      48.306  27.562  26.521  1.00  0.00     0.037 A 
BRANCH  52  66
ATOM     66  C   UNL A   1      43.393  23.846  27.042  1.00  0.00     0.058 A 
ATOM     67  C   UNL A   1      42.962  23.371  25.793  1.00  0.00     0.135 A 
ATOM     68  C   UNL A   1      43.314  22.968  28.137  1.00  0.00     0.135 A 
ATOM     69  F   UNL A   1      42.996  24.172  24.717  1.00  0.00    -0.206 F 
ATOM     70  C   UNL A   1      42.451  22.085  25.643  1.00  0.00     0.059 A 
ATOM     71  C   UNL A   1      42.836  21.669  28.003  1.00  0.00     0.059 A 
ATOM     72  F   UNL A   1      43.712  23.370  29.355  1.00  0.00    -0.206 F 
ATOM     73  C   UNL A   1      42.392  21.241  26.754  1.00  0.00     0.060 A 
BRANCH  73  74
ATOM     74  S   UNL A   1      41.730  19.574  26.543  1.00  0.00     0.124 S 
ATOM     75  O   UNL A   1      42.392  18.858  27.628  1.00  0.00    -0.237 OA
ATOM     76  O   UNL A   1      40.295  19.787  26.706  1.00  0.00    -0.237 OA
ATOM     77  O   UNL A   1      42.157  19.206  25.197  1.00  0.00    -0.744 OA
ENDBRANCH  73  74
ENDBRANCH  52  66
BRANCH  53  78
ATOM     78  C   UNL A   1      46.791  33.105  28.446  1.00  0.00     0.058 A 
ATOM     79  C   UNL A   1      46.732  34.067  27.427  1.00  0.00     0.135 A 
ATOM     80  C   UNL A   1      47.394  33.479  29.658  1.00  0.00     0.135 A 
ATOM     81  F   UNL A   1      46.190  33.757  26.240  1.00  0.00    -0.206 F 
ATOM     82  C   UNL A   1      47.260  35.344  27.597  1.00  0.00     0.059 A 
ATOM     83  C   UNL A   1      47.896  34.761  29.864  1.00  0.00     0.059 A 
ATOM     84  F   UNL A   1      47.486  32.598  30.666  1.00  0.00    -0.206 F 
ATOM     85  C   UNL A   1      47.836  35.684  28.823  1.00  0.00     0.060 A 
BRANCH  85  86
ATOM     86  S   UNL A   1      48.473  37.359  29.052  1.00  0.00     0.124 S 
ATOM     87  O   UNL A   1      49.912  37.141  28.961  1.00  0.00    -0.237 OA
ATOM     88  O   UNL A   1      47.864  38.073  27.934  1.00  0.00    -0.237 OA
ATOM     89  O   UNL A   1      47.973  37.731  30.372  1.00  0.00    -0.744 OA
ENDBRANCH  85  86
ENDBRANCH  53  78
BRANCH  65  90
ATOM     90  C   UNL A   1      49.687  27.247  26.000  1.00  0.00     0.058 A 
ATOM     91  C   UNL A   1      50.005  27.336  24.635  1.00  0.00     0.135 A 
ATOM     92  C   UNL A   1      50.712  26.860  26.880  1.00  0.00     0.135 A 
ATOM     93  F   UNL A   1      49.068  27.701  23.745  1.00  0.00    -0.206 F 
ATOM     94  C   UNL A   1      51.270  27.005  24.156  1.00  0.00     0.059 A 
ATOM     95  C   UNL A   1      51.994  26.558  26.428  1.00  0.00     0.059 A 
ATOM     96  F   UNL A   1      50.475  26.773  28.200  1.00  0.00    -0.206 F 
ATOM     97  C   UNL A   1      52.258  26.611  25.060  1.00  0.00     0.060 A 
BRANCH  97  98
ATOM     98  S   UNL A   1      53.890  26.170  24.425  1.00  0.00     0.124 S 
ATOM     99  O   UNL A   1      54.261  25.071  25.308  1.00  0.00    -0.237 OA
ATOM    100  O   UNL A   1      53.599  25.804  23.043  1.00  0.00    -0.237 OA
ATOM    101  O   UNL A   1      54.663  27.398  24.592  1.00  0.00    -0.744 OA
ENDBRANCH  97  98
ENDBRANCH  65  90
ENDBRANCH  39  40
ENDBRANCH  32  34
ENDBRANCH  31  32
ENDBRANCH  30  31
ENDBRANCH  29  30
ENDBRANCH  28  29
ENDBRANCH  27  28
ENDBRANCH   1  27
TORSDOF 24
ENDMDL
MODEL 3
REMARK VINA RESULT:      -9.1      5.295     10.831
REMARK SMILES CCOC(=O)C1=NN(c2ccc(C)cc2Cl)[C@@](C)(C(=O)OCCOCCOCCOC(=O)c2ccc(-c3c4nc(c(-c5c(F)cc(S(=O)(=O)[O-])cc5F)c5ccc([nH]5)c(-c5c(F)cc(S(=O)(=O)[O-])cc5F)c5nc(c(-c6c(F)cc(S(=O)(=O)[O-])cc6F)c6ccc3[nH]6)C=C5)C=C4)cc2)C1
REMARK SMILES IDX 25 1 24 2 23 3 22 4 21 5 19 6 20 7 17 8 6 9 7 10 99 11 8 12
REMARK SMILES IDX 18 13 4 14 5 15 3 16 2 17 1 18 9 19 10 20 15 21 11 22 14 23
REMARK SMILES IDX 16 24 12 25 13 26 26 27 27 28 28 29 29 30 30 31 31 32 32 33
REMARK SMILES IDX 33 34 34 35 98 36 35 37 97 38 36 39 37 40 38 41 91 42 39 43
REMARK SMILES IDX 96 44 90 45 92 46 40 47 95 48 89 49 88 50 41 52 75 53 54 54
REMARK SMILES IDX 74 55 55 56 58 57 73 58 93 59 56 60 57 61 72 63 94 64 59 65
REMARK SMILES IDX 42 66 43 67 52 68 44 69 45 70 51 71 53 72 46 73 47 74 48 75
REMARK SMILES IDX 49 76 50 77 76 78 77 79 86 80 78 81 79 82 85 83 87 84 80 85
REMARK SMILES IDX 81 86 82 87 83 88 84 89 60 90 61 91 70 92 62 93 63 94 69 95
REMARK SMILES IDX 71 96 64 97 65 98 66 99 67 100 68 101
REMARK H PARENT 92 51 58 62
REMARK Flexibility Score: inf
ROOT
ATOM      1  C   UNL A   1      37.361  32.131  38.228  1.00  0.00     0.188 C 
ENDROOT
BRANCH   1   2
ATOM      2  O   UNL A   1      37.694  30.991  37.443  1.00  0.00    -0.376 OA
BRANCH   2   3
ATOM      3  C   UNL A   1      37.999  31.151  36.069  1.00  0.00     0.202 C 
BRANCH   3   4
ATOM      4  C   UNL A   1      39.285  30.500  35.530  1.00  0.00     0.261 C 
BRANCH   4   5
ATOM      5  O   UNL A   1      39.199  29.780  34.274  1.00  0.00    -0.461 OA
BRANCH   5   6
ATOM      6  C   UNL A   1      39.012  30.553  33.173  1.00  0.00     0.334 C 
ATOM      7  O   UNL A   1      39.580  31.638  33.035  1.00  0.00    -0.249 OA
BRANCH   6   8
ATOM      8  C   UNL A   1      37.975  30.081  32.123  1.00  0.00     0.163 C 
ATOM      9  C   UNL A   1      36.355  31.552  31.272  1.00  0.00     0.149 C 
ATOM     10  N   UNL A   1      37.173  31.393  30.279  1.00  0.00    -0.169 NA
ATOM     11  C   UNL A   1      36.647  30.773  32.504  1.00  0.00     0.108 C 
ATOM     12  N   UNL A   1      38.147  30.495  30.683  1.00  0.00    -0.246 N 
ATOM     13  C   UNL A   1      37.836  28.578  32.356  1.00  0.00     0.050 C 
BRANCH   9  14
ATOM     14  C   UNL A   1      35.189  32.511  31.300  1.00  0.00     0.354 C 
ATOM     15  O   UNL A   1      34.357  32.379  32.180  1.00  0.00    -0.245 OA
BRANCH  14  16
ATOM     16  O   UNL A   1      35.239  33.438  30.333  1.00  0.00    -0.461 OA
BRANCH  16  17
ATOM     17  C   UNL A   1      34.521  33.216  29.092  1.00  0.00     0.230 C 
ATOM     18  C   UNL A   1      33.667  34.369  28.587  1.00  0.00     0.049 C 
ENDBRANCH  16  17
ENDBRANCH  14  16
ENDBRANCH   9  14
BRANCH  12  19
ATOM     19  C   UNL A   1      38.910  29.904  29.664  1.00  0.00     0.079 A 
ATOM     20  C   UNL A   1      38.323  29.061  28.705  1.00  0.00     0.030 A 
ATOM     21  C   UNL A   1      40.285  30.163  29.441  1.00  0.00     0.066 A 
ATOM     22  C   UNL A   1      39.052  28.386  27.713  1.00  0.00     0.006 A 
ATOM     23  C   UNL A   1      41.037  29.447  28.486  1.00  0.00     0.026 A 
ATOM     24  Cl  UNL A   1      41.166  31.423  30.238  1.00  0.00    -0.082 Cl
ATOM     25  C   UNL A   1      40.429  28.536  27.624  1.00  0.00    -0.049 A 
ATOM     26  C   UNL A   1      41.234  27.755  26.634  1.00  0.00     0.044 C 
ENDBRANCH  12  19
ENDBRANCH   6   8
ENDBRANCH   5   6
ENDBRANCH   4   5
ENDBRANCH   3   4
ENDBRANCH   2   3
ENDBRANCH   1   2
BRANCH   1  27
ATOM     27  C   UNL A   1      38.375  32.710  39.225  1.00  0.00     0.188 C 
BRANCH  27  28
ATOM     28  O   UNL A   1      37.821  33.633  40.144  1.00  0.00    -0.376 OA
BRANCH  28  29
ATOM     29  C   UNL A   1      38.741  34.365  40.930  1.00  0.00     0.202 C 
BRANCH  29  30
ATOM     30  C   UNL A   1      38.900  35.837  40.528  1.00  0.00     0.261 C 
BRANCH  30  31
ATOM     31  O   UNL A   1      39.067  36.075  39.116  1.00  0.00    -0.460 OA
BRANCH  31  32
ATOM     32  C   UNL A   1      40.007  36.974  38.750  1.00  0.00     0.338 C 
ATOM     33  O   UNL A   1      40.333  37.982  39.361  1.00  0.00    -0.246 OA
BRANCH  32  34
ATOM     34  C   UNL A   1      40.690  36.473  37.536  1.00  0.00     0.060 A 
ATOM     35  C   UNL A   1      39.924  35.959  36.490  1.00  0.00     0.016 A 
ATOM     36  C   UNL A   1      42.084  36.473  37.439  1.00  0.00     0.016 A 
ATOM     37  C   UNL A   1      40.557  35.449  35.358  1.00  0.00     0.010 A 
ATOM     38  C   UNL A   1      42.711  35.912  36.310  1.00  0.00     0.010 A 
ATOM     39  C   UNL A   1      41.950  35.362  35.267  1.00  0.00    -0.014 A 
BRANCH  39  40
ATOM     40  C   UNL A   1      42.551  34.543  34.170  1.00  0.00     0.031 A 
ATOM     41  C   UNL A   1      43.098  35.241  32.946  1.00  0.00     0.074 A 
ATOM     42  C   UNL A   1      42.739  33.212  34.290  1.00  0.00     0.049 A 
ATOM     43  N   UNL A   1      43.624  34.732  31.860  1.00  0.00    -0.248 NA
ATOM     44  C   UNL A   1      43.061  36.712  32.960  1.00  0.00     0.031 C 
ATOM     45  C   UNL A   1      42.385  32.412  35.459  1.00  0.00     0.029 A 
ATOM     46  N   UNL A   1      43.303  32.303  33.424  1.00  0.00    -0.354 N 
ATOM     47  C   UNL A   1      43.941  35.814  31.045  1.00  0.00     0.074 A 
ATOM     48  C   UNL A   1      43.551  37.008  31.765  1.00  0.00     0.031 C 
ATOM     49  C   UNL A   1      42.755  31.137  35.247  1.00  0.00     0.029 A 
ATOM     50  C   UNL A   1      43.314  31.012  33.902  1.00  0.00     0.049 A 
ATOM     51  H   UNL A   1      43.666  32.552  32.542  1.00  0.00     0.167 HD
ATOM     52  C   UNL A   1      44.496  35.818  29.809  1.00  0.00     0.037 A 
ATOM     53  C   UNL A   1      43.699  29.855  33.320  1.00  0.00     0.037 A 
ATOM     54  C   UNL A   1      44.908  34.634  29.093  1.00  0.00     0.049 A 
ATOM     55  C   UNL A   1      44.235  29.874  31.910  1.00  0.00     0.074 A 
ATOM     56  C   UNL A   1      45.460  34.543  27.826  1.00  0.00     0.029 A 
ATOM     57  N   UNL A   1      44.817  33.337  29.578  1.00  0.00    -0.354 N 
ATOM     58  N   UNL A   1      44.470  30.900  31.125  1.00  0.00    -0.248 NA
ATOM     59  C   UNL A   1      44.549  28.573  31.301  1.00  0.00     0.031 C 
ATOM     60  C   UNL A   1      45.648  33.192  27.522  1.00  0.00     0.029 A 
ATOM     61  C   UNL A   1      45.277  32.440  28.624  1.00  0.00     0.049 A 
ATOM     62  H   UNL A   1      44.476  33.090  30.467  1.00  0.00     0.167 HD
ATOM     63  C   UNL A   1      44.971  30.368  29.939  1.00  0.00     0.074 A 
ATOM     64  C   UNL A   1      45.037  28.934  30.121  1.00  0.00     0.031 C 
ATOM     65  C   UNL A   1      45.336  31.010  28.801  1.00  0.00     0.037 A 
BRANCH  52  66
ATOM     66  C   UNL A   1      44.635  37.145  29.110  1.00  0.00     0.058 A 
ATOM     67  C   UNL A   1      43.626  37.672  28.288  1.00  0.00     0.135 A 
ATOM     68  C   UNL A   1      45.793  37.918  29.299  1.00  0.00     0.135 A 
ATOM     69  F   UNL A   1      42.506  36.969  28.056  1.00  0.00    -0.206 F 
ATOM     70  C   UNL A   1      43.773  38.906  27.660  1.00  0.00     0.059 A 
ATOM     71  C   UNL A   1      45.947  39.166  28.706  1.00  0.00     0.059 A 
ATOM     72  F   UNL A   1      46.790  37.462  30.074  1.00  0.00    -0.206 F 
ATOM     73  C   UNL A   1      44.937  39.646  27.876  1.00  0.00     0.060 A 
BRANCH  73  74
ATOM     74  S   UNL A   1      45.111  41.247  27.058  1.00  0.00     0.124 S 
ATOM     75  O   UNL A   1      44.326  41.040  25.845  1.00  0.00    -0.237 OA
ATOM     76  O   UNL A   1      44.533  42.161  28.039  1.00  0.00    -0.237 OA
ATOM     77  O   UNL A   1      46.551  41.374  26.859  1.00  0.00    -0.744 OA
ENDBRANCH  73  74
ENDBRANCH  52  66
BRANCH  53  78
ATOM     78  C   UNL A   1      43.544  28.561  34.046  1.00  0.00     0.058 A 
ATOM     79  C   UNL A   1      42.425  27.739  33.850  1.00  0.00     0.135 A 
ATOM     80  C   UNL A   1      44.504  28.138  34.980  1.00  0.00     0.135 A 
ATOM     81  F   UNL A   1      41.464  28.106  32.989  1.00  0.00    -0.206 F 
ATOM     82  C   UNL A   1      42.256  26.552  34.558  1.00  0.00     0.059 A 
ATOM     83  C   UNL A   1      44.376  26.937  35.673  1.00  0.00     0.059 A 
ATOM     84  F   UNL A   1      45.591  28.887  35.216  1.00  0.00    -0.206 F 
ATOM     85  C   UNL A   1      43.241  26.156  35.465  1.00  0.00     0.060 A 
BRANCH  85  86
ATOM     86  S   UNL A   1      43.040  24.590  36.343  1.00  0.00     0.124 S 
ATOM     87  O   UNL A   1      43.627  23.646  35.399  1.00  0.00    -0.237 OA
ATOM     88  O   UNL A   1      43.800  24.826  37.566  1.00  0.00    -0.237 OA
ATOM     89  O   UNL A   1      41.595  24.489  36.522  1.00  0.00    -0.744 OA
ENDBRANCH  85  86
ENDBRANCH  53  78
BRANCH  65  90
ATOM     90  C   UNL A   1      45.869  30.169  27.667  1.00  0.00     0.058 A 
ATOM     91  C   UNL A   1      45.045  29.729  26.617  1.00  0.00     0.135 A 
ATOM     92  C   UNL A   1      47.225  29.805  27.622  1.00  0.00     0.135 A 
ATOM     93  F   UNL A   1      43.741  30.045  26.604  1.00  0.00    -0.206 F 
ATOM     94  C   UNL A   1      45.535  28.920  25.595  1.00  0.00     0.059 A 
ATOM     95  C   UNL A   1      47.744  29.025  26.591  1.00  0.00     0.059 A 
ATOM     96  F   UNL A   1      48.067  30.210  28.588  1.00  0.00    -0.206 F 
ATOM     97  C   UNL A   1      46.885  28.568  25.593  1.00  0.00     0.060 A 
BRANCH  97  98
ATOM     98  S   UNL A   1      47.504  27.506  24.270  1.00  0.00     0.124 S 
ATOM     99  O   UNL A   1      48.937  27.774  24.324  1.00  0.00    -0.237 OA
ATOM    100  O   UNL A   1      47.089  26.179  24.715  1.00  0.00    -0.237 OA
ATOM    101  O   UNL A   1      46.817  28.005  23.083  1.00  0.00    -0.744 OA
ENDBRANCH  97  98
ENDBRANCH  65  90
ENDBRANCH  39  40
ENDBRANCH  32  34
ENDBRANCH  31  32
ENDBRANCH  30  31
ENDBRANCH  29  30
ENDBRANCH  28  29
ENDBRANCH  27  28
ENDBRANCH   1  27
TORSDOF 24
ENDMDL
