MODEL 1
REMARK VINA RESULT:     -10.7      0.000      0.000
REMARK SMILES O=C(COc1ccc(N2C[C@@H](C(=O)OCCOCCOCCOC(=O)c3ccc(-c4c5nc(c(-c6c(F)cc(S(=O)(=O)[O-])cc6F)c6ccc([nH]6)c(-c6c(F)cc(S(=O)(=O)[O-])cc6F)c6nc(c(-c7c(F)cc(S(=O)(=O)[O-])cc7F)c7ccc4[nH]7)C=C6)C=C5)cc3)CC2=O)cc1)Nc1ccc(Cl)cc1Cl
REMARK SMILES IDX 18 1 17 2 16 3 15 4 14 5 12 6 13 7 11 8 9 9 10 10 93 11
REMARK SMILES IDX 92 12 94 13 8 14 5 15 6 16 96 17 7 18 95 19 4 20 3 21 2 22
REMARK SMILES IDX 1 23 97 24 98 26 99 27 104 28 100 29 103 30 105 31 101 32
REMARK SMILES IDX 102 33 19 34 20 35 21 36 22 37 23 38 24 39 25 40 26 41 27 42
REMARK SMILES IDX 91 43 28 44 90 45 29 46 30 47 31 48 84 49 32 50 89 51 83 52
REMARK SMILES IDX 85 53 33 54 88 55 82 56 81 57 34 59 68 60 47 61 67 62 48 63
REMARK SMILES IDX 51 64 66 65 86 66 49 67 50 68 65 70 87 71 52 72 35 73 36 74
REMARK SMILES IDX 45 75 37 76 38 77 44 78 46 79 39 80 40 81 41 82 42 83 43 84
REMARK SMILES IDX 69 85 70 86 79 87 71 88 72 89 78 90 80 91 73 92 74 93 75 94
REMARK SMILES IDX 76 95 77 96 53 97 54 98 63 99 55 100 56 101 62 102 64 103
REMARK SMILES IDX 57 104 58 105 59 106 60 107 61 108
REMARK H PARENT 97 25 85 58 51 69
REMARK Flexibility Score: inf
ROOT
ATOM      1  C   UNL A   1      31.449  30.998  26.618  1.00  0.00     0.188 C 
ENDROOT
BRANCH   1   2
ATOM      2  O   UNL A   1      31.324  30.668  25.240  1.00  0.00    -0.376 OA
BRANCH   2   3
ATOM      3  C   UNL A   1      30.238  31.199  24.488  1.00  0.00     0.202 C 
BRANCH   3   4
ATOM      4  C   UNL A   1      29.402  30.251  23.611  1.00  0.00     0.261 C 
BRANCH   4   5
ATOM      5  O   UNL A   1      30.090  29.050  23.209  1.00  0.00    -0.463 OA
BRANCH   5   6
ATOM      6  C   UNL A   1      29.597  27.882  23.682  1.00  0.00     0.311 C 
ATOM      7  O   UNL A   1      28.566  27.354  23.281  1.00  0.00    -0.252 OA
BRANCH   6   8
ATOM      8  C   UNL A   1      30.480  27.211  24.715  1.00  0.00     0.128 C 
ATOM      9  N   UNL A   1      32.083  25.498  24.726  1.00  0.00    -0.312 N 
ATOM     10  C   UNL A   1      31.665  26.642  23.965  1.00  0.00     0.141 C 
ATOM     11  C   UNL A   1      31.096  25.065  25.603  1.00  0.00     0.227 C 
ATOM     12  C   UNL A   1      29.951  26.024  25.517  1.00  0.00     0.117 C 
ATOM     13  O   UNL A   1      31.100  24.102  26.357  1.00  0.00    -0.274 OA
BRANCH   9  14
ATOM     14  C   UNL A   1      33.251  24.786  24.407  1.00  0.00     0.044 A 
ATOM     15  C   UNL A   1      35.535  23.260  23.902  1.00  0.00     0.120 A 
ATOM     16  C   UNL A   1      34.438  23.151  23.056  1.00  0.00     0.048 A 
ATOM     17  C   UNL A   1      35.521  24.172  24.953  1.00  0.00     0.048 A 
ATOM     18  C   UNL A   1      33.288  23.901  23.322  1.00  0.00     0.030 A 
ATOM     19  C   UNL A   1      34.385  24.926  25.205  1.00  0.00     0.030 A 
BRANCH  15  20
ATOM     20  O   UNL A   1      36.645  22.498  23.650  1.00  0.00    -0.484 OA
BRANCH  20  21
ATOM     21  C   UNL A   1      36.999  21.719  24.799  1.00  0.00     0.329 C 
BRANCH  21  22
ATOM     22  C   UNL A   1      35.854  20.853  25.334  1.00  0.00     0.262 C 
ATOM     23  O   UNL A   1      35.317  21.099  26.407  1.00  0.00    -0.271 OA
ATOM     24  N   UNL A   1      35.605  19.758  24.514  1.00  0.00    -0.322 N 
ATOM     25  H   UNL A   1      36.113  19.708  23.671  1.00  0.00     0.170 HD
BRANCH  24  26
ATOM     26  C   UNL A   1      34.693  18.710  24.772  1.00  0.00     0.060 A 
ATOM     27  C   UNL A   1      35.251  17.419  24.786  1.00  0.00     0.029 A 
ATOM     28  C   UNL A   1      33.313  18.846  25.005  1.00  0.00     0.066 A 
ATOM     29  C   UNL A   1      34.472  16.300  25.092  1.00  0.00     0.023 A 
ATOM     30  C   UNL A   1      32.538  17.723  25.324  1.00  0.00     0.043 A 
ATOM     31  Cl  UNL A   1      32.430  20.308  24.720  1.00  0.00    -0.082 Cl
ATOM     32  C   UNL A   1      33.120  16.461  25.373  1.00  0.00     0.042 A 
ATOM     33  Cl  UNL A   1      32.153  15.086  25.739  1.00  0.00    -0.084 Cl
ENDBRANCH  24  26
ENDBRANCH  21  22
ENDBRANCH  20  21
ENDBRANCH  15  20
ENDBRANCH   9  14
ENDBRANCH   6   8
ENDBRANCH   5   6
ENDBRANCH   4   5
ENDBRANCH   3   4
ENDBRANCH   2   3
ENDBRANCH   1   2
BRANCH   1  34
ATOM     34  C   UNL A   1      32.853  31.124  27.228  1.00  0.00     0.188 C 
BRANCH  34  35
ATOM     35  O   UNL A   1      33.296  32.440  27.446  1.00  0.00    -0.376 OA
BRANCH  35  36
ATOM     36  C   UNL A   1      34.595  32.627  27.973  1.00  0.00     0.202 C 
BRANCH  36  37
ATOM     37  C   UNL A   1      34.964  32.006  29.333  1.00  0.00     0.261 C 
BRANCH  37  38
ATOM     38  O   UNL A   1      35.788  30.827  29.322  1.00  0.00    -0.460 OA
BRANCH  38  39
ATOM     39  C   UNL A   1      36.485  30.542  30.447  1.00  0.00     0.338 C 
ATOM     40  O   UNL A   1      36.017  30.321  31.556  1.00  0.00    -0.246 OA
BRANCH  39  41
ATOM     41  C   UNL A   1      37.896  30.299  30.060  1.00  0.00     0.060 A 
ATOM     42  C   UNL A   1      38.222  30.149  28.703  1.00  0.00     0.016 A 
ATOM     43  C   UNL A   1      38.897  30.238  31.030  1.00  0.00     0.016 A 
ATOM     44  C   UNL A   1      39.544  29.913  28.316  1.00  0.00     0.010 A 
ATOM     45  C   UNL A   1      40.217  29.976  30.643  1.00  0.00     0.010 A 
ATOM     46  C   UNL A   1      40.544  29.784  29.288  1.00  0.00    -0.014 A 
BRANCH  46  47
ATOM     47  C   UNL A   1      41.886  29.259  28.923  1.00  0.00     0.031 A 
ATOM     48  C   UNL A   1      43.040  30.225  28.872  1.00  0.00     0.074 A 
ATOM     49  C   UNL A   1      42.086  27.959  28.632  1.00  0.00     0.049 A 
ATOM     50  N   UNL A   1      44.271  30.032  28.478  1.00  0.00    -0.248 NA
ATOM     51  C   UNL A   1      42.757  31.600  29.319  1.00  0.00     0.031 C 
ATOM     52  C   UNL A   1      41.068  26.912  28.686  1.00  0.00     0.029 A 
ATOM     53  N   UNL A   1      43.220  27.305  28.212  1.00  0.00    -0.354 N 
ATOM     54  C   UNL A   1      44.908  31.261  28.618  1.00  0.00     0.074 A 
ATOM     55  C   UNL A   1      43.919  32.198  29.102  1.00  0.00     0.031 C 
ATOM     56  C   UNL A   1      41.616  25.750  28.289  1.00  0.00     0.029 A 
ATOM     57  C   UNL A   1      43.013  25.977  27.917  1.00  0.00     0.049 A 
ATOM     58  H   UNL A   1      44.097  27.744  28.132  1.00  0.00     0.167 HD
ATOM     59  C   UNL A   1      46.202  31.578  28.372  1.00  0.00     0.037 A 
ATOM     60  C   UNL A   1      43.845  25.062  27.377  1.00  0.00     0.037 A 
ATOM     61  C   UNL A   1      47.183  30.643  27.882  1.00  0.00     0.049 A 
ATOM     62  C   UNL A   1      45.262  25.455  27.036  1.00  0.00     0.074 A 
ATOM     63  C   UNL A   1      48.522  30.866  27.612  1.00  0.00     0.029 A 
ATOM     64  N   UNL A   1      46.930  29.314  27.579  1.00  0.00    -0.354 N 
ATOM     65  N   UNL A   1      45.859  26.614  27.189  1.00  0.00    -0.248 NA
ATOM     66  C   UNL A   1      46.121  24.414  26.451  1.00  0.00     0.031 C 
ATOM     67  C   UNL A   1      49.064  29.687  27.091  1.00  0.00     0.029 A 
ATOM     68  C   UNL A   1      48.082  28.710  27.100  1.00  0.00     0.049 A 
ATOM     69  H   UNL A   1      46.061  28.865  27.690  1.00  0.00     0.167 HD
ATOM     70  C   UNL A   1      47.168  26.432  26.750  1.00  0.00     0.074 A 
ATOM     71  C   UNL A   1      47.280  25.050  26.336  1.00  0.00     0.031 C 
ATOM     72  C   UNL A   1      48.186  27.328  26.699  1.00  0.00     0.037 A 
BRANCH  59  73
ATOM     73  C   UNL A   1      46.624  33.006  28.597  1.00  0.00     0.058 A 
ATOM     74  C   UNL A   1      47.218  33.422  29.800  1.00  0.00     0.135 A 
ATOM     75  C   UNL A   1      46.455  33.965  27.586  1.00  0.00     0.135 A 
ATOM     76  F   UNL A   1      47.386  32.552  30.808  1.00  0.00    -0.206 F 
ATOM     77  C   UNL A   1      47.600  34.744  30.002  1.00  0.00     0.059 A 
ATOM     78  C   UNL A   1      46.860  35.286  27.754  1.00  0.00     0.059 A 
ATOM     79  F   UNL A   1      45.889  33.624  26.417  1.00  0.00    -0.206 F 
ATOM     80  C   UNL A   1      47.417  35.669  28.973  1.00  0.00     0.060 A 
BRANCH  80  81
ATOM     81  S   UNL A   1      47.921  37.380  29.253  1.00  0.00     0.124 S 
ATOM     82  O   UNL A   1      47.034  37.768  30.346  1.00  0.00    -0.237 OA
ATOM     83  O   UNL A   1      49.330  37.237  29.600  1.00  0.00    -0.237 OA
ATOM     84  O   UNL A   1      47.656  38.027  27.972  1.00  0.00    -0.744 OA
ENDBRANCH  80  81
ENDBRANCH  59  73
BRANCH  60  85
ATOM     85  C   UNL A   1      43.356  23.682  27.103  1.00  0.00     0.058 A 
ATOM     86  C   UNL A   1      43.319  22.708  28.114  1.00  0.00     0.135 A 
ATOM     87  C   UNL A   1      42.923  23.305  25.822  1.00  0.00     0.135 A 
ATOM     88  F   UNL A   1      43.739  23.011  29.351  1.00  0.00    -0.206 F 
ATOM     89  C   UNL A   1      42.882  21.411  27.863  1.00  0.00     0.059 A 
ATOM     90  C   UNL A   1      42.454  22.022  25.553  1.00  0.00     0.059 A 
ATOM     91  F   UNL A   1      42.933  24.197  24.819  1.00  0.00    -0.206 F 
ATOM     92  C   UNL A   1      42.445  21.080  26.579  1.00  0.00     0.060 A 
BRANCH  92  93
ATOM     93  S   UNL A   1      41.825  19.409  26.281  1.00  0.00     0.124 S 
ATOM     94  O   UNL A   1      42.126  18.753  27.547  1.00  0.00    -0.237 OA
ATOM     95  O   UNL A   1      40.412  19.653  26.008  1.00  0.00    -0.237 OA
ATOM     96  O   UNL A   1      42.609  18.960  25.134  1.00  0.00    -0.744 OA
ENDBRANCH  92  93
ENDBRANCH  60  85
BRANCH  72  97
ATOM     97  C   UNL A   1      49.529  26.839  26.222  1.00  0.00     0.058 A 
ATOM     98  C   UNL A   1      49.888  26.850  24.865  1.00  0.00     0.135 A 
ATOM     99  C   UNL A   1      50.496  26.409  27.148  1.00  0.00     0.135 A 
ATOM    100  F   UNL A   1      49.005  27.246  23.936  1.00  0.00    -0.206 F 
ATOM    101  C   UNL A   1      51.146  26.430  24.441  1.00  0.00     0.059 A 
ATOM    102  C   UNL A   1      51.769  26.016  26.750  1.00  0.00     0.059 A 
ATOM    103  F   UNL A   1      50.213  26.390  28.460  1.00  0.00    -0.206 F 
ATOM    104  C   UNL A   1      52.082  26.019  25.392  1.00  0.00     0.060 A 
BRANCH 104 105
ATOM    105  S   UNL A   1      53.720  25.509  24.830  1.00  0.00     0.124 S 
ATOM    106  O   UNL A   1      53.846  26.247  23.578  1.00  0.00    -0.237 OA
ATOM    107  O   UNL A   1      54.578  25.960  25.921  1.00  0.00    -0.237 OA
ATOM    108  O   UNL A   1      53.598  24.060  24.695  1.00  0.00    -0.744 OA
ENDBRANCH 104 105
ENDBRANCH  72  97
ENDBRANCH  46  47
ENDBRANCH  39  41
ENDBRANCH  38  39
ENDBRANCH  37  38
ENDBRANCH  36  37
ENDBRANCH  35  36
ENDBRANCH  34  35
ENDBRANCH   1  34
TORSDOF 25
ENDMDL
MODEL 2
REMARK VINA RESULT:     -10.5      5.902     10.176
REMARK SMILES O=C(COc1ccc(N2C[C@@H](C(=O)OCCOCCOCCOC(=O)c3ccc(-c4c5nc(c(-c6c(F)cc(S(=O)(=O)[O-])cc6F)c6ccc([nH]6)c(-c6c(F)cc(S(=O)(=O)[O-])cc6F)c6nc(c(-c7c(F)cc(S(=O)(=O)[O-])cc7F)c7ccc4[nH]7)C=C6)C=C5)cc3)CC2=O)cc1)Nc1ccc(Cl)cc1Cl
REMARK SMILES IDX 18 1 17 2 16 3 15 4 14 5 12 6 13 7 11 8 9 9 10 10 93 11
REMARK SMILES IDX 92 12 94 13 8 14 5 15 6 16 96 17 7 18 95 19 4 20 3 21 2 22
REMARK SMILES IDX 1 23 97 24 98 26 99 27 104 28 100 29 103 30 105 31 101 32
REMARK SMILES IDX 102 33 19 34 20 35 21 36 22 37 23 38 24 39 25 40 26 41 27 42
REMARK SMILES IDX 91 43 28 44 90 45 29 46 30 47 31 48 84 49 32 50 89 51 83 52
REMARK SMILES IDX 85 53 33 54 88 55 82 56 81 57 34 59 68 60 47 61 67 62 48 63
REMARK SMILES IDX 51 64 66 65 86 66 49 67 50 68 65 70 87 71 52 72 35 73 36 74
REMARK SMILES IDX 45 75 37 76 38 77 44 78 46 79 39 80 40 81 41 82 42 83 43 84
REMARK SMILES IDX 69 85 70 86 79 87 71 88 72 89 78 90 80 91 73 92 74 93 75 94
REMARK SMILES IDX 76 95 77 96 53 97 54 98 63 99 55 100 56 101 62 102 64 103
REMARK SMILES IDX 57 104 58 105 59 106 60 107 61 108
REMARK H PARENT 97 25 85 58 51 69
REMARK Flexibility Score: inf
ROOT
ATOM      1  C   UNL A   1      32.581  28.956  25.743  1.00  0.00     0.188 C 
ENDROOT
BRANCH   1   2
ATOM      2  O   UNL A   1      31.270  29.482  25.584  1.00  0.00    -0.376 OA
BRANCH   2   3
ATOM      3  C   UNL A   1      31.103  30.848  25.217  1.00  0.00     0.202 C 
BRANCH   3   4
ATOM      4  C   UNL A   1      29.704  31.348  24.817  1.00  0.00     0.261 C 
BRANCH   4   5
ATOM      5  O   UNL A   1      29.405  31.223  23.412  1.00  0.00    -0.463 OA
BRANCH   5   6
ATOM      6  C   UNL A   1      28.557  30.230  23.059  1.00  0.00     0.311 C 
ATOM      7  O   UNL A   1      27.336  30.300  23.148  1.00  0.00    -0.252 OA
BRANCH   6   8
ATOM      8  C   UNL A   1      29.238  29.021  22.451  1.00  0.00     0.128 C 
ATOM      9  N   UNL A   1      30.247  27.057  23.246  1.00  0.00    -0.312 N 
ATOM     10  C   UNL A   1      29.100  27.896  23.455  1.00  0.00     0.141 C 
ATOM     11  C   UNL A   1      31.250  27.709  22.540  1.00  0.00     0.227 C 
ATOM     12  C   UNL A   1      30.734  29.059  22.148  1.00  0.00     0.117 C 
ATOM     13  O   UNL A   1      32.364  27.311  22.234  1.00  0.00    -0.274 OA
BRANCH   9  14
ATOM     14  C   UNL A   1      30.393  25.829  23.911  1.00  0.00     0.044 A 
ATOM     15  C   UNL A   1      30.856  23.402  25.214  1.00  0.00     0.120 A 
ATOM     16  C   UNL A   1      30.524  24.528  25.960  1.00  0.00     0.048 A 
ATOM     17  C   UNL A   1      30.890  23.468  23.825  1.00  0.00     0.048 A 
ATOM     18  C   UNL A   1      30.312  25.746  25.308  1.00  0.00     0.030 A 
ATOM     19  C   UNL A   1      30.664  24.675  23.179  1.00  0.00     0.030 A 
BRANCH  15  20
ATOM     20  O   UNL A   1      31.091  22.221  25.866  1.00  0.00    -0.484 OA
BRANCH  20  21
ATOM     21  C   UNL A   1      31.961  21.381  25.098  1.00  0.00     0.329 C 
BRANCH  21  22
ATOM     22  C   UNL A   1      33.358  21.218  25.708  1.00  0.00     0.262 C 
ATOM     23  O   UNL A   1      33.510  20.769  26.838  1.00  0.00    -0.271 OA
ATOM     24  N   UNL A   1      34.350  21.722  24.875  1.00  0.00    -0.322 N 
ATOM     25  H   UNL A   1      34.067  22.037  23.986  1.00  0.00     0.170 HD
BRANCH  24  26
ATOM     26  C   UNL A   1      35.725  21.825  25.180  1.00  0.00     0.060 A 
ATOM     27  C   UNL A   1      36.465  20.639  25.026  1.00  0.00     0.029 A 
ATOM     28  C   UNL A   1      36.396  22.982  25.617  1.00  0.00     0.066 A 
ATOM     29  C   UNL A   1      37.848  20.620  25.233  1.00  0.00     0.023 A 
ATOM     30  C   UNL A   1      37.784  22.961  25.811  1.00  0.00     0.043 A 
ATOM     31  Cl  UNL A   1      35.588  24.418  26.146  1.00  0.00    -0.082 Cl
ATOM     32  C   UNL A   1      38.502  21.787  25.611  1.00  0.00     0.042 A 
ATOM     33  Cl  UNL A   1      40.201  21.767  25.879  1.00  0.00    -0.084 Cl
ENDBRANCH  24  26
ENDBRANCH  21  22
ENDBRANCH  20  21
ENDBRANCH  15  20
ENDBRANCH   9  14
ENDBRANCH   6   8
ENDBRANCH   5   6
ENDBRANCH   4   5
ENDBRANCH   3   4
ENDBRANCH   2   3
ENDBRANCH   1   2
BRANCH   1  34
ATOM     34  C   UNL A   1      33.080  28.612  27.154  1.00  0.00     0.188 C 
BRANCH  34  35
ATOM     35  O   UNL A   1      34.206  29.334  27.585  1.00  0.00    -0.376 OA
BRANCH  35  36
ATOM     36  C   UNL A   1      34.313  30.691  27.201  1.00  0.00     0.202 C 
BRANCH  36  37
ATOM     37  C   UNL A   1      33.365  31.737  27.817  1.00  0.00     0.261 C 
BRANCH  37  38
ATOM     38  O   UNL A   1      33.610  33.120  27.504  1.00  0.00    -0.460 OA
BRANCH  38  39
ATOM     39  C   UNL A   1      33.565  34.007  28.524  1.00  0.00     0.338 C 
ATOM     40  O   UNL A   1      32.644  34.769  28.786  1.00  0.00    -0.246 OA
BRANCH  39  41
ATOM     41  C   UNL A   1      34.715  33.731  29.420  1.00  0.00     0.060 A 
ATOM     42  C   UNL A   1      35.997  34.166  29.049  1.00  0.00     0.016 A 
ATOM     43  C   UNL A   1      34.527  33.062  30.630  1.00  0.00     0.016 A 
ATOM     44  C   UNL A   1      37.096  33.911  29.875  1.00  0.00     0.010 A 
ATOM     45  C   UNL A   1      35.632  32.785  31.443  1.00  0.00     0.010 A 
ATOM     46  C   UNL A   1      36.926  33.182  31.058  1.00  0.00    -0.014 A 
BRANCH  46  47
ATOM     47  C   UNL A   1      38.106  32.661  31.798  1.00  0.00     0.031 A 
ATOM     48  C   UNL A   1      38.930  31.578  31.155  1.00  0.00     0.074 A 
ATOM     49  C   UNL A   1      38.442  33.125  33.016  1.00  0.00     0.049 A 
ATOM     50  N   UNL A   1      39.931  30.893  31.641  1.00  0.00    -0.248 NA
ATOM     51  C   UNL A   1      38.563  31.214  29.775  1.00  0.00     0.031 C 
ATOM     52  C   UNL A   1      37.757  34.200  33.733  1.00  0.00     0.029 A 
ATOM     53  N   UNL A   1      39.439  32.731  33.876  1.00  0.00    -0.354 N 
ATOM     54  C   UNL A   1      40.308  30.010  30.635  1.00  0.00     0.074 A 
ATOM     55  C   UNL A   1      39.407  30.224  29.524  1.00  0.00     0.031 C 
ATOM     56  C   UNL A   1      38.339  34.362  34.934  1.00  0.00     0.029 A 
ATOM     57  C   UNL A   1      39.412  33.380  35.089  1.00  0.00     0.049 A 
ATOM     58  H   UNL A   1      40.110  32.048  33.645  1.00  0.00     0.167 HD
ATOM     59  C   UNL A   1      41.317  29.106  30.634  1.00  0.00     0.037 A 
ATOM     60  C   UNL A   1      40.145  33.180  36.204  1.00  0.00     0.037 A 
ATOM     61  C   UNL A   1      42.207  28.889  31.745  1.00  0.00     0.049 A 
ATOM     62  C   UNL A   1      41.214  32.114  36.210  1.00  0.00     0.074 A 
ATOM     63  C   UNL A   1      43.268  28.005  31.837  1.00  0.00     0.029 A 
ATOM     64  N   UNL A   1      42.136  29.554  32.960  1.00  0.00    -0.354 N 
ATOM     65  N   UNL A   1      41.573  31.298  35.247  1.00  0.00    -0.248 NA
ATOM     66  C   UNL A   1      41.980  31.944  37.454  1.00  0.00     0.031 C 
ATOM     67  C   UNL A   1      43.801  28.093  33.127  1.00  0.00     0.029 A 
ATOM     68  C   UNL A   1      43.117  29.081  33.817  1.00  0.00     0.049 A 
ATOM     69  H   UNL A   1      41.486  30.259  33.181  1.00  0.00     0.167 HD
ATOM     70  C   UNL A   1      42.625  30.542  35.759  1.00  0.00     0.074 A 
ATOM     71  C   UNL A   1      42.852  31.005  37.111  1.00  0.00     0.031 C 
ATOM     72  C   UNL A   1      43.341  29.556  35.160  1.00  0.00     0.037 A 
BRANCH  59  73
ATOM     73  C   UNL A   1      41.491  28.259  29.401  1.00  0.00     0.058 A 
ATOM     74  C   UNL A   1      42.500  28.519  28.459  1.00  0.00     0.135 A 
ATOM     75  C   UNL A   1      40.653  27.155  29.173  1.00  0.00     0.135 A 
ATOM     76  F   UNL A   1      43.318  29.571  28.617  1.00  0.00    -0.206 F 
ATOM     77  C   UNL A   1      42.651  27.735  27.321  1.00  0.00     0.059 A 
ATOM     78  C   UNL A   1      40.807  26.337  28.057  1.00  0.00     0.059 A 
ATOM     79  F   UNL A   1      39.670  26.862  30.038  1.00  0.00    -0.206 F 
ATOM     80  C   UNL A   1      41.800  26.645  27.129  1.00  0.00     0.060 A 
BRANCH  80  81
ATOM     81  S   UNL A   1      42.012  25.637  25.646  1.00  0.00     0.124 S 
ATOM     82  O   UNL A   1      40.629  25.467  25.210  1.00  0.00    -0.237 OA
ATOM     83  O   UNL A   1      42.841  26.492  24.804  1.00  0.00    -0.237 OA
ATOM     84  O   UNL A   1      42.664  24.430  26.144  1.00  0.00    -0.744 OA
ENDBRANCH  80  81
ENDBRANCH  59  73
BRANCH  60  85
ATOM     85  C   UNL A   1      39.882  33.995  37.423  1.00  0.00     0.058 A 
ATOM     86  C   UNL A   1      38.953  33.580  38.390  1.00  0.00     0.135 A 
ATOM     87  C   UNL A   1      40.548  35.212  37.643  1.00  0.00     0.135 A 
ATOM     88  F   UNL A   1      38.276  32.434  38.220  1.00  0.00    -0.206 F 
ATOM     89  C   UNL A   1      38.686  34.343  39.523  1.00  0.00     0.059 A 
ATOM     90  C   UNL A   1      40.320  35.979  38.781  1.00  0.00     0.059 A 
ATOM     91  F   UNL A   1      41.449  35.655  36.752  1.00  0.00    -0.206 F 
ATOM     92  C   UNL A   1      39.381  35.540  39.712  1.00  0.00     0.060 A 
BRANCH  92  93
ATOM     93  S   UNL A   1      39.068  36.492  41.215  1.00  0.00     0.124 S 
ATOM     94  O   UNL A   1      37.872  35.840  41.734  1.00  0.00    -0.237 OA
ATOM     95  O   UNL A   1      40.295  36.274  41.974  1.00  0.00    -0.237 OA
ATOM     96  O   UNL A   1      38.880  37.852  40.718  1.00  0.00    -0.744 OA
ENDBRANCH  92  93
ENDBRANCH  60  85
BRANCH  72  97
ATOM     97  C   UNL A   1      44.473  28.937  35.941  1.00  0.00     0.058 A 
ATOM     98  C   UNL A   1      45.786  29.425  35.865  1.00  0.00     0.135 A 
ATOM     99  C   UNL A   1      44.222  27.875  36.827  1.00  0.00     0.135 A 
ATOM    100  F   UNL A   1      46.084  30.435  35.032  1.00  0.00    -0.206 F 
ATOM    101  C   UNL A   1      46.815  28.868  36.619  1.00  0.00     0.059 A 
ATOM    102  C   UNL A   1      45.228  27.324  37.615  1.00  0.00     0.059 A 
ATOM    103  F   UNL A   1      42.982  27.375  36.952  1.00  0.00    -0.206 F 
ATOM    104  C   UNL A   1      46.525  27.820  37.496  1.00  0.00     0.060 A 
BRANCH 104 105
ATOM    105  S   UNL A   1      47.863  27.130  38.492  1.00  0.00     0.124 S 
ATOM    106  O   UNL A   1      48.629  26.396  37.491  1.00  0.00    -0.237 OA
ATOM    107  O   UNL A   1      48.503  28.328  39.027  1.00  0.00    -0.237 OA
ATOM    108  O   UNL A   1      47.166  26.307  39.476  1.00  0.00    -0.744 OA
ENDBRANCH 104 105
ENDBRANCH  72  97
ENDBRANCH  46  47
ENDBRANCH  39  41
ENDBRANCH  38  39
ENDBRANCH  37  38
ENDBRANCH  36  37
ENDBRANCH  35  36
ENDBRANCH  34  35
ENDBRANCH   1  34
TORSDOF 25
ENDMDL
MODEL 3
REMARK VINA RESULT:     -10.1      1.897      2.922
REMARK SMILES O=C(COc1ccc(N2C[C@@H](C(=O)OCCOCCOCCOC(=O)c3ccc(-c4c5nc(c(-c6c(F)cc(S(=O)(=O)[O-])cc6F)c6ccc([nH]6)c(-c6c(F)cc(S(=O)(=O)[O-])cc6F)c6nc(c(-c7c(F)cc(S(=O)(=O)[O-])cc7F)c7ccc4[nH]7)C=C6)C=C5)cc3)CC2=O)cc1)Nc1ccc(Cl)cc1Cl
REMARK SMILES IDX 18 1 17 2 16 3 15 4 14 5 12 6 13 7 11 8 9 9 10 10 93 11
REMARK SMILES IDX 92 12 94 13 8 14 5 15 6 16 96 17 7 18 95 19 4 20 3 21 2 22
REMARK SMILES IDX 1 23 97 24 98 26 99 27 104 28 100 29 103 30 105 31 101 32
REMARK SMILES IDX 102 33 19 34 20 35 21 36 22 37 23 38 24 39 25 40 26 41 27 42
REMARK SMILES IDX 91 43 28 44 90 45 29 46 30 47 31 48 84 49 32 50 89 51 83 52
REMARK SMILES IDX 85 53 33 54 88 55 82 56 81 57 34 59 68 60 47 61 67 62 48 63
REMARK SMILES IDX 51 64 66 65 86 66 49 67 50 68 65 70 87 71 52 72 35 73 36 74
REMARK SMILES IDX 45 75 37 76 38 77 44 78 46 79 39 80 40 81 41 82 42 83 43 84
REMARK SMILES IDX 69 85 70 86 79 87 71 88 72 89 78 90 80 91 73 92 74 93 75 94
REMARK SMILES IDX 76 95 77 96 53 97 54 98 63 99 55 100 56 101 62 102 64 103
REMARK SMILES IDX 57 104 58 105 59 106 60 107 61 108
REMARK H PARENT 97 25 85 58 51 69
REMARK Flexibility Score: inf
ROOT
ATOM      1  C   UNL A   1      31.343  31.675  26.632  1.00  0.00     0.188 C 
ENDROOT
BRANCH   1   2
ATOM      2  O   UNL A   1      30.706  31.242  25.436  1.00  0.00    -0.376 OA
BRANCH   2   3
ATOM      3  C   UNL A   1      30.049  32.197  24.608  1.00  0.00     0.202 C 
BRANCH   3   4
ATOM      4  C   UNL A   1      28.609  31.916  24.143  1.00  0.00     0.261 C 
BRANCH   4   5
ATOM      5  O   UNL A   1      28.515  31.218  22.885  1.00  0.00    -0.463 OA
BRANCH   5   6
ATOM      6  C   UNL A   1      28.043  29.951  22.930  1.00  0.00     0.311 C 
ATOM      7  O   UNL A   1      26.922  29.644  23.321  1.00  0.00    -0.252 OA
BRANCH   6   8
ATOM      8  C   UNL A   1      28.996  28.915  22.368  1.00  0.00     0.128 C 
ATOM      9  N   UNL A   1      30.237  27.111  23.211  1.00  0.00    -0.312 N 
ATOM     10  C   UNL A   1      28.942  27.726  23.304  1.00  0.00     0.141 C 
ATOM     11  C   UNL A   1      31.184  27.966  22.662  1.00  0.00     0.227 C 
ATOM     12  C   UNL A   1      30.486  29.228  22.258  1.00  0.00     0.117 C 
ATOM     13  O   UNL A   1      32.379  27.784  22.484  1.00  0.00    -0.274 OA
BRANCH   9  14
ATOM     14  C   UNL A   1      30.520  25.889  23.843  1.00  0.00     0.044 A 
ATOM     15  C   UNL A   1      30.913  23.445  25.137  1.00  0.00     0.120 A 
ATOM     16  C   UNL A   1      30.923  23.494  23.748  1.00  0.00     0.048 A 
ATOM     17  C   UNL A   1      30.775  24.615  25.877  1.00  0.00     0.048 A 
ATOM     18  C   UNL A   1      30.707  24.715  23.101  1.00  0.00     0.030 A 
ATOM     19  C   UNL A   1      30.576  25.827  25.234  1.00  0.00     0.030 A 
BRANCH  15  20
ATOM     20  O   UNL A   1      31.095  22.239  25.760  1.00  0.00    -0.484 OA
BRANCH  20  21
ATOM     21  C   UNL A   1      31.696  21.291  24.868  1.00  0.00     0.329 C 
BRANCH  21  22
ATOM     22  C   UNL A   1      33.166  21.587  24.554  1.00  0.00     0.262 C 
ATOM     23  O   UNL A   1      33.655  21.299  23.468  1.00  0.00    -0.271 OA
ATOM     24  N   UNL A   1      33.838  22.105  25.655  1.00  0.00    -0.322 N 
ATOM     25  H   UNL A   1      33.299  22.296  26.457  1.00  0.00     0.170 HD
BRANCH  24  26
ATOM     26  C   UNL A   1      35.221  22.383  25.736  1.00  0.00     0.060 A 
ATOM     27  C   UNL A   1      36.052  21.258  25.881  1.00  0.00     0.029 A 
ATOM     28  C   UNL A   1      35.818  23.656  25.690  1.00  0.00     0.066 A 
ATOM     29  C   UNL A   1      37.444  21.388  25.908  1.00  0.00     0.023 A 
ATOM     30  C   UNL A   1      37.214  23.781  25.705  1.00  0.00     0.043 A 
ATOM     31  Cl  UNL A   1      34.932  25.137  25.825  1.00  0.00    -0.082 Cl
ATOM     32  C   UNL A   1      38.017  22.651  25.806  1.00  0.00     0.042 A 
ATOM     33  Cl  UNL A   1      39.729  22.819  25.852  1.00  0.00    -0.084 Cl
ENDBRANCH  24  26
ENDBRANCH  21  22
ENDBRANCH  20  21
ENDBRANCH  15  20
ENDBRANCH   9  14
ENDBRANCH   6   8
ENDBRANCH   5   6
ENDBRANCH   4   5
ENDBRANCH   3   4
ENDBRANCH   2   3
ENDBRANCH   1   2
BRANCH   1  34
ATOM     34  C   UNL A   1      32.814  31.301  26.868  1.00  0.00     0.188 C 
BRANCH  34  35
ATOM     35  O   UNL A   1      33.445  31.986  27.921  1.00  0.00    -0.376 OA
BRANCH  35  36
ATOM     36  C   UNL A   1      34.836  32.221  27.823  1.00  0.00     0.202 C 
BRANCH  36  37
ATOM     37  C   UNL A   1      35.691  32.299  29.101  1.00  0.00     0.261 C 
BRANCH  37  38
ATOM     38  O   UNL A   1      35.880  31.083  29.847  1.00  0.00    -0.460 OA
BRANCH  38  39
ATOM     39  C   UNL A   1      36.064  29.942  29.142  1.00  0.00     0.338 C 
ATOM     40  O   UNL A   1      35.197  29.288  28.578  1.00  0.00    -0.246 OA
BRANCH  39  41
ATOM     41  C   UNL A   1      37.523  29.749  28.958  1.00  0.00     0.060 A 
ATOM     42  C   UNL A   1      38.052  29.701  27.658  1.00  0.00     0.016 A 
ATOM     43  C   UNL A   1      38.369  29.635  30.061  1.00  0.00     0.016 A 
ATOM     44  C   UNL A   1      39.423  29.514  27.460  1.00  0.00     0.010 A 
ATOM     45  C   UNL A   1      39.738  29.422  29.861  1.00  0.00     0.010 A 
ATOM     46  C   UNL A   1      40.269  29.332  28.561  1.00  0.00    -0.014 A 
BRANCH  46  47
ATOM     47  C   UNL A   1      41.664  28.855  28.367  1.00  0.00     0.031 A 
ATOM     48  C   UNL A   1      42.778  29.867  28.428  1.00  0.00     0.074 A 
ATOM     49  C   UNL A   1      41.947  27.560  28.133  1.00  0.00     0.049 A 
ATOM     50  N   UNL A   1      44.054  29.718  28.187  1.00  0.00    -0.248 NA
ATOM     51  C   UNL A   1      42.392  31.237  28.807  1.00  0.00     0.031 C 
ATOM     52  C   UNL A   1      40.971  26.474  28.092  1.00  0.00     0.029 A 
ATOM     53  N   UNL A   1      43.146  26.945  27.864  1.00  0.00    -0.354 N 
ATOM     54  C   UNL A   1      44.622  30.973  28.371  1.00  0.00     0.074 A 
ATOM     55  C   UNL A   1      43.547  31.879  28.714  1.00  0.00     0.031 C 
ATOM     56  C   UNL A   1      41.606  25.328  27.789  1.00  0.00     0.029 A 
ATOM     57  C   UNL A   1      43.028  25.604  27.577  1.00  0.00     0.049 A 
ATOM     58  H   UNL A   1      44.010  27.418  27.876  1.00  0.00     0.167 HD
ATOM     59  C   UNL A   1      45.923  31.339  28.270  1.00  0.00     0.037 A 
ATOM     60  C   UNL A   1      43.951  24.714  27.160  1.00  0.00     0.037 A 
ATOM     61  C   UNL A   1      46.989  30.436  27.921  1.00  0.00     0.049 A 
ATOM     62  C   UNL A   1      45.382  25.158  26.978  1.00  0.00     0.074 A 
ATOM     63  C   UNL A   1      48.342  30.708  27.804  1.00  0.00     0.029 A 
ATOM     64  N   UNL A   1      46.825  29.091  27.622  1.00  0.00    -0.354 N 
ATOM     65  N   UNL A   1      45.912  26.343  27.173  1.00  0.00    -0.248 NA
ATOM     66  C   UNL A   1      46.344  24.143  26.523  1.00  0.00     0.031 C 
ATOM     67  C   UNL A   1      48.987  29.542  27.378  1.00  0.00     0.029 A 
ATOM     68  C   UNL A   1      48.048  28.527  27.295  1.00  0.00     0.049 A 
ATOM     69  H   UNL A   1      45.968  28.610  27.640  1.00  0.00     0.167 HD
ATOM     70  C   UNL A   1      47.270  26.207  26.894  1.00  0.00     0.074 A 
ATOM     71  C   UNL A   1      47.483  24.823  26.529  1.00  0.00     0.031 C 
ATOM     72  C   UNL A   1      48.251  27.143  26.941  1.00  0.00     0.037 A 
BRANCH  59  73
ATOM     73  C   UNL A   1      46.260  32.787  28.510  1.00  0.00     0.058 A 
ATOM     74  C   UNL A   1      46.713  33.245  29.757  1.00  0.00     0.135 A 
ATOM     75  C   UNL A   1      46.153  33.723  27.469  1.00  0.00     0.135 A 
ATOM     76  F   UNL A   1      46.816  32.398  30.793  1.00  0.00    -0.206 F 
ATOM     77  C   UNL A   1      47.017  34.585  29.972  1.00  0.00     0.059 A 
ATOM     78  C   UNL A   1      46.483  35.062  27.652  1.00  0.00     0.059 A 
ATOM     79  F   UNL A   1      45.722  33.341  26.256  1.00  0.00    -0.206 F 
ATOM     80  C   UNL A   1      46.900  35.487  28.913  1.00  0.00     0.060 A 
BRANCH  80  81
ATOM     81  S   UNL A   1      47.301  37.222  29.209  1.00  0.00     0.124 S 
ATOM     82  O   UNL A   1      47.000  37.351  30.632  1.00  0.00    -0.237 OA
ATOM     83  O   UNL A   1      48.714  37.280  28.853  1.00  0.00    -0.237 OA
ATOM     84  O   UNL A   1      46.401  37.938  28.311  1.00  0.00    -0.744 OA
ENDBRANCH  80  81
ENDBRANCH  59  73
BRANCH  60  85
ATOM     85  C   UNL A   1      43.551  23.310  26.864  1.00  0.00     0.058 A 
ATOM     86  C   UNL A   1      43.539  22.818  25.549  1.00  0.00     0.135 A 
ATOM     87  C   UNL A   1      43.164  22.432  27.889  1.00  0.00     0.135 A 
ATOM     88  F   UNL A   1      43.883  23.621  24.531  1.00  0.00    -0.206 F 
ATOM     89  C   UNL A   1      43.148  21.514  25.260  1.00  0.00     0.059 A 
ATOM     90  C   UNL A   1      42.797  21.115  27.629  1.00  0.00     0.059 A 
ATOM     91  F   UNL A   1      43.161  22.849  29.165  1.00  0.00    -0.206 F 
ATOM     92  C   UNL A   1      42.785  20.668  26.310  1.00  0.00     0.060 A 
BRANCH  92  93
ATOM     93  S   UNL A   1      42.336  18.960  25.926  1.00  0.00     0.124 S 
ATOM     94  O   UNL A   1      43.045  18.744  24.671  1.00  0.00    -0.237 OA
ATOM     95  O   UNL A   1      42.856  18.242  27.086  1.00  0.00    -0.237 OA
ATOM     96  O   UNL A   1      40.880  19.010  25.830  1.00  0.00    -0.744 OA
ENDBRANCH  92  93
ENDBRANCH  60  85
BRANCH  72  97
ATOM     97  C   UNL A   1      49.660  26.700  26.636  1.00  0.00     0.058 A 
ATOM     98  C   UNL A   1      50.554  26.310  27.645  1.00  0.00     0.135 A 
ATOM     99  C   UNL A   1      50.098  26.606  25.303  1.00  0.00     0.135 A 
ATOM    100  F   UNL A   1      50.191  26.382  28.935  1.00  0.00    -0.206 F 
ATOM    101  C   UNL A   1      51.840  25.867  27.347  1.00  0.00     0.059 A 
ATOM    102  C   UNL A   1      51.368  26.135  24.981  1.00  0.00     0.059 A 
ATOM    103  F   UNL A   1      49.282  26.953  24.297  1.00  0.00    -0.206 F 
ATOM    104  C   UNL A   1      52.237  25.779  26.010  1.00  0.00     0.060 A 
BRANCH 104 105
ATOM    105  S   UNL A   1      53.895  25.171  25.638  1.00  0.00     0.124 S 
ATOM    106  O   UNL A   1      54.392  24.837  26.968  1.00  0.00    -0.237 OA
ATOM    107  O   UNL A   1      53.622  24.038  24.759  1.00  0.00    -0.237 OA
ATOM    108  O   UNL A   1      54.540  26.313  24.996  1.00  0.00    -0.744 OA
ENDBRANCH 104 105
ENDBRANCH  72  97
ENDBRANCH  46  47
ENDBRANCH  39  41
ENDBRANCH  38  39
ENDBRANCH  37  38
ENDBRANCH  36  37
ENDBRANCH  35  36
ENDBRANCH  34  35
ENDBRANCH   1  34
TORSDOF 25
ENDMDL
