MODEL 1
REMARK VINA RESULT:      -9.2      0.000      0.000
REMARK SMILES CCc1cc(OC(F)(F)F)cc2c1O[C@@H](C(F)(F)F)C(C(=O)OCCOCCOCCOC(=O)c1ccc(-c3c4nc(c(-c5c(F)cc(S(=O)(=O)[O-])cc5F)c5ccc([nH]5)c(-c5c(F)cc(S(=O)(=O)[O-])cc5F)c5nc(c(-c6c(F)cc(S(=O)(=O)[O-])cc6F)c6ccc3[nH]6)C=C5)C=C4)cc1)=C2
REMARK SMILES IDX 28 1 27 2 26 3 25 4 24 5 23 6 21 7 22 8 20 9 3 10 4 11 13 12
REMARK SMILES IDX 5 13 12 14 14 15 11 16 101 17 15 18 2 19 1 20 6 21 7 22 8 23
REMARK SMILES IDX 9 24 10 25 16 26 17 27 18 28 19 29 29 30 30 31 31 32 32 33
REMARK SMILES IDX 33 34 34 35 35 36 36 37 100 38 37 39 99 40 38 41 39 42 40 43
REMARK SMILES IDX 93 44 41 45 98 46 92 47 94 48 42 49 97 50 91 51 90 52 43 54
REMARK SMILES IDX 77 55 56 56 76 57 57 58 60 59 75 60 95 61 58 62 59 63 74 65
REMARK SMILES IDX 96 66 61 67 44 68 45 69 54 70 46 71 47 72 53 73 55 74 48 75
REMARK SMILES IDX 49 76 50 77 51 78 52 79 78 80 79 81 88 82 80 83 81 84 87 85
REMARK SMILES IDX 89 86 82 87 83 88 84 89 85 90 86 91 62 92 63 93 72 94 64 95
REMARK SMILES IDX 65 96 71 97 73 98 66 99 67 100 68 101 69 102 70 103
REMARK H PARENT 94 53 60 64
REMARK Flexibility Score: inf
ROOT
ATOM      1  C   UNL A   1      44.681  38.369  27.692  1.00  0.00     0.188 C 
ENDROOT
BRANCH   1   2
ATOM      2  C   UNL A   1      44.613  39.909  27.639  1.00  0.00     0.188 C 
BRANCH   2   3
ATOM      3  O   UNL A   1      43.580  40.407  26.802  1.00  0.00    -0.376 OA
BRANCH   3   4
ATOM      4  C   UNL A   1      43.887  41.579  26.061  1.00  0.00     0.202 C 
BRANCH   4   5
ATOM      5  C   UNL A   1      45.046  41.408  25.075  1.00  0.00     0.261 C 
BRANCH   5   6
ATOM      6  O   UNL A   1      44.959  42.250  23.912  1.00  0.00    -0.460 OA
BRANCH   6   7
ATOM      7  C   UNL A   1      46.035  42.291  23.098  1.00  0.00     0.338 C 
ATOM      8  O   UNL A   1      46.964  41.503  23.099  1.00  0.00    -0.246 OA
BRANCH   7   9
ATOM      9  C   UNL A   1      45.877  43.400  22.135  1.00  0.00     0.087 C 
ATOM     10  C   UNL A   1      45.069  46.818  19.847  1.00  0.00    -0.002 A 
ATOM     11  C   UNL A   1      44.318  46.678  18.666  1.00  0.00     0.054 A 
ATOM     12  C   UNL A   1      45.329  45.665  20.610  1.00  0.00     0.131 A 
ATOM     13  C   UNL A   1      43.806  45.435  18.278  1.00  0.00     0.130 A 
ATOM     14  C   UNL A   1      44.817  44.416  20.235  1.00  0.00     0.021 A 
ATOM     15  O   UNL A   1      46.043  45.821  21.772  1.00  0.00    -0.475 OA
ATOM     16  C   UNL A   1      44.070  44.306  19.060  1.00  0.00     0.058 A 
ATOM     17  C   UNL A   1      44.988  43.276  21.134  1.00  0.00     0.027 C 
ATOM     18  C   UNL A   1      46.740  44.637  22.241  1.00  0.00     0.316 C 
BRANCH  10  19
ATOM     19  C   UNL A   1      45.636  48.152  20.297  1.00  0.00     0.036 C 
ATOM     20  C   UNL A   1      44.712  49.360  20.198  1.00  0.00     0.009 C 
ENDBRANCH  10  19
BRANCH  13  21
ATOM     21  O   UNL A   1      43.045  45.191  17.169  1.00  0.00    -0.406 OA
BRANCH  21  22
ATOM     22  C   UNL A   1      41.634  45.233  17.323  1.00  0.00     0.573 C 
ATOM     23  F   UNL A   1      41.220  44.406  18.306  1.00  0.00    -0.132 F 
ATOM     24  F   UNL A   1      41.208  46.488  17.576  1.00  0.00    -0.132 F 
ATOM     25  F   UNL A   1      41.063  44.824  16.167  1.00  0.00    -0.132 F 
ENDBRANCH  21  22
ENDBRANCH  13  21
BRANCH  18  26
ATOM     26  C   UNL A   1      47.370  44.956  23.607  1.00  0.00     0.430 C 
ATOM     27  F   UNL A   1      46.429  44.965  24.583  1.00  0.00    -0.167 F 
ATOM     28  F   UNL A   1      48.258  43.992  23.951  1.00  0.00    -0.167 F 
ATOM     29  F   UNL A   1      48.023  46.135  23.618  1.00  0.00    -0.167 F 
ENDBRANCH  18  26
ENDBRANCH   7   9
ENDBRANCH   6   7
ENDBRANCH   5   6
ENDBRANCH   4   5
ENDBRANCH   3   4
ENDBRANCH   2   3
ENDBRANCH   1   2
BRANCH   1  30
ATOM     30  O   UNL A   1      45.654  37.713  28.497  1.00  0.00    -0.376 OA
BRANCH  30  31
ATOM     31  C   UNL A   1      46.867  38.377  28.811  1.00  0.00     0.202 C 
BRANCH  31  32
ATOM     32  C   UNL A   1      47.967  37.590  29.532  1.00  0.00     0.261 C 
BRANCH  32  33
ATOM     33  O   UNL A   1      49.110  37.274  28.722  1.00  0.00    -0.460 OA
BRANCH  33  34
ATOM     34  C   UNL A   1      49.617  36.033  28.918  1.00  0.00     0.338 C 
ATOM     35  O   UNL A   1      50.742  35.753  29.300  1.00  0.00    -0.246 OA
BRANCH  34  36
ATOM     36  C   UNL A   1      48.562  35.009  28.770  1.00  0.00     0.060 A 
ATOM     37  C   UNL A   1      48.376  34.115  29.832  1.00  0.00     0.016 A 
ATOM     38  C   UNL A   1      47.850  34.851  27.578  1.00  0.00     0.016 A 
ATOM     39  C   UNL A   1      47.527  33.021  29.686  1.00  0.00     0.010 A 
ATOM     40  C   UNL A   1      47.013  33.738  27.425  1.00  0.00     0.010 A 
ATOM     41  C   UNL A   1      46.889  32.793  28.460  1.00  0.00    -0.014 A 
BRANCH  41  42
ATOM     42  C   UNL A   1      46.307  31.453  28.201  1.00  0.00     0.031 A 
ATOM     43  C   UNL A   1      47.209  30.381  27.644  1.00  0.00     0.074 A 
ATOM     44  C   UNL A   1      45.029  31.169  28.508  1.00  0.00     0.049 A 
ATOM     45  N   UNL A   1      46.942  29.132  27.362  1.00  0.00    -0.248 NA
ATOM     46  C   UNL A   1      48.603  30.774  27.373  1.00  0.00     0.031 C 
ATOM     47  C   UNL A   1      44.069  32.105  29.089  1.00  0.00     0.029 A 
ATOM     48  N   UNL A   1      44.323  29.999  28.375  1.00  0.00    -0.354 N 
ATOM     49  C   UNL A   1      48.130  28.590  26.884  1.00  0.00     0.074 A 
ATOM     50  C   UNL A   1      49.112  29.653  26.884  1.00  0.00     0.031 C 
ATOM     51  C   UNL A   1      42.892  31.474  29.253  1.00  0.00     0.029 A 
ATOM     52  C   UNL A   1      43.013  30.096  28.774  1.00  0.00     0.049 A 
ATOM     53  H   UNL A   1      44.719  29.168  28.026  1.00  0.00     0.167 HD
ATOM     54  C   UNL A   1      48.387  27.320  26.490  1.00  0.00     0.037 A 
ATOM     55  C   UNL A   1      42.025  29.180  28.750  1.00  0.00     0.037 A 
ATOM     56  C   UNL A   1      47.411  26.264  26.484  1.00  0.00     0.049 A 
ATOM     57  C   UNL A   1      42.320  27.784  28.263  1.00  0.00     0.074 A 
ATOM     58  C   UNL A   1      47.569  24.946  26.095  1.00  0.00     0.029 A 
ATOM     59  N   UNL A   1      46.090  26.408  26.884  1.00  0.00    -0.354 N 
ATOM     60  N   UNL A   1      43.452  27.281  27.827  1.00  0.00    -0.248 NA
ATOM     61  C   UNL A   1      41.205  26.825  28.276  1.00  0.00     0.031 C 
ATOM     62  C   UNL A   1      46.334  24.299  26.229  1.00  0.00     0.029 A 
ATOM     63  C   UNL A   1      45.420  25.204  26.743  1.00  0.00     0.049 A 
ATOM     64  H   UNL A   1      45.689  27.242  27.219  1.00  0.00     0.167 HD
ATOM     65  C   UNL A   1      43.195  25.941  27.552  1.00  0.00     0.074 A 
ATOM     66  C   UNL A   1      41.800  25.711  27.871  1.00  0.00     0.031 C 
ATOM     67  C   UNL A   1      44.037  24.987  27.085  1.00  0.00     0.037 A 
BRANCH  54  68
ATOM     68  C   UNL A   1      49.778  27.016  26.012  1.00  0.00     0.058 A 
ATOM     69  C   UNL A   1      50.127  27.111  24.655  1.00  0.00     0.135 A 
ATOM     70  C   UNL A   1      50.777  26.634  26.922  1.00  0.00     0.135 A 
ATOM     71  F   UNL A   1      49.205  27.452  23.742  1.00  0.00    -0.206 F 
ATOM     72  C   UNL A   1      51.412  26.812  24.213  1.00  0.00     0.059 A 
ATOM     73  C   UNL A   1      52.074  26.352  26.504  1.00  0.00     0.059 A 
ATOM     74  F   UNL A   1      50.493  26.523  28.229  1.00  0.00    -0.206 F 
ATOM     75  C   UNL A   1      52.378  26.429  25.146  1.00  0.00     0.060 A 
BRANCH  75  76
ATOM     76  S   UNL A   1      54.039  26.036  24.559  1.00  0.00     0.124 S 
ATOM     77  O   UNL A   1      54.866  26.760  25.520  1.00  0.00    -0.237 OA
ATOM     78  O   UNL A   1      54.074  24.581  24.664  1.00  0.00    -0.237 OA
ATOM     79  O   UNL A   1      54.051  26.564  23.198  1.00  0.00    -0.744 OA
ENDBRANCH  75  76
ENDBRANCH  54  68
BRANCH  55  80
ATOM     80  C   UNL A   1      40.657  29.548  29.204  1.00  0.00     0.058 A 
ATOM     81  C   UNL A   1      39.635  29.822  28.283  1.00  0.00     0.135 A 
ATOM     82  C   UNL A   1      40.350  29.648  30.570  1.00  0.00     0.135 A 
ATOM     83  F   UNL A   1      39.882  29.751  26.966  1.00  0.00    -0.206 F 
ATOM     84  C   UNL A   1      38.362  30.198  28.698  1.00  0.00     0.059 A 
ATOM     85  C   UNL A   1      39.079  30.000  31.010  1.00  0.00     0.059 A 
ATOM     86  F   UNL A   1      41.292  29.388  31.490  1.00  0.00    -0.206 F 
ATOM     87  C   UNL A   1      38.094  30.286  30.066  1.00  0.00     0.060 A 
BRANCH  87  88
ATOM     88  S   UNL A   1      36.429  30.742  30.598  1.00  0.00     0.124 S 
ATOM     89  O   UNL A   1      36.147  29.714  31.593  1.00  0.00    -0.237 OA
ATOM     90  O   UNL A   1      36.629  32.093  31.115  1.00  0.00    -0.237 OA
ATOM     91  O   UNL A   1      35.650  30.660  29.366  1.00  0.00    -0.744 OA
ENDBRANCH  87  88
ENDBRANCH  55  80
BRANCH  67  92
ATOM     92  C   UNL A   1      43.496  23.591  26.945  1.00  0.00     0.058 A 
ATOM     93  C   UNL A   1      43.305  22.753  28.054  1.00  0.00     0.135 A 
ATOM     94  C   UNL A   1      43.120  23.103  25.683  1.00  0.00     0.135 A 
ATOM     95  F   UNL A   1      43.649  23.171  29.283  1.00  0.00    -0.206 F 
ATOM     96  C   UNL A   1      42.789  21.468  27.914  1.00  0.00     0.059 A 
ATOM     97  C   UNL A   1      42.579  21.831  25.522  1.00  0.00     0.059 A 
ATOM     98  F   UNL A   1      43.267  23.869  24.590  1.00  0.00    -0.206 F 
ATOM     99  C   UNL A   1      42.432  21.014  26.643  1.00  0.00     0.060 A 
BRANCH  99 100
ATOM    100  S   UNL A   1      41.746  19.354  26.471  1.00  0.00     0.124 S 
ATOM    101  O   UNL A   1      40.407  19.641  25.964  1.00  0.00    -0.237 OA
ATOM    102  O   UNL A   1      42.662  18.729  25.522  1.00  0.00    -0.237 OA
ATOM    103  O   UNL A   1      41.802  18.821  27.829  1.00  0.00    -0.744 OA
ENDBRANCH  99 100
ENDBRANCH  67  92
ENDBRANCH  41  42
ENDBRANCH  34  36
ENDBRANCH  33  34
ENDBRANCH  32  33
ENDBRANCH  31  32
ENDBRANCH  30  31
ENDBRANCH   1  30
TORSDOF 24
ENDMDL
MODEL 2
REMARK VINA RESULT:      -8.9      3.139      4.453
REMARK SMILES CCc1cc(OC(F)(F)F)cc2c1O[C@@H](C(F)(F)F)C(C(=O)OCCOCCOCCOC(=O)c1ccc(-c3c4nc(c(-c5c(F)cc(S(=O)(=O)[O-])cc5F)c5ccc([nH]5)c(-c5c(F)cc(S(=O)(=O)[O-])cc5F)c5nc(c(-c6c(F)cc(S(=O)(=O)[O-])cc6F)c6ccc3[nH]6)C=C5)C=C4)cc1)=C2
REMARK SMILES IDX 28 1 27 2 26 3 25 4 24 5 23 6 21 7 22 8 20 9 3 10 4 11 13 12
REMARK SMILES IDX 5 13 12 14 14 15 11 16 101 17 15 18 2 19 1 20 6 21 7 22 8 23
REMARK SMILES IDX 9 24 10 25 16 26 17 27 18 28 19 29 29 30 30 31 31 32 32 33
REMARK SMILES IDX 33 34 34 35 35 36 36 37 100 38 37 39 99 40 38 41 39 42 40 43
REMARK SMILES IDX 93 44 41 45 98 46 92 47 94 48 42 49 97 50 91 51 90 52 43 54
REMARK SMILES IDX 77 55 56 56 76 57 57 58 60 59 75 60 95 61 58 62 59 63 74 65
REMARK SMILES IDX 96 66 61 67 44 68 45 69 54 70 46 71 47 72 53 73 55 74 48 75
REMARK SMILES IDX 49 76 50 77 51 78 52 79 78 80 79 81 88 82 80 83 81 84 87 85
REMARK SMILES IDX 89 86 82 87 83 88 84 89 85 90 86 91 62 92 63 93 72 94 64 95
REMARK SMILES IDX 65 96 71 97 73 98 66 99 67 100 68 101 69 102 70 103
REMARK H PARENT 94 53 60 64
REMARK Flexibility Score: inf
ROOT
ATOM      1  C   UNL A   1      43.092  40.712  32.847  1.00  0.00     0.188 C 
ENDROOT
BRANCH   1   2
ATOM      2  C   UNL A   1      43.327  41.730  31.711  1.00  0.00     0.188 C 
BRANCH   2   3
ATOM      3  O   UNL A   1      43.769  41.140  30.498  1.00  0.00    -0.376 OA
BRANCH   3   4
ATOM      4  C   UNL A   1      42.970  40.081  29.991  1.00  0.00     0.202 C 
BRANCH   4   5
ATOM      5  C   UNL A   1      41.648  40.539  29.371  1.00  0.00     0.261 C 
BRANCH   5   6
ATOM      6  O   UNL A   1      41.767  41.027  28.024  1.00  0.00    -0.460 OA
BRANCH   6   7
ATOM      7  C   UNL A   1      42.181  40.151  27.083  1.00  0.00     0.338 C 
ATOM      8  O   UNL A   1      42.096  38.938  27.148  1.00  0.00    -0.246 OA
BRANCH   7   9
ATOM      9  C   UNL A   1      42.686  40.894  25.910  1.00  0.00     0.087 C 
ATOM     10  C   UNL A   1      44.153  43.500  22.974  1.00  0.00    -0.002 A 
ATOM     11  C   UNL A   1      43.323  43.830  21.887  1.00  0.00     0.054 A 
ATOM     12  C   UNL A   1      43.649  42.630  23.956  1.00  0.00     0.131 A 
ATOM     13  C   UNL A   1      42.015  43.340  21.803  1.00  0.00     0.130 A 
ATOM     14  C   UNL A   1      42.338  42.138  23.886  1.00  0.00     0.021 A 
ATOM     15  O   UNL A   1      44.461  42.336  25.023  1.00  0.00    -0.475 OA
ATOM     16  C   UNL A   1      41.533  42.485  22.799  1.00  0.00     0.058 A 
ATOM     17  C   UNL A   1      41.809  41.357  25.003  1.00  0.00     0.027 C 
ATOM     18  C   UNL A   1      44.171  41.088  25.706  1.00  0.00     0.316 C 
BRANCH  10  19
ATOM     19  C   UNL A   1      45.576  44.016  23.097  1.00  0.00     0.036 C 
ATOM     20  C   UNL A   1      46.427  43.991  21.832  1.00  0.00     0.009 C 
ENDBRANCH  10  19
BRANCH  13  21
ATOM     21  O   UNL A   1      41.117  43.617  20.810  1.00  0.00    -0.406 OA
BRANCH  21  22
ATOM     22  C   UNL A   1      41.592  43.588  19.473  1.00  0.00     0.573 C 
ATOM     23  F   UNL A   1      42.239  44.729  19.155  1.00  0.00    -0.132 F 
ATOM     24  F   UNL A   1      42.405  42.532  19.266  1.00  0.00    -0.132 F 
ATOM     25  F   UNL A   1      40.531  43.467  18.642  1.00  0.00    -0.132 F 
ENDBRANCH  21  22
ENDBRANCH  13  21
BRANCH  18  26
ATOM     26  C   UNL A   1      45.084  40.988  26.938  1.00  0.00     0.430 C 
ATOM     27  F   UNL A   1      46.372  41.250  26.608  1.00  0.00    -0.167 F 
ATOM     28  F   UNL A   1      44.735  41.922  27.858  1.00  0.00    -0.167 F 
ATOM     29  F   UNL A   1      45.023  39.783  27.538  1.00  0.00    -0.167 F 
ENDBRANCH  18  26
ENDBRANCH   7   9
ENDBRANCH   6   7
ENDBRANCH   5   6
ENDBRANCH   4   5
ENDBRANCH   3   4
ENDBRANCH   2   3
ENDBRANCH   1   2
BRANCH   1  30
ATOM     30  O   UNL A   1      44.191  40.111  33.521  1.00  0.00    -0.376 OA
BRANCH  30  31
ATOM     31  C   UNL A   1      45.358  39.767  32.791  1.00  0.00     0.202 C 
BRANCH  31  32
ATOM     32  C   UNL A   1      45.435  38.378  32.147  1.00  0.00     0.261 C 
BRANCH  32  33
ATOM     33  O   UNL A   1      45.300  37.281  33.064  1.00  0.00    -0.460 OA
BRANCH  33  34
ATOM     34  C   UNL A   1      44.135  36.596  32.959  1.00  0.00     0.338 C 
ATOM     35  O   UNL A   1      43.007  37.049  33.063  1.00  0.00    -0.246 OA
BRANCH  34  36
ATOM     36  C   UNL A   1      44.385  35.207  32.522  1.00  0.00     0.060 A 
ATOM     37  C   UNL A   1      44.726  35.004  31.178  1.00  0.00     0.016 A 
ATOM     38  C   UNL A   1      44.180  34.118  33.373  1.00  0.00     0.016 A 
ATOM     39  C   UNL A   1      44.798  33.713  30.661  1.00  0.00     0.010 A 
ATOM     40  C   UNL A   1      44.232  32.820  32.847  1.00  0.00     0.010 A 
ATOM     41  C   UNL A   1      44.491  32.618  31.479  1.00  0.00    -0.014 A 
BRANCH  41  42
ATOM     42  C   UNL A   1      44.205  31.311  30.836  1.00  0.00     0.031 A 
ATOM     43  C   UNL A   1      45.332  30.317  30.710  1.00  0.00     0.074 A 
ATOM     44  C   UNL A   1      42.965  30.982  30.431  1.00  0.00     0.049 A 
ATOM     45  N   UNL A   1      45.323  29.107  30.215  1.00  0.00    -0.248 NA
ATOM     46  C   UNL A   1      46.646  30.750  31.216  1.00  0.00     0.031 C 
ATOM     47  C   UNL A   1      41.785  31.837  30.536  1.00  0.00     0.029 A 
ATOM     48  N   UNL A   1      42.498  29.830  29.850  1.00  0.00    -0.354 N 
ATOM     49  C   UNL A   1      46.623  28.634  30.350  1.00  0.00     0.074 A 
ATOM     50  C   UNL A   1      47.403  29.698  30.945  1.00  0.00     0.031 C 
ATOM     51  C   UNL A   1      40.727  31.182  30.025  1.00  0.00     0.029 A 
ATOM     52  C   UNL A   1      41.160  29.869  29.544  1.00  0.00     0.049 A 
ATOM     53  H   UNL A   1      43.069  29.048  29.670  1.00  0.00     0.167 HD
ATOM     54  C   UNL A   1      47.124  27.419  30.021  1.00  0.00     0.037 A 
ATOM     55  C   UNL A   1      40.378  28.953  28.938  1.00  0.00     0.037 A 
ATOM     56  C   UNL A   1      46.352  26.363  29.424  1.00  0.00     0.049 A 
ATOM     57  C   UNL A   1      40.966  27.625  28.536  1.00  0.00     0.074 A 
ATOM     58  C   UNL A   1      46.769  25.099  29.044  1.00  0.00     0.029 A 
ATOM     59  N   UNL A   1      45.002  26.448  29.117  1.00  0.00    -0.354 N 
ATOM     60  N   UNL A   1      42.195  27.185  28.683  1.00  0.00    -0.248 NA
ATOM     61  C   UNL A   1      40.059  26.661  27.896  1.00  0.00     0.031 C 
ATOM     62  C   UNL A   1      45.678  24.431  28.477  1.00  0.00     0.029 A 
ATOM     63  C   UNL A   1      44.572  25.263  28.544  1.00  0.00     0.049 A 
ATOM     64  H   UNL A   1      44.434  27.236  29.282  1.00  0.00     0.167 HD
ATOM     65  C   UNL A   1      42.197  25.884  28.190  1.00  0.00     0.074 A 
ATOM     66  C   UNL A   1      40.848  25.607  27.741  1.00  0.00     0.031 C 
ATOM     67  C   UNL A   1      43.220  24.996  28.122  1.00  0.00     0.037 A 
BRANCH  54  68
ATOM     68  C   UNL A   1      48.585  27.185  30.280  1.00  0.00     0.058 A 
ATOM     69  C   UNL A   1      49.048  26.729  31.525  1.00  0.00     0.135 A 
ATOM     70  C   UNL A   1      49.534  27.409  29.270  1.00  0.00     0.135 A 
ATOM     71  F   UNL A   1      48.185  26.519  32.532  1.00  0.00    -0.206 F 
ATOM     72  C   UNL A   1      50.403  26.529  31.768  1.00  0.00     0.059 A 
ATOM     73  C   UNL A   1      50.892  27.194  29.483  1.00  0.00     0.059 A 
ATOM     74  F   UNL A   1      49.143  27.850  28.063  1.00  0.00    -0.206 F 
ATOM     75  C   UNL A   1      51.318  26.770  30.741  1.00  0.00     0.060 A 
BRANCH  75  76
ATOM     76  S   UNL A   1      53.075  26.515  31.070  1.00  0.00     0.124 S 
ATOM     77  O   UNL A   1      53.086  25.131  31.534  1.00  0.00    -0.237 OA
ATOM     78  O   UNL A   1      53.678  26.749  29.763  1.00  0.00    -0.237 OA
ATOM     79  O   UNL A   1      53.378  27.519  32.086  1.00  0.00    -0.744 OA
ENDBRANCH  75  76
ENDBRANCH  54  68
BRANCH  55  80
ATOM     80  C   UNL A   1      38.946  29.255  28.675  1.00  0.00     0.058 A 
ATOM     81  C   UNL A   1      37.999  29.248  29.711  1.00  0.00     0.135 A 
ATOM     82  C   UNL A   1      38.492  29.542  27.378  1.00  0.00     0.135 A 
ATOM     83  F   UNL A   1      38.382  28.968  30.967  1.00  0.00    -0.206 F 
ATOM     84  C   UNL A   1      36.652  29.497  29.469  1.00  0.00     0.059 A 
ATOM     85  C   UNL A   1      37.155  29.816  27.115  1.00  0.00     0.059 A 
ATOM     86  F   UNL A   1      39.360  29.568  26.355  1.00  0.00    -0.206 F 
ATOM     87  C   UNL A   1      36.239  29.779  28.166  1.00  0.00     0.060 A 
BRANCH  87  88
ATOM     88  S   UNL A   1      34.494  30.135  27.865  1.00  0.00     0.124 S 
ATOM     89  O   UNL A   1      34.508  30.503  26.454  1.00  0.00    -0.237 OA
ATOM     90  O   UNL A   1      33.859  28.860  28.185  1.00  0.00    -0.237 OA
ATOM     91  O   UNL A   1      34.208  31.220  28.799  1.00  0.00    -0.744 OA
ENDBRANCH  87  88
ENDBRANCH  55  80
BRANCH  67  92
ATOM     92  C   UNL A   1      42.913  23.621  27.597  1.00  0.00     0.058 A 
ATOM     93  C   UNL A   1      42.929  23.329  26.225  1.00  0.00     0.135 A 
ATOM     94  C   UNL A   1      42.644  22.570  28.488  1.00  0.00     0.135 A 
ATOM     95  F   UNL A   1      43.179  24.299  25.330  1.00  0.00    -0.206 F 
ATOM     96  C   UNL A   1      42.658  22.048  25.752  1.00  0.00     0.059 A 
ATOM     97  C   UNL A   1      42.394  21.276  28.040  1.00  0.00     0.059 A 
ATOM     98  F   UNL A   1      42.631  22.791  29.812  1.00  0.00    -0.206 F 
ATOM     99  C   UNL A   1      42.388  21.029  26.667  1.00  0.00     0.060 A 
BRANCH  99 100
ATOM    100  S   UNL A   1      42.057  19.366  26.047  1.00  0.00     0.124 S 
ATOM    101  O   UNL A   1      40.625  19.434  25.775  1.00  0.00    -0.237 OA
ATOM    102  O   UNL A   1      42.922  19.288  24.874  1.00  0.00    -0.237 OA
ATOM    103  O   UNL A   1      42.445  18.505  27.161  1.00  0.00    -0.744 OA
ENDBRANCH  99 100
ENDBRANCH  67  92
ENDBRANCH  41  42
ENDBRANCH  34  36
ENDBRANCH  33  34
ENDBRANCH  32  33
ENDBRANCH  31  32
ENDBRANCH  30  31
ENDBRANCH   1  30
TORSDOF 24
ENDMDL
MODEL 3
REMARK VINA RESULT:      -8.7      4.681      6.163
REMARK SMILES CCc1cc(OC(F)(F)F)cc2c1O[C@@H](C(F)(F)F)C(C(=O)OCCOCCOCCOC(=O)c1ccc(-c3c4nc(c(-c5c(F)cc(S(=O)(=O)[O-])cc5F)c5ccc([nH]5)c(-c5c(F)cc(S(=O)(=O)[O-])cc5F)c5nc(c(-c6c(F)cc(S(=O)(=O)[O-])cc6F)c6ccc3[nH]6)C=C5)C=C4)cc1)=C2
REMARK SMILES IDX 28 1 27 2 26 3 25 4 24 5 23 6 21 7 22 8 20 9 3 10 4 11 13 12
REMARK SMILES IDX 5 13 12 14 14 15 11 16 101 17 15 18 2 19 1 20 6 21 7 22 8 23
REMARK SMILES IDX 9 24 10 25 16 26 17 27 18 28 19 29 29 30 30 31 31 32 32 33
REMARK SMILES IDX 33 34 34 35 35 36 36 37 100 38 37 39 99 40 38 41 39 42 40 43
REMARK SMILES IDX 93 44 41 45 98 46 92 47 94 48 42 49 97 50 91 51 90 52 43 54
REMARK SMILES IDX 77 55 56 56 76 57 57 58 60 59 75 60 95 61 58 62 59 63 74 65
REMARK SMILES IDX 96 66 61 67 44 68 45 69 54 70 46 71 47 72 53 73 55 74 48 75
REMARK SMILES IDX 49 76 50 77 51 78 52 79 78 80 79 81 88 82 80 83 81 84 87 85
REMARK SMILES IDX 89 86 82 87 83 88 84 89 85 90 86 91 62 92 63 93 72 94 64 95
REMARK SMILES IDX 65 96 71 97 73 98 66 99 67 100 68 101 69 102 70 103
REMARK H PARENT 94 53 60 64
REMARK Flexibility Score: inf
ROOT
ATOM      1  C   UNL A   1      49.286  37.937  35.009  1.00  0.00     0.188 C 
ENDROOT
BRANCH   1   2
ATOM      2  C   UNL A   1      47.795  37.902  35.406  1.00  0.00     0.188 C 
BRANCH   2   3
ATOM      3  O   UNL A   1      47.283  39.161  35.816  1.00  0.00    -0.376 OA
BRANCH   3   4
ATOM      4  C   UNL A   1      47.009  40.091  34.779  1.00  0.00     0.202 C 
BRANCH   4   5
ATOM      5  C   UNL A   1      46.098  39.546  33.676  1.00  0.00     0.261 C 
BRANCH   5   6
ATOM      6  O   UNL A   1      44.945  40.362  33.408  1.00  0.00    -0.460 OA
BRANCH   6   7
ATOM      7  C   UNL A   1      43.792  39.725  33.111  1.00  0.00     0.338 C 
ATOM      8  O   UNL A   1      42.990  39.284  33.915  1.00  0.00    -0.246 OA
BRANCH   7   9
ATOM      9  C   UNL A   1      43.603  39.713  31.645  1.00  0.00     0.087 C 
ATOM     10  C   UNL A   1      42.449  39.640  27.617  1.00  0.00    -0.002 A 
ATOM     11  C   UNL A   1      42.824  38.540  26.826  1.00  0.00     0.054 A 
ATOM     12  C   UNL A   1      42.837  39.652  28.969  1.00  0.00     0.131 A 
ATOM     13  C   UNL A   1      43.529  37.463  27.376  1.00  0.00     0.130 A 
ATOM     14  C   UNL A   1      43.537  38.576  29.532  1.00  0.00     0.021 A 
ATOM     15  O   UNL A   1      42.442  40.721  29.734  1.00  0.00    -0.475 OA
ATOM     16  C   UNL A   1      43.893  37.493  28.725  1.00  0.00     0.058 A 
ATOM     17  C   UNL A   1      43.789  38.565  30.971  1.00  0.00     0.027 C 
ATOM     18  C   UNL A   1      43.257  40.985  30.907  1.00  0.00     0.316 C 
BRANCH  10  19
ATOM     19  C   UNL A   1      41.682  40.824  27.053  1.00  0.00     0.036 C 
ATOM     20  C   UNL A   1      41.355  40.784  25.565  1.00  0.00     0.009 C 
ENDBRANCH  10  19
BRANCH  13  21
ATOM     21  O   UNL A   1      43.920  36.335  26.708  1.00  0.00    -0.406 OA
BRANCH  21  22
ATOM     22  C   UNL A   1      42.976  35.280  26.600  1.00  0.00     0.573 C 
ATOM     23  F   UNL A   1      43.337  34.218  27.351  1.00  0.00    -0.132 F 
ATOM     24  F   UNL A   1      41.742  35.690  26.957  1.00  0.00    -0.132 F 
ATOM     25  F   UNL A   1      42.925  34.879  25.309  1.00  0.00    -0.132 F 
ENDBRANCH  21  22
ENDBRANCH  13  21
BRANCH  18  26
ATOM     26  C   UNL A   1      42.599  42.122  31.706  1.00  0.00     0.430 C 
ATOM     27  F   UNL A   1      42.115  43.078  30.876  1.00  0.00    -0.167 F 
ATOM     28  F   UNL A   1      41.532  41.653  32.399  1.00  0.00    -0.167 F 
ATOM     29  F   UNL A   1      43.440  42.694  32.589  1.00  0.00    -0.167 F 
ENDBRANCH  18  26
ENDBRANCH   7   9
ENDBRANCH   6   7
ENDBRANCH   5   6
ENDBRANCH   4   5
ENDBRANCH   3   4
ENDBRANCH   2   3
ENDBRANCH   1   2
BRANCH   1  30
ATOM     30  O   UNL A   1      49.671  38.099  33.649  1.00  0.00    -0.376 OA
BRANCH  30  31
ATOM     31  C   UNL A   1      49.489  37.027  32.737  1.00  0.00     0.202 C 
BRANCH  31  32
ATOM     32  C   UNL A   1      50.096  37.149  31.334  1.00  0.00     0.261 C 
BRANCH  32  33
ATOM     33  O   UNL A   1      49.137  37.248  30.271  1.00  0.00    -0.460 OA
BRANCH  33  34
ATOM     34  C   UNL A   1      47.929  36.698  30.546  1.00  0.00     0.338 C 
ATOM     35  O   UNL A   1      46.973  37.252  31.066  1.00  0.00    -0.246 OA
BRANCH  34  36
ATOM     36  C   UNL A   1      47.832  35.340  29.973  1.00  0.00     0.060 A 
ATOM     37  C   UNL A   1      47.086  35.186  28.797  1.00  0.00     0.016 A 
ATOM     38  C   UNL A   1      48.357  34.223  30.629  1.00  0.00     0.016 A 
ATOM     39  C   UNL A   1      46.806  33.913  28.306  1.00  0.00     0.010 A 
ATOM     40  C   UNL A   1      48.057  32.943  30.147  1.00  0.00     0.010 A 
ATOM     41  C   UNL A   1      47.239  32.784  29.014  1.00  0.00    -0.014 A 
BRANCH  41  42
ATOM     42  C   UNL A   1      46.623  31.470  28.698  1.00  0.00     0.031 A 
ATOM     43  C   UNL A   1      47.416  30.494  27.867  1.00  0.00     0.074 A 
ATOM     44  C   UNL A   1      45.420  31.122  29.186  1.00  0.00     0.049 A 
ATOM     45  N   UNL A   1      47.107  29.282  27.486  1.00  0.00    -0.248 NA
ATOM     46  C   UNL A   1      48.740  30.949  27.409  1.00  0.00     0.031 C 
ATOM     47  C   UNL A   1      44.574  31.959  30.034  1.00  0.00     0.029 A 
ATOM     48  N   UNL A   1      44.703  29.961  29.035  1.00  0.00    -0.354 N 
ATOM     49  C   UNL A   1      48.194  28.829  26.747  1.00  0.00     0.074 A 
ATOM     50  C   UNL A   1      49.158  29.906  26.706  1.00  0.00     0.031 C 
ATOM     51  C   UNL A   1      43.445  31.286  30.321  1.00  0.00     0.029 A 
ATOM     52  C   UNL A   1      43.483  29.979  29.665  1.00  0.00     0.049 A 
ATOM     53  H   UNL A   1      45.034  29.187  28.524  1.00  0.00     0.167 HD
ATOM     54  C   UNL A   1      48.380  27.621  26.163  1.00  0.00     0.037 A 
ATOM     55  C   UNL A   1      42.508  29.049  29.700  1.00  0.00     0.037 A 
ATOM     56  C   UNL A   1      47.420  26.551  26.198  1.00  0.00     0.049 A 
ATOM     57  C   UNL A   1      42.716  27.728  29.003  1.00  0.00     0.074 A 
ATOM     58  C   UNL A   1      47.511  25.293  25.630  1.00  0.00     0.029 A 
ATOM     59  N   UNL A   1      46.190  26.615  26.835  1.00  0.00    -0.354 N 
ATOM     60  N   UNL A   1      43.755  27.308  28.320  1.00  0.00    -0.248 NA
ATOM     61  C   UNL A   1      41.623  26.749  29.093  1.00  0.00     0.031 C 
ATOM     62  C   UNL A   1      46.320  24.606  25.896  1.00  0.00     0.029 A 
ATOM     63  C   UNL A   1      45.508  25.421  26.667  1.00  0.00     0.049 A 
ATOM     64  H   UNL A   1      45.852  27.394  27.333  1.00  0.00     0.167 HD
ATOM     65  C   UNL A   1      43.457  26.005  27.933  1.00  0.00     0.074 A 
ATOM     66  C   UNL A   1      42.140  25.706  28.459  1.00  0.00     0.031 C 
ATOM     67  C   UNL A   1      44.206  25.133  27.215  1.00  0.00     0.037 A 
BRANCH  54  68
ATOM     68  C   UNL A   1      49.667  27.409  25.418  1.00  0.00     0.058 A 
ATOM     69  C   UNL A   1      49.749  27.583  24.027  1.00  0.00     0.135 A 
ATOM     70  C   UNL A   1      50.835  27.036  26.103  1.00  0.00     0.135 A 
ATOM     71  F   UNL A   1      48.658  27.919  23.322  1.00  0.00    -0.206 F 
ATOM     72  C   UNL A   1      50.938  27.369  23.337  1.00  0.00     0.059 A 
ATOM     73  C   UNL A   1      52.040  26.839  25.436  1.00  0.00     0.059 A 
ATOM     74  F   UNL A   1      50.808  26.851  27.432  1.00  0.00    -0.206 F 
ATOM     75  C   UNL A   1      52.078  26.992  24.051  1.00  0.00     0.060 A 
BRANCH  75  76
ATOM     76  S   UNL A   1      53.613  26.709  23.143  1.00  0.00     0.124 S 
ATOM     77  O   UNL A   1      53.139  25.920  22.010  1.00  0.00    -0.237 OA
ATOM     78  O   UNL A   1      54.048  28.066  22.831  1.00  0.00    -0.237 OA
ATOM     79  O   UNL A   1      54.446  25.991  24.103  1.00  0.00    -0.744 OA
ENDBRANCH  75  76
ENDBRANCH  54  68
BRANCH  55  80
ATOM     80  C   UNL A   1      41.240  29.328  30.426  1.00  0.00     0.058 A 
ATOM     81  C   UNL A   1      41.152  29.184  31.818  1.00  0.00     0.135 A 
ATOM     82  C   UNL A   1      40.085  29.731  29.737  1.00  0.00     0.135 A 
ATOM     83  F   UNL A   1      42.226  28.789  32.520  1.00  0.00    -0.206 F 
ATOM     84  C   UNL A   1      39.962  29.411  32.502  1.00  0.00     0.059 A 
ATOM     85  C   UNL A   1      38.890  29.986  30.400  1.00  0.00     0.059 A 
ATOM     86  F   UNL A   1      40.120  29.891  28.405  1.00  0.00    -0.206 F 
ATOM     87  C   UNL A   1      38.834  29.811  31.782  1.00  0.00     0.060 A 
BRANCH  87  88
ATOM     88  S   UNL A   1      37.301  30.138  32.680  1.00  0.00     0.124 S 
ATOM     89  O   UNL A   1      36.993  28.819  33.222  1.00  0.00    -0.237 OA
ATOM     90  O   UNL A   1      37.720  31.145  33.650  1.00  0.00    -0.237 OA
ATOM     91  O   UNL A   1      36.399  30.619  31.637  1.00  0.00    -0.744 OA
ENDBRANCH  87  88
ENDBRANCH  55  80
BRANCH  67  92
ATOM     92  C   UNL A   1      43.652  23.751  27.002  1.00  0.00     0.058 A 
ATOM     93  C   UNL A   1      43.573  22.814  28.043  1.00  0.00     0.135 A 
ATOM     94  C   UNL A   1      43.150  23.378  25.744  1.00  0.00     0.135 A 
ATOM     95  F   UNL A   1      44.040  23.120  29.264  1.00  0.00    -0.206 F 
ATOM     96  C   UNL A   1      43.044  21.543  27.837  1.00  0.00     0.059 A 
ATOM     97  C   UNL A   1      42.595  22.122  25.521  1.00  0.00     0.059 A 
ATOM     98  F   UNL A   1      43.188  24.242  24.717  1.00  0.00    -0.206 F 
ATOM     99  C   UNL A   1      42.560  21.205  26.572  1.00  0.00     0.060 A 
BRANCH  99 100
ATOM    100  S   UNL A   1      41.857  19.562  26.318  1.00  0.00     0.124 S 
ATOM    101  O   UNL A   1      42.494  19.161  25.067  1.00  0.00    -0.237 OA
ATOM    102  O   UNL A   1      42.295  18.843  27.510  1.00  0.00    -0.237 OA
ATOM    103  O   UNL A   1      40.422  19.815  26.239  1.00  0.00    -0.744 OA
ENDBRANCH  99 100
ENDBRANCH  67  92
ENDBRANCH  41  42
ENDBRANCH  34  36
ENDBRANCH  33  34
ENDBRANCH  32  33
ENDBRANCH  31  32
ENDBRANCH  30  31
ENDBRANCH   1  30
TORSDOF 24
ENDMDL
