MODEL 1
REMARK VINA RESULT:     -11.0      0.000      0.000
REMARK SMILES Nc1ccc(-c2cc(Cl)cc3c2O[C@H](C(F)(F)F)C(C(=O)OCCOCCOCCOC(=O)c2ccc(-c4c5nc(c(-c6c(F)cc(S(=O)(=O)[O-])cc6F)c6ccc([nH]6)c(-c6c(F)cc(S(=O)(=O)[O-])cc6F)c6nc(c(-c7c(F)cc(S(=O)(=O)[O-])cc7F)c7ccc4[nH]7)C=C6)C=C5)cc2)=C3)cc1
REMARK SMILES IDX 27 1 26 2 25 3 24 4 23 5 22 6 20 7 21 8 19 9 6 10 7 11 12 12
REMARK SMILES IDX 8 13 11 14 13 15 9 16 10 17 100 18 14 19 5 20 2 21 3 22
REMARK SMILES IDX 102 23 4 24 101 25 1 26 15 29 16 30 17 31 18 32 28 33 29 34
REMARK SMILES IDX 30 35 31 36 32 37 33 38 34 39 35 40 99 41 36 42 98 43 37 44
REMARK SMILES IDX 38 45 39 46 92 47 40 48 97 49 91 50 93 51 41 52 96 53 90 54
REMARK SMILES IDX 89 55 42 57 76 58 55 59 75 60 56 61 59 62 74 63 94 64 57 65
REMARK SMILES IDX 58 66 73 68 95 69 60 70 43 71 44 72 53 73 45 74 46 75 52 76
REMARK SMILES IDX 54 77 47 78 48 79 49 80 50 81 51 82 77 83 78 84 87 85 79 86
REMARK SMILES IDX 80 87 86 88 88 89 81 90 82 91 83 92 84 93 85 94 61 95 62 96
REMARK SMILES IDX 71 97 63 98 64 99 70 100 72 101 65 102 66 103 67 104 68 105
REMARK SMILES IDX 69 106
REMARK H PARENT 1 27 1 28 93 56 59 67
REMARK Flexibility Score: inf
ROOT
ATOM      1  C   UNL A   1      30.174  30.055  23.953  1.00  0.00     0.188 C 
ENDROOT
BRANCH   1   2
ATOM      2  C   UNL A   1      30.550  29.090  22.808  1.00  0.00     0.188 C 
BRANCH   2   3
ATOM      3  O   UNL A   1      29.480  28.236  22.450  1.00  0.00    -0.376 OA
BRANCH   3   4
ATOM      4  C   UNL A   1      28.994  27.338  23.429  1.00  0.00     0.202 C 
BRANCH   4   5
ATOM      5  C   UNL A   1      29.984  26.357  24.075  1.00  0.00     0.261 C 
BRANCH   5   6
ATOM      6  O   UNL A   1      30.281  25.172  23.322  1.00  0.00    -0.460 OA
BRANCH   6   7
ATOM      7  C   UNL A   1      31.391  25.189  22.555  1.00  0.00     0.338 C 
ATOM      8  O   UNL A   1      31.645  25.981  21.664  1.00  0.00    -0.246 OA
BRANCH   7   9
ATOM      9  C   UNL A   1      32.320  24.146  23.047  1.00  0.00     0.087 C 
ATOM     10  C   UNL A   1      34.908  21.250  24.649  1.00  0.00     0.026 A 
ATOM     11  C   UNL A   1      34.399  19.961  24.883  1.00  0.00     0.033 A 
ATOM     12  C   UNL A   1      34.057  22.200  24.035  1.00  0.00     0.135 A 
ATOM     13  C   UNL A   1      33.089  19.636  24.532  1.00  0.00     0.042 A 
ATOM     14  C   UNL A   1      32.724  21.885  23.734  1.00  0.00     0.019 A 
ATOM     15  O   UNL A   1      34.604  23.419  23.736  1.00  0.00    -0.475 OA
ATOM     16  Cl  UNL A   1      32.498  18.050  24.835  1.00  0.00    -0.084 Cl
ATOM     17  C   UNL A   1      32.247  20.592  23.968  1.00  0.00     0.032 A 
ATOM     18  C   UNL A   1      31.825  22.915  23.231  1.00  0.00     0.027 C 
ATOM     19  C   UNL A   1      33.764  24.505  23.273  1.00  0.00     0.316 C 
BRANCH  10  20
ATOM     20  C   UNL A   1      36.270  21.592  25.113  1.00  0.00    -0.014 A 
ATOM     21  C   UNL A   1      38.908  22.230  25.960  1.00  0.00     0.031 A 
ATOM     22  C   UNL A   1      38.632  21.006  25.353  1.00  0.00     0.026 A 
ATOM     23  C   UNL A   1      37.870  23.154  26.094  1.00  0.00     0.026 A 
ATOM     24  C   UNL A   1      37.334  20.690  24.940  1.00  0.00     0.011 A 
ATOM     25  C   UNL A   1      36.565  22.836  25.689  1.00  0.00     0.011 A 
BRANCH  21  26
ATOM     26  N   UNL A   1      40.208  22.569  26.297  1.00  0.00    -0.399 N 
ATOM     27  H   UNL A   1      40.704  23.221  25.753  1.00  0.00     0.156 HD
ATOM     28  H   UNL A   1      40.636  22.156  27.083  1.00  0.00     0.156 HD
ENDBRANCH  21  26
ENDBRANCH  10  20
BRANCH  19  29
ATOM     29  C   UNL A   1      33.938  25.681  24.245  1.00  0.00     0.430 C 
ATOM     30  F   UNL A   1      34.018  26.861  23.579  1.00  0.00    -0.167 F 
ATOM     31  F   UNL A   1      32.896  25.793  25.100  1.00  0.00    -0.167 F 
ATOM     32  F   UNL A   1      35.063  25.564  24.986  1.00  0.00    -0.167 F 
ENDBRANCH  19  29
ENDBRANCH   7   9
ENDBRANCH   6   7
ENDBRANCH   5   6
ENDBRANCH   4   5
ENDBRANCH   3   4
ENDBRANCH   2   3
ENDBRANCH   1   2
BRANCH   1  33
ATOM     33  O   UNL A   1      31.090  30.265  25.023  1.00  0.00    -0.376 OA
BRANCH  33  34
ATOM     34  C   UNL A   1      31.907  29.181  25.455  1.00  0.00     0.202 C 
BRANCH  34  35
ATOM     35  C   UNL A   1      33.406  29.429  25.672  1.00  0.00     0.261 C 
BRANCH  35  36
ATOM     36  O   UNL A   1      33.825  29.374  27.045  1.00  0.00    -0.460 OA
BRANCH  36  37
ATOM     37  C   UNL A   1      34.484  30.469  27.503  1.00  0.00     0.338 C 
ATOM     38  O   UNL A   1      34.047  31.602  27.608  1.00  0.00    -0.246 OA
BRANCH  37  39
ATOM     39  C   UNL A   1      35.784  30.048  28.068  1.00  0.00     0.060 A 
ATOM     40  C   UNL A   1      36.958  30.124  27.318  1.00  0.00     0.016 A 
ATOM     41  C   UNL A   1      35.813  29.568  29.386  1.00  0.00     0.016 A 
ATOM     42  C   UNL A   1      38.169  29.734  27.899  1.00  0.00     0.010 A 
ATOM     43  C   UNL A   1      37.021  29.160  29.957  1.00  0.00     0.010 A 
ATOM     44  C   UNL A   1      38.210  29.259  29.222  1.00  0.00    -0.014 A 
BRANCH  44  45
ATOM     45  C   UNL A   1      39.517  29.025  29.884  1.00  0.00     0.031 A 
ATOM     46  C   UNL A   1      40.451  27.942  29.438  1.00  0.00     0.074 A 
ATOM     47  C   UNL A   1      39.853  29.826  30.913  1.00  0.00     0.049 A 
ATOM     48  N   UNL A   1      41.665  27.687  29.849  1.00  0.00    -0.248 NA
ATOM     49  C   UNL A   1      39.959  27.022  28.402  1.00  0.00     0.031 C 
ATOM     50  C   UNL A   1      39.006  30.891  31.455  1.00  0.00     0.029 A 
ATOM     51  N   UNL A   1      40.990  29.880  31.678  1.00  0.00    -0.354 N 
ATOM     52  C   UNL A   1      42.103  26.599  29.105  1.00  0.00     0.074 A 
ATOM     53  C   UNL A   1      40.998  26.209  28.250  1.00  0.00     0.031 C 
ATOM     54  C   UNL A   1      39.664  31.509  32.448  1.00  0.00     0.029 A 
ATOM     55  C   UNL A   1      40.969  30.877  32.622  1.00  0.00     0.049 A 
ATOM     56  H   UNL A   1      41.748  29.262  31.561  1.00  0.00     0.167 HD
ATOM     57  C   UNL A   1      43.319  26.002  29.122  1.00  0.00     0.037 A 
ATOM     58  C   UNL A   1      41.901  31.253  33.519  1.00  0.00     0.037 A 
ATOM     59  C   UNL A   1      44.403  26.385  29.993  1.00  0.00     0.049 A 
ATOM     60  C   UNL A   1      43.226  30.546  33.545  1.00  0.00     0.074 A 
ATOM     61  C   UNL A   1      45.685  25.864  30.053  1.00  0.00     0.029 A 
ATOM     62  N   UNL A   1      44.334  27.374  30.966  1.00  0.00    -0.354 N 
ATOM     63  N   UNL A   1      43.652  29.571  32.778  1.00  0.00    -0.248 NA
ATOM     64  C   UNL A   1      44.198  30.994  34.550  1.00  0.00     0.031 C 
ATOM     65  C   UNL A   1      46.373  26.501  31.091  1.00  0.00     0.029 A 
ATOM     66  C   UNL A   1      45.538  27.456  31.649  1.00  0.00     0.049 A 
ATOM     67  H   UNL A   1      43.545  27.934  31.145  1.00  0.00     0.167 HD
ATOM     68  C   UNL A   1      44.950  29.301  33.197  1.00  0.00     0.074 A 
ATOM     69  C   UNL A   1      45.243  30.226  34.273  1.00  0.00     0.031 C 
ATOM     70  C   UNL A   1      45.819  28.371  32.728  1.00  0.00     0.037 A 
BRANCH  57  71
ATOM     71  C   UNL A   1      43.563  24.874  28.155  1.00  0.00     0.058 A 
ATOM     72  C   UNL A   1      43.411  23.534  28.549  1.00  0.00     0.135 A 
ATOM     73  C   UNL A   1      43.864  25.129  26.808  1.00  0.00     0.135 A 
ATOM     74  F   UNL A   1      43.132  23.233  29.827  1.00  0.00    -0.206 F 
ATOM     75  C   UNL A   1      43.563  22.488  27.645  1.00  0.00     0.059 A 
ATOM     76  C   UNL A   1      43.998  24.099  25.879  1.00  0.00     0.059 A 
ATOM     77  F   UNL A   1      44.017  26.391  26.376  1.00  0.00    -0.206 F 
ATOM     78  C   UNL A   1      43.852  22.780  26.310  1.00  0.00     0.060 A 
BRANCH  78  79
ATOM     79  S   UNL A   1      44.022  21.409  25.149  1.00  0.00     0.124 S 
ATOM     80  O   UNL A   1      44.084  22.114  23.873  1.00  0.00    -0.237 OA
ATOM     81  O   UNL A   1      45.266  20.783  25.588  1.00  0.00    -0.237 OA
ATOM     82  O   UNL A   1      42.814  20.621  25.371  1.00  0.00    -0.744 OA
ENDBRANCH  78  79
ENDBRANCH  57  71
BRANCH  58  83
ATOM     83  C   UNL A   1      41.617  32.390  34.432  1.00  0.00     0.058 A 
ATOM     84  C   UNL A   1      41.914  33.706  34.052  1.00  0.00     0.135 A 
ATOM     85  C   UNL A   1      41.003  32.186  35.677  1.00  0.00     0.135 A 
ATOM     86  F   UNL A   1      42.504  33.948  32.871  1.00  0.00    -0.206 F 
ATOM     87  C   UNL A   1      41.616  34.784  34.877  1.00  0.00     0.059 A 
ATOM     88  C   UNL A   1      40.674  33.250  36.510  1.00  0.00     0.059 A 
ATOM     89  F   UNL A   1      40.685  30.945  36.076  1.00  0.00    -0.206 F 
ATOM     90  C   UNL A   1      40.990  34.546  36.102  1.00  0.00     0.060 A 
BRANCH  90  91
ATOM     91  S   UNL A   1      40.549  35.960  37.135  1.00  0.00     0.124 S 
ATOM     92  O   UNL A   1      41.863  36.495  37.477  1.00  0.00    -0.237 OA
ATOM     93  O   UNL A   1      39.749  36.768  36.220  1.00  0.00    -0.237 OA
ATOM     94  O   UNL A   1      39.808  35.355  38.236  1.00  0.00    -0.744 OA
ENDBRANCH  90  91
ENDBRANCH  58  83
BRANCH  70  95
ATOM     95  C   UNL A   1      47.177  28.304  33.374  1.00  0.00     0.058 A 
ATOM     96  C   UNL A   1      47.432  27.448  34.457  1.00  0.00     0.135 A 
ATOM     97  C   UNL A   1      48.247  29.060  32.870  1.00  0.00     0.135 A 
ATOM     98  F   UNL A   1      46.441  26.711  34.983  1.00  0.00    -0.206 F 
ATOM     99  C   UNL A   1      48.696  27.356  35.029  1.00  0.00     0.059 A 
ATOM    100  C   UNL A   1      49.527  28.965  33.411  1.00  0.00     0.059 A 
ATOM    101  F   UNL A   1      48.060  29.890  31.831  1.00  0.00    -0.206 F 
ATOM    102  C   UNL A   1      49.739  28.116  34.496  1.00  0.00     0.060 A 
BRANCH 102 103
ATOM    103  S   UNL A   1      51.384  27.955  35.224  1.00  0.00     0.124 S 
ATOM    104  O   UNL A   1      51.376  26.563  35.664  1.00  0.00    -0.237 OA
ATOM    105  O   UNL A   1      52.256  28.256  34.093  1.00  0.00    -0.237 OA
ATOM    106  O   UNL A   1      51.384  28.950  36.291  1.00  0.00    -0.744 OA
ENDBRANCH 102 103
ENDBRANCH  70  95
ENDBRANCH  44  45
ENDBRANCH  37  39
ENDBRANCH  36  37
ENDBRANCH  35  36
ENDBRANCH  34  35
ENDBRANCH  33  34
ENDBRANCH   1  33
TORSDOF 23
ENDMDL
MODEL 2
REMARK VINA RESULT:     -11.0      0.696      7.856
REMARK SMILES Nc1ccc(-c2cc(Cl)cc3c2O[C@H](C(F)(F)F)C(C(=O)OCCOCCOCCOC(=O)c2ccc(-c4c5nc(c(-c6c(F)cc(S(=O)(=O)[O-])cc6F)c6ccc([nH]6)c(-c6c(F)cc(S(=O)(=O)[O-])cc6F)c6nc(c(-c7c(F)cc(S(=O)(=O)[O-])cc7F)c7ccc4[nH]7)C=C6)C=C5)cc2)=C3)cc1
REMARK SMILES IDX 27 1 26 2 25 3 24 4 23 5 22 6 20 7 21 8 19 9 6 10 7 11 12 12
REMARK SMILES IDX 8 13 11 14 13 15 9 16 10 17 100 18 14 19 5 20 2 21 3 22
REMARK SMILES IDX 102 23 4 24 101 25 1 26 15 29 16 30 17 31 18 32 28 33 29 34
REMARK SMILES IDX 30 35 31 36 32 37 33 38 34 39 35 40 99 41 36 42 98 43 37 44
REMARK SMILES IDX 38 45 39 46 92 47 40 48 97 49 91 50 93 51 41 52 96 53 90 54
REMARK SMILES IDX 89 55 42 57 76 58 55 59 75 60 56 61 59 62 74 63 94 64 57 65
REMARK SMILES IDX 58 66 73 68 95 69 60 70 43 71 44 72 53 73 45 74 46 75 52 76
REMARK SMILES IDX 54 77 47 78 48 79 49 80 50 81 51 82 77 83 78 84 87 85 79 86
REMARK SMILES IDX 80 87 86 88 88 89 81 90 82 91 83 92 84 93 85 94 61 95 62 96
REMARK SMILES IDX 71 97 63 98 64 99 70 100 72 101 65 102 66 103 67 104 68 105
REMARK SMILES IDX 69 106
REMARK H PARENT 1 27 1 28 93 56 59 67
REMARK Flexibility Score: inf
ROOT
ATOM      1  C   UNL A   1      29.990  30.098  23.878  1.00  0.00     0.188 C 
ENDROOT
BRANCH   1   2
ATOM      2  C   UNL A   1      30.349  29.135  22.727  1.00  0.00     0.188 C 
BRANCH   2   3
ATOM      3  O   UNL A   1      29.286  28.255  22.409  1.00  0.00    -0.376 OA
BRANCH   3   4
ATOM      4  C   UNL A   1      28.834  27.371  23.416  1.00  0.00     0.202 C 
BRANCH   4   5
ATOM      5  C   UNL A   1      29.853  26.422  24.064  1.00  0.00     0.261 C 
BRANCH   5   6
ATOM      6  O   UNL A   1      30.148  25.221  23.336  1.00  0.00    -0.460 OA
BRANCH   6   7
ATOM      7  C   UNL A   1      31.232  25.234  22.533  1.00  0.00     0.338 C 
ATOM      8  O   UNL A   1      31.439  26.001  21.608  1.00  0.00    -0.246 OA
BRANCH   7   9
ATOM      9  C   UNL A   1      32.198  24.229  23.028  1.00  0.00     0.087 C 
ATOM     10  C   UNL A   1      34.894  21.437  24.639  1.00  0.00     0.026 A 
ATOM     11  C   UNL A   1      34.433  20.131  24.878  1.00  0.00     0.033 A 
ATOM     12  C   UNL A   1      34.008  22.353  24.022  1.00  0.00     0.135 A 
ATOM     13  C   UNL A   1      33.136  19.757  24.530  1.00  0.00     0.042 A 
ATOM     14  C   UNL A   1      32.687  21.987  23.724  1.00  0.00     0.019 A 
ATOM     15  O   UNL A   1      34.509  23.590  23.718  1.00  0.00    -0.475 OA
ATOM     16  Cl  UNL A   1      32.604  18.151  24.840  1.00  0.00    -0.084 Cl
ATOM     17  C   UNL A   1      32.258  20.678  23.963  1.00  0.00     0.032 A 
ATOM     18  C   UNL A   1      31.750  22.981  23.218  1.00  0.00     0.027 C 
ATOM     19  C   UNL A   1      33.629  24.642  23.251  1.00  0.00     0.316 C 
BRANCH  10  20
ATOM     20  C   UNL A   1      36.243  21.831  25.100  1.00  0.00    -0.014 A 
ATOM     21  C   UNL A   1      38.815  22.607  26.029  1.00  0.00     0.031 A 
ATOM     22  C   UNL A   1      37.717  23.450  26.189  1.00  0.00     0.026 A 
ATOM     23  C   UNL A   1      38.611  21.354  25.449  1.00  0.00     0.026 A 
ATOM     24  C   UNL A   1      36.452  23.071  25.727  1.00  0.00     0.011 A 
ATOM     25  C   UNL A   1      37.347  20.974  24.978  1.00  0.00     0.011 A 
BRANCH  21  26
ATOM     26  N   UNL A   1      40.048  22.955  26.554  1.00  0.00    -0.399 N 
ATOM     27  H   UNL A   1      40.842  22.407  26.354  1.00  0.00     0.156 HD
ATOM     28  H   UNL A   1      40.132  23.750  27.129  1.00  0.00     0.156 HD
ENDBRANCH  21  26
ENDBRANCH  10  20
BRANCH  19  29
ATOM     29  C   UNL A   1      33.760  25.827  24.218  1.00  0.00     0.430 C 
ATOM     30  F   UNL A   1      34.952  25.804  24.866  1.00  0.00    -0.167 F 
ATOM     31  F   UNL A   1      33.698  27.017  23.576  1.00  0.00    -0.167 F 
ATOM     32  F   UNL A   1      32.792  25.822  25.162  1.00  0.00    -0.167 F 
ENDBRANCH  19  29
ENDBRANCH   7   9
ENDBRANCH   6   7
ENDBRANCH   5   6
ENDBRANCH   4   5
ENDBRANCH   3   4
ENDBRANCH   2   3
ENDBRANCH   1   2
BRANCH   1  33
ATOM     33  O   UNL A   1      30.940  30.344  24.910  1.00  0.00    -0.376 OA
BRANCH  33  34
ATOM     34  C   UNL A   1      31.688  29.250  25.432  1.00  0.00     0.202 C 
BRANCH  34  35
ATOM     35  C   UNL A   1      33.187  29.445  25.698  1.00  0.00     0.261 C 
BRANCH  35  36
ATOM     36  O   UNL A   1      33.542  29.501  27.090  1.00  0.00    -0.460 OA
BRANCH  36  37
ATOM     37  C   UNL A   1      34.220  30.612  27.479  1.00  0.00     0.338 C 
ATOM     38  O   UNL A   1      33.792  31.751  27.543  1.00  0.00    -0.246 OA
BRANCH  37  39
ATOM     39  C   UNL A   1      35.532  30.207  28.029  1.00  0.00     0.060 A 
ATOM     40  C   UNL A   1      36.708  30.388  27.301  1.00  0.00     0.016 A 
ATOM     41  C   UNL A   1      35.570  29.634  29.309  1.00  0.00     0.016 A 
ATOM     42  C   UNL A   1      37.930  30.010  27.867  1.00  0.00     0.010 A 
ATOM     43  C   UNL A   1      36.789  29.239  29.864  1.00  0.00     0.010 A 
ATOM     44  C   UNL A   1      37.980  29.443  29.153  1.00  0.00    -0.014 A 
BRANCH  44  45
ATOM     45  C   UNL A   1      39.289  29.219  29.812  1.00  0.00     0.031 A 
ATOM     46  C   UNL A   1      39.732  30.027  30.994  1.00  0.00     0.074 A 
ATOM     47  C   UNL A   1      40.085  28.252  29.318  1.00  0.00     0.049 A 
ATOM     48  N   UNL A   1      40.798  29.875  31.736  1.00  0.00    -0.248 NA
ATOM     49  C   UNL A   1      38.875  31.152  31.393  1.00  0.00     0.031 C 
ATOM     50  C   UNL A   1      39.771  27.427  28.149  1.00  0.00     0.029 A 
ATOM     51  N   UNL A   1      41.308  27.793  29.734  1.00  0.00    -0.354 N 
ATOM     52  C   UNL A   1      40.731  30.861  32.712  1.00  0.00     0.074 A 
ATOM     53  C   UNL A   1      39.540  31.641  32.432  1.00  0.00     0.031 C 
ATOM     54  C   UNL A   1      40.764  26.545  27.958  1.00  0.00     0.029 A 
ATOM     55  C   UNL A   1      41.789  26.750  28.978  1.00  0.00     0.049 A 
ATOM     56  H   UNL A   1      41.796  28.174  30.501  1.00  0.00     0.167 HD
ATOM     57  C   UNL A   1      41.573  31.076  33.751  1.00  0.00     0.037 A 
ATOM     58  C   UNL A   1      42.920  26.030  29.099  1.00  0.00     0.037 A 
ATOM     59  C   UNL A   1      42.767  30.307  34.006  1.00  0.00     0.049 A 
ATOM     60  C   UNL A   1      43.857  26.317  30.237  1.00  0.00     0.074 A 
ATOM     61  C   UNL A   1      43.660  30.427  35.057  1.00  0.00     0.029 A 
ATOM     62  N   UNL A   1      43.245  29.285  33.196  1.00  0.00    -0.354 N 
ATOM     63  N   UNL A   1      43.738  27.202  31.198  1.00  0.00    -0.248 NA
ATOM     64  C   UNL A   1      45.078  25.504  30.312  1.00  0.00     0.031 C 
ATOM     65  C   UNL A   1      44.701  29.513  34.859  1.00  0.00     0.029 A 
ATOM     66  C   UNL A   1      44.433  28.788  33.709  1.00  0.00     0.049 A 
ATOM     67  H   UNL A   1      42.804  28.961  32.378  1.00  0.00     0.167 HD
ATOM     68  C   UNL A   1      44.859  27.039  32.003  1.00  0.00     0.074 A 
ATOM     69  C   UNL A   1      45.637  25.962  31.425  1.00  0.00     0.031 C 
ATOM     70  C   UNL A   1      45.209  27.723  33.121  1.00  0.00     0.037 A 
BRANCH  57  71
ATOM     71  C   UNL A   1      41.232  32.181  34.716  1.00  0.00     0.058 A 
ATOM     72  C   UNL A   1      40.412  31.945  35.831  1.00  0.00     0.135 A 
ATOM     73  C   UNL A   1      41.797  33.459  34.578  1.00  0.00     0.135 A 
ATOM     74  F   UNL A   1      39.840  30.743  36.008  1.00  0.00    -0.206 F 
ATOM     75  C   UNL A   1      40.152  32.941  36.767  1.00  0.00     0.059 A 
ATOM     76  C   UNL A   1      41.569  34.465  35.515  1.00  0.00     0.059 A 
ATOM     77  F   UNL A   1      42.591  33.739  33.532  1.00  0.00    -0.206 F 
ATOM     78  C   UNL A   1      40.739  34.197  36.603  1.00  0.00     0.060 A 
BRANCH  78  79
ATOM     79  S   UNL A   1      40.406  35.468  37.841  1.00  0.00     0.124 S 
ATOM     80  O   UNL A   1      41.689  35.542  38.534  1.00  0.00    -0.237 OA
ATOM     81  O   UNL A   1      40.063  36.623  37.017  1.00  0.00    -0.237 OA
ATOM     82  O   UNL A   1      39.306  34.906  38.620  1.00  0.00    -0.744 OA
ENDBRANCH  78  79
ENDBRANCH  57  71
BRANCH  58  83
ATOM     83  C   UNL A   1      43.193  24.935  28.134  1.00  0.00     0.058 A 
ATOM     84  C   UNL A   1      43.722  25.212  26.866  1.00  0.00     0.135 A 
ATOM     85  C   UNL A   1      42.974  23.592  28.477  1.00  0.00     0.135 A 
ATOM     86  F   UNL A   1      43.945  26.482  26.494  1.00  0.00    -0.206 F 
ATOM     87  C   UNL A   1      44.023  24.196  25.967  1.00  0.00     0.059 A 
ATOM     88  C   UNL A   1      43.288  22.556  27.603  1.00  0.00     0.059 A 
ATOM     89  F   UNL A   1      42.484  23.277  29.686  1.00  0.00    -0.206 F 
ATOM     90  C   UNL A   1      43.808  22.870  26.348  1.00  0.00     0.060 A 
BRANCH  90  91
ATOM     91  S   UNL A   1      44.264  21.556  25.195  1.00  0.00     0.124 S 
ATOM     92  O   UNL A   1      43.244  20.552  25.477  1.00  0.00    -0.237 OA
ATOM     93  O   UNL A   1      44.157  22.232  23.906  1.00  0.00    -0.237 OA
ATOM     94  O   UNL A   1      45.621  21.208  25.602  1.00  0.00    -0.744 OA
ENDBRANCH  90  91
ENDBRANCH  58  83
BRANCH  70  95
ATOM     95  C   UNL A   1      46.491  27.326  33.802  1.00  0.00     0.058 A 
ATOM     96  C   UNL A   1      47.709  27.953  33.493  1.00  0.00     0.135 A 
ATOM     97  C   UNL A   1      46.494  26.350  34.812  1.00  0.00     0.135 A 
ATOM     98  F   UNL A   1      47.763  28.887  32.530  1.00  0.00    -0.206 F 
ATOM     99  C   UNL A   1      48.888  27.615  34.150  1.00  0.00     0.059 A 
ATOM    100  C   UNL A   1      47.658  26.014  35.499  1.00  0.00     0.059 A 
ATOM    101  F   UNL A   1      45.356  25.724  35.151  1.00  0.00    -0.206 F 
ATOM    102  C   UNL A   1      48.852  26.647  35.155  1.00  0.00     0.060 A 
BRANCH 102 103
ATOM    103  S   UNL A   1      50.382  26.249  36.026  1.00  0.00     0.124 S 
ATOM    104  O   UNL A   1      50.737  27.541  36.605  1.00  0.00    -0.237 OA
ATOM    105  O   UNL A   1      49.946  25.229  36.972  1.00  0.00    -0.237 OA
ATOM    106  O   UNL A   1      51.265  25.775  34.964  1.00  0.00    -0.744 OA
ENDBRANCH 102 103
ENDBRANCH  70  95
ENDBRANCH  44  45
ENDBRANCH  37  39
ENDBRANCH  36  37
ENDBRANCH  35  36
ENDBRANCH  34  35
ENDBRANCH  33  34
ENDBRANCH   1  33
TORSDOF 23
ENDMDL
MODEL 3
REMARK VINA RESULT:     -10.5      2.588      3.666
REMARK SMILES Nc1ccc(-c2cc(Cl)cc3c2O[C@H](C(F)(F)F)C(C(=O)OCCOCCOCCOC(=O)c2ccc(-c4c5nc(c(-c6c(F)cc(S(=O)(=O)[O-])cc6F)c6ccc([nH]6)c(-c6c(F)cc(S(=O)(=O)[O-])cc6F)c6nc(c(-c7c(F)cc(S(=O)(=O)[O-])cc7F)c7ccc4[nH]7)C=C6)C=C5)cc2)=C3)cc1
REMARK SMILES IDX 27 1 26 2 25 3 24 4 23 5 22 6 20 7 21 8 19 9 6 10 7 11 12 12
REMARK SMILES IDX 8 13 11 14 13 15 9 16 10 17 100 18 14 19 5 20 2 21 3 22
REMARK SMILES IDX 102 23 4 24 101 25 1 26 15 29 16 30 17 31 18 32 28 33 29 34
REMARK SMILES IDX 30 35 31 36 32 37 33 38 34 39 35 40 99 41 36 42 98 43 37 44
REMARK SMILES IDX 38 45 39 46 92 47 40 48 97 49 91 50 93 51 41 52 96 53 90 54
REMARK SMILES IDX 89 55 42 57 76 58 55 59 75 60 56 61 59 62 74 63 94 64 57 65
REMARK SMILES IDX 58 66 73 68 95 69 60 70 43 71 44 72 53 73 45 74 46 75 52 76
REMARK SMILES IDX 54 77 47 78 48 79 49 80 50 81 51 82 77 83 78 84 87 85 79 86
REMARK SMILES IDX 80 87 86 88 88 89 81 90 82 91 83 92 84 93 85 94 61 95 62 96
REMARK SMILES IDX 71 97 63 98 64 99 70 100 72 101 65 102 66 103 67 104 68 105
REMARK SMILES IDX 69 106
REMARK H PARENT 1 27 1 28 93 56 59 67
REMARK Flexibility Score: inf
ROOT
ATOM      1  C   UNL A   1      32.048  30.538  26.263  1.00  0.00     0.188 C 
ENDROOT
BRANCH   1   2
ATOM      2  C   UNL A   1      32.298  29.667  25.013  1.00  0.00     0.188 C 
BRANCH   2   3
ATOM      3  O   UNL A   1      31.116  29.051  24.539  1.00  0.00    -0.376 OA
BRANCH   3   4
ATOM      4  C   UNL A   1      30.867  27.712  24.923  1.00  0.00     0.202 C 
BRANCH   4   5
ATOM      5  C   UNL A   1      30.050  26.822  23.975  1.00  0.00     0.261 C 
BRANCH   5   6
ATOM      6  O   UNL A   1      30.535  25.484  23.791  1.00  0.00    -0.460 OA
BRANCH   6   7
ATOM      7  C   UNL A   1      31.440  25.282  22.811  1.00  0.00     0.338 C 
ATOM      8  O   UNL A   1      31.560  25.937  21.790  1.00  0.00    -0.246 OA
BRANCH   7   9
ATOM      9  C   UNL A   1      32.352  24.193  23.227  1.00  0.00     0.087 C 
ATOM     10  C   UNL A   1      34.899  21.155  24.621  1.00  0.00     0.026 A 
ATOM     11  C   UNL A   1      34.364  19.866  24.788  1.00  0.00     0.033 A 
ATOM     12  C   UNL A   1      34.060  22.157  24.075  1.00  0.00     0.135 A 
ATOM     13  C   UNL A   1      33.042  19.590  24.439  1.00  0.00     0.042 A 
ATOM     14  C   UNL A   1      32.716  21.889  23.778  1.00  0.00     0.019 A 
ATOM     15  O   UNL A   1      34.629  23.380  23.839  1.00  0.00    -0.475 OA
ATOM     16  Cl  UNL A   1      32.420  18.002  24.660  1.00  0.00    -0.084 Cl
ATOM     17  C   UNL A   1      32.214  20.594  23.945  1.00  0.00     0.032 A 
ATOM     18  C   UNL A   1      31.833  22.964  23.349  1.00  0.00     0.027 C 
ATOM     19  C   UNL A   1      33.807  24.508  23.452  1.00  0.00     0.316 C 
BRANCH  10  20
ATOM     20  C   UNL A   1      36.274  21.441  25.082  1.00  0.00    -0.014 A 
ATOM     21  C   UNL A   1      38.937  21.971  25.924  1.00  0.00     0.031 A 
ATOM     22  C   UNL A   1      38.616  20.768  25.297  1.00  0.00     0.026 A 
ATOM     23  C   UNL A   1      37.933  22.928  26.080  1.00  0.00     0.026 A 
ATOM     24  C   UNL A   1      37.304  20.505  24.887  1.00  0.00     0.011 A 
ATOM     25  C   UNL A   1      36.616  22.664  25.679  1.00  0.00     0.011 A 
BRANCH  21  26
ATOM     26  N   UNL A   1      40.250  22.257  26.259  1.00  0.00    -0.399 N 
ATOM     27  H   UNL A   1      40.586  22.045  27.160  1.00  0.00     0.156 HD
ATOM     28  H   UNL A   1      40.848  22.673  25.596  1.00  0.00     0.156 HD
ENDBRANCH  21  26
ENDBRANCH  10  20
BRANCH  19  29
ATOM     29  C   UNL A   1      34.021  25.622  24.486  1.00  0.00     0.430 C 
ATOM     30  F   UNL A   1      35.217  25.488  25.112  1.00  0.00    -0.167 F 
ATOM     31  F   UNL A   1      34.022  26.850  23.919  1.00  0.00    -0.167 F 
ATOM     32  F   UNL A   1      33.066  25.615  25.443  1.00  0.00    -0.167 F 
ENDBRANCH  19  29
ENDBRANCH   7   9
ENDBRANCH   6   7
ENDBRANCH   5   6
ENDBRANCH   4   5
ENDBRANCH   3   4
ENDBRANCH   2   3
ENDBRANCH   1   2
BRANCH   1  33
ATOM     33  O   UNL A   1      33.033  30.592  27.289  1.00  0.00    -0.376 OA
BRANCH  33  34
ATOM     34  C   UNL A   1      33.587  31.855  27.647  1.00  0.00     0.202 C 
BRANCH  34  35
ATOM     35  C   UNL A   1      32.755  33.121  27.399  1.00  0.00     0.261 C 
BRANCH  35  36
ATOM     36  O   UNL A   1      32.527  33.921  28.570  1.00  0.00    -0.460 OA
BRANCH  36  37
ATOM     37  C   UNL A   1      33.423  34.919  28.785  1.00  0.00     0.338 C 
ATOM     38  O   UNL A   1      33.286  36.101  28.523  1.00  0.00    -0.246 OA
BRANCH  37  39
ATOM     39  C   UNL A   1      34.543  34.393  29.594  1.00  0.00     0.060 A 
ATOM     40  C   UNL A   1      34.318  33.767  30.820  1.00  0.00     0.016 A 
ATOM     41  C   UNL A   1      35.848  34.536  29.099  1.00  0.00     0.016 A 
ATOM     42  C   UNL A   1      35.405  33.265  31.544  1.00  0.00     0.010 A 
ATOM     43  C   UNL A   1      36.934  34.053  29.832  1.00  0.00     0.010 A 
ATOM     44  C   UNL A   1      36.716  33.397  31.052  1.00  0.00    -0.014 A 
BRANCH  44  45
ATOM     45  C   UNL A   1      37.835  32.702  31.734  1.00  0.00     0.031 A 
ATOM     46  C   UNL A   1      38.589  31.581  31.084  1.00  0.00     0.074 A 
ATOM     47  C   UNL A   1      38.167  33.111  32.973  1.00  0.00     0.049 A 
ATOM     48  N   UNL A   1      39.652  30.953  31.514  1.00  0.00    -0.248 NA
ATOM     49  C   UNL A   1      38.084  31.099  29.791  1.00  0.00     0.031 C 
ATOM     50  C   UNL A   1      37.480  34.169  33.717  1.00  0.00     0.029 A 
ATOM     51  N   UNL A   1      39.164  32.700  33.820  1.00  0.00    -0.354 N 
ATOM     52  C   UNL A   1      39.970  30.021  30.534  1.00  0.00     0.074 A 
ATOM     53  C   UNL A   1      38.950  30.133  29.509  1.00  0.00     0.031 C 
ATOM     54  C   UNL A   1      38.092  34.341  34.898  1.00  0.00     0.029 A 
ATOM     55  C   UNL A   1      39.203  33.399  35.003  1.00  0.00     0.049 A 
ATOM     56  H   UNL A   1      39.792  31.973  33.602  1.00  0.00     0.167 HD
ATOM     57  C   UNL A   1      41.025  29.172  30.490  1.00  0.00     0.037 A 
ATOM     58  C   UNL A   1      40.046  33.304  36.048  1.00  0.00     0.037 A 
ATOM     59  C   UNL A   1      42.021  29.055  31.527  1.00  0.00     0.049 A 
ATOM     60  C   UNL A   1      41.182  32.324  35.991  1.00  0.00     0.074 A 
ATOM     61  C   UNL A   1      43.148  28.251  31.552  1.00  0.00     0.029 A 
ATOM     62  N   UNL A   1      42.006  29.749  32.730  1.00  0.00    -0.354 N 
ATOM     63  N   UNL A   1      41.515  31.506  35.021  1.00  0.00    -0.248 NA
ATOM     64  C   UNL A   1      42.063  32.260  37.165  1.00  0.00     0.031 C 
ATOM     65  C   UNL A   1      43.786  28.422  32.785  1.00  0.00     0.029 A 
ATOM     66  C   UNL A   1      43.086  29.370  33.512  1.00  0.00     0.049 A 
ATOM     67  H   UNL A   1      41.327  30.414  32.989  1.00  0.00     0.167 HD
ATOM     68  C   UNL A   1      42.655  30.842  35.460  1.00  0.00     0.074 A 
ATOM     69  C   UNL A   1      42.963  31.366  36.776  1.00  0.00     0.031 C 
ATOM     70  C   UNL A   1      43.379  29.887  34.827  1.00  0.00     0.037 A 
BRANCH  57  71
ATOM     71  C   UNL A   1      41.179  28.304  29.270  1.00  0.00     0.058 A 
ATOM     72  C   UNL A   1      42.143  28.591  28.290  1.00  0.00     0.135 A 
ATOM     73  C   UNL A   1      40.423  27.131  29.118  1.00  0.00     0.135 A 
ATOM     74  F   UNL A   1      42.888  29.705  28.381  1.00  0.00    -0.206 F 
ATOM     75  C   UNL A   1      42.342  27.755  27.197  1.00  0.00     0.059 A 
ATOM     76  C   UNL A   1      40.620  26.266  28.044  1.00  0.00     0.059 A 
ATOM     77  F   UNL A   1      39.489  26.806  30.027  1.00  0.00    -0.206 F 
ATOM     78  C   UNL A   1      41.578  26.591  27.084  1.00  0.00     0.060 A 
BRANCH  78  79
ATOM     79  S   UNL A   1      41.869  25.508  25.670  1.00  0.00     0.124 S 
ATOM     80  O   UNL A   1      40.505  25.231  25.230  1.00  0.00    -0.237 OA
ATOM     81  O   UNL A   1      42.659  26.358  24.785  1.00  0.00    -0.237 OA
ATOM     82  O   UNL A   1      42.582  24.374  26.249  1.00  0.00    -0.744 OA
ENDBRANCH  78  79
ENDBRANCH  57  71
BRANCH  58  83
ATOM     83  C   UNL A   1      39.862  34.203  37.216  1.00  0.00     0.058 A 
ATOM     84  C   UNL A   1      40.500  35.450  37.268  1.00  0.00     0.135 A 
ATOM     85  C   UNL A   1      39.012  33.853  38.276  1.00  0.00     0.135 A 
ATOM     86  F   UNL A   1      41.324  35.825  36.278  1.00  0.00    -0.206 F 
ATOM     87  C   UNL A   1      40.305  36.320  38.334  1.00  0.00     0.059 A 
ATOM     88  C   UNL A   1      38.783  34.716  39.342  1.00  0.00     0.059 A 
ATOM     89  F   UNL A   1      38.367  32.676  38.261  1.00  0.00    -0.206 F 
ATOM     90  C   UNL A   1      39.439  35.947  39.364  1.00  0.00     0.060 A 
BRANCH  90  91
ATOM     91  S   UNL A   1      39.145  37.114  40.710  1.00  0.00     0.124 S 
ATOM     92  O   UNL A   1      40.494  37.595  40.982  1.00  0.00    -0.237 OA
ATOM     93  O   UNL A   1      38.238  38.073  40.088  1.00  0.00    -0.237 OA
ATOM     94  O   UNL A   1      38.549  36.283  41.751  1.00  0.00    -0.744 OA
ENDBRANCH  90  91
ENDBRANCH  58  83
BRANCH  70  95
ATOM     95  C   UNL A   1      44.584  29.341  35.546  1.00  0.00     0.058 A 
ATOM     96  C   UNL A   1      44.497  28.202  36.362  1.00  0.00     0.135 A 
ATOM     97  C   UNL A   1      45.848  29.928  35.373  1.00  0.00     0.135 A 
ATOM     98  F   UNL A   1      43.311  27.608  36.568  1.00  0.00    -0.206 F 
ATOM     99  C   UNL A   1      45.617  27.674  36.995  1.00  0.00     0.059 A 
ATOM    100  C   UNL A   1      46.987  29.401  35.977  1.00  0.00     0.059 A 
ATOM    101  F   UNL A   1      45.989  31.015  34.598  1.00  0.00    -0.206 F 
ATOM    102  C   UNL A   1      46.859  28.278  36.793  1.00  0.00     0.060 A 
BRANCH 102 103
ATOM    103  S   UNL A   1      48.310  27.556  37.589  1.00  0.00     0.124 S 
ATOM    104  O   UNL A   1      47.907  27.556  38.992  1.00  0.00    -0.237 OA
ATOM    105  O   UNL A   1      48.393  26.245  36.954  1.00  0.00    -0.237 OA
ATOM    106  O   UNL A   1      49.385  28.482  37.245  1.00  0.00    -0.744 OA
ENDBRANCH 102 103
ENDBRANCH  70  95
ENDBRANCH  44  45
ENDBRANCH  37  39
ENDBRANCH  36  37
ENDBRANCH  35  36
ENDBRANCH  34  35
ENDBRANCH  33  34
ENDBRANCH   1  33
TORSDOF 23
ENDMDL
