MODEL 1
REMARK VINA RESULT:      -9.8      0.000      0.000
REMARK SMILES COc1cc(OC)cc(-c2cc3nc(C)c(CCC(=O)OCCOCCOCCOC(=O)c4ccc(-c5c6nc(c(-c7c(F)cc(S(=O)(=O)[O-])cc7F)c7ccc([nH]7)c(-c7c(F)cc(S(=O)(=O)[O-])cc7F)c7nc(c(-c8c(F)cc(S(=O)(=O)[O-])cc8F)c8ccc5[nH]8)C=C7)C=C6)cc4)c(C)n3n2)c1
REMARK SMILES IDX 25 1 24 2 23 3 22 4 21 5 19 6 20 7 18 8 17 9 16 10 10 11
REMARK SMILES IDX 11 12 102 13 12 14 101 15 13 16 99 17 14 18 100 19 15 20
REMARK SMILES IDX 9 21 3 22 4 23 103 24 5 25 8 26 2 27 1 28 6 29 7 30 26 31
REMARK SMILES IDX 27 32 28 33 29 34 30 35 31 36 32 37 33 38 34 39 98 40 35 41
REMARK SMILES IDX 97 42 36 43 37 44 38 45 91 46 39 47 96 48 90 49 92 50 40 51
REMARK SMILES IDX 95 52 89 53 88 54 41 56 75 57 54 58 74 59 55 60 58 61 73 62
REMARK SMILES IDX 93 63 56 64 57 65 72 67 94 68 59 69 42 70 43 71 52 72 44 73
REMARK SMILES IDX 45 74 51 75 53 76 46 77 47 78 48 79 49 80 50 81 76 82 77 83
REMARK SMILES IDX 86 84 78 85 79 86 85 87 87 88 80 89 81 90 82 91 83 92 84 93
REMARK SMILES IDX 60 94 61 95 70 96 62 97 63 98 69 99 71 100 64 101 65 102
REMARK SMILES IDX 66 103 67 104 68 105
REMARK H PARENT 92 55 58 66
REMARK Flexibility Score: inf
ROOT
ATOM      1  C   UNL A   1      34.212  21.811  26.150  1.00  0.00     0.188 C 
ENDROOT
BRANCH   1   2
ATOM      2  O   UNL A   1      33.064  22.492  25.658  1.00  0.00    -0.376 OA
BRANCH   2   3
ATOM      3  C   UNL A   1      32.128  21.696  24.943  1.00  0.00     0.202 C 
BRANCH   3   4
ATOM      4  C   UNL A   1      32.580  21.339  23.509  1.00  0.00     0.261 C 
BRANCH   4   5
ATOM      5  O   UNL A   1      32.300  22.378  22.530  1.00  0.00    -0.463 OA
BRANCH   5   6
ATOM      6  C   UNL A   1      33.164  23.404  22.361  1.00  0.00     0.306 C 
ATOM      7  O   UNL A   1      34.374  23.263  22.241  1.00  0.00    -0.252 OA
BRANCH   6   8
ATOM      8  C   UNL A   1      32.482  24.776  22.360  1.00  0.00     0.127 C 
BRANCH   8   9
ATOM      9  C   UNL A   1      31.577  25.211  23.543  1.00  0.00     0.051 C 
BRANCH   9  10
ATOM     10  C   UNL A   1      31.833  26.578  24.169  1.00  0.00    -0.005 A 
ATOM     11  C   UNL A   1      33.990  29.658  26.639  1.00  0.00     0.095 A 
ATOM     12  C   UNL A   1      32.751  30.147  26.144  1.00  0.00     0.080 A 
ATOM     13  N   UNL A   1      34.218  28.437  26.176  1.00  0.00    -0.166 NA
ATOM     14  C   UNL A   1      32.227  29.127  25.360  1.00  0.00     0.156 A 
ATOM     15  N   UNL A   1      33.119  28.091  25.495  1.00  0.00    -0.219 N 
ATOM     16  N   UNL A   1      31.082  28.958  24.633  1.00  0.00    -0.234 NA
ATOM     17  C   UNL A   1      32.887  26.838  24.969  1.00  0.00     0.046 A 
ATOM     18  C   UNL A   1      30.872  27.774  24.100  1.00  0.00     0.045 A 
ATOM     19  C   UNL A   1      33.882  25.865  25.461  1.00  0.00     0.067 C 
ATOM     20  C   UNL A   1      29.538  27.621  23.395  1.00  0.00     0.067 C 
BRANCH  11  21
ATOM     21  C   UNL A   1      35.009  30.192  27.530  1.00  0.00     0.009 A 
ATOM     22  C   UNL A   1      36.100  32.180  28.427  1.00  0.00     0.123 A 
ATOM     23  C   UNL A   1      37.143  31.375  28.876  1.00  0.00     0.092 A 
ATOM     24  C   UNL A   1      35.045  31.588  27.741  1.00  0.00     0.057 A 
ATOM     25  C   UNL A   1      37.133  29.992  28.657  1.00  0.00     0.123 A 
ATOM     26  C   UNL A   1      36.057  29.396  27.994  1.00  0.00     0.057 A 
BRANCH  22  27
ATOM     27  O   UNL A   1      36.239  33.522  28.656  1.00  0.00    -0.497 OA
ATOM     28  C   UNL A   1      36.814  33.878  29.908  1.00  0.00     0.278 C 
ENDBRANCH  22  27
BRANCH  25  29
ATOM     29  O   UNL A   1      38.236  29.333  29.132  1.00  0.00    -0.497 OA
ATOM     30  C   UNL A   1      38.689  28.228  28.358  1.00  0.00     0.278 C 
ENDBRANCH  25  29
ENDBRANCH  11  21
ENDBRANCH   9  10
ENDBRANCH   8   9
ENDBRANCH   6   8
ENDBRANCH   5   6
ENDBRANCH   4   5
ENDBRANCH   3   4
ENDBRANCH   2   3
ENDBRANCH   1   2
BRANCH   1  31
ATOM     31  C   UNL A   1      35.474  22.084  25.349  1.00  0.00     0.188 C 
BRANCH  31  32
ATOM     32  O   UNL A   1      36.404  21.010  25.175  1.00  0.00    -0.376 OA
BRANCH  32  33
ATOM     33  C   UNL A   1      37.791  21.340  25.364  1.00  0.00     0.202 C 
BRANCH  33  34
ATOM     34  C   UNL A   1      38.128  22.729  25.908  1.00  0.00     0.261 C 
BRANCH  34  35
ATOM     35  O   UNL A   1      39.378  22.714  26.554  1.00  0.00    -0.460 OA
BRANCH  35  36
ATOM     36  C   UNL A   1      39.711  23.902  27.119  1.00  0.00     0.338 C 
ATOM     37  O   UNL A   1      39.189  24.468  28.051  1.00  0.00    -0.246 OA
BRANCH  36  38
ATOM     38  C   UNL A   1      40.882  24.368  26.363  1.00  0.00     0.060 A 
ATOM     39  C   UNL A   1      41.896  23.436  26.226  1.00  0.00     0.016 A 
ATOM     40  C   UNL A   1      41.069  25.755  26.166  1.00  0.00     0.016 A 
ATOM     41  C   UNL A   1      43.156  23.934  26.379  1.00  0.00     0.010 A 
ATOM     42  C   UNL A   1      42.323  26.251  26.279  1.00  0.00     0.010 A 
ATOM     43  C   UNL A   1      43.292  25.316  26.573  1.00  0.00    -0.014 A 
BRANCH  43  44
ATOM     44  C   UNL A   1      44.471  25.769  27.237  1.00  0.00     0.031 A 
ATOM     45  C   UNL A   1      44.389  25.522  28.668  1.00  0.00     0.074 A 
ATOM     46  C   UNL A   1      45.475  26.361  26.574  1.00  0.00     0.049 A 
ATOM     47  N   UNL A   1      43.944  26.347  29.552  1.00  0.00    -0.248 NA
ATOM     48  C   UNL A   1      44.510  24.131  29.115  1.00  0.00     0.031 C 
ATOM     49  C   UNL A   1      45.762  26.425  25.138  1.00  0.00     0.029 A 
ATOM     50  N   UNL A   1      46.509  27.029  27.129  1.00  0.00    -0.354 N 
ATOM     51  C   UNL A   1      43.984  25.635  30.733  1.00  0.00     0.074 A 
ATOM     52  C   UNL A   1      44.072  24.244  30.369  1.00  0.00     0.031 C 
ATOM     53  C   UNL A   1      47.012  26.920  24.962  1.00  0.00     0.029 A 
ATOM     54  C   UNL A   1      47.534  27.336  26.252  1.00  0.00     0.049 A 
ATOM     55  H   UNL A   1      46.531  27.280  28.080  1.00  0.00     0.167 HD
ATOM     56  C   UNL A   1      44.260  26.268  31.901  1.00  0.00     0.037 A 
ATOM     57  C   UNL A   1      48.750  27.792  26.642  1.00  0.00     0.037 A 
ATOM     58  C   UNL A   1      44.094  27.699  31.782  1.00  0.00     0.049 A 
ATOM     59  C   UNL A   1      48.554  28.424  27.985  1.00  0.00     0.074 A 
ATOM     60  C   UNL A   1      43.023  28.517  31.470  1.00  0.00     0.029 A 
ATOM     61  N   UNL A   1      45.221  28.461  31.572  1.00  0.00    -0.354 N 
ATOM     62  N   UNL A   1      47.821  29.493  28.175  1.00  0.00    -0.248 NA
ATOM     63  C   UNL A   1      48.737  27.593  29.169  1.00  0.00     0.031 C 
ATOM     64  C   UNL A   1      43.568  29.567  30.673  1.00  0.00     0.029 A 
ATOM     65  C   UNL A   1      44.946  29.363  30.571  1.00  0.00     0.049 A 
ATOM     66  H   UNL A   1      46.076  28.374  32.054  1.00  0.00     0.167 HD
ATOM     67  C   UNL A   1      47.136  29.270  29.365  1.00  0.00     0.074 A 
ATOM     68  C   UNL A   1      47.799  28.117  29.969  1.00  0.00     0.031 C 
ATOM     69  C   UNL A   1      45.922  29.851  29.613  1.00  0.00     0.037 A 
BRANCH  56  70
ATOM     70  C   UNL A   1      45.044  25.609  32.995  1.00  0.00     0.058 A 
ATOM     71  C   UNL A   1      44.458  25.455  34.260  1.00  0.00     0.135 A 
ATOM     72  C   UNL A   1      46.434  25.343  32.917  1.00  0.00     0.135 A 
ATOM     73  F   UNL A   1      43.152  25.704  34.440  1.00  0.00    -0.206 F 
ATOM     74  C   UNL A   1      45.211  25.116  35.382  1.00  0.00     0.059 A 
ATOM     75  C   UNL A   1      47.186  24.936  34.005  1.00  0.00     0.059 A 
ATOM     76  F   UNL A   1      47.154  25.566  31.812  1.00  0.00    -0.206 F 
ATOM     77  C   UNL A   1      46.576  24.872  35.243  1.00  0.00     0.060 A 
BRANCH  77  78
ATOM     78  S   UNL A   1      47.576  24.562  36.703  1.00  0.00     0.124 S 
ATOM     79  O   UNL A   1      48.923  24.645  36.150  1.00  0.00    -0.237 OA
ATOM     80  O   UNL A   1      47.173  25.653  37.583  1.00  0.00    -0.237 OA
ATOM     81  O   UNL A   1      47.149  23.231  37.126  1.00  0.00    -0.744 OA
ENDBRANCH  77  78
ENDBRANCH  56  70
BRANCH  57  82
ATOM     82  C   UNL A   1      50.051  27.282  26.137  1.00  0.00     0.058 A 
ATOM     83  C   UNL A   1      51.095  28.152  25.781  1.00  0.00     0.135 A 
ATOM     84  C   UNL A   1      50.385  25.912  26.216  1.00  0.00     0.135 A 
ATOM     85  F   UNL A   1      50.877  29.475  25.720  1.00  0.00    -0.206 F 
ATOM     86  C   UNL A   1      52.395  27.692  25.535  1.00  0.00     0.059 A 
ATOM     87  C   UNL A   1      51.668  25.431  25.964  1.00  0.00     0.059 A 
ATOM     88  F   UNL A   1      49.489  25.001  26.624  1.00  0.00    -0.206 F 
ATOM     89  C   UNL A   1      52.674  26.328  25.639  1.00  0.00     0.060 A 
BRANCH  89  90
ATOM     90  S   UNL A   1      54.372  25.742  25.443  1.00  0.00     0.124 S 
ATOM     91  O   UNL A   1      54.311  24.427  26.075  1.00  0.00    -0.237 OA
ATOM     92  O   UNL A   1      54.533  25.744  23.993  1.00  0.00    -0.237 OA
ATOM     93  O   UNL A   1      55.163  26.740  26.156  1.00  0.00    -0.744 OA
ENDBRANCH  89  90
ENDBRANCH  57  82
BRANCH  69  94
ATOM     94  C   UNL A   1      45.451  30.931  28.665  1.00  0.00     0.058 A 
ATOM     95  C   UNL A   1      45.869  32.273  28.740  1.00  0.00     0.135 A 
ATOM     96  C   UNL A   1      44.694  30.565  27.543  1.00  0.00     0.135 A 
ATOM     97  F   UNL A   1      46.682  32.682  29.723  1.00  0.00    -0.206 F 
ATOM     98  C   UNL A   1      45.525  33.214  27.765  1.00  0.00     0.059 A 
ATOM     99  C   UNL A   1      44.361  31.478  26.543  1.00  0.00     0.059 A 
ATOM    100  F   UNL A   1      44.320  29.286  27.375  1.00  0.00    -0.206 F 
ATOM    101  C   UNL A   1      44.773  32.805  26.665  1.00  0.00     0.060 A 
BRANCH 101 102
ATOM    102  S   UNL A   1      44.414  33.996  25.353  1.00  0.00     0.124 S 
ATOM    103  O   UNL A   1      44.157  33.128  24.210  1.00  0.00    -0.237 OA
ATOM    104  O   UNL A   1      43.254  34.710  25.881  1.00  0.00    -0.237 OA
ATOM    105  O   UNL A   1      45.637  34.792  25.270  1.00  0.00    -0.744 OA
ENDBRANCH 101 102
ENDBRANCH  69  94
ENDBRANCH  43  44
ENDBRANCH  36  38
ENDBRANCH  35  36
ENDBRANCH  34  35
ENDBRANCH  33  34
ENDBRANCH  32  33
ENDBRANCH  31  32
ENDBRANCH   1  31
TORSDOF 25
ENDMDL
MODEL 2
REMARK VINA RESULT:      -9.7      4.541     10.705
REMARK SMILES COc1cc(OC)cc(-c2cc3nc(C)c(CCC(=O)OCCOCCOCCOC(=O)c4ccc(-c5c6nc(c(-c7c(F)cc(S(=O)(=O)[O-])cc7F)c7ccc([nH]7)c(-c7c(F)cc(S(=O)(=O)[O-])cc7F)c7nc(c(-c8c(F)cc(S(=O)(=O)[O-])cc8F)c8ccc5[nH]8)C=C7)C=C6)cc4)c(C)n3n2)c1
REMARK SMILES IDX 25 1 24 2 23 3 22 4 21 5 19 6 20 7 18 8 17 9 16 10 10 11
REMARK SMILES IDX 11 12 102 13 12 14 101 15 13 16 99 17 14 18 100 19 15 20
REMARK SMILES IDX 9 21 3 22 4 23 103 24 5 25 8 26 2 27 1 28 6 29 7 30 26 31
REMARK SMILES IDX 27 32 28 33 29 34 30 35 31 36 32 37 33 38 34 39 98 40 35 41
REMARK SMILES IDX 97 42 36 43 37 44 38 45 91 46 39 47 96 48 90 49 92 50 40 51
REMARK SMILES IDX 95 52 89 53 88 54 41 56 75 57 54 58 74 59 55 60 58 61 73 62
REMARK SMILES IDX 93 63 56 64 57 65 72 67 94 68 59 69 42 70 43 71 52 72 44 73
REMARK SMILES IDX 45 74 51 75 53 76 46 77 47 78 48 79 49 80 50 81 76 82 77 83
REMARK SMILES IDX 86 84 78 85 79 86 85 87 87 88 80 89 81 90 82 91 83 92 84 93
REMARK SMILES IDX 60 94 61 95 70 96 62 97 63 98 69 99 71 100 64 101 65 102
REMARK SMILES IDX 66 103 67 104 68 105
REMARK H PARENT 92 55 58 66
REMARK Flexibility Score: inf
ROOT
ATOM      1  C   UNL A   1      45.239  27.360  25.904  1.00  0.00     0.188 C 
ENDROOT
BRANCH   1   2
ATOM      2  O   UNL A   1      45.414  26.304  26.841  1.00  0.00    -0.376 OA
BRANCH   2   3
ATOM      3  C   UNL A   1      45.616  25.009  26.289  1.00  0.00     0.202 C 
BRANCH   3   4
ATOM      4  C   UNL A   1      44.804  24.746  25.001  1.00  0.00     0.261 C 
BRANCH   4   5
ATOM      5  O   UNL A   1      44.643  23.335  24.688  1.00  0.00    -0.463 OA
BRANCH   5   6
ATOM      6  C   UNL A   1      43.678  22.608  25.294  1.00  0.00     0.306 C 
ATOM      7  O   UNL A   1      43.599  21.388  25.226  1.00  0.00    -0.252 OA
BRANCH   6   8
ATOM      8  C   UNL A   1      42.665  23.466  26.060  1.00  0.00     0.127 C 
BRANCH   8   9
ATOM      9  C   UNL A   1      41.678  22.816  27.065  1.00  0.00     0.051 C 
BRANCH   9  10
ATOM     10  C   UNL A   1      40.266  22.505  26.575  1.00  0.00    -0.005 A 
ATOM     11  C   UNL A   1      35.924  23.289  25.703  1.00  0.00     0.095 A 
ATOM     12  C   UNL A   1      36.279  21.935  25.457  1.00  0.00     0.080 A 
ATOM     13  N   UNL A   1      36.994  23.986  26.058  1.00  0.00    -0.166 NA
ATOM     14  C   UNL A   1      37.642  21.849  25.708  1.00  0.00     0.156 A 
ATOM     15  N   UNL A   1      37.994  23.101  26.152  1.00  0.00    -0.219 N 
ATOM     16  N   UNL A   1      38.569  20.847  25.675  1.00  0.00    -0.234 NA
ATOM     17  C   UNL A   1      39.253  23.391  26.634  1.00  0.00     0.046 A 
ATOM     18  C   UNL A   1      39.782  21.127  26.101  1.00  0.00     0.045 A 
ATOM     19  C   UNL A   1      39.284  24.728  27.259  1.00  0.00     0.067 C 
ATOM     20  C   UNL A   1      40.733  19.946  26.136  1.00  0.00     0.067 C 
BRANCH  11  21
ATOM     21  C   UNL A   1      34.673  24.034  25.668  1.00  0.00     0.009 A 
ATOM     22  C   UNL A   1      32.373  24.202  26.459  1.00  0.00     0.123 A 
ATOM     23  C   UNL A   1      32.110  25.098  25.427  1.00  0.00     0.092 A 
ATOM     24  C   UNL A   1      33.649  23.660  26.566  1.00  0.00     0.057 A 
ATOM     25  C   UNL A   1      33.108  25.462  24.515  1.00  0.00     0.123 A 
ATOM     26  C   UNL A   1      34.398  24.940  24.643  1.00  0.00     0.057 A 
BRANCH  22  27
ATOM     27  O   UNL A   1      31.311  23.883  27.260  1.00  0.00    -0.497 OA
ATOM     28  C   UNL A   1      30.384  22.950  26.716  1.00  0.00     0.278 C 
ENDBRANCH  22  27
BRANCH  25  29
ATOM     29  O   UNL A   1      32.697  26.332  23.540  1.00  0.00    -0.497 OA
ATOM     30  C   UNL A   1      31.349  26.780  23.627  1.00  0.00     0.278 C 
ENDBRANCH  25  29
ENDBRANCH  11  21
ENDBRANCH   9  10
ENDBRANCH   8   9
ENDBRANCH   6   8
ENDBRANCH   5   6
ENDBRANCH   4   5
ENDBRANCH   3   4
ENDBRANCH   2   3
ENDBRANCH   1   2
BRANCH   1  31
ATOM     31  C   UNL A   1      44.034  28.240  26.193  1.00  0.00     0.188 C 
BRANCH  31  32
ATOM     32  O   UNL A   1      44.257  29.641  26.379  1.00  0.00    -0.376 OA
BRANCH  32  33
ATOM     33  C   UNL A   1      45.285  29.996  27.320  1.00  0.00     0.202 C 
BRANCH  33  34
ATOM     34  C   UNL A   1      46.416  30.906  26.834  1.00  0.00     0.261 C 
BRANCH  34  35
ATOM     35  O   UNL A   1      46.560  32.011  27.692  1.00  0.00    -0.460 OA
BRANCH  35  36
ATOM     36  C   UNL A   1      46.242  33.194  27.110  1.00  0.00     0.338 C 
ATOM     37  O   UNL A   1      46.656  33.663  26.075  1.00  0.00    -0.246 OA
BRANCH  36  38
ATOM     38  C   UNL A   1      45.247  33.804  28.005  1.00  0.00     0.060 A 
ATOM     39  C   UNL A   1      45.702  34.074  29.284  1.00  0.00     0.016 A 
ATOM     40  C   UNL A   1      43.877  33.729  27.666  1.00  0.00     0.016 A 
ATOM     41  C   UNL A   1      44.818  33.781  30.280  1.00  0.00     0.010 A 
ATOM     42  C   UNL A   1      42.990  33.476  28.656  1.00  0.00     0.010 A 
ATOM     43  C   UNL A   1      43.545  33.326  29.908  1.00  0.00    -0.014 A 
BRANCH  43  44
ATOM     44  C   UNL A   1      42.828  32.544  30.863  1.00  0.00     0.031 A 
ATOM     45  C   UNL A   1      43.242  31.150  30.809  1.00  0.00     0.074 A 
ATOM     46  C   UNL A   1      41.888  33.078  31.656  1.00  0.00     0.049 A 
ATOM     47  N   UNL A   1      42.695  30.227  30.097  1.00  0.00    -0.248 NA
ATOM     48  C   UNL A   1      44.569  30.826  31.341  1.00  0.00     0.031 C 
ATOM     49  C   UNL A   1      41.583  34.479  31.961  1.00  0.00     0.029 A 
ATOM     50  N   UNL A   1      41.000  32.395  32.409  1.00  0.00    -0.354 N 
ATOM     51  C   UNL A   1      43.484  29.116  30.313  1.00  0.00     0.074 A 
ATOM     52  C   UNL A   1      44.733  29.600  30.844  1.00  0.00     0.031 C 
ATOM     53  C   UNL A   1      40.714  34.522  33.001  1.00  0.00     0.029 A 
ATOM     54  C   UNL A   1      40.301  33.166  33.319  1.00  0.00     0.049 A 
ATOM     55  H   UNL A   1      40.860  31.425  32.317  1.00  0.00     0.167 HD
ATOM     56  C   UNL A   1      42.928  27.879  30.334  1.00  0.00     0.037 A 
ATOM     57  C   UNL A   1      39.539  32.654  34.317  1.00  0.00     0.037 A 
ATOM     58  C   UNL A   1      41.613  27.877  29.735  1.00  0.00     0.049 A 
ATOM     59  C   UNL A   1      39.148  31.275  33.885  1.00  0.00     0.074 A 
ATOM     60  C   UNL A   1      41.133  28.184  28.475  1.00  0.00     0.029 A 
ATOM     61  N   UNL A   1      40.524  27.937  30.576  1.00  0.00    -0.354 N 
ATOM     62  N   UNL A   1      38.382  31.038  32.849  1.00  0.00    -0.248 NA
ATOM     63  C   UNL A   1      40.007  30.162  34.274  1.00  0.00     0.031 C 
ATOM     64  C   UNL A   1      39.887  28.843  28.695  1.00  0.00     0.029 A 
ATOM     65  C   UNL A   1      39.646  28.868  30.070  1.00  0.00     0.049 A 
ATOM     66  H   UNL A   1      40.397  27.408  31.397  1.00  0.00     0.167 HD
ATOM     67  C   UNL A   1      38.933  29.923  32.223  1.00  0.00     0.074 A 
ATOM     68  C   UNL A   1      39.886  29.385  33.190  1.00  0.00     0.031 C 
ATOM     69  C   UNL A   1      38.782  29.707  30.881  1.00  0.00     0.037 A 
BRANCH  56  70
ATOM     70  C   UNL A   1      43.431  26.799  31.245  1.00  0.00     0.058 A 
ATOM     71  C   UNL A   1      43.331  26.974  32.633  1.00  0.00     0.135 A 
ATOM     72  C   UNL A   1      44.226  25.710  30.811  1.00  0.00     0.135 A 
ATOM     73  F   UNL A   1      42.617  27.990  33.142  1.00  0.00    -0.206 F 
ATOM     74  C   UNL A   1      44.020  26.158  33.528  1.00  0.00     0.059 A 
ATOM     75  C   UNL A   1      44.860  24.844  31.685  1.00  0.00     0.059 A 
ATOM     76  F   UNL A   1      44.516  25.492  29.523  1.00  0.00    -0.206 F 
ATOM     77  C   UNL A   1      44.792  25.105  33.039  1.00  0.00     0.060 A 
BRANCH  77  78
ATOM     78  S   UNL A   1      45.784  24.129  34.176  1.00  0.00     0.124 S 
ATOM     79  O   UNL A   1      45.554  22.780  33.671  1.00  0.00    -0.237 OA
ATOM     80  O   UNL A   1      47.118  24.678  33.960  1.00  0.00    -0.237 OA
ATOM     81  O   UNL A   1      45.193  24.426  35.478  1.00  0.00    -0.744 OA
ENDBRANCH  77  78
ENDBRANCH  56  70
BRANCH  57  82
ATOM     82  C   UNL A   1      39.568  33.113  35.730  1.00  0.00     0.058 A 
ATOM     83  C   UNL A   1      38.417  33.600  36.369  1.00  0.00     0.135 A 
ATOM     84  C   UNL A   1      40.681  32.860  36.562  1.00  0.00     0.135 A 
ATOM     85  F   UNL A   1      37.301  33.830  35.661  1.00  0.00    -0.206 F 
ATOM     86  C   UNL A   1      38.367  33.810  37.754  1.00  0.00     0.059 A 
ATOM     87  C   UNL A   1      40.658  33.072  37.939  1.00  0.00     0.059 A 
ATOM     88  F   UNL A   1      41.807  32.319  36.074  1.00  0.00    -0.206 F 
ATOM     89  C   UNL A   1      39.492  33.532  38.532  1.00  0.00     0.060 A 
BRANCH  89  90
ATOM     90  S   UNL A   1      39.399  33.683  40.331  1.00  0.00     0.124 S 
ATOM     91  O   UNL A   1      38.122  34.368  40.509  1.00  0.00    -0.237 OA
ATOM     92  O   UNL A   1      39.440  32.290  40.760  1.00  0.00    -0.237 OA
ATOM     93  O   UNL A   1      40.581  34.471  40.669  1.00  0.00    -0.744 OA
ENDBRANCH  89  90
ENDBRANCH  57  82
BRANCH  69  94
ATOM     94  C   UNL A   1      37.801  30.582  30.131  1.00  0.00     0.058 A 
ATOM     95  C   UNL A   1      36.459  30.229  29.900  1.00  0.00     0.135 A 
ATOM     96  C   UNL A   1      38.181  31.888  29.792  1.00  0.00     0.135 A 
ATOM     97  F   UNL A   1      35.987  29.037  30.292  1.00  0.00    -0.206 F 
ATOM     98  C   UNL A   1      35.544  31.120  29.329  1.00  0.00     0.059 A 
ATOM     99  C   UNL A   1      37.281  32.804  29.247  1.00  0.00     0.059 A 
ATOM    100  F   UNL A   1      39.429  32.311  30.048  1.00  0.00    -0.206 F 
ATOM    101  C   UNL A   1      35.965  32.409  29.010  1.00  0.00     0.060 A 
BRANCH 101 102
ATOM    102  S   UNL A   1      34.759  33.593  28.366  1.00  0.00     0.124 S 
ATOM    103  O   UNL A   1      35.484  34.197  27.253  1.00  0.00    -0.237 OA
ATOM    104  O   UNL A   1      33.635  32.734  27.999  1.00  0.00    -0.237 OA
ATOM    105  O   UNL A   1      34.508  34.477  29.502  1.00  0.00    -0.744 OA
ENDBRANCH 101 102
ENDBRANCH  69  94
ENDBRANCH  43  44
ENDBRANCH  36  38
ENDBRANCH  35  36
ENDBRANCH  34  35
ENDBRANCH  33  34
ENDBRANCH  32  33
ENDBRANCH  31  32
ENDBRANCH   1  31
TORSDOF 25
ENDMDL
MODEL 3
REMARK VINA RESULT:      -9.3      4.992     11.485
REMARK SMILES COc1cc(OC)cc(-c2cc3nc(C)c(CCC(=O)OCCOCCOCCOC(=O)c4ccc(-c5c6nc(c(-c7c(F)cc(S(=O)(=O)[O-])cc7F)c7ccc([nH]7)c(-c7c(F)cc(S(=O)(=O)[O-])cc7F)c7nc(c(-c8c(F)cc(S(=O)(=O)[O-])cc8F)c8ccc5[nH]8)C=C7)C=C6)cc4)c(C)n3n2)c1
REMARK SMILES IDX 25 1 24 2 23 3 22 4 21 5 19 6 20 7 18 8 17 9 16 10 10 11
REMARK SMILES IDX 11 12 102 13 12 14 101 15 13 16 99 17 14 18 100 19 15 20
REMARK SMILES IDX 9 21 3 22 4 23 103 24 5 25 8 26 2 27 1 28 6 29 7 30 26 31
REMARK SMILES IDX 27 32 28 33 29 34 30 35 31 36 32 37 33 38 34 39 98 40 35 41
REMARK SMILES IDX 97 42 36 43 37 44 38 45 91 46 39 47 96 48 90 49 92 50 40 51
REMARK SMILES IDX 95 52 89 53 88 54 41 56 75 57 54 58 74 59 55 60 58 61 73 62
REMARK SMILES IDX 93 63 56 64 57 65 72 67 94 68 59 69 42 70 43 71 52 72 44 73
REMARK SMILES IDX 45 74 51 75 53 76 46 77 47 78 48 79 49 80 50 81 76 82 77 83
REMARK SMILES IDX 86 84 78 85 79 86 85 87 87 88 80 89 81 90 82 91 83 92 84 93
REMARK SMILES IDX 60 94 61 95 70 96 62 97 63 98 69 99 71 100 64 101 65 102
REMARK SMILES IDX 66 103 67 104 68 105
REMARK H PARENT 92 55 58 66
REMARK Flexibility Score: inf
ROOT
ATOM      1  C   UNL A   1      44.859  28.308  26.356  1.00  0.00     0.188 C 
ENDROOT
BRANCH   1   2
ATOM      2  O   UNL A   1      45.154  27.303  27.318  1.00  0.00    -0.376 OA
BRANCH   2   3
ATOM      3  C   UNL A   1      45.405  26.002  26.802  1.00  0.00     0.202 C 
BRANCH   3   4
ATOM      4  C   UNL A   1      44.540  25.641  25.573  1.00  0.00     0.261 C 
BRANCH   4   5
ATOM      5  O   UNL A   1      44.799  24.310  25.045  1.00  0.00    -0.463 OA
BRANCH   5   6
ATOM      6  C   UNL A   1      44.170  23.235  25.568  1.00  0.00     0.306 C 
ATOM      7  O   UNL A   1      44.683  22.128  25.671  1.00  0.00    -0.252 OA
BRANCH   6   8
ATOM      8  C   UNL A   1      42.729  23.528  26.000  1.00  0.00     0.127 C 
BRANCH   8   9
ATOM      9  C   UNL A   1      41.988  22.578  26.978  1.00  0.00     0.051 C 
BRANCH   9  10
ATOM     10  C   UNL A   1      40.866  21.711  26.414  1.00  0.00    -0.005 A 
ATOM     11  C   UNL A   1      36.694  20.704  25.068  1.00  0.00     0.095 A 
ATOM     12  C   UNL A   1      37.549  19.569  25.041  1.00  0.00     0.080 A 
ATOM     13  N   UNL A   1      37.378  21.785  25.417  1.00  0.00    -0.166 NA
ATOM     14  C   UNL A   1      38.803  20.030  25.419  1.00  0.00     0.156 A 
ATOM     15  N   UNL A   1      38.610  21.358  25.717  1.00  0.00    -0.219 N 
ATOM     16  N   UNL A   1      40.029  19.456  25.604  1.00  0.00    -0.234 NA
ATOM     17  C   UNL A   1      39.600  22.148  26.263  1.00  0.00     0.046 A 
ATOM     18  C   UNL A   1      40.987  20.214  26.092  1.00  0.00     0.045 A 
ATOM     19  C   UNL A   1      39.057  23.449  26.700  1.00  0.00     0.067 C 
ATOM     20  C   UNL A   1      42.291  19.492  26.370  1.00  0.00     0.067 C 
BRANCH  11  21
ATOM     21  C   UNL A   1      35.274  20.911  24.823  1.00  0.00     0.009 A 
ATOM     22  C   UNL A   1      33.099  19.885  24.426  1.00  0.00     0.123 A 
ATOM     23  C   UNL A   1      32.629  21.114  23.971  1.00  0.00     0.092 A 
ATOM     24  C   UNL A   1      34.424  19.785  24.834  1.00  0.00     0.057 A 
ATOM     25  C   UNL A   1      33.465  22.237  23.932  1.00  0.00     0.123 A 
ATOM     26  C   UNL A   1      34.788  22.140  24.372  1.00  0.00     0.057 A 
BRANCH  22  27
ATOM     27  O   UNL A   1      32.207  18.849  24.374  1.00  0.00    -0.497 OA
ATOM     28  C   UNL A   1      32.442  17.783  25.289  1.00  0.00     0.278 C 
ENDBRANCH  22  27
BRANCH  25  29
ATOM     29  O   UNL A   1      32.874  23.369  23.439  1.00  0.00    -0.497 OA
ATOM     30  C   UNL A   1      33.403  24.606  23.904  1.00  0.00     0.278 C 
ENDBRANCH  25  29
ENDBRANCH  11  21
ENDBRANCH   9  10
ENDBRANCH   8   9
ENDBRANCH   6   8
ENDBRANCH   5   6
ENDBRANCH   4   5
ENDBRANCH   3   4
ENDBRANCH   2   3
ENDBRANCH   1   2
BRANCH   1  31
ATOM     31  C   UNL A   1      43.739  29.246  26.776  1.00  0.00     0.188 C 
BRANCH  31  32
ATOM     32  O   UNL A   1      44.063  30.622  26.990  1.00  0.00    -0.376 OA
BRANCH  32  33
ATOM     33  C   UNL A   1      45.088  30.885  27.963  1.00  0.00     0.202 C 
BRANCH  33  34
ATOM     34  C   UNL A   1      46.280  31.743  27.533  1.00  0.00     0.261 C 
BRANCH  34  35
ATOM     35  O   UNL A   1      46.442  32.833  28.408  1.00  0.00    -0.460 OA
BRANCH  35  36
ATOM     36  C   UNL A   1      46.050  34.018  27.878  1.00  0.00     0.338 C 
ATOM     37  O   UNL A   1      46.405  34.539  26.846  1.00  0.00    -0.246 OA
BRANCH  36  38
ATOM     38  C   UNL A   1      45.060  34.550  28.825  1.00  0.00     0.060 A 
ATOM     39  C   UNL A   1      45.552  34.825  30.089  1.00  0.00     0.016 A 
ATOM     40  C   UNL A   1      43.683  34.398  28.544  1.00  0.00     0.016 A 
ATOM     41  C   UNL A   1      44.732  34.462  31.116  1.00  0.00     0.010 A 
ATOM     42  C   UNL A   1      42.856  34.076  29.565  1.00  0.00     0.010 A 
ATOM     43  C   UNL A   1      43.473  33.937  30.789  1.00  0.00    -0.014 A 
BRANCH  43  44
ATOM     44  C   UNL A   1      42.846  33.097  31.757  1.00  0.00     0.031 A 
ATOM     45  C   UNL A   1      43.333  31.730  31.652  1.00  0.00     0.074 A 
ATOM     46  C   UNL A   1      41.916  33.561  32.604  1.00  0.00     0.049 A 
ATOM     47  N   UNL A   1      42.804  30.793  30.945  1.00  0.00    -0.248 NA
ATOM     48  C   UNL A   1      44.699  31.470  32.115  1.00  0.00     0.031 C 
ATOM     49  C   UNL A   1      41.550  34.936  32.956  1.00  0.00     0.029 A 
ATOM     50  N   UNL A   1      41.103  32.814  33.381  1.00  0.00    -0.354 N 
ATOM     51  C   UNL A   1      43.663  29.723  31.099  1.00  0.00     0.074 A 
ATOM     52  C   UNL A   1      44.907  30.266  31.583  1.00  0.00     0.031 C 
ATOM     53  C   UNL A   1      40.729  34.909  34.035  1.00  0.00     0.029 A 
ATOM     54  C   UNL A   1      40.406  33.526  34.340  1.00  0.00     0.049 A 
ATOM     55  H   UNL A   1      41.013  31.839  33.273  1.00  0.00     0.167 HD
ATOM     56  C   UNL A   1      43.178  28.457  31.117  1.00  0.00     0.037 A 
ATOM     57  C   UNL A   1      39.722  32.951  35.359  1.00  0.00     0.037 A 
ATOM     58  C   UNL A   1      41.838  28.393  30.579  1.00  0.00     0.049 A 
ATOM     59  C   UNL A   1      39.387  31.562  34.914  1.00  0.00     0.074 A 
ATOM     60  C   UNL A   1      41.283  28.699  29.349  1.00  0.00     0.029 A 
ATOM     61  N   UNL A   1      40.788  28.375  31.470  1.00  0.00    -0.354 N 
ATOM     62  N   UNL A   1      38.588  31.304  33.909  1.00  0.00    -0.248 NA
ATOM     63  C   UNL A   1      40.324  30.491  35.237  1.00  0.00     0.031 C 
ATOM     64  C   UNL A   1      40.014  29.282  29.641  1.00  0.00     0.029 A 
ATOM     65  C   UNL A   1      39.838  29.265  31.026  1.00  0.00     0.049 A 
ATOM     66  H   UNL A   1      40.729  27.823  32.283  1.00  0.00     0.167 HD
ATOM     67  C   UNL A   1      39.169  30.235  33.233  1.00  0.00     0.074 A 
ATOM     68  C   UNL A   1      40.195  29.731  34.143  1.00  0.00     0.031 C 
ATOM     69  C   UNL A   1      38.967  30.038  31.894  1.00  0.00     0.037 A 
BRANCH  56  70
ATOM     70  C   UNL A   1      43.781  27.388  31.978  1.00  0.00     0.058 A 
ATOM     71  C   UNL A   1      44.326  26.247  31.371  1.00  0.00     0.135 A 
ATOM     72  C   UNL A   1      43.626  27.329  33.385  1.00  0.00     0.135 A 
ATOM     73  F   UNL A   1      44.494  26.197  30.040  1.00  0.00    -0.206 F 
ATOM     74  C   UNL A   1      44.642  25.105  32.103  1.00  0.00     0.059 A 
ATOM     75  C   UNL A   1      44.000  26.232  34.140  1.00  0.00     0.059 A 
ATOM     76  F   UNL A   1      43.008  28.286  34.087  1.00  0.00    -0.206 F 
ATOM     77  C   UNL A   1      44.461  25.106  33.485  1.00  0.00     0.060 A 
BRANCH  77  78
ATOM     78  S   UNL A   1      44.744  23.598  34.419  1.00  0.00     0.124 S 
ATOM     79  O   UNL A   1      44.814  22.608  33.350  1.00  0.00    -0.237 OA
ATOM     80  O   UNL A   1      45.997  23.895  35.103  1.00  0.00    -0.237 OA
ATOM     81  O   UNL A   1      43.570  23.512  35.283  1.00  0.00    -0.744 OA
ENDBRANCH  77  78
ENDBRANCH  56  70
BRANCH  57  82
ATOM     82  C   UNL A   1      39.792  33.382  36.780  1.00  0.00     0.058 A 
ATOM     83  C   UNL A   1      41.018  33.508  37.452  1.00  0.00     0.135 A 
ATOM     84  C   UNL A   1      38.662  33.910  37.445  1.00  0.00     0.135 A 
ATOM     85  F   UNL A   1      42.148  33.070  36.876  1.00  0.00    -0.206 F 
ATOM     86  C   UNL A   1      41.121  34.135  38.701  1.00  0.00     0.059 A 
ATOM     87  C   UNL A   1      38.740  34.526  38.692  1.00  0.00     0.059 A 
ATOM     88  F   UNL A   1      37.453  33.917  36.864  1.00  0.00    -0.206 F 
ATOM     89  C   UNL A   1      39.976  34.650  39.308  1.00  0.00     0.060 A 
BRANCH  89  90
ATOM     90  S   UNL A   1      40.117  35.566  40.860  1.00  0.00     0.124 S 
ATOM     91  O   UNL A   1      39.024  36.526  40.744  1.00  0.00    -0.237 OA
ATOM     92  O   UNL A   1      39.939  34.515  41.856  1.00  0.00    -0.237 OA
ATOM     93  O   UNL A   1      41.459  36.140  40.797  1.00  0.00    -0.744 OA
ENDBRANCH  89  90
ENDBRANCH  57  82
BRANCH  69  94
ATOM     94  C   UNL A   1      37.906  30.872  31.211  1.00  0.00     0.058 A 
ATOM     95  C   UNL A   1      38.127  32.175  30.731  1.00  0.00     0.135 A 
ATOM     96  C   UNL A   1      36.684  30.271  30.876  1.00  0.00     0.135 A 
ATOM     97  F   UNL A   1      39.308  32.782  30.916  1.00  0.00    -0.206 F 
ATOM     98  C   UNL A   1      37.169  32.863  29.980  1.00  0.00     0.059 A 
ATOM     99  C   UNL A   1      35.723  30.927  30.106  1.00  0.00     0.059 A 
ATOM    100  F   UNL A   1      36.436  29.005  31.245  1.00  0.00    -0.206 F 
ATOM    101  C   UNL A   1      35.969  32.227  29.668  1.00  0.00     0.060 A 
BRANCH 101 102
ATOM    102  S   UNL A   1      34.772  33.077  28.613  1.00  0.00     0.124 S 
ATOM    103  O   UNL A   1      33.744  33.472  29.570  1.00  0.00    -0.237 OA
ATOM    104  O   UNL A   1      35.563  34.167  28.047  1.00  0.00    -0.237 OA
ATOM    105  O   UNL A   1      34.371  32.050  27.655  1.00  0.00    -0.744 OA
ENDBRANCH 101 102
ENDBRANCH  69  94
ENDBRANCH  43  44
ENDBRANCH  36  38
ENDBRANCH  35  36
ENDBRANCH  34  35
ENDBRANCH  33  34
ENDBRANCH  32  33
ENDBRANCH  31  32
ENDBRANCH   1  31
TORSDOF 25
ENDMDL
