MODEL 1
REMARK VINA RESULT:     -10.8      0.000      0.000
REMARK SMILES CN1C(=O)[C@@H]2CC=CC[C@]2(C(=O)OCCOCCOCCOC(=O)c2ccc(-c3c4nc(c(-c5c(F)cc(S(=O)(=O)[O-])cc5F)c5ccc([nH]5)c(-c5c(F)cc(S(=O)(=O)[O-])cc5F)c5nc(c(-c6c(F)cc(S(=O)(=O)[O-])cc6F)c6ccc3[nH]6)C=C5)C=C4)cc2)[C@H]1c1ccccc1
REMARK SMILES IDX 18 1 17 2 16 3 15 4 14 5 13 6 11 7 12 8 10 9 1 10 2 11 3 12
REMARK SMILES IDX 91 13 4 14 5 15 6 16 9 17 7 18 8 19 92 20 93 21 97 22 94 23
REMARK SMILES IDX 96 24 95 25 19 26 20 27 21 28 22 29 23 30 24 31 25 32 26 33
REMARK SMILES IDX 90 34 27 35 89 36 28 37 29 38 30 39 83 40 31 41 88 42 82 43
REMARK SMILES IDX 84 44 32 45 87 46 81 47 80 48 33 50 67 51 46 52 66 53 47 54
REMARK SMILES IDX 50 55 65 56 85 57 48 58 49 59 64 61 86 62 51 63 34 64 35 65
REMARK SMILES IDX 44 66 36 67 37 68 43 69 45 70 38 71 39 72 40 73 41 74 42 75
REMARK SMILES IDX 68 76 69 77 78 78 70 79 71 80 77 81 79 82 72 83 73 84 74 85
REMARK SMILES IDX 75 86 76 87 52 88 53 89 62 90 54 91 55 92 61 93 63 94 56 95
REMARK SMILES IDX 57 96 58 97 59 98 60 99
REMARK H PARENT 84 49 50 60
REMARK Flexibility Score: inf
ROOT
ATOM      1  C   UNL A   1      38.912  20.620  25.520  1.00  0.00     0.188 C 
ENDROOT
BRANCH   1   2
ATOM      2  C   UNL A   1      37.466  21.106  25.310  1.00  0.00     0.188 C 
BRANCH   2   3
ATOM      3  O   UNL A   1      37.080  22.194  26.159  1.00  0.00    -0.376 OA
BRANCH   3   4
ATOM      4  C   UNL A   1      36.023  23.015  25.661  1.00  0.00     0.202 C 
BRANCH   4   5
ATOM      5  C   UNL A   1      34.796  22.882  26.582  1.00  0.00     0.261 C 
BRANCH   5   6
ATOM      6  O   UNL A   1      34.002  24.072  26.431  1.00  0.00    -0.463 OA
BRANCH   6   7
ATOM      7  C   UNL A   1      32.632  24.048  26.263  1.00  0.00     0.315 C 
ATOM      8  O   UNL A   1      31.803  23.983  27.154  1.00  0.00    -0.251 OA
BRANCH   7   9
ATOM      9  C   UNL A   1      32.371  24.248  24.751  1.00  0.00     0.108 C 
ATOM     10  C   UNL A   1      31.445  27.458  22.921  1.00  0.00     0.147 C 
ATOM     11  N   UNL A   1      31.998  26.204  23.395  1.00  0.00    -0.337 N 
ATOM     12  C   UNL A   1      33.159  25.660  22.904  1.00  0.00     0.227 C 
ATOM     13  C   UNL A   1      31.691  25.676  24.695  1.00  0.00     0.133 C 
ATOM     14  O   UNL A   1      33.825  26.142  21.998  1.00  0.00    -0.275 OA
ATOM     15  C   UNL A   1      33.505  24.385  23.682  1.00  0.00     0.102 C 
ATOM     16  C   UNL A   1      33.650  23.307  22.573  1.00  0.00     0.041 C 
ATOM     17  C   UNL A   1      31.557  22.948  24.521  1.00  0.00     0.049 C 
ATOM     18  C   UNL A   1      32.455  22.459  22.296  1.00  0.00    -0.030 C 
ATOM     19  C   UNL A   1      31.489  22.309  23.195  1.00  0.00    -0.030 C 
BRANCH  13  20
ATOM     20  C   UNL A   1      32.239  26.668  25.762  1.00  0.00    -0.024 A 
ATOM     21  C   UNL A   1      31.381  27.276  26.703  1.00  0.00     0.006 A 
ATOM     22  C   UNL A   1      33.565  27.122  25.689  1.00  0.00     0.006 A 
ATOM     23  C   UNL A   1      31.784  28.397  27.426  1.00  0.00     0.000 A 
ATOM     24  C   UNL A   1      33.972  28.235  26.435  1.00  0.00     0.000 A 
ATOM     25  C   UNL A   1      33.072  28.891  27.272  1.00  0.00     0.000 A 
ENDBRANCH  13  20
ENDBRANCH   7   9
ENDBRANCH   6   7
ENDBRANCH   5   6
ENDBRANCH   4   5
ENDBRANCH   3   4
ENDBRANCH   2   3
ENDBRANCH   1   2
BRANCH   1  26
ATOM     26  O   UNL A   1      39.746  21.676  25.996  1.00  0.00    -0.376 OA
BRANCH  26  27
ATOM     27  C   UNL A   1      41.126  21.312  26.073  1.00  0.00     0.202 C 
BRANCH  27  28
ATOM     28  C   UNL A   1      42.047  22.538  26.141  1.00  0.00     0.261 C 
BRANCH  28  29
ATOM     29  O   UNL A   1      41.402  23.752  26.576  1.00  0.00    -0.460 OA
BRANCH  29  30
ATOM     30  C   UNL A   1      42.017  24.922  26.260  1.00  0.00     0.338 C 
ATOM     31  O   UNL A   1      42.467  25.225  25.179  1.00  0.00    -0.246 OA
BRANCH  30  32
ATOM     32  C   UNL A   1      41.891  25.851  27.416  1.00  0.00     0.060 A 
ATOM     33  C   UNL A   1      40.875  25.626  28.350  1.00  0.00     0.016 A 
ATOM     34  C   UNL A   1      42.763  26.932  27.582  1.00  0.00     0.016 A 
ATOM     35  C   UNL A   1      40.725  26.487  29.447  1.00  0.00     0.010 A 
ATOM     36  C   UNL A   1      42.609  27.793  28.676  1.00  0.00     0.010 A 
ATOM     37  C   UNL A   1      41.583  27.582  29.614  1.00  0.00    -0.014 A 
BRANCH  37  38
ATOM     38  C   UNL A   1      41.323  28.594  30.672  1.00  0.00     0.031 A 
ATOM     39  C   UNL A   1      42.147  28.549  31.929  1.00  0.00     0.074 A 
ATOM     40  C   UNL A   1      40.363  29.531  30.542  1.00  0.00     0.049 A 
ATOM     41  N   UNL A   1      42.060  29.283  33.007  1.00  0.00    -0.248 NA
ATOM     42  C   UNL A   1      43.214  27.535  31.972  1.00  0.00     0.031 C 
ATOM     43  C   UNL A   1      39.510  29.717  29.370  1.00  0.00     0.029 A 
ATOM     44  N   UNL A   1      39.940  30.499  31.423  1.00  0.00    -0.354 N 
ATOM     45  C   UNL A   1      43.059  28.826  33.857  1.00  0.00     0.074 A 
ATOM     46  C   UNL A   1      43.725  27.735  33.178  1.00  0.00     0.031 C 
ATOM     47  C   UNL A   1      38.654  30.727  29.611  1.00  0.00     0.029 A 
ATOM     48  C   UNL A   1      38.875  31.240  30.965  1.00  0.00     0.049 A 
ATOM     49  H   UNL A   1      40.359  30.647  32.301  1.00  0.00     0.167 HD
ATOM     50  C   UNL A   1      43.395  29.273  35.090  1.00  0.00     0.037 A 
ATOM     51  C   UNL A   1      38.148  32.201  31.573  1.00  0.00     0.037 A 
ATOM     52  C   UNL A   1      42.727  30.341  35.784  1.00  0.00     0.049 A 
ATOM     53  C   UNL A   1      38.481  32.617  32.986  1.00  0.00     0.074 A 
ATOM     54  C   UNL A   1      43.014  30.865  37.032  1.00  0.00     0.029 A 
ATOM     55  N   UNL A   1      41.629  31.035  35.303  1.00  0.00    -0.354 N 
ATOM     56  N   UNL A   1      39.451  32.200  33.764  1.00  0.00    -0.248 NA
ATOM     57  C   UNL A   1      37.611  33.629  33.609  1.00  0.00     0.031 C 
ATOM     58  C   UNL A   1      42.058  31.842  37.328  1.00  0.00     0.029 A 
ATOM     59  C   UNL A   1      41.205  31.960  36.243  1.00  0.00     0.049 A 
ATOM     60  H   UNL A   1      41.211  30.893  34.423  1.00  0.00     0.167 HD
ATOM     61  C   UNL A   1      39.321  32.914  34.955  1.00  0.00     0.074 A 
ATOM     62  C   UNL A   1      38.186  33.797  34.793  1.00  0.00     0.031 C 
ATOM     63  C   UNL A   1      40.077  32.843  36.079  1.00  0.00     0.037 A 
BRANCH  50  64
ATOM     64  C   UNL A   1      44.531  28.579  35.784  1.00  0.00     0.058 A 
ATOM     65  C   UNL A   1      45.859  29.005  35.626  1.00  0.00     0.135 A 
ATOM     66  C   UNL A   1      44.285  27.490  36.635  1.00  0.00     0.135 A 
ATOM     67  F   UNL A   1      46.148  30.028  34.808  1.00  0.00    -0.206 F 
ATOM     68  C   UNL A   1      46.909  28.358  36.269  1.00  0.00     0.059 A 
ATOM     69  C   UNL A   1      45.316  26.843  37.307  1.00  0.00     0.059 A 
ATOM     70  F   UNL A   1      43.032  27.042  36.815  1.00  0.00    -0.206 F 
ATOM     71  C   UNL A   1      46.627  27.276  37.106  1.00  0.00     0.060 A 
BRANCH  71  72
ATOM     72  S   UNL A   1      48.000  26.442  37.928  1.00  0.00     0.124 S 
ATOM     73  O   UNL A   1      47.608  26.554  39.329  1.00  0.00    -0.237 OA
ATOM     74  O   UNL A   1      47.937  25.100  37.358  1.00  0.00    -0.237 OA
ATOM     75  O   UNL A   1      49.163  27.233  37.537  1.00  0.00    -0.744 OA
ENDBRANCH  71  72
ENDBRANCH  50  64
BRANCH  51  76
ATOM     76  C   UNL A   1      36.998  32.830  30.866  1.00  0.00     0.058 A 
ATOM     77  C   UNL A   1      35.681  32.412  31.105  1.00  0.00     0.135 A 
ATOM     78  C   UNL A   1      37.198  33.837  29.908  1.00  0.00     0.135 A 
ATOM     79  F   UNL A   1      35.438  31.436  31.994  1.00  0.00    -0.206 F 
ATOM     80  C   UNL A   1      34.603  32.957  30.412  1.00  0.00     0.059 A 
ATOM     81  C   UNL A   1      36.136  34.415  29.220  1.00  0.00     0.059 A 
ATOM     82  F   UNL A   1      38.439  34.273  29.641  1.00  0.00    -0.206 F 
ATOM     83  C   UNL A   1      34.843  33.960  29.470  1.00  0.00     0.060 A 
BRANCH  83  84
ATOM     84  S   UNL A   1      33.437  34.687  28.598  1.00  0.00     0.124 S 
ATOM     85  O   UNL A   1      32.509  34.936  29.696  1.00  0.00    -0.237 OA
ATOM     86  O   UNL A   1      34.033  35.870  27.986  1.00  0.00    -0.237 OA
ATOM     87  O   UNL A   1      33.043  33.636  27.665  1.00  0.00    -0.744 OA
ENDBRANCH  83  84
ENDBRANCH  51  76
BRANCH  63  88
ATOM     88  C   UNL A   1      39.727  33.753  37.226  1.00  0.00     0.058 A 
ATOM     89  C   UNL A   1      38.826  33.363  38.228  1.00  0.00     0.135 A 
ATOM     90  C   UNL A   1      40.364  34.997  37.369  1.00  0.00     0.135 A 
ATOM     91  F   UNL A   1      38.185  32.186  38.141  1.00  0.00    -0.206 F 
ATOM     92  C   UNL A   1      38.560  34.177  39.327  1.00  0.00     0.059 A 
ATOM     93  C   UNL A   1      40.131  35.818  38.470  1.00  0.00     0.059 A 
ATOM     94  F   UNL A   1      41.243  35.416  36.445  1.00  0.00    -0.206 F 
ATOM     95  C   UNL A   1      39.222  35.401  39.441  1.00  0.00     0.060 A 
BRANCH  95  96
ATOM     96  S   UNL A   1      38.911  36.423  40.898  1.00  0.00     0.124 S 
ATOM     97  O   UNL A   1      37.928  35.621  41.617  1.00  0.00    -0.237 OA
ATOM     98  O   UNL A   1      40.234  36.505  41.511  1.00  0.00    -0.237 OA
ATOM     99  O   UNL A   1      38.410  37.674  40.336  1.00  0.00    -0.744 OA
ENDBRANCH  95  96
ENDBRANCH  63  88
ENDBRANCH  37  38
ENDBRANCH  30  32
ENDBRANCH  29  30
ENDBRANCH  28  29
ENDBRANCH  27  28
ENDBRANCH  26  27
ENDBRANCH   1  26
TORSDOF 21
ENDMDL
MODEL 2
REMARK VINA RESULT:     -10.5      0.974      2.522
REMARK SMILES CN1C(=O)[C@@H]2CC=CC[C@]2(C(=O)OCCOCCOCCOC(=O)c2ccc(-c3c4nc(c(-c5c(F)cc(S(=O)(=O)[O-])cc5F)c5ccc([nH]5)c(-c5c(F)cc(S(=O)(=O)[O-])cc5F)c5nc(c(-c6c(F)cc(S(=O)(=O)[O-])cc6F)c6ccc3[nH]6)C=C5)C=C4)cc2)[C@H]1c1ccccc1
REMARK SMILES IDX 18 1 17 2 16 3 15 4 14 5 13 6 11 7 12 8 10 9 1 10 2 11 3 12
REMARK SMILES IDX 91 13 4 14 5 15 6 16 9 17 7 18 8 19 92 20 93 21 97 22 94 23
REMARK SMILES IDX 96 24 95 25 19 26 20 27 21 28 22 29 23 30 24 31 25 32 26 33
REMARK SMILES IDX 90 34 27 35 89 36 28 37 29 38 30 39 83 40 31 41 88 42 82 43
REMARK SMILES IDX 84 44 32 45 87 46 81 47 80 48 33 50 67 51 46 52 66 53 47 54
REMARK SMILES IDX 50 55 65 56 85 57 48 58 49 59 64 61 86 62 51 63 34 64 35 65
REMARK SMILES IDX 44 66 36 67 37 68 43 69 45 70 38 71 39 72 40 73 41 74 42 75
REMARK SMILES IDX 68 76 69 77 78 78 70 79 71 80 77 81 79 82 72 83 73 84 74 85
REMARK SMILES IDX 75 86 76 87 52 88 53 89 62 90 54 91 55 92 61 93 63 94 56 95
REMARK SMILES IDX 57 96 58 97 59 98 60 99
REMARK H PARENT 84 49 50 60
REMARK Flexibility Score: inf
ROOT
ATOM      1  C   UNL A   1      39.237  20.752  25.830  1.00  0.00     0.188 C 
ENDROOT
BRANCH   1   2
ATOM      2  C   UNL A   1      38.026  21.578  25.357  1.00  0.00     0.188 C 
BRANCH   2   3
ATOM      3  O   UNL A   1      37.981  22.912  25.878  1.00  0.00    -0.376 OA
BRANCH   3   4
ATOM      4  C   UNL A   1      36.684  23.507  25.927  1.00  0.00     0.202 C 
BRANCH   4   5
ATOM      5  C   UNL A   1      35.961  23.265  24.589  1.00  0.00     0.261 C 
BRANCH   5   6
ATOM      6  O   UNL A   1      35.259  24.472  24.243  1.00  0.00    -0.463 OA
BRANCH   6   7
ATOM      7  C   UNL A   1      34.231  24.509  23.322  1.00  0.00     0.315 C 
ATOM      8  O   UNL A   1      34.021  23.684  22.451  1.00  0.00    -0.251 OA
BRANCH   7   9
ATOM      9  C   UNL A   1      33.346  25.721  23.701  1.00  0.00     0.108 C 
ATOM     10  C   UNL A   1      29.966  25.715  25.457  1.00  0.00     0.147 C 
ATOM     11  N   UNL A   1      31.320  25.934  24.987  1.00  0.00    -0.337 N 
ATOM     12  C   UNL A   1      32.249  26.669  25.682  1.00  0.00     0.227 C 
ATOM     13  C   UNL A   1      31.957  25.048  24.053  1.00  0.00     0.133 C 
ATOM     14  O   UNL A   1      32.031  27.247  26.738  1.00  0.00    -0.275 OA
ATOM     15  C   UNL A   1      33.597  26.626  24.953  1.00  0.00     0.102 C 
ATOM     16  C   UNL A   1      33.956  28.124  24.757  1.00  0.00     0.041 C 
ATOM     17  C   UNL A   1      33.551  26.528  22.392  1.00  0.00     0.049 C 
ATOM     18  C   UNL A   1      33.601  28.738  23.445  1.00  0.00    -0.030 C 
ATOM     19  C   UNL A   1      33.404  27.994  22.363  1.00  0.00    -0.030 C 
BRANCH  13  20
ATOM     20  C   UNL A   1      32.096  23.652  24.729  1.00  0.00    -0.024 A 
ATOM     21  C   UNL A   1      32.617  23.521  26.034  1.00  0.00     0.006 A 
ATOM     22  C   UNL A   1      31.885  22.483  23.982  1.00  0.00     0.006 A 
ATOM     23  C   UNL A   1      33.059  22.289  26.512  1.00  0.00     0.000 A 
ATOM     24  C   UNL A   1      32.310  21.244  24.478  1.00  0.00     0.000 A 
ATOM     25  C   UNL A   1      32.927  21.155  25.724  1.00  0.00     0.000 A 
ENDBRANCH  13  20
ENDBRANCH   7   9
ENDBRANCH   6   7
ENDBRANCH   5   6
ENDBRANCH   4   5
ENDBRANCH   3   4
ENDBRANCH   2   3
ENDBRANCH   1   2
BRANCH   1  26
ATOM     26  O   UNL A   1      39.847  21.345  26.977  1.00  0.00    -0.376 OA
BRANCH  26  27
ATOM     27  C   UNL A   1      41.241  21.052  27.087  1.00  0.00     0.202 C 
BRANCH  27  28
ATOM     28  C   UNL A   1      42.118  22.279  26.799  1.00  0.00     0.261 C 
BRANCH  28  29
ATOM     29  O   UNL A   1      41.386  23.467  26.436  1.00  0.00    -0.460 OA
BRANCH  29  30
ATOM     30  C   UNL A   1      42.118  24.584  26.179  1.00  0.00     0.338 C 
ATOM     31  O   UNL A   1      42.820  24.773  25.212  1.00  0.00    -0.246 OA
BRANCH  30  32
ATOM     32  C   UNL A   1      41.777  25.618  27.193  1.00  0.00     0.060 A 
ATOM     33  C   UNL A   1      42.543  26.788  27.242  1.00  0.00     0.016 A 
ATOM     34  C   UNL A   1      40.714  25.444  28.085  1.00  0.00     0.016 A 
ATOM     35  C   UNL A   1      42.252  27.779  28.191  1.00  0.00     0.010 A 
ATOM     36  C   UNL A   1      40.428  26.434  29.033  1.00  0.00     0.010 A 
ATOM     37  C   UNL A   1      41.200  27.607  29.099  1.00  0.00    -0.014 A 
BRANCH  37  38
ATOM     38  C   UNL A   1      40.997  28.569  30.215  1.00  0.00     0.031 A 
ATOM     39  C   UNL A   1      41.852  28.435  31.445  1.00  0.00     0.074 A 
ATOM     40  C   UNL A   1      40.062  29.538  30.159  1.00  0.00     0.049 A 
ATOM     41  N   UNL A   1      41.814  29.114  32.561  1.00  0.00    -0.248 NA
ATOM     42  C   UNL A   1      42.889  27.392  31.406  1.00  0.00     0.031 C 
ATOM     43  C   UNL A   1      39.184  29.808  29.023  1.00  0.00     0.029 A 
ATOM     44  N   UNL A   1      39.690  30.470  31.101  1.00  0.00    -0.354 N 
ATOM     45  C   UNL A   1      42.821  28.586  33.359  1.00  0.00     0.074 A 
ATOM     46  C   UNL A   1      43.437  27.513  32.607  1.00  0.00     0.031 C 
ATOM     47  C   UNL A   1      38.365  30.829  29.339  1.00  0.00     0.029 A 
ATOM     48  C   UNL A   1      38.636  31.264  30.711  1.00  0.00     0.049 A 
ATOM     49  H   UNL A   1      40.136  30.560  31.973  1.00  0.00     0.167 HD
ATOM     50  C   UNL A   1      43.202  28.958  34.603  1.00  0.00     0.037 A 
ATOM     51  C   UNL A   1      37.953  32.211  31.387  1.00  0.00     0.037 A 
ATOM     52  C   UNL A   1      42.584  30.007  35.369  1.00  0.00     0.049 A 
ATOM     53  C   UNL A   1      38.335  32.544  32.811  1.00  0.00     0.074 A 
ATOM     54  C   UNL A   1      42.918  30.456  36.635  1.00  0.00     0.029 A 
ATOM     55  N   UNL A   1      41.494  30.756  34.955  1.00  0.00    -0.354 N 
ATOM     56  N   UNL A   1      39.312  32.060  33.539  1.00  0.00    -0.248 NA
ATOM     57  C   UNL A   1      37.511  33.546  33.509  1.00  0.00     0.031 C 
ATOM     58  C   UNL A   1      41.999  31.443  37.007  1.00  0.00     0.029 A 
ATOM     59  C   UNL A   1      41.122  31.641  35.953  1.00  0.00     0.049 A 
ATOM     60  H   UNL A   1      41.049  30.671  34.081  1.00  0.00     0.167 HD
ATOM     61  C   UNL A   1      39.234  32.713  34.768  1.00  0.00     0.074 A 
ATOM     62  C   UNL A   1      38.122  33.635  34.683  1.00  0.00     0.031 C 
ATOM     63  C   UNL A   1      40.016  32.562  35.865  1.00  0.00     0.037 A 
BRANCH  50  64
ATOM     64  C   UNL A   1      44.335  28.197  35.230  1.00  0.00     0.058 A 
ATOM     65  C   UNL A   1      45.666  28.618  35.094  1.00  0.00     0.135 A 
ATOM     66  C   UNL A   1      44.082  27.046  35.993  1.00  0.00     0.135 A 
ATOM     67  F   UNL A   1      45.962  29.701  34.357  1.00  0.00    -0.206 F 
ATOM     68  C   UNL A   1      46.713  27.910  35.674  1.00  0.00     0.059 A 
ATOM     69  C   UNL A   1      45.110  26.336  36.602  1.00  0.00     0.059 A 
ATOM     70  F   UNL A   1      42.825  26.601  36.148  1.00  0.00    -0.206 F 
ATOM     71  C   UNL A   1      46.424  26.768  36.424  1.00  0.00     0.060 A 
BRANCH  71  72
ATOM     72  S   UNL A   1      47.794  25.855  37.164  1.00  0.00     0.124 S 
ATOM     73  O   UNL A   1      47.189  24.542  37.366  1.00  0.00    -0.237 OA
ATOM     74  O   UNL A   1      48.816  25.929  36.126  1.00  0.00    -0.237 OA
ATOM     75  O   UNL A   1      48.084  26.606  38.382  1.00  0.00    -0.744 OA
ENDBRANCH  71  72
ENDBRANCH  50  64
BRANCH  51  76
ATOM     76  C   UNL A   1      36.804  32.909  30.746  1.00  0.00     0.058 A 
ATOM     77  C   UNL A   1      37.007  33.964  29.844  1.00  0.00     0.135 A 
ATOM     78  C   UNL A   1      35.479  32.559  31.053  1.00  0.00     0.135 A 
ATOM     79  F   UNL A   1      38.254  34.352  29.536  1.00  0.00    -0.206 F 
ATOM     80  C   UNL A   1      35.940  34.657  29.279  1.00  0.00     0.059 A 
ATOM     81  C   UNL A   1      34.396  33.221  30.483  1.00  0.00     0.059 A 
ATOM     82  F   UNL A   1      35.230  31.558  31.911  1.00  0.00    -0.206 F 
ATOM     83  C   UNL A   1      34.637  34.277  29.605  1.00  0.00     0.060 A 
BRANCH  83  84
ATOM     84  S   UNL A   1      33.257  35.159  28.843  1.00  0.00     0.124 S 
ATOM     85  O   UNL A   1      32.693  34.130  27.977  1.00  0.00    -0.237 OA
ATOM     86  O   UNL A   1      32.451  35.531  30.001  1.00  0.00    -0.237 OA
ATOM     87  O   UNL A   1      33.909  36.271  28.158  1.00  0.00    -0.744 OA
ENDBRANCH  83  84
ENDBRANCH  51  76
BRANCH  63  88
ATOM     88  C   UNL A   1      39.723  33.420  37.068  1.00  0.00     0.058 A 
ATOM     89  C   UNL A   1      38.777  33.041  38.031  1.00  0.00     0.135 A 
ATOM     90  C   UNL A   1      40.458  34.596  37.301  1.00  0.00     0.135 A 
ATOM     91  F   UNL A   1      38.043  31.930  37.858  1.00  0.00    -0.206 F 
ATOM     92  C   UNL A   1      38.560  33.800  39.179  1.00  0.00     0.059 A 
ATOM     93  C   UNL A   1      40.275  35.358  38.451  1.00  0.00     0.059 A 
ATOM     94  F   UNL A   1      41.384  35.000  36.416  1.00  0.00    -0.206 F 
ATOM     95  C   UNL A   1      39.318  34.955  39.383  1.00  0.00     0.060 A 
BRANCH  95  96
ATOM     96  S   UNL A   1      39.068  35.901  40.901  1.00  0.00     0.124 S 
ATOM     97  O   UNL A   1      40.423  35.967  41.435  1.00  0.00    -0.237 OA
ATOM     98  O   UNL A   1      38.522  37.159  40.399  1.00  0.00    -0.237 OA
ATOM     99  O   UNL A   1      38.131  35.080  41.663  1.00  0.00    -0.744 OA
ENDBRANCH  95  96
ENDBRANCH  63  88
ENDBRANCH  37  38
ENDBRANCH  30  32
ENDBRANCH  29  30
ENDBRANCH  28  29
ENDBRANCH  27  28
ENDBRANCH  26  27
ENDBRANCH   1  26
TORSDOF 21
ENDMDL
MODEL 3
REMARK VINA RESULT:     -10.5      0.843      8.371
REMARK SMILES CN1C(=O)[C@@H]2CC=CC[C@]2(C(=O)OCCOCCOCCOC(=O)c2ccc(-c3c4nc(c(-c5c(F)cc(S(=O)(=O)[O-])cc5F)c5ccc([nH]5)c(-c5c(F)cc(S(=O)(=O)[O-])cc5F)c5nc(c(-c6c(F)cc(S(=O)(=O)[O-])cc6F)c6ccc3[nH]6)C=C5)C=C4)cc2)[C@H]1c1ccccc1
REMARK SMILES IDX 18 1 17 2 16 3 15 4 14 5 13 6 11 7 12 8 10 9 1 10 2 11 3 12
REMARK SMILES IDX 91 13 4 14 5 15 6 16 9 17 7 18 8 19 92 20 93 21 97 22 94 23
REMARK SMILES IDX 96 24 95 25 19 26 20 27 21 28 22 29 23 30 24 31 25 32 26 33
REMARK SMILES IDX 90 34 27 35 89 36 28 37 29 38 30 39 83 40 31 41 88 42 82 43
REMARK SMILES IDX 84 44 32 45 87 46 81 47 80 48 33 50 67 51 46 52 66 53 47 54
REMARK SMILES IDX 50 55 65 56 85 57 48 58 49 59 64 61 86 62 51 63 34 64 35 65
REMARK SMILES IDX 44 66 36 67 37 68 43 69 45 70 38 71 39 72 40 73 41 74 42 75
REMARK SMILES IDX 68 76 69 77 78 78 70 79 71 80 77 81 79 82 72 83 73 84 74 85
REMARK SMILES IDX 75 86 76 87 52 88 53 89 62 90 54 91 55 92 61 93 63 94 56 95
REMARK SMILES IDX 57 96 58 97 59 98 60 99
REMARK H PARENT 84 49 50 60
REMARK Flexibility Score: inf
ROOT
ATOM      1  C   UNL A   1      39.258  21.275  26.081  1.00  0.00     0.188 C 
ENDROOT
BRANCH   1   2
ATOM      2  C   UNL A   1      38.034  21.924  25.407  1.00  0.00     0.188 C 
BRANCH   2   3
ATOM      3  O   UNL A   1      38.021  23.356  25.462  1.00  0.00    -0.376 OA
BRANCH   3   4
ATOM      4  C   UNL A   1      36.950  23.929  26.214  1.00  0.00     0.202 C 
BRANCH   4   5
ATOM      5  C   UNL A   1      35.619  23.668  25.485  1.00  0.00     0.261 C 
BRANCH   5   6
ATOM      6  O   UNL A   1      34.847  24.882  25.531  1.00  0.00    -0.463 OA
BRANCH   6   7
ATOM      7  C   UNL A   1      33.507  24.911  25.860  1.00  0.00     0.315 C 
ATOM      8  O   UNL A   1      32.881  24.012  26.392  1.00  0.00    -0.251 OA
BRANCH   7   9
ATOM      9  C   UNL A   1      33.007  26.340  25.537  1.00  0.00     0.108 C 
ATOM     10  C   UNL A   1      31.674  27.681  22.230  1.00  0.00     0.147 C 
ATOM     11  N   UNL A   1      31.940  27.307  23.605  1.00  0.00    -0.337 N 
ATOM     12  C   UNL A   1      31.018  27.445  24.614  1.00  0.00     0.227 C 
ATOM     13  C   UNL A   1      32.946  26.345  23.955  1.00  0.00     0.133 C 
ATOM     14  O   UNL A   1      29.903  27.929  24.477  1.00  0.00    -0.275 OA
ATOM     15  C   UNL A   1      31.586  26.874  25.919  1.00  0.00     0.102 C 
ATOM     16  C   UNL A   1      31.452  28.050  26.923  1.00  0.00     0.041 C 
ATOM     17  C   UNL A   1      34.107  27.111  26.312  1.00  0.00     0.049 C 
ATOM     18  C   UNL A   1      32.655  28.909  27.121  1.00  0.00    -0.030 C 
ATOM     19  C   UNL A   1      33.874  28.472  26.826  1.00  0.00    -0.030 C 
BRANCH  13  20
ATOM     20  C   UNL A   1      32.537  24.972  23.345  1.00  0.00    -0.024 A 
ATOM     21  C   UNL A   1      31.317  24.354  23.692  1.00  0.00     0.006 A 
ATOM     22  C   UNL A   1      33.458  24.234  22.586  1.00  0.00     0.006 A 
ATOM     23  C   UNL A   1      31.094  23.003  23.431  1.00  0.00     0.000 A 
ATOM     24  C   UNL A   1      33.219  22.883  22.305  1.00  0.00     0.000 A 
ATOM     25  C   UNL A   1      32.056  22.262  22.759  1.00  0.00     0.000 A 
ENDBRANCH  13  20
ENDBRANCH   7   9
ENDBRANCH   6   7
ENDBRANCH   5   6
ENDBRANCH   4   5
ENDBRANCH   3   4
ENDBRANCH   2   3
ENDBRANCH   1   2
BRANCH   1  26
ATOM     26  O   UNL A   1      40.129  22.265  26.628  1.00  0.00    -0.376 OA
BRANCH  26  27
ATOM     27  C   UNL A   1      41.497  22.080  26.254  1.00  0.00     0.202 C 
BRANCH  27  28
ATOM     28  C   UNL A   1      42.216  23.412  26.003  1.00  0.00     0.261 C 
BRANCH  28  29
ATOM     29  O   UNL A   1      41.366  24.575  26.066  1.00  0.00    -0.460 OA
BRANCH  29  30
ATOM     30  C   UNL A   1      41.972  25.786  25.940  1.00  0.00     0.338 C 
ATOM     31  O   UNL A   1      42.400  26.270  24.917  1.00  0.00    -0.246 OA
BRANCH  30  32
ATOM     32  C   UNL A   1      41.864  26.507  27.237  1.00  0.00     0.060 A 
ATOM     33  C   UNL A   1      40.904  26.085  28.162  1.00  0.00     0.016 A 
ATOM     34  C   UNL A   1      42.699  27.587  27.544  1.00  0.00     0.016 A 
ATOM     35  C   UNL A   1      40.772  26.748  29.391  1.00  0.00     0.010 A 
ATOM     36  C   UNL A   1      42.563  28.249  28.771  1.00  0.00     0.010 A 
ATOM     37  C   UNL A   1      41.593  27.840  29.702  1.00  0.00    -0.014 A 
BRANCH  37  38
ATOM     38  C   UNL A   1      41.343  28.652  30.921  1.00  0.00     0.031 A 
ATOM     39  C   UNL A   1      40.231  29.664  30.896  1.00  0.00     0.074 A 
ATOM     40  C   UNL A   1      42.094  28.520  32.033  1.00  0.00     0.049 A 
ATOM     41  N   UNL A   1      39.868  30.524  31.812  1.00  0.00    -0.248 NA
ATOM     42  C   UNL A   1      39.418  29.709  29.670  1.00  0.00     0.031 C 
ATOM     43  C   UNL A   1      43.182  27.561  32.214  1.00  0.00     0.029 A 
ATOM     44  N   UNL A   1      42.055  29.213  33.220  1.00  0.00    -0.354 N 
ATOM     45  C   UNL A   1      38.787  31.212  31.278  1.00  0.00     0.074 A 
ATOM     46  C   UNL A   1      38.566  30.684  29.948  1.00  0.00     0.031 C 
ATOM     47  C   UNL A   1      43.718  27.738  33.436  1.00  0.00     0.029 A 
ATOM     48  C   UNL A   1      43.034  28.842  34.113  1.00  0.00     0.049 A 
ATOM     49  H   UNL A   1      41.389  29.912  33.414  1.00  0.00     0.167 HD
ATOM     50  C   UNL A   1      38.041  32.191  31.841  1.00  0.00     0.037 A 
ATOM     51  C   UNL A   1      43.358  29.348  35.322  1.00  0.00     0.037 A 
ATOM     52  C   UNL A   1      38.264  32.739  33.152  1.00  0.00     0.049 A 
ATOM     53  C   UNL A   1      42.572  30.506  35.889  1.00  0.00     0.074 A 
ATOM     54  C   UNL A   1      37.544  33.726  33.803  1.00  0.00     0.029 A 
ATOM     55  N   UNL A   1      39.290  32.365  34.004  1.00  0.00    -0.354 N 
ATOM     56  N   UNL A   1      41.528  31.122  35.387  1.00  0.00    -0.248 NA
ATOM     57  C   UNL A   1      43.015  31.046  37.186  1.00  0.00     0.031 C 
ATOM     58  C   UNL A   1      38.166  33.985  35.029  1.00  0.00     0.029 A 
ATOM     59  C   UNL A   1      39.244  33.125  35.162  1.00  0.00     0.049 A 
ATOM     60  H   UNL A   1      39.954  31.663  33.816  1.00  0.00     0.167 HD
ATOM     61  C   UNL A   1      41.179  32.103  36.314  1.00  0.00     0.074 A 
ATOM     62  C   UNL A   1      42.114  31.993  37.413  1.00  0.00     0.031 C 
ATOM     63  C   UNL A   1      40.173  33.010  36.258  1.00  0.00     0.037 A 
BRANCH  50  64
ATOM     64  C   UNL A   1      36.920  32.758  31.018  1.00  0.00     0.058 A 
ATOM     65  C   UNL A   1      35.606  32.283  31.140  1.00  0.00     0.135 A 
ATOM     66  C   UNL A   1      37.162  33.805  30.113  1.00  0.00     0.135 A 
ATOM     67  F   UNL A   1      35.327  31.271  31.976  1.00  0.00    -0.206 F 
ATOM     68  C   UNL A   1      34.571  32.809  30.375  1.00  0.00     0.059 A 
ATOM     69  C   UNL A   1      36.138  34.362  29.355  1.00  0.00     0.059 A 
ATOM     70  F   UNL A   1      38.404  34.290  29.957  1.00  0.00    -0.206 F 
ATOM     71  C   UNL A   1      34.848  33.847  29.483  1.00  0.00     0.060 A 
BRANCH  71  72
ATOM     72  S   UNL A   1      33.497  34.515  28.491  1.00  0.00     0.124 S 
ATOM     73  O   UNL A   1      33.085  33.339  27.732  1.00  0.00    -0.237 OA
ATOM     74  O   UNL A   1      32.558  34.972  29.510  1.00  0.00    -0.237 OA
ATOM     75  O   UNL A   1      34.136  35.572  27.712  1.00  0.00    -0.744 OA
ENDBRANCH  71  72
ENDBRANCH  50  64
BRANCH  51  76
ATOM     76  C   UNL A   1      44.508  28.788  36.085  1.00  0.00     0.058 A 
ATOM     77  C   UNL A   1      45.799  29.316  35.945  1.00  0.00     0.135 A 
ATOM     78  C   UNL A   1      44.344  27.687  36.941  1.00  0.00     0.135 A 
ATOM     79  F   UNL A   1      46.013  30.354  35.120  1.00  0.00    -0.206 F 
ATOM     80  C   UNL A   1      46.891  28.767  36.613  1.00  0.00     0.059 A 
ATOM     81  C   UNL A   1      45.414  27.136  37.638  1.00  0.00     0.059 A 
ATOM     82  F   UNL A   1      43.128  27.142  37.109  1.00  0.00    -0.206 F 
ATOM     83  C   UNL A   1      46.686  27.676  37.459  1.00  0.00     0.060 A 
BRANCH  83  84
ATOM     84  S   UNL A   1      48.101  26.989  38.349  1.00  0.00     0.124 S 
ATOM     85  O   UNL A   1      48.249  25.689  37.705  1.00  0.00    -0.237 OA
ATOM     86  O   UNL A   1      49.147  27.966  38.063  1.00  0.00    -0.237 OA
ATOM     87  O   UNL A   1      47.642  26.959  39.734  1.00  0.00    -0.744 OA
ENDBRANCH  83  84
ENDBRANCH  51  76
BRANCH  63  88
ATOM     88  C   UNL A   1      40.003  33.953  37.420  1.00  0.00     0.058 A 
ATOM     89  C   UNL A   1      40.600  35.223  37.433  1.00  0.00     0.135 A 
ATOM     90  C   UNL A   1      39.166  33.613  38.497  1.00  0.00     0.135 A 
ATOM     91  F   UNL A   1      41.413  35.598  36.433  1.00  0.00    -0.206 F 
ATOM     92  C   UNL A   1      40.382  36.120  38.476  1.00  0.00     0.059 A 
ATOM     93  C   UNL A   1      38.915  34.502  39.539  1.00  0.00     0.059 A 
ATOM     94  F   UNL A   1      38.561  32.415  38.530  1.00  0.00    -0.206 F 
ATOM     95  C   UNL A   1      39.533  35.752  39.522  1.00  0.00     0.060 A 
BRANCH  95  96
ATOM     96  S   UNL A   1      39.214  36.945  40.841  1.00  0.00     0.124 S 
ATOM     97  O   UNL A   1      38.327  37.892  40.174  1.00  0.00    -0.237 OA
ATOM     98  O   UNL A   1      38.596  36.115  41.871  1.00  0.00    -0.237 OA
ATOM     99  O   UNL A   1      40.543  37.454  41.169  1.00  0.00    -0.744 OA
ENDBRANCH  95  96
ENDBRANCH  63  88
ENDBRANCH  37  38
ENDBRANCH  30  32
ENDBRANCH  29  30
ENDBRANCH  28  29
ENDBRANCH  27  28
ENDBRANCH  26  27
ENDBRANCH   1  26
TORSDOF 21
ENDMDL
