MODEL 1
REMARK VINA RESULT:      -6.0      0.000      0.000
REMARK SMILES CCCC[C@@H](Sc1nc(OCCC2CCCCC2)cc(OCCC2CCCCC2)n1)C(=O)OCCOCCOCCOC(=O)c1ccc(-c2c3nc(c(-c4c(F)cc(S(=O)(=O)[O-])cc4F)c4ccc([nH]4)c(-c4c(F)cc(S(=O)(=O)[O-])cc4F)c4nc(c(-c5c(F)cc(S(=O)(=O)[O-])cc5F)c5ccc2[nH]5)C=C4)C=C3)cc1
REMARK SMILES IDX 36 1 35 2 34 3 33 4 31 5 32 6 5 7 4 8 3 9 2 10 1 11 6 12
REMARK SMILES IDX 7 13 8 14 30 15 9 16 20 17 19 18 10 19 11 20 12 21 13 22
REMARK SMILES IDX 14 23 18 24 15 25 17 26 16 27 21 28 22 29 23 30 24 31 25 32
REMARK SMILES IDX 29 33 26 34 28 35 27 36 37 37 38 38 39 39 40 40 41 41 42 42
REMARK SMILES IDX 43 43 44 44 45 45 46 46 110 47 47 48 109 49 48 50 49 51
REMARK SMILES IDX 50 52 103 53 51 54 108 55 102 56 104 57 52 58 107 59 101 60
REMARK SMILES IDX 100 61 53 63 87 64 66 65 86 66 67 67 70 68 85 69 105 70
REMARK SMILES IDX 68 71 69 72 84 74 106 75 71 76 54 77 55 78 64 79 56 80 57 81
REMARK SMILES IDX 63 82 65 83 58 84 59 85 60 86 61 87 62 88 88 89 89 90 98 91
REMARK SMILES IDX 90 92 91 93 97 94 99 95 92 96 93 97 94 98 95 99 96 100
REMARK SMILES IDX 72 101 73 102 82 103 74 104 75 105 81 106 83 107 76 108
REMARK SMILES IDX 77 109 78 110 79 111 80 112
REMARK H PARENT 104 62 70 73
REMARK Flexibility Score: inf
ROOT
ATOM      1  O   UNL A   1      36.867  32.832  34.384  1.00  0.00    -0.376 OA
ENDROOT
BRANCH   1   2
ATOM      2  C   UNL A   1      38.220  32.402  34.280  1.00  0.00     0.202 C 
BRANCH   2   3
ATOM      3  C   UNL A   1      39.203  33.297  33.512  1.00  0.00     0.261 C 
BRANCH   3   4
ATOM      4  O   UNL A   1      40.074  34.095  34.351  1.00  0.00    -0.462 OA
BRANCH   4   5
ATOM      5  C   UNL A   1      41.413  33.836  34.287  1.00  0.00     0.319 C 
ATOM      6  O   UNL A   1      42.229  34.630  33.825  1.00  0.00    -0.251 OA
BRANCH   5   7
ATOM      7  C   UNL A   1      41.825  32.431  34.799  1.00  0.00     0.164 C 
BRANCH   7   8
ATOM      8  C   UNL A   1      42.865  31.670  33.952  1.00  0.00     0.027 C 
BRANCH   8   9
ATOM      9  C   UNL A   1      42.543  31.421  32.455  1.00  0.00     0.001 C 
BRANCH   9  10
ATOM     10  C   UNL A   1      43.505  31.956  31.390  1.00  0.00    -0.003 C 
ATOM     11  C   UNL A   1      42.881  33.103  30.602  1.00  0.00     0.004 C 
ENDBRANCH   9  10
ENDBRANCH   8   9
ENDBRANCH   7   8
BRANCH   7  12
ATOM     12  S   UNL A   1      42.415  32.691  36.531  1.00  0.00    -0.071 SA
BRANCH  12  13
ATOM     13  C   UNL A   1      40.992  33.343  37.369  1.00  0.00     0.195 A 
ATOM     14  N   UNL A   1      40.091  32.421  37.763  1.00  0.00    -0.187 NA
ATOM     15  N   UNL A   1      40.856  34.649  37.647  1.00  0.00    -0.187 NA
ATOM     16  C   UNL A   1      38.954  32.873  38.303  1.00  0.00     0.221 A 
ATOM     17  C   UNL A   1      39.608  35.003  37.989  1.00  0.00     0.221 A 
ATOM     18  C   UNL A   1      38.544  34.124  37.903  1.00  0.00     0.136 A 
BRANCH  16  19
ATOM     19  O   UNL A   1      38.433  32.397  39.673  1.00  0.00    -0.477 OA
BRANCH  19  20
ATOM     20  C   UNL A   1      37.165  31.590  40.875  1.00  0.00     0.231 C 
BRANCH  20  21
ATOM     21  C   UNL A   1      37.116  30.746  42.364  1.00  0.00     0.045 C 
BRANCH  21  22
ATOM     22  C   UNL A   1      36.380  31.298  43.637  1.00  0.00    -0.008 C 
ATOM     23  C   UNL A   1      34.841  31.244  43.678  1.00  0.00     0.004 C 
ATOM     24  C   UNL A   1      36.825  30.643  44.977  1.00  0.00     0.004 C 
ATOM     25  C   UNL A   1      34.352  32.138  44.847  1.00  0.00     0.000 C 
ATOM     26  C   UNL A   1      36.477  31.563  46.142  1.00  0.00     0.000 C 
ATOM     27  C   UNL A   1      34.978  31.803  46.208  1.00  0.00     0.000 C 
ENDBRANCH  21  22
ENDBRANCH  20  21
ENDBRANCH  19  20
ENDBRANCH  16  19
BRANCH  17  28
ATOM     28  O   UNL A   1      39.396  36.194  38.705  1.00  0.00    -0.477 OA
BRANCH  28  29
ATOM     29  C   UNL A   1      40.094  36.309  40.005  1.00  0.00     0.231 C 
BRANCH  29  30
ATOM     30  C   UNL A   1      40.402  34.953  40.781  1.00  0.00     0.045 C 
BRANCH  30  31
ATOM     31  C   UNL A   1      39.909  35.103  42.212  1.00  0.00    -0.008 C 
ATOM     32  C   UNL A   1      38.002  34.816  42.301  1.00  0.00     0.004 C 
ATOM     33  C   UNL A   1      40.899  35.284  43.836  1.00  0.00     0.004 C 
ATOM     34  C   UNL A   1      37.083  34.825  44.030  1.00  0.00     0.000 C 
ATOM     35  C   UNL A   1      39.974  35.535  45.479  1.00  0.00     0.000 C 
ATOM     36  C   UNL A   1      38.092  35.225  45.600  1.00  0.00     0.000 C 
ENDBRANCH  30  31
ENDBRANCH  29  30
ENDBRANCH  28  29
ENDBRANCH  17  28
ENDBRANCH  12  13
ENDBRANCH   7  12
ENDBRANCH   5   7
ENDBRANCH   4   5
ENDBRANCH   3   4
ENDBRANCH   2   3
ENDBRANCH   1   2
BRANCH   1  37
ATOM     37  C   UNL A   1      35.960  32.493  33.345  1.00  0.00     0.188 C 
BRANCH  37  38
ATOM     38  C   UNL A   1      36.389  31.436  32.324  1.00  0.00     0.188 C 
BRANCH  38  39
ATOM     39  O   UNL A   1      36.417  30.104  32.808  1.00  0.00    -0.376 OA
BRANCH  39  40
ATOM     40  C   UNL A   1      37.281  29.216  32.108  1.00  0.00     0.202 C 
BRANCH  40  41
ATOM     41  C   UNL A   1      37.380  29.509  30.604  1.00  0.00     0.261 C 
BRANCH  41  42
ATOM     42  O   UNL A   1      37.984  28.456  29.828  1.00  0.00    -0.460 OA
BRANCH  42  43
ATOM     43  C   UNL A   1      38.591  28.834  28.677  1.00  0.00     0.338 C 
ATOM     44  O   UNL A   1      38.093  29.442  27.750  1.00  0.00    -0.246 OA
BRANCH  43  45
ATOM     45  C   UNL A   1      40.039  28.585  28.831  1.00  0.00     0.060 A 
ATOM     46  C   UNL A   1      40.493  27.261  28.846  1.00  0.00     0.016 A 
ATOM     47  C   UNL A   1      40.935  29.642  28.973  1.00  0.00     0.016 A 
ATOM     48  C   UNL A   1      41.845  26.982  29.021  1.00  0.00     0.010 A 
ATOM     49  C   UNL A   1      42.291  29.361  29.170  1.00  0.00     0.010 A 
ATOM     50  C   UNL A   1      42.749  28.030  29.221  1.00  0.00    -0.014 A 
BRANCH  50  51
ATOM     51  C   UNL A   1      44.131  27.734  29.672  1.00  0.00     0.031 A 
ATOM     52  C   UNL A   1      45.189  27.515  28.626  1.00  0.00     0.074 A 
ATOM     53  C   UNL A   1      44.452  27.695  30.978  1.00  0.00     0.049 A 
ATOM     54  N   UNL A   1      46.428  27.126  28.766  1.00  0.00    -0.248 NA
ATOM     55  C   UNL A   1      44.790  27.769  27.231  1.00  0.00     0.031 C 
ATOM     56  C   UNL A   1      43.538  27.972  32.085  1.00  0.00     0.029 A 
ATOM     57  N   UNL A   1      45.645  27.401  31.591  1.00  0.00    -0.354 N 
ATOM     58  C   UNL A   1      46.950  27.061  27.479  1.00  0.00     0.074 A 
ATOM     59  C   UNL A   1      45.890  27.439  26.571  1.00  0.00     0.031 C 
ATOM     60  C   UNL A   1      44.203  27.822  33.246  1.00  0.00     0.029 A 
ATOM     61  C   UNL A   1      45.571  27.394  32.964  1.00  0.00     0.049 A 
ATOM     62  H   UNL A   1      46.473  27.212  31.095  1.00  0.00     0.167 HD
ATOM     63  C   UNL A   1      48.201  26.720  27.091  1.00  0.00     0.037 A 
ATOM     64  C   UNL A   1      46.494  27.046  33.884  1.00  0.00     0.037 A 
ATOM     65  C   UNL A   1      49.256  26.361  28.000  1.00  0.00     0.049 A 
ATOM     66  C   UNL A   1      47.858  26.593  33.426  1.00  0.00     0.074 A 
ATOM     67  C   UNL A   1      50.557  25.990  27.707  1.00  0.00     0.029 A 
ATOM     68  N   UNL A   1      49.132  26.328  29.381  1.00  0.00    -0.354 N 
ATOM     69  N   UNL A   1      48.332  26.502  32.205  1.00  0.00    -0.248 NA
ATOM     70  C   UNL A   1      48.811  26.188  34.469  1.00  0.00     0.031 C 
ATOM     71  C   UNL A   1      51.208  25.696  28.910  1.00  0.00     0.029 A 
ATOM     72  C   UNL A   1      50.328  25.930  29.954  1.00  0.00     0.049 A 
ATOM     73  H   UNL A   1      48.315  26.555  29.881  1.00  0.00     0.167 HD
ATOM     74  C   UNL A   1      49.644  26.055  32.337  1.00  0.00     0.074 A 
ATOM     75  C   UNL A   1      49.891  25.902  33.755  1.00  0.00     0.031 C 
ATOM     76  C   UNL A   1      50.560  25.794  31.371  1.00  0.00     0.037 A 
BRANCH  63  77
ATOM     77  C   UNL A   1      48.478  26.681  25.614  1.00  0.00     0.058 A 
ATOM     78  C   UNL A   1      49.235  27.674  24.974  1.00  0.00     0.135 A 
ATOM     79  C   UNL A   1      47.982  25.626  24.831  1.00  0.00     0.135 A 
ATOM     80  F   UNL A   1      49.712  28.717  25.673  1.00  0.00    -0.206 F 
ATOM     81  C   UNL A   1      49.465  27.640  23.603  1.00  0.00     0.059 A 
ATOM     82  C   UNL A   1      48.223  25.557  23.462  1.00  0.00     0.059 A 
ATOM     83  F   UNL A   1      47.247  24.654  25.393  1.00  0.00    -0.206 F 
ATOM     84  C   UNL A   1      48.953  26.578  22.854  1.00  0.00     0.060 A 
BRANCH  84  85
ATOM     85  S   UNL A   1      49.255  26.549  21.075  1.00  0.00     0.124 S 
ATOM     86  O   UNL A   1      48.168  27.390  20.582  1.00  0.00    -0.237 OA
ATOM     87  O   UNL A   1      50.594  27.120  20.975  1.00  0.00    -0.237 OA
ATOM     88  O   UNL A   1      49.154  25.133  20.736  1.00  0.00    -0.744 OA
ENDBRANCH  84  85
ENDBRANCH  63  77
BRANCH  64  89
ATOM     89  C   UNL A   1      46.154  27.076  35.332  1.00  0.00     0.058 A 
ATOM     90  C   UNL A   1      45.576  25.966  35.966  1.00  0.00     0.135 A 
ATOM     91  C   UNL A   1      46.388  28.221  36.110  1.00  0.00     0.135 A 
ATOM     92  F   UNL A   1      45.316  24.852  35.263  1.00  0.00    -0.206 F 
ATOM     93  C   UNL A   1      45.232  25.992  37.315  1.00  0.00     0.059 A 
ATOM     94  C   UNL A   1      46.078  28.263  37.465  1.00  0.00     0.059 A 
ATOM     95  F   UNL A   1      46.942  29.310  35.553  1.00  0.00    -0.206 F 
ATOM     96  C   UNL A   1      45.490  27.146  38.056  1.00  0.00     0.060 A 
BRANCH  96  97
ATOM     97  S   UNL A   1      45.082  27.155  39.816  1.00  0.00     0.124 S 
ATOM     98  O   UNL A   1      43.829  26.409  39.830  1.00  0.00    -0.237 OA
ATOM     99  O   UNL A   1      46.234  26.478  40.402  1.00  0.00    -0.237 OA
ATOM    100  O   UNL A   1      44.973  28.577  40.128  1.00  0.00    -0.744 OA
ENDBRANCH  96  97
ENDBRANCH  64  89
BRANCH  76 101
ATOM    101  C   UNL A   1      51.930  25.359  31.813  1.00  0.00     0.058 A 
ATOM    102  C   UNL A   1      52.206  24.029  32.166  1.00  0.00     0.135 A 
ATOM    103  C   UNL A   1      52.995  26.275  31.824  1.00  0.00     0.135 A 
ATOM    104  F   UNL A   1      51.224  23.115  32.174  1.00  0.00    -0.206 F 
ATOM    105  C   UNL A   1      53.486  23.627  32.538  1.00  0.00     0.059 A 
ATOM    106  C   UNL A   1      54.287  25.890  32.168  1.00  0.00     0.059 A 
ATOM    107  F   UNL A   1      52.789  27.557  31.483  1.00  0.00    -0.206 F 
ATOM    108  C   UNL A   1      54.520  24.565  32.535  1.00  0.00     0.060 A 
BRANCH 108 109
ATOM    109  S   UNL A   1      56.182  24.025  32.987  1.00  0.00     0.124 S 
ATOM    110  O   UNL A   1      56.742  25.245  33.558  1.00  0.00    -0.237 OA
ATOM    111  O   UNL A   1      55.915  22.946  33.933  1.00  0.00    -0.237 OA
ATOM    112  O   UNL A   1      56.761  23.604  31.714  1.00  0.00    -0.744 OA
ENDBRANCH 108 109
ENDBRANCH  76 101
ENDBRANCH  50  51
ENDBRANCH  43  45
ENDBRANCH  42  43
ENDBRANCH  41  42
ENDBRANCH  40  41
ENDBRANCH  39  40
ENDBRANCH  38  39
ENDBRANCH  37  38
ENDBRANCH   1  37
TORSDOF 33
ENDMDL
MODEL 2
REMARK VINA RESULT:      -5.8      4.779      9.567
REMARK SMILES CCCC[C@@H](Sc1nc(OCCC2CCCCC2)cc(OCCC2CCCCC2)n1)C(=O)OCCOCCOCCOC(=O)c1ccc(-c2c3nc(c(-c4c(F)cc(S(=O)(=O)[O-])cc4F)c4ccc([nH]4)c(-c4c(F)cc(S(=O)(=O)[O-])cc4F)c4nc(c(-c5c(F)cc(S(=O)(=O)[O-])cc5F)c5ccc2[nH]5)C=C4)C=C3)cc1
REMARK SMILES IDX 36 1 35 2 34 3 33 4 31 5 32 6 5 7 4 8 3 9 2 10 1 11 6 12
REMARK SMILES IDX 7 13 8 14 30 15 9 16 20 17 19 18 10 19 11 20 12 21 13 22
REMARK SMILES IDX 14 23 18 24 15 25 17 26 16 27 21 28 22 29 23 30 24 31 25 32
REMARK SMILES IDX 29 33 26 34 28 35 27 36 37 37 38 38 39 39 40 40 41 41 42 42
REMARK SMILES IDX 43 43 44 44 45 45 46 46 110 47 47 48 109 49 48 50 49 51
REMARK SMILES IDX 50 52 103 53 51 54 108 55 102 56 104 57 52 58 107 59 101 60
REMARK SMILES IDX 100 61 53 63 87 64 66 65 86 66 67 67 70 68 85 69 105 70
REMARK SMILES IDX 68 71 69 72 84 74 106 75 71 76 54 77 55 78 64 79 56 80 57 81
REMARK SMILES IDX 63 82 65 83 58 84 59 85 60 86 61 87 62 88 88 89 89 90 98 91
REMARK SMILES IDX 90 92 91 93 97 94 99 95 92 96 93 97 94 98 95 99 96 100
REMARK SMILES IDX 72 101 73 102 82 103 74 104 75 105 81 106 83 107 76 108
REMARK SMILES IDX 77 109 78 110 79 111 80 112
REMARK H PARENT 104 62 70 73
REMARK Flexibility Score: inf
ROOT
ATOM      1  O   UNL A   1      42.457  34.236  35.970  1.00  0.00    -0.376 OA
ENDROOT
BRANCH   1   2
ATOM      2  C   UNL A   1      43.065  33.228  35.168  1.00  0.00     0.202 C 
BRANCH   2   3
ATOM      3  C   UNL A   1      44.350  33.588  34.411  1.00  0.00     0.261 C 
BRANCH   3   4
ATOM      4  O   UNL A   1      45.520  32.835  34.815  1.00  0.00    -0.462 OA
BRANCH   4   5
ATOM      5  C   UNL A   1      45.308  31.650  35.461  1.00  0.00     0.319 C 
ATOM      6  O   UNL A   1      45.216  31.558  36.683  1.00  0.00    -0.251 OA
BRANCH   5   7
ATOM      7  C   UNL A   1      45.240  30.410  34.531  1.00  0.00     0.164 C 
BRANCH   7   8
ATOM      8  C   UNL A   1      46.176  30.420  33.307  1.00  0.00     0.027 C 
BRANCH   8   9
ATOM      9  C   UNL A   1      45.657  29.787  31.988  1.00  0.00     0.001 C 
BRANCH   9  10
ATOM     10  C   UNL A   1      46.638  29.015  31.100  1.00  0.00    -0.003 C 
ATOM     11  C   UNL A   1      46.737  27.553  31.523  1.00  0.00     0.004 C 
ENDBRANCH   9  10
ENDBRANCH   8   9
ENDBRANCH   7   8
BRANCH   7  12
ATOM     12  S   UNL A   1      45.560  28.955  35.624  1.00  0.00    -0.071 SA
BRANCH  12  13
ATOM     13  C   UNL A   1      47.319  28.730  35.523  1.00  0.00     0.195 A 
ATOM     14  N   UNL A   1      48.047  29.590  36.263  1.00  0.00    -0.187 NA
ATOM     15  N   UNL A   1      47.877  27.735  34.815  1.00  0.00    -0.187 NA
ATOM     16  C   UNL A   1      49.376  29.527  36.136  1.00  0.00     0.221 A 
ATOM     17  C   UNL A   1      49.190  27.900  34.593  1.00  0.00     0.221 A 
ATOM     18  C   UNL A   1      49.853  29.066  34.931  1.00  0.00     0.136 A 
BRANCH  16  19
ATOM     19  O   UNL A   1      50.324  29.373  37.341  1.00  0.00    -0.477 OA
BRANCH  19  20
ATOM     20  C   UNL A   1      50.824  28.792  39.107  1.00  0.00     0.231 C 
BRANCH  20  21
ATOM     21  C   UNL A   1      50.676  29.275  40.743  1.00  0.00     0.045 C 
BRANCH  21  22
ATOM     22  C   UNL A   1      49.947  28.407  41.830  1.00  0.00    -0.008 C 
ATOM     23  C   UNL A   1      50.779  27.837  42.994  1.00  0.00     0.004 C 
ATOM     24  C   UNL A   1      48.745  29.113  42.522  1.00  0.00     0.004 C 
ATOM     25  C   UNL A   1      49.930  26.761  43.719  1.00  0.00     0.000 C 
ATOM     26  C   UNL A   1      47.816  28.069  43.132  1.00  0.00     0.000 C 
ATOM     27  C   UNL A   1      48.547  27.245  44.179  1.00  0.00     0.000 C 
ENDBRANCH  21  22
ENDBRANCH  20  21
ENDBRANCH  19  20
ENDBRANCH  16  19
BRANCH  17  28
ATOM     28  O   UNL A   1      49.982  26.788  34.262  1.00  0.00    -0.477 OA
BRANCH  28  29
ATOM     29  C   UNL A   1      49.979  26.382  32.838  1.00  0.00     0.231 C 
BRANCH  29  30
ATOM     30  C   UNL A   1      49.753  24.836  32.529  1.00  0.00     0.045 C 
BRANCH  30  31
ATOM     31  C   UNL A   1      49.465  24.127  33.843  1.00  0.00    -0.008 C 
ATOM     32  C   UNL A   1      47.572  24.156  34.222  1.00  0.00     0.004 C 
ATOM     33  C   UNL A   1      50.619  23.084  34.951  1.00  0.00     0.004 C 
ATOM     34  C   UNL A   1      46.866  23.219  35.789  1.00  0.00     0.000 C 
ATOM     35  C   UNL A   1      49.967  22.386  36.596  1.00  0.00     0.000 C 
ATOM     36  C   UNL A   1      48.095  22.374  36.980  1.00  0.00     0.000 C 
ENDBRANCH  30  31
ENDBRANCH  29  30
ENDBRANCH  28  29
ENDBRANCH  17  28
ENDBRANCH  12  13
ENDBRANCH   7  12
ENDBRANCH   5   7
ENDBRANCH   4   5
ENDBRANCH   3   4
ENDBRANCH   2   3
ENDBRANCH   1   2
BRANCH   1  37
ATOM     37  C   UNL A   1      41.463  35.066  35.388  1.00  0.00     0.188 C 
BRANCH  37  38
ATOM     38  C   UNL A   1      40.010  34.586  35.416  1.00  0.00     0.188 C 
BRANCH  38  39
ATOM     39  O   UNL A   1      39.706  33.525  34.528  1.00  0.00    -0.376 OA
BRANCH  39  40
ATOM     40  C   UNL A   1      38.652  32.662  34.940  1.00  0.00     0.202 C 
BRANCH  40  41
ATOM     41  C   UNL A   1      37.490  32.586  33.939  1.00  0.00     0.261 C 
BRANCH  41  42
ATOM     42  O   UNL A   1      37.892  32.373  32.572  1.00  0.00    -0.460 OA
BRANCH  42  43
ATOM     43  C   UNL A   1      37.467  31.223  31.996  1.00  0.00     0.338 C 
ATOM     44  O   UNL A   1      36.325  30.815  31.926  1.00  0.00    -0.246 OA
BRANCH  43  45
ATOM     45  C   UNL A   1      38.607  30.648  31.252  1.00  0.00     0.060 A 
ATOM     46  C   UNL A   1      39.640  30.038  31.974  1.00  0.00     0.016 A 
ATOM     47  C   UNL A   1      38.663  30.719  29.861  1.00  0.00     0.016 A 
ATOM     48  C   UNL A   1      40.746  29.512  31.314  1.00  0.00     0.010 A 
ATOM     49  C   UNL A   1      39.784  30.210  29.199  1.00  0.00     0.010 A 
ATOM     50  C   UNL A   1      40.843  29.627  29.923  1.00  0.00    -0.014 A 
BRANCH  50  51
ATOM     51  C   UNL A   1      42.125  29.316  29.247  1.00  0.00     0.031 A 
ATOM     52  C   UNL A   1      42.318  27.932  28.688  1.00  0.00     0.074 A 
ATOM     53  C   UNL A   1      43.087  30.245  29.097  1.00  0.00     0.049 A 
ATOM     54  N   UNL A   1      43.384  27.386  28.168  1.00  0.00    -0.248 NA
ATOM     55  C   UNL A   1      41.142  27.045  28.724  1.00  0.00     0.031 C 
ATOM     56  C   UNL A   1      42.990  31.641  29.519  1.00  0.00     0.029 A 
ATOM     57  N   UNL A   1      44.341  30.146  28.548  1.00  0.00    -0.354 N 
ATOM     58  C   UNL A   1      43.020  26.086  27.839  1.00  0.00     0.074 A 
ATOM     59  C   UNL A   1      41.637  25.920  28.231  1.00  0.00     0.031 C 
ATOM     60  C   UNL A   1      44.144  32.266  29.223  1.00  0.00     0.029 A 
ATOM     61  C   UNL A   1      45.075  31.305  28.636  1.00  0.00     0.049 A 
ATOM     62  H   UNL A   1      44.683  29.322  28.131  1.00  0.00     0.167 HD
ATOM     63  C   UNL A   1      43.770  25.118  27.262  1.00  0.00     0.037 A 
ATOM     64  C   UNL A   1      46.361  31.548  28.313  1.00  0.00     0.037 A 
ATOM     65  C   UNL A   1      45.139  25.294  26.860  1.00  0.00     0.049 A 
ATOM     66  C   UNL A   1      47.203  30.434  27.743  1.00  0.00     0.074 A 
ATOM     67  C   UNL A   1      45.990  24.373  26.274  1.00  0.00     0.029 A 
ATOM     68  N   UNL A   1      45.860  26.471  27.001  1.00  0.00    -0.354 N 
ATOM     69  N   UNL A   1      46.859  29.197  27.469  1.00  0.00    -0.248 NA
ATOM     70  C   UNL A   1      48.608  30.744  27.447  1.00  0.00     0.031 C 
ATOM     71  C   UNL A   1      47.237  24.983  26.097  1.00  0.00     0.029 A 
ATOM     72  C   UNL A   1      47.149  26.297  26.527  1.00  0.00     0.049 A 
ATOM     73  H   UNL A   1      45.506  27.308  27.381  1.00  0.00     0.167 HD
ATOM     74  C   UNL A   1      47.998  28.592  26.944  1.00  0.00     0.074 A 
ATOM     75  C   UNL A   1      49.037  29.600  26.932  1.00  0.00     0.031 C 
ATOM     76  C   UNL A   1      48.168  27.317  26.511  1.00  0.00     0.037 A 
BRANCH  63  77
ATOM     77  C   UNL A   1      43.130  23.772  27.072  1.00  0.00     0.058 A 
ATOM     78  C   UNL A   1      42.661  23.343  25.821  1.00  0.00     0.135 A 
ATOM     79  C   UNL A   1      42.993  22.895  28.160  1.00  0.00     0.135 A 
ATOM     80  F   UNL A   1      42.746  24.151  24.752  1.00  0.00    -0.206 F 
ATOM     81  C   UNL A   1      42.050  22.103  25.661  1.00  0.00     0.059 A 
ATOM     82  C   UNL A   1      42.409  21.640  28.019  1.00  0.00     0.059 A 
ATOM     83  F   UNL A   1      43.420  23.259  29.380  1.00  0.00    -0.206 F 
ATOM     84  C   UNL A   1      41.926  21.259  26.767  1.00  0.00     0.060 A 
BRANCH  84  85
ATOM     85  S   UNL A   1      41.127  19.657  26.548  1.00  0.00     0.124 S 
ATOM     86  O   UNL A   1      42.096  18.960  25.707  1.00  0.00    -0.237 OA
ATOM     87  O   UNL A   1      41.014  19.172  27.920  1.00  0.00    -0.237 OA
ATOM     88  O   UNL A   1      39.863  19.993  25.900  1.00  0.00    -0.744 OA
ENDBRANCH  84  85
ENDBRANCH  63  77
BRANCH  64  89
ATOM     89  C   UNL A   1      46.950  32.894  28.551  1.00  0.00     0.058 A 
ATOM     90  C   UNL A   1      46.924  33.884  27.557  1.00  0.00     0.135 A 
ATOM     91  C   UNL A   1      47.560  33.215  29.774  1.00  0.00     0.135 A 
ATOM     92  F   UNL A   1      46.367  33.621  26.364  1.00  0.00    -0.206 F 
ATOM     93  C   UNL A   1      47.492  35.138  27.760  1.00  0.00     0.059 A 
ATOM     94  C   UNL A   1      48.111  34.470  30.011  1.00  0.00     0.059 A 
ATOM     95  F   UNL A   1      47.609  32.306  30.759  1.00  0.00    -0.206 F 
ATOM     96  C   UNL A   1      48.082  35.422  28.993  1.00  0.00     0.060 A 
BRANCH  96  97
ATOM     97  S   UNL A   1      48.777  37.068  29.264  1.00  0.00     0.124 S 
ATOM     98  O   UNL A   1      48.446  37.298  30.665  1.00  0.00    -0.237 OA
ATOM     99  O   UNL A   1      50.190  36.857  28.967  1.00  0.00    -0.237 OA
ATOM    100  O   UNL A   1      48.057  37.897  28.301  1.00  0.00    -0.744 OA
ENDBRANCH  96  97
ENDBRANCH  64  89
BRANCH  76 101
ATOM    101  C   UNL A   1      49.512  26.948  25.947  1.00  0.00     0.058 A 
ATOM    102  C   UNL A   1      49.831  27.155  24.596  1.00  0.00     0.135 A 
ATOM    103  C   UNL A   1      50.516  26.435  26.786  1.00  0.00     0.135 A 
ATOM    104  F   UNL A   1      48.907  27.641  23.752  1.00  0.00    -0.206 F 
ATOM    105  C   UNL A   1      51.090  26.846  24.091  1.00  0.00     0.059 A 
ATOM    106  C   UNL A   1      51.789  26.141  26.308  1.00  0.00     0.059 A 
ATOM    107  F   UNL A   1      50.268  26.228  28.090  1.00  0.00    -0.206 F 
ATOM    108  C   UNL A   1      52.063  26.340  24.955  1.00  0.00     0.060 A 
BRANCH 108 109
ATOM    109  S   UNL A   1      53.703  25.972  24.296  1.00  0.00     0.124 S 
ATOM    110  O   UNL A   1      54.514  27.003  24.934  1.00  0.00    -0.237 OA
ATOM    111  O   UNL A   1      53.929  24.607  24.760  1.00  0.00    -0.237 OA
ATOM    112  O   UNL A   1      53.528  26.115  22.853  1.00  0.00    -0.744 OA
ENDBRANCH 108 109
ENDBRANCH  76 101
ENDBRANCH  50  51
ENDBRANCH  43  45
ENDBRANCH  42  43
ENDBRANCH  41  42
ENDBRANCH  40  41
ENDBRANCH  39  40
ENDBRANCH  38  39
ENDBRANCH  37  38
ENDBRANCH   1  37
TORSDOF 33
ENDMDL
MODEL 3
REMARK VINA RESULT:      -5.8      4.316      8.704
REMARK SMILES CCCC[C@@H](Sc1nc(OCCC2CCCCC2)cc(OCCC2CCCCC2)n1)C(=O)OCCOCCOCCOC(=O)c1ccc(-c2c3nc(c(-c4c(F)cc(S(=O)(=O)[O-])cc4F)c4ccc([nH]4)c(-c4c(F)cc(S(=O)(=O)[O-])cc4F)c4nc(c(-c5c(F)cc(S(=O)(=O)[O-])cc5F)c5ccc2[nH]5)C=C4)C=C3)cc1
REMARK SMILES IDX 36 1 35 2 34 3 33 4 31 5 32 6 5 7 4 8 3 9 2 10 1 11 6 12
REMARK SMILES IDX 7 13 8 14 30 15 9 16 20 17 19 18 10 19 11 20 12 21 13 22
REMARK SMILES IDX 14 23 18 24 15 25 17 26 16 27 21 28 22 29 23 30 24 31 25 32
REMARK SMILES IDX 29 33 26 34 28 35 27 36 37 37 38 38 39 39 40 40 41 41 42 42
REMARK SMILES IDX 43 43 44 44 45 45 46 46 110 47 47 48 109 49 48 50 49 51
REMARK SMILES IDX 50 52 103 53 51 54 108 55 102 56 104 57 52 58 107 59 101 60
REMARK SMILES IDX 100 61 53 63 87 64 66 65 86 66 67 67 70 68 85 69 105 70
REMARK SMILES IDX 68 71 69 72 84 74 106 75 71 76 54 77 55 78 64 79 56 80 57 81
REMARK SMILES IDX 63 82 65 83 58 84 59 85 60 86 61 87 62 88 88 89 89 90 98 91
REMARK SMILES IDX 90 92 91 93 97 94 99 95 92 96 93 97 94 98 95 99 96 100
REMARK SMILES IDX 72 101 73 102 82 103 74 104 75 105 81 106 83 107 76 108
REMARK SMILES IDX 77 109 78 110 79 111 80 112
REMARK H PARENT 104 62 70 73
REMARK Flexibility Score: inf
ROOT
ATOM      1  O   UNL A   1      38.262  32.358  39.253  1.00  0.00    -0.376 OA
ENDROOT
BRANCH   1   2
ATOM      2  C   UNL A   1      37.298  32.280  40.299  1.00  0.00     0.202 C 
BRANCH   2   3
ATOM      3  C   UNL A   1      37.108  30.929  41.002  1.00  0.00     0.261 C 
BRANCH   3   4
ATOM      4  O   UNL A   1      37.918  30.749  42.191  1.00  0.00    -0.462 OA
BRANCH   4   5
ATOM      5  C   UNL A   1      37.262  30.625  43.381  1.00  0.00     0.319 C 
ATOM      6  O   UNL A   1      37.397  29.656  44.125  1.00  0.00    -0.251 OA
BRANCH   5   7
ATOM      7  C   UNL A   1      36.287  31.787  43.706  1.00  0.00     0.164 C 
BRANCH   7   8
ATOM      8  C   UNL A   1      34.789  31.425  43.774  1.00  0.00     0.027 C 
BRANCH   8   9
ATOM      9  C   UNL A   1      33.786  32.549  44.144  1.00  0.00     0.001 C 
BRANCH   9  10
ATOM     10  C   UNL A   1      33.803  33.853  43.341  1.00  0.00    -0.003 C 
ATOM     11  C   UNL A   1      33.732  33.583  41.842  1.00  0.00     0.004 C 
ENDBRANCH   9  10
ENDBRANCH   8   9
ENDBRANCH   7   8
BRANCH   7  12
ATOM     12  S   UNL A   1      36.887  32.505  45.300  1.00  0.00    -0.071 SA
BRANCH  12  13
ATOM     13  C   UNL A   1      38.629  32.725  45.034  1.00  0.00     0.195 A 
ATOM     14  N   UNL A   1      39.424  32.137  45.950  1.00  0.00    -0.187 NA
ATOM     15  N   UNL A   1      39.118  33.373  43.965  1.00  0.00    -0.187 NA
ATOM     16  C   UNL A   1      40.738  32.364  45.852  1.00  0.00     0.221 A 
ATOM     17  C   UNL A   1      40.410  33.716  44.084  1.00  0.00     0.221 A 
ATOM     18  C   UNL A   1      41.109  33.552  45.266  1.00  0.00     0.136 A 
BRANCH  16  19
ATOM     19  O   UNL A   1      41.780  31.230  45.801  1.00  0.00    -0.477 OA
BRANCH  19  20
ATOM     20  C   UNL A   1      42.962  29.982  44.935  1.00  0.00     0.231 C 
BRANCH  20  21
ATOM     21  C   UNL A   1      43.319  29.372  43.376  1.00  0.00     0.045 C 
BRANCH  21  22
ATOM     22  C   UNL A   1      44.768  28.965  42.927  1.00  0.00    -0.008 C 
ATOM     23  C   UNL A   1      45.754  28.459  43.997  1.00  0.00     0.004 C 
ATOM     24  C   UNL A   1      44.819  27.881  41.811  1.00  0.00     0.004 C 
ATOM     25  C   UNL A   1      47.179  28.453  43.385  1.00  0.00     0.000 C 
ATOM     26  C   UNL A   1      46.165  27.939  41.097  1.00  0.00     0.000 C 
ATOM     27  C   UNL A   1      47.301  27.670  42.069  1.00  0.00     0.000 C 
ENDBRANCH  21  22
ENDBRANCH  20  21
ENDBRANCH  19  20
ENDBRANCH  16  19
BRANCH  17  28
ATOM     28  O   UNL A   1      41.161  33.998  42.931  1.00  0.00    -0.477 OA
BRANCH  28  29
ATOM     29  C   UNL A   1      40.763  33.281  41.699  1.00  0.00     0.231 C 
BRANCH  29  30
ATOM     30  C   UNL A   1      41.231  33.912  40.314  1.00  0.00     0.045 C 
BRANCH  30  31
ATOM     31  C   UNL A   1      41.023  35.417  40.383  1.00  0.00    -0.008 C 
ATOM     32  C   UNL A   1      39.254  35.880  39.760  1.00  0.00     0.004 C 
ATOM     33  C   UNL A   1      42.114  36.770  41.174  1.00  0.00     0.004 C 
ATOM     34  C   UNL A   1      38.637  37.736  39.836  1.00  0.00     0.000 C 
ATOM     35  C   UNL A   1      41.607  38.597  41.020  1.00  0.00     0.000 C 
ATOM     36  C   UNL A   1      39.852  39.080  40.437  1.00  0.00     0.000 C 
ENDBRANCH  30  31
ENDBRANCH  29  30
ENDBRANCH  28  29
ENDBRANCH  17  28
ENDBRANCH  12  13
ENDBRANCH   7  12
ENDBRANCH   5   7
ENDBRANCH   4   5
ENDBRANCH   3   4
ENDBRANCH   2   3
ENDBRANCH   1   2
BRANCH   1  37
ATOM     37  C   UNL A   1      37.845  32.101  37.919  1.00  0.00     0.188 C 
BRANCH  37  38
ATOM     38  C   UNL A   1      36.832  33.054  37.279  1.00  0.00     0.188 C 
BRANCH  38  39
ATOM     39  O   UNL A   1      37.032  33.311  35.901  1.00  0.00    -0.376 OA
BRANCH  39  40
ATOM     40  C   UNL A   1      38.361  33.656  35.527  1.00  0.00     0.202 C 
BRANCH  40  41
ATOM     41  C   UNL A   1      38.942  32.763  34.421  1.00  0.00     0.261 C 
BRANCH  41  42
ATOM     42  O   UNL A   1      38.437  33.042  33.101  1.00  0.00    -0.460 OA
BRANCH  42  43
ATOM     43  C   UNL A   1      37.895  31.995  32.433  1.00  0.00     0.338 C 
ATOM     44  O   UNL A   1      36.714  31.764  32.268  1.00  0.00    -0.246 OA
BRANCH  43  45
ATOM     45  C   UNL A   1      38.990  31.295  31.732  1.00  0.00     0.060 A 
ATOM     46  C   UNL A   1      39.712  30.316  32.426  1.00  0.00     0.016 A 
ATOM     47  C   UNL A   1      39.310  31.607  30.413  1.00  0.00     0.016 A 
ATOM     48  C   UNL A   1      40.772  29.655  31.812  1.00  0.00     0.010 A 
ATOM     49  C   UNL A   1      40.388  30.958  29.803  1.00  0.00     0.010 A 
ATOM     50  C   UNL A   1      41.141  29.998  30.507  1.00  0.00    -0.014 A 
BRANCH  50  51
ATOM     51  C   UNL A   1      42.420  29.498  29.949  1.00  0.00     0.031 A 
ATOM     52  C   UNL A   1      43.604  30.425  29.943  1.00  0.00     0.074 A 
ATOM     53  C   UNL A   1      42.545  28.239  29.490  1.00  0.00     0.049 A 
ATOM     54  N   UNL A   1      44.783  30.265  29.405  1.00  0.00    -0.248 NA
ATOM     55  C   UNL A   1      43.430  31.710  30.641  1.00  0.00     0.031 C 
ATOM     56  C   UNL A   1      41.498  27.218  29.517  1.00  0.00     0.029 A 
ATOM     57  N   UNL A   1      43.615  27.608  28.906  1.00  0.00    -0.354 N 
ATOM     58  C   UNL A   1      45.483  31.436  29.673  1.00  0.00     0.074 A 
ATOM     59  C   UNL A   1      44.591  32.303  30.411  1.00  0.00     0.031 C 
ATOM     60  C   UNL A   1      41.976  26.090  28.961  1.00  0.00     0.029 A 
ATOM     61  C   UNL A   1      43.342  26.324  28.497  1.00  0.00     0.049 A 
ATOM     62  H   UNL A   1      44.494  28.035  28.789  1.00  0.00     0.167 HD
ATOM     63  C   UNL A   1      46.753  31.758  29.335  1.00  0.00     0.037 A 
ATOM     64  C   UNL A   1      44.097  25.453  27.798  1.00  0.00     0.037 A 
ATOM     65  C   UNL A   1      47.641  30.885  28.615  1.00  0.00     0.049 A 
ATOM     66  C   UNL A   1      45.483  25.861  27.364  1.00  0.00     0.074 A 
ATOM     67  C   UNL A   1      48.945  31.120  28.217  1.00  0.00     0.029 A 
ATOM     68  N   UNL A   1      47.315  29.607  28.186  1.00  0.00    -0.354 N 
ATOM     69  N   UNL A   1      46.123  26.985  27.592  1.00  0.00    -0.248 NA
ATOM     70  C   UNL A   1      46.247  24.888  26.570  1.00  0.00     0.031 C 
ATOM     71  C   UNL A   1      49.394  29.997  27.512  1.00  0.00     0.029 A 
ATOM     72  C   UNL A   1      48.387  29.046  27.513  1.00  0.00     0.049 A 
ATOM     73  H   UNL A   1      46.449  29.163  28.337  1.00  0.00     0.167 HD
ATOM     74  C   UNL A   1      47.372  26.841  26.993  1.00  0.00     0.074 A 
ATOM     75  C   UNL A   1      47.400  25.521  26.400  1.00  0.00     0.031 C 
ATOM     76  C   UNL A   1      48.402  27.723  26.939  1.00  0.00     0.037 A 
BRANCH  63  77
ATOM     77  C   UNL A   1      47.239  33.130  29.709  1.00  0.00     0.058 A 
ATOM     78  C   UNL A   1      47.865  33.386  30.939  1.00  0.00     0.135 A 
ATOM     79  C   UNL A   1      47.081  34.202  28.817  1.00  0.00     0.135 A 
ATOM     80  F   UNL A   1      48.019  32.401  31.839  1.00  0.00    -0.206 F 
ATOM     81  C   UNL A   1      48.291  34.665  31.284  1.00  0.00     0.059 A 
ATOM     82  C   UNL A   1      47.523  35.484  29.130  1.00  0.00     0.059 A 
ATOM     83  F   UNL A   1      46.484  34.012  27.630  1.00  0.00    -0.206 F 
ATOM     84  C   UNL A   1      48.113  35.709  30.374  1.00  0.00     0.060 A 
BRANCH  84  85
ATOM     85  S   UNL A   1      48.664  37.363  30.836  1.00  0.00     0.124 S 
ATOM     86  O   UNL A   1      50.115  37.221  30.754  1.00  0.00    -0.237 OA
ATOM     87  O   UNL A   1      48.051  38.197  29.807  1.00  0.00    -0.237 OA
ATOM     88  O   UNL A   1      48.127  37.538  32.182  1.00  0.00    -0.744 OA
ENDBRANCH  84  85
ENDBRANCH  63  77
BRANCH  64  89
ATOM     89  C   UNL A   1      43.552  24.118  27.431  1.00  0.00     0.058 A 
ATOM     90  C   UNL A   1      43.084  23.856  26.135  1.00  0.00     0.135 A 
ATOM     91  C   UNL A   1      43.477  23.080  28.372  1.00  0.00     0.135 A 
ATOM     92  F   UNL A   1      43.118  24.821  25.201  1.00  0.00    -0.206 F 
ATOM     93  C   UNL A   1      42.550  22.619  25.787  1.00  0.00     0.059 A 
ATOM     94  C   UNL A   1      42.973  21.826  28.042  1.00  0.00     0.059 A 
ATOM     95  F   UNL A   1      43.914  23.276  29.626  1.00  0.00    -0.206 F 
ATOM     96  C   UNL A   1      42.501  21.609  26.749  1.00  0.00     0.060 A 
BRANCH  96  97
ATOM     97  S   UNL A   1      41.849  19.991  26.276  1.00  0.00     0.124 S 
ATOM     98  O   UNL A   1      42.155  19.195  27.459  1.00  0.00    -0.237 OA
ATOM     99  O   UNL A   1      40.437  20.283  26.052  1.00  0.00    -0.237 OA
ATOM    100  O   UNL A   1      42.613  19.660  25.078  1.00  0.00    -0.744 OA
ENDBRANCH  96  97
ENDBRANCH  64  89
BRANCH  76 101
ATOM    101  C   UNL A   1      49.663  27.276  26.253  1.00  0.00     0.058 A 
ATOM    102  C   UNL A   1      50.755  26.764  26.971  1.00  0.00     0.135 A 
ATOM    103  C   UNL A   1      49.756  27.308  24.851  1.00  0.00     0.135 A 
ATOM    104  F   UNL A   1      50.719  26.715  28.311  1.00  0.00    -0.206 F 
ATOM    105  C   UNL A   1      51.904  26.318  26.325  1.00  0.00     0.059 A 
ATOM    106  C   UNL A   1      50.885  26.844  24.183  1.00  0.00     0.059 A 
ATOM    107  F   UNL A   1      48.736  27.777  24.116  1.00  0.00    -0.206 F 
ATOM    108  C   UNL A   1      51.960  26.362  24.930  1.00  0.00     0.060 A 
BRANCH 108 109
ATOM    109  S   UNL A   1      53.442  25.751  24.101  1.00  0.00     0.124 S 
ATOM    110  O   UNL A   1      54.449  26.700  24.562  1.00  0.00    -0.237 OA
ATOM    111  O   UNL A   1      53.560  24.394  24.627  1.00  0.00    -0.237 OA
ATOM    112  O   UNL A   1      53.100  25.838  22.684  1.00  0.00    -0.744 OA
ENDBRANCH 108 109
ENDBRANCH  76 101
ENDBRANCH  50  51
ENDBRANCH  43  45
ENDBRANCH  42  43
ENDBRANCH  41  42
ENDBRANCH  40  41
ENDBRANCH  39  40
ENDBRANCH  38  39
ENDBRANCH  37  38
ENDBRANCH   1  37
TORSDOF 33
ENDMDL
