MODEL 1
REMARK VINA RESULT:      -9.7      0.000      0.000
REMARK SMILES C[NH2+][C@@]1(C(=O)OCCOCCOCCOC(=O)c2ccc(-c3c4nc(c(-c5c(F)cc(S(=O)(=O)[O-])cc5F)c5ccc([nH]5)c(-c5c(F)cc(S(=O)(=O)[O-])cc5F)c5nc(c(-c6c(F)cc(S(=O)(=O)[O-])cc6F)c6ccc3[nH]6)C=C5)C=C4)cc2)CC[C@H]([NH+]2CC[NH+](C)CC2)C1
REMARK SMILES IDX 11 1 10 2 9 3 8 4 7 5 6 6 4 7 5 8 3 9 84 10 94 11 85 12
REMARK SMILES IDX 86 13 2 14 1 15 87 18 88 19 93 20 89 22 92 23 90 24 91 25
REMARK SMILES IDX 12 27 13 28 14 29 15 30 16 31 17 32 18 33 19 34 83 35 20 36
REMARK SMILES IDX 82 37 21 38 22 39 23 40 76 41 24 42 81 43 75 44 77 45 25 46
REMARK SMILES IDX 80 47 74 48 73 49 26 51 60 52 39 53 59 54 40 55 43 56 58 57
REMARK SMILES IDX 78 58 41 59 42 60 57 62 79 63 44 64 27 65 28 66 37 67 29 68
REMARK SMILES IDX 30 69 36 70 38 71 31 72 32 73 33 74 34 75 35 76 61 77 62 78
REMARK SMILES IDX 71 79 63 80 64 81 70 82 72 83 65 84 66 85 67 86 68 87 69 88
REMARK SMILES IDX 45 89 46 90 55 91 47 92 48 93 54 94 56 95 49 96 50 97 51 98
REMARK SMILES IDX 52 99 53 100
REMARK H PARENT 2 16 2 17 87 21 90 26 77 50 43 61
REMARK Flexibility Score: inf
ROOT
ATOM      1  C   UNL A   1      40.424  21.109  25.870  1.00  0.00     0.188 C 
ENDROOT
BRANCH   1   2
ATOM      2  C   UNL A   1      39.278  22.021  26.325  1.00  0.00     0.188 C 
BRANCH   2   3
ATOM      3  O   UNL A   1      38.149  22.144  25.480  1.00  0.00    -0.376 OA
BRANCH   3   4
ATOM      4  C   UNL A   1      37.514  23.417  25.427  1.00  0.00     0.202 C 
BRANCH   4   5
ATOM      5  C   UNL A   1      36.067  23.526  25.925  1.00  0.00     0.261 C 
BRANCH   5   6
ATOM      6  O   UNL A   1      35.369  22.253  25.919  1.00  0.00    -0.459 OA
BRANCH   6   7
ATOM      7  C   UNL A   1      34.194  22.234  25.242  1.00  0.00     0.368 C 
ATOM      8  O   UNL A   1      34.121  22.518  24.047  1.00  0.00    -0.245 OA
BRANCH   7   9
ATOM      9  C   UNL A   1      32.937  21.718  26.045  1.00  0.00     0.200 C 
ATOM     10  C   UNL A   1      31.790  21.568  25.024  1.00  0.00     0.087 C 
ATOM     11  C   UNL A   1      32.250  22.616  27.096  1.00  0.00     0.146 C 
ATOM     12  C   UNL A   1      31.117  22.938  24.964  1.00  0.00     0.072 C 
ATOM     13  C   UNL A   1      31.240  23.531  26.371  1.00  0.00     0.191 C 
BRANCH   9  14
ATOM     14  N   UNL A   1      33.274  20.338  26.498  1.00  0.00    -0.334 N 
ATOM     15  C   UNL A   1      33.138  19.255  25.546  1.00  0.00     0.331 C 
ATOM     16  H   UNL A   1      34.247  20.349  26.806  1.00  0.00     0.347 HD
ATOM     17  H   UNL A   1      32.583  20.131  27.218  1.00  0.00     0.347 HD
ENDBRANCH   9  14
BRANCH  13  18
ATOM     18  N   UNL A   1      31.432  24.974  26.581  1.00  0.00    -0.323 N 
ATOM     19  C   UNL A   1      30.337  25.839  26.125  1.00  0.00     0.324 C 
ATOM     20  C   UNL A   1      32.693  25.574  26.135  1.00  0.00     0.324 C 
ATOM     21  H   UNL A   1      31.454  24.952  27.601  1.00  0.00     0.348 HD
ATOM     22  C   UNL A   1      30.361  26.192  24.616  1.00  0.00     0.324 C 
ATOM     23  C   UNL A   1      32.788  25.817  24.621  1.00  0.00     0.324 C 
ATOM     24  N   UNL A   1      31.672  26.606  24.075  1.00  0.00    -0.328 N 
ATOM     25  C   UNL A   1      31.672  26.514  22.614  1.00  0.00     0.333 C 
ATOM     26  H   UNL A   1      31.814  27.575  24.362  1.00  0.00     0.348 HD
ENDBRANCH  13  18
ENDBRANCH   7   9
ENDBRANCH   6   7
ENDBRANCH   5   6
ENDBRANCH   4   5
ENDBRANCH   3   4
ENDBRANCH   2   3
ENDBRANCH   1   2
BRANCH   1  27
ATOM     27  O   UNL A   1      41.500  20.788  26.716  1.00  0.00    -0.376 OA
BRANCH  27  28
ATOM     28  C   UNL A   1      42.840  20.881  26.269  1.00  0.00     0.202 C 
BRANCH  28  29
ATOM     29  C   UNL A   1      43.681  22.171  26.286  1.00  0.00     0.261 C 
BRANCH  29  30
ATOM     30  O   UNL A   1      43.166  23.265  27.048  1.00  0.00    -0.460 OA
BRANCH  30  31
ATOM     31  C   UNL A   1      42.793  24.348  26.315  1.00  0.00     0.338 C 
ATOM     32  O   UNL A   1      42.633  24.402  25.104  1.00  0.00    -0.246 OA
BRANCH  31  33
ATOM     33  C   UNL A   1      42.331  25.398  27.244  1.00  0.00     0.060 A 
ATOM     34  C   UNL A   1      43.012  26.627  27.252  1.00  0.00     0.016 A 
ATOM     35  C   UNL A   1      41.228  25.190  28.070  1.00  0.00     0.016 A 
ATOM     36  C   UNL A   1      42.587  27.657  28.085  1.00  0.00     0.010 A 
ATOM     37  C   UNL A   1      40.833  26.209  28.939  1.00  0.00     0.010 A 
ATOM     38  C   UNL A   1      41.523  27.437  28.965  1.00  0.00    -0.014 A 
BRANCH  38  39
ATOM     39  C   UNL A   1      41.291  28.384  30.079  1.00  0.00     0.031 A 
ATOM     40  C   UNL A   1      42.158  28.246  31.299  1.00  0.00     0.074 A 
ATOM     41  C   UNL A   1      40.357  29.349  30.010  1.00  0.00     0.049 A 
ATOM     42  N   UNL A   1      42.078  28.860  32.450  1.00  0.00    -0.248 NA
ATOM     43  C   UNL A   1      43.266  27.280  31.206  1.00  0.00     0.031 C 
ATOM     44  C   UNL A   1      39.514  29.634  28.850  1.00  0.00     0.029 A 
ATOM     45  N   UNL A   1      39.957  30.265  30.951  1.00  0.00    -0.354 N 
ATOM     46  C   UNL A   1      43.109  28.340  33.222  1.00  0.00     0.074 A 
ATOM     47  C   UNL A   1      43.790  27.350  32.419  1.00  0.00     0.031 C 
ATOM     48  C   UNL A   1      38.679  30.642  29.158  1.00  0.00     0.029 A 
ATOM     49  C   UNL A   1      38.896  31.041  30.549  1.00  0.00     0.049 A 
ATOM     50  H   UNL A   1      40.389  30.357  31.831  1.00  0.00     0.167 HD
ATOM     51  C   UNL A   1      43.456  28.661  34.491  1.00  0.00     0.037 A 
ATOM     52  C   UNL A   1      38.164  31.939  31.240  1.00  0.00     0.037 A 
ATOM     53  C   UNL A   1      42.769  29.645  35.283  1.00  0.00     0.049 A 
ATOM     54  C   UNL A   1      38.509  32.213  32.686  1.00  0.00     0.074 A 
ATOM     55  C   UNL A   1      43.034  30.039  36.582  1.00  0.00     0.029 A 
ATOM     56  N   UNL A   1      41.677  30.384  34.855  1.00  0.00    -0.354 N 
ATOM     57  N   UNL A   1      39.476  31.707  33.415  1.00  0.00    -0.248 NA
ATOM     58  C   UNL A   1      37.660  33.175  33.402  1.00  0.00     0.031 C 
ATOM     59  C   UNL A   1      42.067  30.976  36.958  1.00  0.00     0.029 A 
ATOM     60  C   UNL A   1      41.240  31.216  35.872  1.00  0.00     0.049 A 
ATOM     61  H   UNL A   1      41.272  30.327  33.959  1.00  0.00     0.167 HD
ATOM     62  C   UNL A   1      39.371  32.314  34.664  1.00  0.00     0.074 A 
ATOM     63  C   UNL A   1      38.252  33.230  34.588  1.00  0.00     0.031 C 
ATOM     64  C   UNL A   1      40.131  32.133  35.773  1.00  0.00     0.037 A 
BRANCH  51  65
ATOM     65  C   UNL A   1      44.598  27.903  35.109  1.00  0.00     0.058 A 
ATOM     66  C   UNL A   1      44.412  26.666  35.746  1.00  0.00     0.135 A 
ATOM     67  C   UNL A   1      45.902  28.421  35.051  1.00  0.00     0.135 A 
ATOM     68  F   UNL A   1      43.183  26.137  35.853  1.00  0.00    -0.206 F 
ATOM     69  C   UNL A   1      45.475  25.981  36.326  1.00  0.00     0.059 A 
ATOM     70  C   UNL A   1      46.984  27.739  35.596  1.00  0.00     0.059 A 
ATOM     71  F   UNL A   1      46.134  29.604  34.462  1.00  0.00    -0.206 F 
ATOM     72  C   UNL A   1      46.758  26.525  36.245  1.00  0.00     0.060 A 
BRANCH  72  73
ATOM     73  S   UNL A   1      48.127  25.623  36.999  1.00  0.00     0.124 S 
ATOM     74  O   UNL A   1      49.001  25.406  35.848  1.00  0.00    -0.237 OA
ATOM     75  O   UNL A   1      48.615  26.573  37.993  1.00  0.00    -0.237 OA
ATOM     76  O   UNL A   1      47.492  24.426  37.538  1.00  0.00    -0.744 OA
ENDBRANCH  72  73
ENDBRANCH  51  65
BRANCH  52  77
ATOM     77  C   UNL A   1      37.008  32.623  30.595  1.00  0.00     0.058 A 
ATOM     78  C   UNL A   1      35.693  32.183  30.802  1.00  0.00     0.135 A 
ATOM     79  C   UNL A   1      37.199  33.720  29.740  1.00  0.00     0.135 A 
ATOM     80  F   UNL A   1      35.456  31.127  31.596  1.00  0.00    -0.206 F 
ATOM     81  C   UNL A   1      34.610  32.793  30.175  1.00  0.00     0.059 A 
ATOM     82  C   UNL A   1      36.130  34.366  29.125  1.00  0.00     0.059 A 
ATOM     83  F   UNL A   1      38.437  34.185  29.506  1.00  0.00    -0.206 F 
ATOM     84  C   UNL A   1      34.839  33.889  29.341  1.00  0.00     0.060 A 
BRANCH  84  85
ATOM     85  S   UNL A   1      33.424  34.700  28.567  1.00  0.00     0.124 S 
ATOM     86  O   UNL A   1      34.045  35.877  27.972  1.00  0.00    -0.237 OA
ATOM     87  O   UNL A   1      32.963  33.678  27.630  1.00  0.00    -0.237 OA
ATOM     88  O   UNL A   1      32.528  34.958  29.690  1.00  0.00    -0.744 OA
ENDBRANCH  84  85
ENDBRANCH  52  77
BRANCH  64  89
ATOM     89  C   UNL A   1      39.819  32.975  36.984  1.00  0.00     0.058 A 
ATOM     90  C   UNL A   1      38.814  32.622  37.896  1.00  0.00     0.135 A 
ATOM     91  C   UNL A   1      40.589  34.116  37.267  1.00  0.00     0.135 A 
ATOM     92  F   UNL A   1      38.046  31.543  37.673  1.00  0.00    -0.206 F 
ATOM     93  C   UNL A   1      38.566  33.383  39.035  1.00  0.00     0.059 A 
ATOM     94  C   UNL A   1      40.381  34.873  38.416  1.00  0.00     0.059 A 
ATOM     95  F   UNL A   1      41.574  34.492  36.436  1.00  0.00    -0.206 F 
ATOM     96  C   UNL A   1      39.358  34.505  39.289  1.00  0.00     0.060 A 
BRANCH  96  97
ATOM     97  S   UNL A   1      39.051  35.461  40.789  1.00  0.00     0.124 S 
ATOM     98  O   UNL A   1      37.810  34.864  41.271  1.00  0.00    -0.237 OA
ATOM     99  O   UNL A   1      40.241  35.180  41.587  1.00  0.00    -0.237 OA
ATOM    100  O   UNL A   1      38.940  36.833  40.303  1.00  0.00    -0.744 OA
ENDBRANCH  96  97
ENDBRANCH  64  89
ENDBRANCH  38  39
ENDBRANCH  31  33
ENDBRANCH  30  31
ENDBRANCH  29  30
ENDBRANCH  28  29
ENDBRANCH  27  28
ENDBRANCH   1  27
TORSDOF 22
ENDMDL
MODEL 2
REMARK VINA RESULT:      -9.6      6.235     11.642
REMARK SMILES C[NH2+][C@@]1(C(=O)OCCOCCOCCOC(=O)c2ccc(-c3c4nc(c(-c5c(F)cc(S(=O)(=O)[O-])cc5F)c5ccc([nH]5)c(-c5c(F)cc(S(=O)(=O)[O-])cc5F)c5nc(c(-c6c(F)cc(S(=O)(=O)[O-])cc6F)c6ccc3[nH]6)C=C5)C=C4)cc2)CC[C@H]([NH+]2CC[NH+](C)CC2)C1
REMARK SMILES IDX 11 1 10 2 9 3 8 4 7 5 6 6 4 7 5 8 3 9 84 10 94 11 85 12
REMARK SMILES IDX 86 13 2 14 1 15 87 18 88 19 93 20 89 22 92 23 90 24 91 25
REMARK SMILES IDX 12 27 13 28 14 29 15 30 16 31 17 32 18 33 19 34 83 35 20 36
REMARK SMILES IDX 82 37 21 38 22 39 23 40 76 41 24 42 81 43 75 44 77 45 25 46
REMARK SMILES IDX 80 47 74 48 73 49 26 51 60 52 39 53 59 54 40 55 43 56 58 57
REMARK SMILES IDX 78 58 41 59 42 60 57 62 79 63 44 64 27 65 28 66 37 67 29 68
REMARK SMILES IDX 30 69 36 70 38 71 31 72 32 73 33 74 34 75 35 76 61 77 62 78
REMARK SMILES IDX 71 79 63 80 64 81 70 82 72 83 65 84 66 85 67 86 68 87 69 88
REMARK SMILES IDX 45 89 46 90 55 91 47 92 48 93 54 94 56 95 49 96 50 97 51 98
REMARK SMILES IDX 52 99 53 100
REMARK H PARENT 2 16 2 17 87 21 90 26 77 50 43 61
REMARK Flexibility Score: inf
ROOT
ATOM      1  C   UNL A   1      34.032  31.108  28.011  1.00  0.00     0.188 C 
ENDROOT
BRANCH   1   2
ATOM      2  C   UNL A   1      33.061  30.216  27.227  1.00  0.00     0.188 C 
BRANCH   2   3
ATOM      3  O   UNL A   1      33.411  29.852  25.905  1.00  0.00    -0.376 OA
BRANCH   3   4
ATOM      4  C   UNL A   1      33.725  28.482  25.672  1.00  0.00     0.202 C 
BRANCH   4   5
ATOM      5  C   UNL A   1      32.849  27.697  24.686  1.00  0.00     0.261 C 
BRANCH   5   6
ATOM      6  O   UNL A   1      32.578  26.341  25.125  1.00  0.00    -0.459 OA
BRANCH   6   7
ATOM      7  C   UNL A   1      31.476  26.186  25.900  1.00  0.00     0.368 C 
ATOM      8  O   UNL A   1      31.268  26.885  26.892  1.00  0.00    -0.245 OA
BRANCH   7   9
ATOM      9  C   UNL A   1      30.415  25.131  25.399  1.00  0.00     0.200 C 
ATOM     10  C   UNL A   1      30.044  24.261  26.619  1.00  0.00     0.087 C 
ATOM     11  C   UNL A   1      30.812  24.030  24.392  1.00  0.00     0.146 C 
ATOM     12  C   UNL A   1      31.071  23.131  26.640  1.00  0.00     0.072 C 
ATOM     13  C   UNL A   1      31.416  22.846  25.174  1.00  0.00     0.191 C 
BRANCH   9  14
ATOM     14  N   UNL A   1      29.190  25.909  25.055  1.00  0.00    -0.334 N 
ATOM     15  C   UNL A   1      29.181  26.655  23.813  1.00  0.00     0.331 C 
ATOM     16  H   UNL A   1      28.413  25.249  25.017  1.00  0.00     0.347 HD
ATOM     17  H   UNL A   1      29.130  26.623  25.780  1.00  0.00     0.347 HD
ENDBRANCH   9  14
BRANCH  13  18
ATOM     18  N   UNL A   1      32.773  22.448  24.769  1.00  0.00    -0.323 N 
ATOM     19  C   UNL A   1      32.874  21.726  23.495  1.00  0.00     0.324 C 
ATOM     20  C   UNL A   1      33.608  21.747  25.749  1.00  0.00     0.324 C 
ATOM     21  H   UNL A   1      33.155  23.388  24.665  1.00  0.00     0.348 HD
ATOM     22  C   UNL A   1      32.597  20.204  23.576  1.00  0.00     0.324 C 
ATOM     23  C   UNL A   1      33.267  20.262  25.938  1.00  0.00     0.324 C 
ATOM     24  N   UNL A   1      33.263  19.489  24.685  1.00  0.00    -0.328 N 
ATOM     25  C   UNL A   1      32.625  18.191  24.910  1.00  0.00     0.333 C 
ATOM     26  H   UNL A   1      34.234  19.355  24.406  1.00  0.00     0.348 HD
ENDBRANCH  13  18
ENDBRANCH   7   9
ENDBRANCH   6   7
ENDBRANCH   5   6
ENDBRANCH   4   5
ENDBRANCH   3   4
ENDBRANCH   2   3
ENDBRANCH   1   2
BRANCH   1  27
ATOM     27  O   UNL A   1      34.874  32.034  27.371  1.00  0.00    -0.376 OA
BRANCH  27  28
ATOM     28  C   UNL A   1      35.533  33.055  28.098  1.00  0.00     0.202 C 
BRANCH  28  29
ATOM     29  C   UNL A   1      36.978  32.964  28.621  1.00  0.00     0.261 C 
BRANCH  29  30
ATOM     30  O   UNL A   1      37.143  32.654  30.007  1.00  0.00    -0.460 OA
BRANCH  30  31
ATOM     31  C   UNL A   1      37.135  31.326  30.301  1.00  0.00     0.338 C 
ATOM     32  O   UNL A   1      36.180  30.654  30.663  1.00  0.00    -0.246 OA
BRANCH  31  33
ATOM     33  C   UNL A   1      38.412  30.745  29.844  1.00  0.00     0.060 A 
ATOM     34  C   UNL A   1      39.514  30.791  30.714  1.00  0.00     0.016 A 
ATOM     35  C   UNL A   1      38.517  30.136  28.595  1.00  0.00     0.016 A 
ATOM     36  C   UNL A   1      40.728  30.222  30.339  1.00  0.00     0.010 A 
ATOM     37  C   UNL A   1      39.748  29.607  28.202  1.00  0.00     0.010 A 
ATOM     38  C   UNL A   1      40.862  29.668  29.062  1.00  0.00    -0.014 A 
BRANCH  38  39
ATOM     39  C   UNL A   1      42.214  29.379  28.532  1.00  0.00     0.031 A 
ATOM     40  C   UNL A   1      42.501  27.969  28.095  1.00  0.00     0.074 A 
ATOM     41  C   UNL A   1      43.153  30.334  28.419  1.00  0.00     0.049 A 
ATOM     42  N   UNL A   1      43.628  27.430  27.716  1.00  0.00    -0.248 NA
ATOM     43  C   UNL A   1      41.356  27.042  28.090  1.00  0.00     0.031 C 
ATOM     44  C   UNL A   1      42.968  31.749  28.731  1.00  0.00     0.029 A 
ATOM     45  N   UNL A   1      44.464  30.245  28.019  1.00  0.00    -0.354 N 
ATOM     46  C   UNL A   1      43.333  26.099  27.447  1.00  0.00     0.074 A 
ATOM     47  C   UNL A   1      41.927  25.907  27.723  1.00  0.00     0.031 C 
ATOM     48  C   UNL A   1      44.131  32.394  28.531  1.00  0.00     0.029 A 
ATOM     49  C   UNL A   1      45.153  31.430  28.124  1.00  0.00     0.049 A 
ATOM     50  H   UNL A   1      44.871  29.412  27.687  1.00  0.00     0.167 HD
ATOM     51  C   UNL A   1      44.163  25.123  27.010  1.00  0.00     0.037 A 
ATOM     52  C   UNL A   1      46.465  31.691  27.948  1.00  0.00     0.037 A 
ATOM     53  C   UNL A   1      45.562  25.323  26.742  1.00  0.00     0.049 A 
ATOM     54  C   UNL A   1      47.393  30.566  27.552  1.00  0.00     0.074 A 
ATOM     55  C   UNL A   1      46.494  24.399  26.305  1.00  0.00     0.029 A 
ATOM     56  N   UNL A   1      46.233  26.528  26.895  1.00  0.00    -0.354 N 
ATOM     57  N   UNL A   1      47.110  29.306  27.314  1.00  0.00    -0.248 NA
ATOM     58  C   UNL A   1      48.817  30.897  27.405  1.00  0.00     0.031 C 
ATOM     59  C   UNL A   1      47.739  25.032  26.247  1.00  0.00     0.029 A 
ATOM     60  C   UNL A   1      47.572  26.367  26.584  1.00  0.00     0.049 A 
ATOM     61  H   UNL A   1      45.817  27.373  27.183  1.00  0.00     0.167 HD
ATOM     62  C   UNL A   1      48.315  28.704  26.958  1.00  0.00     0.074 A 
ATOM     63  C   UNL A   1      49.326  29.740  27.005  1.00  0.00     0.031 C 
ATOM     64  C   UNL A   1      48.563  27.414  26.622  1.00  0.00     0.037 A 
BRANCH  51  65
ATOM     65  C   UNL A   1      43.585  23.745  26.844  1.00  0.00     0.058 A 
ATOM     66  C   UNL A   1      43.197  23.246  25.591  1.00  0.00     0.135 A 
ATOM     67  C   UNL A   1      43.429  22.906  27.960  1.00  0.00     0.135 A 
ATOM     68  F   UNL A   1      43.300  24.015  24.495  1.00  0.00    -0.206 F 
ATOM     69  C   UNL A   1      42.651  21.974  25.453  1.00  0.00     0.059 A 
ATOM     70  C   UNL A   1      42.915  21.620  27.841  1.00  0.00     0.059 A 
ATOM     71  F   UNL A   1      43.776  23.336  29.182  1.00  0.00    -0.206 F 
ATOM     72  C   UNL A   1      42.515  21.168  26.584  1.00  0.00     0.060 A 
BRANCH  72  73
ATOM     73  S   UNL A   1      41.809  19.519  26.388  1.00  0.00     0.124 S 
ATOM     74  O   UNL A   1      40.388  19.825  26.244  1.00  0.00    -0.237 OA
ATOM     75  O   UNL A   1      42.478  19.036  25.184  1.00  0.00    -0.237 OA
ATOM     76  O   UNL A   1      42.181  18.839  27.624  1.00  0.00    -0.744 OA
ENDBRANCH  72  73
ENDBRANCH  51  65
BRANCH  52  77
ATOM     77  C   UNL A   1      46.995  33.064  28.179  1.00  0.00     0.058 A 
ATOM     78  C   UNL A   1      47.034  34.013  27.147  1.00  0.00     0.135 A 
ATOM     79  C   UNL A   1      47.494  33.449  29.434  1.00  0.00     0.135 A 
ATOM     80  F   UNL A   1      46.587  33.691  25.923  1.00  0.00    -0.206 F 
ATOM     81  C   UNL A   1      47.561  35.287  27.343  1.00  0.00     0.059 A 
ATOM     82  C   UNL A   1      47.998  34.726  29.663  1.00  0.00     0.059 A 
ATOM     83  F   UNL A   1      47.479  32.582  30.459  1.00  0.00    -0.206 F 
ATOM     84  C   UNL A   1      48.037  35.635  28.609  1.00  0.00     0.060 A 
BRANCH  84  85
ATOM     85  S   UNL A   1      48.679  37.304  28.864  1.00  0.00     0.124 S 
ATOM     86  O   UNL A   1      48.701  37.393  30.319  1.00  0.00    -0.237 OA
ATOM     87  O   UNL A   1      49.981  37.232  28.208  1.00  0.00    -0.237 OA
ATOM     88  O   UNL A   1      47.694  38.148  28.194  1.00  0.00    -0.744 OA
ENDBRANCH  84  85
ENDBRANCH  52  77
BRANCH  64  89
ATOM     89  C   UNL A   1      49.971  27.049  26.225  1.00  0.00     0.058 A 
ATOM     90  C   UNL A   1      50.907  26.577  27.157  1.00  0.00     0.135 A 
ATOM     91  C   UNL A   1      50.362  27.110  24.877  1.00  0.00     0.135 A 
ATOM     92  F   UNL A   1      50.588  26.501  28.459  1.00  0.00    -0.206 F 
ATOM     93  C   UNL A   1      52.191  26.200  26.771  1.00  0.00     0.059 A 
ATOM     94  C   UNL A   1      51.629  26.709  24.463  1.00  0.00     0.059 A 
ATOM     95  F   UNL A   1      49.502  27.541  23.941  1.00  0.00    -0.206 F 
ATOM     96  C   UNL A   1      52.540  26.265  25.420  1.00  0.00     0.060 A 
BRANCH  96  97
ATOM     97  S   UNL A   1      54.195  25.738  24.927  1.00  0.00     0.124 S 
ATOM     98  O   UNL A   1      54.100  24.289  25.076  1.00  0.00    -0.237 OA
ATOM     99  O   UNL A   1      54.283  26.229  23.555  1.00  0.00    -0.237 OA
ATOM    100  O   UNL A   1      55.067  26.410  25.884  1.00  0.00    -0.744 OA
ENDBRANCH  96  97
ENDBRANCH  64  89
ENDBRANCH  38  39
ENDBRANCH  31  33
ENDBRANCH  30  31
ENDBRANCH  29  30
ENDBRANCH  28  29
ENDBRANCH  27  28
ENDBRANCH   1  27
TORSDOF 22
ENDMDL
MODEL 3
REMARK VINA RESULT:      -9.6      1.365      8.283
REMARK SMILES C[NH2+][C@@]1(C(=O)OCCOCCOCCOC(=O)c2ccc(-c3c4nc(c(-c5c(F)cc(S(=O)(=O)[O-])cc5F)c5ccc([nH]5)c(-c5c(F)cc(S(=O)(=O)[O-])cc5F)c5nc(c(-c6c(F)cc(S(=O)(=O)[O-])cc6F)c6ccc3[nH]6)C=C5)C=C4)cc2)CC[C@H]([NH+]2CC[NH+](C)CC2)C1
REMARK SMILES IDX 11 1 10 2 9 3 8 4 7 5 6 6 4 7 5 8 3 9 84 10 94 11 85 12
REMARK SMILES IDX 86 13 2 14 1 15 87 18 88 19 93 20 89 22 92 23 90 24 91 25
REMARK SMILES IDX 12 27 13 28 14 29 15 30 16 31 17 32 18 33 19 34 83 35 20 36
REMARK SMILES IDX 82 37 21 38 22 39 23 40 76 41 24 42 81 43 75 44 77 45 25 46
REMARK SMILES IDX 80 47 74 48 73 49 26 51 60 52 39 53 59 54 40 55 43 56 58 57
REMARK SMILES IDX 78 58 41 59 42 60 57 62 79 63 44 64 27 65 28 66 37 67 29 68
REMARK SMILES IDX 30 69 36 70 38 71 31 72 32 73 33 74 34 75 35 76 61 77 62 78
REMARK SMILES IDX 71 79 63 80 64 81 70 82 72 83 65 84 66 85 67 86 68 87 69 88
REMARK SMILES IDX 45 89 46 90 55 91 47 92 48 93 54 94 56 95 49 96 50 97 51 98
REMARK SMILES IDX 52 99 53 100
REMARK H PARENT 2 16 2 17 87 21 90 26 77 50 43 61
REMARK Flexibility Score: inf
ROOT
ATOM      1  C   UNL A   1      39.644  22.585  26.680  1.00  0.00     0.188 C 
ENDROOT
BRANCH   1   2
ATOM      2  C   UNL A   1      38.673  23.762  26.519  1.00  0.00     0.188 C 
BRANCH   2   3
ATOM      3  O   UNL A   1      37.887  23.820  25.345  1.00  0.00    -0.376 OA
BRANCH   3   4
ATOM      4  C   UNL A   1      36.478  23.685  25.500  1.00  0.00     0.202 C 
BRANCH   4   5
ATOM      5  C   UNL A   1      35.916  22.296  25.831  1.00  0.00     0.261 C 
BRANCH   5   6
ATOM      6  O   UNL A   1      34.474  22.220  25.690  1.00  0.00    -0.459 OA
BRANCH   6   7
ATOM      7  C   UNL A   1      33.757  22.726  26.723  1.00  0.00     0.368 C 
ATOM      8  O   UNL A   1      34.195  22.757  27.873  1.00  0.00    -0.245 OA
BRANCH   7   9
ATOM      9  C   UNL A   1      32.367  23.377  26.354  1.00  0.00     0.200 C 
ATOM     10  C   UNL A   1      32.109  23.058  24.866  1.00  0.00     0.087 C 
ATOM     11  C   UNL A   1      32.194  24.911  26.337  1.00  0.00     0.146 C 
ATOM     12  C   UNL A   1      32.779  24.188  24.086  1.00  0.00     0.072 C 
ATOM     13  C   UNL A   1      32.651  25.439  24.961  1.00  0.00     0.191 C 
BRANCH   9  14
ATOM     14  N   UNL A   1      31.339  22.620  27.125  1.00  0.00    -0.334 N 
ATOM     15  C   UNL A   1      29.947  22.965  26.927  1.00  0.00     0.331 C 
ATOM     16  H   UNL A   1      31.445  21.635  26.884  1.00  0.00     0.347 HD
ATOM     17  H   UNL A   1      31.525  22.860  28.098  1.00  0.00     0.347 HD
ENDBRANCH   9  14
BRANCH  13  18
ATOM     18  N   UNL A   1      33.708  26.462  24.997  1.00  0.00    -0.323 N 
ATOM     19  C   UNL A   1      33.843  27.197  26.261  1.00  0.00     0.324 C 
ATOM     20  C   UNL A   1      33.763  27.436  23.903  1.00  0.00     0.324 C 
ATOM     21  H   UNL A   1      34.500  25.830  24.877  1.00  0.00     0.348 HD
ATOM     22  C   UNL A   1      32.871  28.389  26.437  1.00  0.00     0.324 C 
ATOM     23  C   UNL A   1      32.720  28.560  23.991  1.00  0.00     0.324 C 
ATOM     24  N   UNL A   1      32.739  29.288  25.271  1.00  0.00    -0.328 N 
ATOM     25  C   UNL A   1      31.530  30.104  25.391  1.00  0.00     0.333 C 
ATOM     26  H   UNL A   1      33.564  29.888  25.269  1.00  0.00     0.348 HD
ENDBRANCH  13  18
ENDBRANCH   7   9
ENDBRANCH   6   7
ENDBRANCH   5   6
ENDBRANCH   4   5
ENDBRANCH   3   4
ENDBRANCH   2   3
ENDBRANCH   1   2
BRANCH   1  27
ATOM     27  O   UNL A   1      40.989  22.774  27.043  1.00  0.00    -0.376 OA
BRANCH  27  28
ATOM     28  C   UNL A   1      41.986  23.024  26.069  1.00  0.00     0.202 C 
BRANCH  28  29
ATOM     29  C   UNL A   1      42.569  24.412  25.749  1.00  0.00     0.261 C 
BRANCH  29  30
ATOM     30  O   UNL A   1      41.634  25.481  25.582  1.00  0.00    -0.460 OA
BRANCH  30  31
ATOM     31  C   UNL A   1      42.180  26.726  25.588  1.00  0.00     0.338 C 
ATOM     32  O   UNL A   1      42.488  27.404  24.619  1.00  0.00    -0.246 OA
BRANCH  31  33
ATOM     33  C   UNL A   1      42.089  27.263  26.961  1.00  0.00     0.060 A 
ATOM     34  C   UNL A   1      41.170  26.675  27.845  1.00  0.00     0.016 A 
ATOM     35  C   UNL A   1      42.915  28.303  27.380  1.00  0.00     0.016 A 
ATOM     36  C   UNL A   1      41.077  27.124  29.159  1.00  0.00     0.010 A 
ATOM     37  C   UNL A   1      42.788  28.783  28.685  1.00  0.00     0.010 A 
ATOM     38  C   UNL A   1      41.854  28.211  29.571  1.00  0.00    -0.014 A 
BRANCH  38  39
ATOM     39  C   UNL A   1      41.521  28.908  30.834  1.00  0.00     0.031 A 
ATOM     40  C   UNL A   1      40.340  29.840  30.821  1.00  0.00     0.074 A 
ATOM     41  C   UNL A   1      42.223  28.712  31.963  1.00  0.00     0.049 A 
ATOM     42  N   UNL A   1      39.917  30.658  31.747  1.00  0.00    -0.248 NA
ATOM     43  C   UNL A   1      39.531  29.849  29.590  1.00  0.00     0.031 C 
ATOM     44  C   UNL A   1      43.332  27.774  32.121  1.00  0.00     0.029 A 
ATOM     45  N   UNL A   1      42.107  29.309  33.194  1.00  0.00    -0.354 N 
ATOM     46  C   UNL A   1      38.806  31.293  31.204  1.00  0.00     0.074 A 
ATOM     47  C   UNL A   1      38.631  30.780  29.864  1.00  0.00     0.031 C 
ATOM     48  C   UNL A   1      43.811  27.875  33.374  1.00  0.00     0.029 A 
ATOM     49  C   UNL A   1      43.074  28.917  34.090  1.00  0.00     0.049 A 
ATOM     50  H   UNL A   1      41.399  29.956  33.415  1.00  0.00     0.167 HD
ATOM     51  C   UNL A   1      38.004  32.222  31.773  1.00  0.00     0.037 A 
ATOM     52  C   UNL A   1      43.351  29.376  35.327  1.00  0.00     0.037 A 
ATOM     53  C   UNL A   1      38.189  32.729  33.107  1.00  0.00     0.049 A 
ATOM     54  C   UNL A   1      42.501  30.482  35.909  1.00  0.00     0.074 A 
ATOM     55  C   UNL A   1      37.439  33.679  33.776  1.00  0.00     0.029 A 
ATOM     56  N   UNL A   1      39.201  32.335  33.970  1.00  0.00    -0.354 N 
ATOM     57  N   UNL A   1      41.462  31.089  35.384  1.00  0.00    -0.248 NA
ATOM     58  C   UNL A   1      42.865  30.969  37.247  1.00  0.00     0.031 C 
ATOM     59  C   UNL A   1      38.031  33.900  35.024  1.00  0.00     0.029 A 
ATOM     60  C   UNL A   1      39.110  33.040  35.158  1.00  0.00     0.049 A 
ATOM     61  H   UNL A   1      39.883  31.655  33.768  1.00  0.00     0.167 HD
ATOM     62  C   UNL A   1      41.029  32.004  36.342  1.00  0.00     0.074 A 
ATOM     63  C   UNL A   1      41.915  31.865  37.479  1.00  0.00     0.031 C 
ATOM     64  C   UNL A   1      39.993  32.878  36.287  1.00  0.00     0.037 A 
BRANCH  51  65
ATOM     65  C   UNL A   1      36.888  32.781  30.936  1.00  0.00     0.058 A 
ATOM     66  C   UNL A   1      35.571  32.305  31.035  1.00  0.00     0.135 A 
ATOM     67  C   UNL A   1      37.141  33.822  30.026  1.00  0.00     0.135 A 
ATOM     68  F   UNL A   1      35.278  31.294  31.869  1.00  0.00    -0.206 F 
ATOM     69  C   UNL A   1      34.550  32.822  30.245  1.00  0.00     0.059 A 
ATOM     70  C   UNL A   1      36.130  34.375  29.249  1.00  0.00     0.059 A 
ATOM     71  F   UNL A   1      38.383  34.308  29.885  1.00  0.00    -0.206 F 
ATOM     72  C   UNL A   1      34.839  33.858  29.355  1.00  0.00     0.060 A 
BRANCH  72  73
ATOM     73  S   UNL A   1      33.503  34.521  28.339  1.00  0.00     0.124 S 
ATOM     74  O   UNL A   1      34.223  35.472  27.496  1.00  0.00    -0.237 OA
ATOM     75  O   UNL A   1      33.005  33.327  27.664  1.00  0.00    -0.237 OA
ATOM     76  O   UNL A   1      32.593  35.112  29.314  1.00  0.00    -0.744 OA
ENDBRANCH  72  73
ENDBRANCH  51  65
BRANCH  52  77
ATOM     77  C   UNL A   1      44.503  28.825  36.094  1.00  0.00     0.058 A 
ATOM     78  C   UNL A   1      44.348  27.728  36.954  1.00  0.00     0.135 A 
ATOM     79  C   UNL A   1      45.782  29.397  35.996  1.00  0.00     0.135 A 
ATOM     80  F   UNL A   1      43.143  27.154  37.098  1.00  0.00    -0.206 F 
ATOM     81  C   UNL A   1      45.411  27.228  37.702  1.00  0.00     0.059 A 
ATOM     82  C   UNL A   1      46.867  28.897  36.710  1.00  0.00     0.059 A 
ATOM     83  F   UNL A   1      45.989  30.448  35.186  1.00  0.00    -0.206 F 
ATOM     84  C   UNL A   1      46.670  27.818  37.568  1.00  0.00     0.060 A 
BRANCH  84  85
ATOM     85  S   UNL A   1      48.050  27.134  38.510  1.00  0.00     0.124 S 
ATOM     86  O   UNL A   1      47.701  27.522  39.871  1.00  0.00    -0.237 OA
ATOM     87  O   UNL A   1      47.950  25.710  38.206  1.00  0.00    -0.237 OA
ATOM     88  O   UNL A   1      49.213  27.808  37.939  1.00  0.00    -0.744 OA
ENDBRANCH  84  85
ENDBRANCH  52  77
BRANCH  64  89
ATOM     89  C   UNL A   1      39.720  33.721  37.506  1.00  0.00     0.058 A 
ATOM     90  C   UNL A   1      38.857  33.297  38.527  1.00  0.00     0.135 A 
ATOM     91  C   UNL A   1      40.392  34.943  37.683  1.00  0.00     0.135 A 
ATOM     92  F   UNL A   1      38.188  32.139  38.409  1.00  0.00    -0.206 F 
ATOM     93  C   UNL A   1      38.648  34.064  39.669  1.00  0.00     0.059 A 
ATOM     94  C   UNL A   1      40.224  35.712  38.831  1.00  0.00     0.059 A 
ATOM     95  F   UNL A   1      41.241  35.391  36.744  1.00  0.00    -0.206 F 
ATOM     96  C   UNL A   1      39.341  35.268  39.814  1.00  0.00     0.060 A 
BRANCH  96  97
ATOM     97  S   UNL A   1      39.091  36.236  41.318  1.00  0.00     0.124 S 
ATOM     98  O   UNL A   1      40.362  36.042  42.008  1.00  0.00    -0.237 OA
ATOM     99  O   UNL A   1      38.854  37.577  40.790  1.00  0.00    -0.237 OA
ATOM    100  O   UNL A   1      37.935  35.602  41.944  1.00  0.00    -0.744 OA
ENDBRANCH  96  97
ENDBRANCH  64  89
ENDBRANCH  38  39
ENDBRANCH  31  33
ENDBRANCH  30  31
ENDBRANCH  29  30
ENDBRANCH  28  29
ENDBRANCH  27  28
ENDBRANCH   1  27
TORSDOF 22
ENDMDL
