MODEL 1
REMARK VINA RESULT:     -10.0      0.000      0.000
REMARK SMILES COc1ccc(-c2sc(N)nc2C(=O)OCCOCCOCCOC(=O)c2ccc(-c3c4nc(c(-c5c(F)cc(S(=O)(=O)[O-])cc5F)c5ccc([nH]5)c(-c5c(F)cc(S(=O)(=O)[O-])cc5F)c5nc(c(-c6c(F)cc(S(=O)(=O)[O-])cc6F)c6ccc3[nH]6)C=C5)C=C4)cc2)cc1OC
REMARK SMILES IDX 20 1 19 2 18 3 17 4 16 5 15 6 13 7 14 8 12 9 7 10 8 11 9 12
REMARK SMILES IDX 11 13 6 14 3 15 4 16 94 17 5 18 93 19 2 20 1 21 95 22 96 23
REMARK SMILES IDX 10 24 21 27 22 28 23 29 24 30 25 31 26 32 27 33 28 34 92 35
REMARK SMILES IDX 29 36 91 37 30 38 31 39 32 40 85 41 33 42 90 43 84 44 86 45
REMARK SMILES IDX 34 46 89 47 83 48 82 49 35 51 69 52 48 53 68 54 49 55 52 56
REMARK SMILES IDX 67 57 87 58 50 59 51 60 66 62 88 63 53 64 36 65 37 66 46 67
REMARK SMILES IDX 38 68 39 69 45 70 47 71 40 72 41 73 42 74 43 75 44 76 70 77
REMARK SMILES IDX 71 78 80 79 72 80 73 81 79 82 81 83 74 84 75 85 76 86 77 87
REMARK SMILES IDX 78 88 54 89 55 90 64 91 56 92 57 93 63 94 65 95 58 96 59 97
REMARK SMILES IDX 60 98 61 99 62 100
REMARK H PARENT 10 25 10 26 86 50 52 61
REMARK Flexibility Score: inf
ROOT
ATOM      1  C   UNL A   1      33.357  33.580  27.947  1.00  0.00     0.188 C 
ENDROOT
BRANCH   1   2
ATOM      2  C   UNL A   1      32.653  32.363  27.328  1.00  0.00     0.188 C 
BRANCH   2   3
ATOM      3  O   UNL A   1      33.544  31.252  27.193  1.00  0.00    -0.376 OA
BRANCH   3   4
ATOM      4  C   UNL A   1      32.957  30.129  26.532  1.00  0.00     0.202 C 
BRANCH   4   5
ATOM      5  C   UNL A   1      33.362  28.823  27.221  1.00  0.00     0.261 C 
BRANCH   5   6
ATOM      6  O   UNL A   1      32.931  27.643  26.521  1.00  0.00    -0.458 OA
BRANCH   6   7
ATOM      7  C   UNL A   1      31.745  27.097  26.918  1.00  0.00     0.358 C 
ATOM      8  O   UNL A   1      30.930  27.684  27.620  1.00  0.00    -0.244 OA
BRANCH   7   9
ATOM      9  C   UNL A   1      31.535  25.769  26.335  1.00  0.00     0.169 A 
ATOM     10  C   UNL A   1      30.990  25.543  25.075  1.00  0.00     0.071 A 
ATOM     11  S   UNL A   1      30.988  23.866  24.735  1.00  0.00    -0.096 S 
ATOM     12  C   UNL A   1      31.781  23.565  26.227  1.00  0.00     0.181 A 
ATOM     13  N   UNL A   1      31.992  24.615  26.977  1.00  0.00    -0.213 NA
BRANCH  10  14
ATOM     14  C   UNL A   1      30.653  26.527  24.050  1.00  0.00    -0.002 A 
ATOM     15  C   UNL A   1      30.219  28.847  22.527  1.00  0.00     0.160 A 
ATOM     16  C   UNL A   1      29.137  28.122  23.056  1.00  0.00     0.051 A 
ATOM     17  C   UNL A   1      31.523  28.393  22.724  1.00  0.00     0.161 A 
ATOM     18  C   UNL A   1      29.351  26.970  23.828  1.00  0.00     0.014 A 
ATOM     19  C   UNL A   1      31.710  27.200  23.429  1.00  0.00     0.060 A 
BRANCH  15  20
ATOM     20  O   UNL A   1      29.954  30.063  21.959  1.00  0.00    -0.493 OA
ATOM     21  C   UNL A   1      28.555  30.251  21.757  1.00  0.00     0.278 C 
ENDBRANCH  15  20
BRANCH  17  22
ATOM     22  O   UNL A   1      32.710  28.976  22.384  1.00  0.00    -0.493 OA
ATOM     23  C   UNL A   1      33.924  28.378  22.801  1.00  0.00     0.278 C 
ENDBRANCH  17  22
ENDBRANCH  10  14
BRANCH  12  24
ATOM     24  N   UNL A   1      32.182  22.340  26.582  1.00  0.00    -0.375 N 
ATOM     25  H   UNL A   1      32.317  21.647  25.894  1.00  0.00     0.159 HD
ATOM     26  H   UNL A   1      32.343  22.129  27.529  1.00  0.00     0.159 HD
ENDBRANCH  12  24
ENDBRANCH   7   9
ENDBRANCH   6   7
ENDBRANCH   5   6
ENDBRANCH   4   5
ENDBRANCH   3   4
ENDBRANCH   2   3
ENDBRANCH   1   2
BRANCH   1  27
ATOM     27  O   UNL A   1      34.732  33.814  27.641  1.00  0.00    -0.376 OA
BRANCH  27  28
ATOM     28  C   UNL A   1      35.671  33.698  28.695  1.00  0.00     0.202 C 
BRANCH  28  29
ATOM     29  C   UNL A   1      35.347  32.700  29.814  1.00  0.00     0.261 C 
BRANCH  29  30
ATOM     30  O   UNL A   1      35.876  31.381  29.633  1.00  0.00    -0.460 OA
BRANCH  30  31
ATOM     31  C   UNL A   1      36.576  30.892  30.691  1.00  0.00     0.338 C 
ATOM     32  O   UNL A   1      36.155  30.688  31.817  1.00  0.00    -0.246 OA
BRANCH  31  33
ATOM     33  C   UNL A   1      37.961  30.581  30.271  1.00  0.00     0.060 A 
ATOM     34  C   UNL A   1      38.212  30.240  28.936  1.00  0.00     0.016 A 
ATOM     35  C   UNL A   1      38.999  30.567  31.203  1.00  0.00     0.016 A 
ATOM     36  C   UNL A   1      39.508  29.888  28.527  1.00  0.00     0.010 A 
ATOM     37  C   UNL A   1      40.290  30.221  30.792  1.00  0.00     0.010 A 
ATOM     38  C   UNL A   1      40.557  29.862  29.456  1.00  0.00    -0.014 A 
BRANCH  38  39
ATOM     39  C   UNL A   1      41.907  29.326  29.125  1.00  0.00     0.031 A 
ATOM     40  C   UNL A   1      43.007  30.305  28.813  1.00  0.00     0.074 A 
ATOM     41  C   UNL A   1      42.163  28.007  29.019  1.00  0.00     0.049 A 
ATOM     42  N   UNL A   1      44.204  30.080  28.338  1.00  0.00    -0.248 NA
ATOM     43  C   UNL A   1      42.722  31.723  29.088  1.00  0.00     0.031 C 
ATOM     44  C   UNL A   1      41.247  26.926  29.365  1.00  0.00     0.029 A 
ATOM     45  N   UNL A   1      43.262  27.353  28.508  1.00  0.00    -0.354 N 
ATOM     46  C   UNL A   1      44.839  31.315  28.331  1.00  0.00     0.074 A 
ATOM     47  C   UNL A   1      43.857  32.300  28.727  1.00  0.00     0.031 C 
ATOM     48  C   UNL A   1      41.758  25.759  28.929  1.00  0.00     0.029 A 
ATOM     49  C   UNL A   1      43.038  26.014  28.279  1.00  0.00     0.049 A 
ATOM     50  H   UNL A   1      44.121  27.799  28.323  1.00  0.00     0.167 HD
ATOM     51  C   UNL A   1      46.142  31.594  28.095  1.00  0.00     0.037 A 
ATOM     52  C   UNL A   1      43.759  25.114  27.581  1.00  0.00     0.037 A 
ATOM     53  C   UNL A   1      47.123  30.625  27.692  1.00  0.00     0.049 A 
ATOM     54  C   UNL A   1      45.121  25.485  27.070  1.00  0.00     0.074 A 
ATOM     55  C   UNL A   1      48.482  30.800  27.496  1.00  0.00     0.029 A 
ATOM     56  N   UNL A   1      46.847  29.298  27.405  1.00  0.00    -0.354 N 
ATOM     57  N   UNL A   1      45.734  26.640  27.132  1.00  0.00    -0.248 NA
ATOM     58  C   UNL A   1      45.915  24.411  26.455  1.00  0.00     0.031 C 
ATOM     59  C   UNL A   1      49.022  29.586  27.058  1.00  0.00     0.029 A 
ATOM     60  C   UNL A   1      48.003  28.648  27.012  1.00  0.00     0.049 A 
ATOM     61  H   UNL A   1      45.958  28.880  27.471  1.00  0.00     0.167 HD
ATOM     62  C   UNL A   1      47.019  26.408  26.657  1.00  0.00     0.074 A 
ATOM     63  C   UNL A   1      47.074  25.022  26.246  1.00  0.00     0.031 C 
ATOM     64  C   UNL A   1      48.070  27.262  26.625  1.00  0.00     0.037 A 
BRANCH  51  65
ATOM     65  C   UNL A   1      46.583  33.005  28.342  1.00  0.00     0.058 A 
ATOM     66  C   UNL A   1      47.019  33.402  29.617  1.00  0.00     0.135 A 
ATOM     67  C   UNL A   1      46.583  33.961  27.316  1.00  0.00     0.135 A 
ATOM     68  F   UNL A   1      47.022  32.526  30.634  1.00  0.00    -0.206 F 
ATOM     69  C   UNL A   1      47.408  34.709  29.876  1.00  0.00     0.059 A 
ATOM     70  C   UNL A   1      46.990  35.271  27.548  1.00  0.00     0.059 A 
ATOM     71  F   UNL A   1      46.173  33.629  26.081  1.00  0.00    -0.206 F 
ATOM     72  C   UNL A   1      47.384  35.638  28.835  1.00  0.00     0.060 A 
BRANCH  72  73
ATOM     73  S   UNL A   1      47.879  37.337  29.192  1.00  0.00     0.124 S 
ATOM     74  O   UNL A   1      49.292  37.310  28.825  1.00  0.00    -0.237 OA
ATOM     75  O   UNL A   1      47.011  38.108  28.309  1.00  0.00    -0.237 OA
ATOM     76  O   UNL A   1      47.602  37.477  30.618  1.00  0.00    -0.744 OA
ENDBRANCH  72  73
ENDBRANCH  51  65
BRANCH  52  77
ATOM     77  C   UNL A   1      43.221  23.763  27.284  1.00  0.00     0.058 A 
ATOM     78  C   UNL A   1      43.216  22.744  28.244  1.00  0.00     0.135 A 
ATOM     79  C   UNL A   1      42.788  23.449  25.987  1.00  0.00     0.135 A 
ATOM     80  F   UNL A   1      43.654  22.993  29.486  1.00  0.00    -0.206 F 
ATOM     81  C   UNL A   1      42.807  21.453  27.925  1.00  0.00     0.059 A 
ATOM     82  C   UNL A   1      42.356  22.171  25.648  1.00  0.00     0.059 A 
ATOM     83  F   UNL A   1      42.796  24.392  25.031  1.00  0.00    -0.206 F 
ATOM     84  C   UNL A   1      42.384  21.174  26.622  1.00  0.00     0.060 A 
BRANCH  84  85
ATOM     85  S   UNL A   1      41.845  19.499  26.215  1.00  0.00     0.124 S 
ATOM     86  O   UNL A   1      42.282  18.758  27.392  1.00  0.00    -0.237 OA
ATOM     87  O   UNL A   1      40.403  19.666  26.063  1.00  0.00    -0.237 OA
ATOM     88  O   UNL A   1      42.568  19.211  24.980  1.00  0.00    -0.744 OA
ENDBRANCH  84  85
ENDBRANCH  52  77
BRANCH  64  89
ATOM     89  C   UNL A   1      49.407  26.701  26.239  1.00  0.00     0.058 A 
ATOM     90  C   UNL A   1      49.919  26.811  24.940  1.00  0.00     0.135 A 
ATOM     91  C   UNL A   1      50.208  26.083  27.214  1.00  0.00     0.135 A 
ATOM     92  F   UNL A   1      49.183  27.376  23.969  1.00  0.00    -0.206 F 
ATOM     93  C   UNL A   1      51.181  26.321  24.616  1.00  0.00     0.059 A 
ATOM     94  C   UNL A   1      51.480  25.608  26.919  1.00  0.00     0.059 A 
ATOM     95  F   UNL A   1      49.761  25.954  28.474  1.00  0.00    -0.206 F 
ATOM     96  C   UNL A   1      51.956  25.725  25.614  1.00  0.00     0.060 A 
BRANCH  96  97
ATOM     97  S   UNL A   1      53.616  25.147  25.202  1.00  0.00     0.124 S 
ATOM     98  O   UNL A   1      54.401  25.703  26.300  1.00  0.00    -0.237 OA
ATOM     99  O   UNL A   1      53.454  23.696  25.210  1.00  0.00    -0.237 OA
ATOM    100  O   UNL A   1      53.863  25.735  23.890  1.00  0.00    -0.744 OA
ENDBRANCH  96  97
ENDBRANCH  64  89
ENDBRANCH  38  39
ENDBRANCH  31  33
ENDBRANCH  30  31
ENDBRANCH  29  30
ENDBRANCH  28  29
ENDBRANCH  27  28
ENDBRANCH   1  27
TORSDOF 24
ENDMDL
MODEL 2
REMARK VINA RESULT:      -9.9      6.227     11.981
REMARK SMILES COc1ccc(-c2sc(N)nc2C(=O)OCCOCCOCCOC(=O)c2ccc(-c3c4nc(c(-c5c(F)cc(S(=O)(=O)[O-])cc5F)c5ccc([nH]5)c(-c5c(F)cc(S(=O)(=O)[O-])cc5F)c5nc(c(-c6c(F)cc(S(=O)(=O)[O-])cc6F)c6ccc3[nH]6)C=C5)C=C4)cc2)cc1OC
REMARK SMILES IDX 20 1 19 2 18 3 17 4 16 5 15 6 13 7 14 8 12 9 7 10 8 11 9 12
REMARK SMILES IDX 11 13 6 14 3 15 4 16 94 17 5 18 93 19 2 20 1 21 95 22 96 23
REMARK SMILES IDX 10 24 21 27 22 28 23 29 24 30 25 31 26 32 27 33 28 34 92 35
REMARK SMILES IDX 29 36 91 37 30 38 31 39 32 40 85 41 33 42 90 43 84 44 86 45
REMARK SMILES IDX 34 46 89 47 83 48 82 49 35 51 69 52 48 53 68 54 49 55 52 56
REMARK SMILES IDX 67 57 87 58 50 59 51 60 66 62 88 63 53 64 36 65 37 66 46 67
REMARK SMILES IDX 38 68 39 69 45 70 47 71 40 72 41 73 42 74 43 75 44 76 70 77
REMARK SMILES IDX 71 78 80 79 72 80 73 81 79 82 81 83 74 84 75 85 76 86 77 87
REMARK SMILES IDX 78 88 54 89 55 90 64 91 56 92 57 93 63 94 65 95 58 96 59 97
REMARK SMILES IDX 60 98 61 99 62 100
REMARK H PARENT 10 25 10 26 86 50 52 61
REMARK Flexibility Score: inf
ROOT
ATOM      1  C   UNL A   1      38.205  21.318  25.670  1.00  0.00     0.188 C 
ENDROOT
BRANCH   1   2
ATOM      2  C   UNL A   1      37.594  22.301  24.661  1.00  0.00     0.188 C 
BRANCH   2   3
ATOM      3  O   UNL A   1      36.749  23.259  25.305  1.00  0.00    -0.376 OA
BRANCH   3   4
ATOM      4  C   UNL A   1      35.556  22.691  25.849  1.00  0.00     0.202 C 
BRANCH   4   5
ATOM      5  C   UNL A   1      34.623  23.789  26.369  1.00  0.00     0.261 C 
BRANCH   5   6
ATOM      6  O   UNL A   1      34.612  24.972  25.554  1.00  0.00    -0.458 OA
BRANCH   6   7
ATOM      7  C   UNL A   1      33.476  25.725  25.586  1.00  0.00     0.358 C 
ATOM      8  O   UNL A   1      32.962  26.135  26.620  1.00  0.00    -0.244 OA
BRANCH   7   9
ATOM      9  C   UNL A   1      33.000  26.050  24.237  1.00  0.00     0.169 A 
ATOM     10  C   UNL A   1      32.520  25.112  23.329  1.00  0.00     0.071 A 
ATOM     11  S   UNL A   1      31.992  25.900  21.905  1.00  0.00    -0.096 S 
ATOM     12  C   UNL A   1      32.348  27.421  22.617  1.00  0.00     0.181 A 
ATOM     13  N   UNL A   1      32.883  27.375  23.808  1.00  0.00    -0.213 NA
BRANCH  10  14
ATOM     14  C   UNL A   1      32.266  23.691  23.550  1.00  0.00    -0.002 A 
ATOM     15  C   UNL A   1      32.070  21.074  24.552  1.00  0.00     0.160 A 
ATOM     16  C   UNL A   1      32.958  21.378  23.506  1.00  0.00     0.051 A 
ATOM     17  C   UNL A   1      31.247  22.070  25.077  1.00  0.00     0.161 A 
ATOM     18  C   UNL A   1      33.067  22.687  23.012  1.00  0.00     0.014 A 
ATOM     19  C   UNL A   1      31.314  23.350  24.517  1.00  0.00     0.060 A 
BRANCH  15  20
ATOM     20  O   UNL A   1      32.156  19.833  25.119  1.00  0.00    -0.493 OA
ATOM     21  C   UNL A   1      33.194  19.056  24.523  1.00  0.00     0.278 C 
ENDBRANCH  15  20
BRANCH  17  22
ATOM     22  O   UNL A   1      30.388  22.022  26.137  1.00  0.00    -0.493 OA
ATOM     23  C   UNL A   1      30.126  23.203  26.875  1.00  0.00     0.278 C 
ENDBRANCH  17  22
ENDBRANCH  10  14
BRANCH  12  24
ATOM     24  N   UNL A   1      32.068  28.574  22.001  1.00  0.00    -0.375 N 
ATOM     25  H   UNL A   1      31.375  29.171  22.365  1.00  0.00     0.159 HD
ATOM     26  H   UNL A   1      32.555  28.827  21.184  1.00  0.00     0.159 HD
ENDBRANCH  12  24
ENDBRANCH   7   9
ENDBRANCH   6   7
ENDBRANCH   5   6
ENDBRANCH   4   5
ENDBRANCH   3   4
ENDBRANCH   2   3
ENDBRANCH   1   2
BRANCH   1  27
ATOM     27  O   UNL A   1      39.226  21.780  26.554  1.00  0.00    -0.376 OA
BRANCH  27  28
ATOM     28  C   UNL A   1      40.565  21.421  26.261  1.00  0.00     0.202 C 
BRANCH  28  29
ATOM     29  C   UNL A   1      41.585  22.560  26.148  1.00  0.00     0.261 C 
BRANCH  29  30
ATOM     30  O   UNL A   1      41.045  23.882  26.266  1.00  0.00    -0.460 OA
BRANCH  30  31
ATOM     31  C   UNL A   1      41.958  24.886  26.185  1.00  0.00     0.338 C 
ATOM     32  O   UNL A   1      42.749  25.087  25.279  1.00  0.00    -0.246 OA
BRANCH  31  33
ATOM     33  C   UNL A   1      41.833  25.769  27.366  1.00  0.00     0.060 A 
ATOM     34  C   UNL A   1      40.655  25.737  28.124  1.00  0.00     0.016 A 
ATOM     35  C   UNL A   1      42.848  26.669  27.691  1.00  0.00     0.016 A 
ATOM     36  C   UNL A   1      40.492  26.605  29.216  1.00  0.00     0.010 A 
ATOM     37  C   UNL A   1      42.685  27.529  28.782  1.00  0.00     0.010 A 
ATOM     38  C   UNL A   1      41.501  27.519  29.545  1.00  0.00    -0.014 A 
BRANCH  38  39
ATOM     39  C   UNL A   1      41.315  28.582  30.573  1.00  0.00     0.031 A 
ATOM     40  C   UNL A   1      41.966  28.398  31.917  1.00  0.00     0.074 A 
ATOM     41  C   UNL A   1      40.528  29.659  30.374  1.00  0.00     0.049 A 
ATOM     42  N   UNL A   1      41.811  29.094  33.013  1.00  0.00    -0.248 NA
ATOM     43  C   UNL A   1      42.931  27.292  32.034  1.00  0.00     0.031 C 
ATOM     44  C   UNL A   1      39.894  30.037  29.117  1.00  0.00     0.029 A 
ATOM     45  N   UNL A   1      40.065  30.597  31.269  1.00  0.00    -0.354 N 
ATOM     46  C   UNL A   1      42.713  28.559  33.923  1.00  0.00     0.074 A 
ATOM     47  C   UNL A   1      43.318  27.405  33.294  1.00  0.00     0.031 C 
ATOM     48  C   UNL A   1      39.020  31.035  29.346  1.00  0.00     0.029 A 
ATOM     49  C   UNL A   1      39.038  31.365  30.766  1.00  0.00     0.049 A 
ATOM     50  H   UNL A   1      40.430  30.708  32.177  1.00  0.00     0.167 HD
ATOM     51  C   UNL A   1      43.066  29.032  35.141  1.00  0.00     0.037 A 
ATOM     52  C   UNL A   1      38.182  32.198  31.391  1.00  0.00     0.037 A 
ATOM     53  C   UNL A   1      42.465  30.171  35.779  1.00  0.00     0.049 A 
ATOM     54  C   UNL A   1      38.398  32.541  32.837  1.00  0.00     0.074 A 
ATOM     55  C   UNL A   1      42.803  30.767  36.982  1.00  0.00     0.029 A 
ATOM     56  N   UNL A   1      41.388  30.878  35.272  1.00  0.00    -0.354 N 
ATOM     57  N   UNL A   1      39.299  32.076  33.665  1.00  0.00    -0.248 NA
ATOM     58  C   UNL A   1      37.523  33.572  33.413  1.00  0.00     0.031 C 
ATOM     59  C   UNL A   1      41.907  31.815  37.218  1.00  0.00     0.029 A 
ATOM     60  C   UNL A   1      41.032  31.890  36.146  1.00  0.00     0.049 A 
ATOM     61  H   UNL A   1      40.941  30.689  34.415  1.00  0.00     0.167 HD
ATOM     62  C   UNL A   1      39.164  32.828  34.825  1.00  0.00     0.074 A 
ATOM     63  C   UNL A   1      38.051  33.728  34.620  1.00  0.00     0.031 C 
ATOM     64  C   UNL A   1      39.940  32.806  35.936  1.00  0.00     0.037 A 
BRANCH  51  65
ATOM     65  C   UNL A   1      44.210  28.345  35.824  1.00  0.00     0.058 A 
ATOM     66  C   UNL A   1      43.974  27.290  36.723  1.00  0.00     0.135 A 
ATOM     67  C   UNL A   1      45.538  28.722  35.583  1.00  0.00     0.135 A 
ATOM     68  F   UNL A   1      42.717  26.904  36.997  1.00  0.00    -0.206 F 
ATOM     69  C   UNL A   1      45.014  26.656  37.386  1.00  0.00     0.059 A 
ATOM     70  C   UNL A   1      46.598  28.085  36.220  1.00  0.00     0.059 A 
ATOM     71  F   UNL A   1      45.813  29.725  34.734  1.00  0.00    -0.206 F 
ATOM     72  C   UNL A   1      46.324  27.065  37.132  1.00  0.00     0.060 A 
BRANCH  72  73
ATOM     73  S   UNL A   1      47.665  26.240  38.013  1.00  0.00     0.124 S 
ATOM     74  O   UNL A   1      47.612  24.900  37.433  1.00  0.00    -0.237 OA
ATOM     75  O   UNL A   1      48.825  27.043  37.643  1.00  0.00    -0.237 OA
ATOM     76  O   UNL A   1      47.260  26.336  39.412  1.00  0.00    -0.744 OA
ENDBRANCH  72  73
ENDBRANCH  51  65
BRANCH  52  77
ATOM     77  C   UNL A   1      37.009  32.766  30.683  1.00  0.00     0.058 A 
ATOM     78  C   UNL A   1      37.130  33.858  29.815  1.00  0.00     0.135 A 
ATOM     79  C   UNL A   1      35.722  32.274  30.947  1.00  0.00     0.135 A 
ATOM     80  F   UNL A   1      38.338  34.381  29.561  1.00  0.00    -0.206 F 
ATOM     81  C   UNL A   1      36.011  34.450  29.237  1.00  0.00     0.059 A 
ATOM     82  C   UNL A   1      34.589  32.836  30.368  1.00  0.00     0.059 A 
ATOM     83  F   UNL A   1      35.560  31.241  31.790  1.00  0.00    -0.206 F 
ATOM     84  C   UNL A   1      34.743  33.935  29.525  1.00  0.00     0.060 A 
BRANCH  84  85
ATOM     85  S   UNL A   1      33.293  34.701  28.766  1.00  0.00     0.124 S 
ATOM     86  O   UNL A   1      33.880  35.880  28.142  1.00  0.00    -0.237 OA
ATOM     87  O   UNL A   1      32.834  33.657  27.855  1.00  0.00    -0.237 OA
ATOM     88  O   UNL A   1      32.420  34.955  29.907  1.00  0.00    -0.744 OA
ENDBRANCH  84  85
ENDBRANCH  52  77
BRANCH  64  89
ATOM     89  C   UNL A   1      39.694  33.860  36.975  1.00  0.00     0.058 A 
ATOM     90  C   UNL A   1      38.997  33.594  38.160  1.00  0.00     0.135 A 
ATOM     91  C   UNL A   1      40.215  35.152  36.789  1.00  0.00     0.135 A 
ATOM     92  F   UNL A   1      38.464  32.381  38.374  1.00  0.00    -0.206 F 
ATOM     93  C   UNL A   1      38.819  34.578  39.129  1.00  0.00     0.059 A 
ATOM     94  C   UNL A   1      40.068  36.142  37.754  1.00  0.00     0.059 A 
ATOM     95  F   UNL A   1      40.890  35.454  35.669  1.00  0.00    -0.206 F 
ATOM     96  C   UNL A   1      39.362  35.848  38.919  1.00  0.00     0.060 A 
BRANCH  96  97
ATOM     97  S   UNL A   1      39.180  37.100  40.206  1.00  0.00     0.124 S 
ATOM     98  O   UNL A   1      40.566  37.307  40.613  1.00  0.00    -0.237 OA
ATOM     99  O   UNL A   1      38.559  38.206  39.482  1.00  0.00    -0.237 OA
ATOM    100  O   UNL A   1      38.324  36.449  41.193  1.00  0.00    -0.744 OA
ENDBRANCH  96  97
ENDBRANCH  64  89
ENDBRANCH  38  39
ENDBRANCH  31  33
ENDBRANCH  30  31
ENDBRANCH  29  30
ENDBRANCH  28  29
ENDBRANCH  27  28
ENDBRANCH   1  27
TORSDOF 24
ENDMDL
MODEL 3
REMARK VINA RESULT:      -9.8      1.813      3.624
REMARK SMILES COc1ccc(-c2sc(N)nc2C(=O)OCCOCCOCCOC(=O)c2ccc(-c3c4nc(c(-c5c(F)cc(S(=O)(=O)[O-])cc5F)c5ccc([nH]5)c(-c5c(F)cc(S(=O)(=O)[O-])cc5F)c5nc(c(-c6c(F)cc(S(=O)(=O)[O-])cc6F)c6ccc3[nH]6)C=C5)C=C4)cc2)cc1OC
REMARK SMILES IDX 20 1 19 2 18 3 17 4 16 5 15 6 13 7 14 8 12 9 7 10 8 11 9 12
REMARK SMILES IDX 11 13 6 14 3 15 4 16 94 17 5 18 93 19 2 20 1 21 95 22 96 23
REMARK SMILES IDX 10 24 21 27 22 28 23 29 24 30 25 31 26 32 27 33 28 34 92 35
REMARK SMILES IDX 29 36 91 37 30 38 31 39 32 40 85 41 33 42 90 43 84 44 86 45
REMARK SMILES IDX 34 46 89 47 83 48 82 49 35 51 69 52 48 53 68 54 49 55 52 56
REMARK SMILES IDX 67 57 87 58 50 59 51 60 66 62 88 63 53 64 36 65 37 66 46 67
REMARK SMILES IDX 38 68 39 69 45 70 47 71 40 72 41 73 42 74 43 75 44 76 70 77
REMARK SMILES IDX 71 78 80 79 72 80 73 81 79 82 81 83 74 84 75 85 76 86 77 87
REMARK SMILES IDX 78 88 54 89 55 90 64 91 56 92 57 93 63 94 65 95 58 96 59 97
REMARK SMILES IDX 60 98 61 99 62 100
REMARK H PARENT 10 25 10 26 86 50 52 61
REMARK Flexibility Score: inf
ROOT
ATOM      1  C   UNL A   1      33.057  28.462  26.726  1.00  0.00     0.188 C 
ENDROOT
BRANCH   1   2
ATOM      2  C   UNL A   1      32.857  27.794  25.358  1.00  0.00     0.188 C 
BRANCH   2   3
ATOM      3  O   UNL A   1      33.945  28.074  24.472  1.00  0.00    -0.376 OA
BRANCH   3   4
ATOM      4  C   UNL A   1      33.592  28.937  23.390  1.00  0.00     0.202 C 
BRANCH   4   5
ATOM      5  C   UNL A   1      33.662  28.190  22.055  1.00  0.00     0.261 C 
BRANCH   5   6
ATOM      6  O   UNL A   1      33.967  26.792  22.191  1.00  0.00    -0.458 OA
BRANCH   6   7
ATOM      7  C   UNL A   1      33.116  25.919  21.578  1.00  0.00     0.358 C 
ATOM      8  O   UNL A   1      33.236  25.562  20.412  1.00  0.00    -0.244 OA
BRANCH   7   9
ATOM      9  C   UNL A   1      32.104  25.404  22.505  1.00  0.00     0.169 A 
ATOM     10  C   UNL A   1      32.262  24.262  23.283  1.00  0.00     0.071 A 
ATOM     11  S   UNL A   1      30.892  24.046  24.284  1.00  0.00    -0.096 S 
ATOM     12  C   UNL A   1      30.229  25.514  23.690  1.00  0.00     0.181 A 
ATOM     13  N   UNL A   1      30.928  26.114  22.763  1.00  0.00    -0.213 NA
BRANCH  10  14
ATOM     14  C   UNL A   1      33.459  23.442  23.446  1.00  0.00    -0.002 A 
ATOM     15  C   UNL A   1      35.568  21.841  24.386  1.00  0.00     0.160 A 
ATOM     16  C   UNL A   1      35.791  23.179  24.016  1.00  0.00     0.051 A 
ATOM     17  C   UNL A   1      34.297  21.285  24.250  1.00  0.00     0.161 A 
ATOM     18  C   UNL A   1      34.737  23.984  23.558  1.00  0.00     0.014 A 
ATOM     19  C   UNL A   1      33.278  22.082  23.717  1.00  0.00     0.060 A 
BRANCH  15  20
ATOM     20  O   UNL A   1      36.587  21.175  25.009  1.00  0.00    -0.493 OA
ATOM     21  C   UNL A   1      37.788  21.945  25.015  1.00  0.00     0.278 C 
ENDBRANCH  15  20
BRANCH  17  22
ATOM     22  O   UNL A   1      33.838  20.055  24.625  1.00  0.00    -0.493 OA
ATOM     23  C   UNL A   1      32.529  19.930  25.152  1.00  0.00     0.278 C 
ENDBRANCH  17  22
ENDBRANCH  10  14
BRANCH  12  24
ATOM     24  N   UNL A   1      29.088  26.020  24.168  1.00  0.00    -0.375 N 
ATOM     25  H   UNL A   1      28.778  25.772  25.070  1.00  0.00     0.159 HD
ATOM     26  H   UNL A   1      28.558  26.642  23.620  1.00  0.00     0.159 HD
ENDBRANCH  12  24
ENDBRANCH   7   9
ENDBRANCH   6   7
ENDBRANCH   5   6
ENDBRANCH   4   5
ENDBRANCH   3   4
ENDBRANCH   2   3
ENDBRANCH   1   2
BRANCH   1  27
ATOM     27  O   UNL A   1      33.521  29.811  26.777  1.00  0.00    -0.376 OA
BRANCH  27  28
ATOM     28  C   UNL A   1      34.824  30.042  27.284  1.00  0.00     0.202 C 
BRANCH  28  29
ATOM     29  C   UNL A   1      34.983  31.161  28.319  1.00  0.00     0.261 C 
BRANCH  29  30
ATOM     30  O   UNL A   1      35.848  30.860  29.422  1.00  0.00    -0.460 OA
BRANCH  30  31
ATOM     31  C   UNL A   1      36.871  31.737  29.606  1.00  0.00     0.338 C 
ATOM     32  O   UNL A   1      36.780  32.918  29.893  1.00  0.00    -0.246 OA
BRANCH  31  33
ATOM     33  C   UNL A   1      38.164  31.033  29.456  1.00  0.00     0.060 A 
ATOM     34  C   UNL A   1      39.149  31.191  30.439  1.00  0.00     0.016 A 
ATOM     35  C   UNL A   1      38.428  30.268  28.319  1.00  0.00     0.016 A 
ATOM     36  C   UNL A   1      40.403  30.577  30.289  1.00  0.00     0.010 A 
ATOM     37  C   UNL A   1      39.676  29.654  28.175  1.00  0.00     0.010 A 
ATOM     38  C   UNL A   1      40.682  29.815  29.148  1.00  0.00    -0.014 A 
BRANCH  38  39
ATOM     39  C   UNL A   1      42.045  29.291  28.847  1.00  0.00     0.031 A 
ATOM     40  C   UNL A   1      43.136  30.279  28.532  1.00  0.00     0.074 A 
ATOM     41  C   UNL A   1      42.319  27.973  28.771  1.00  0.00     0.049 A 
ATOM     42  N   UNL A   1      44.343  30.061  28.079  1.00  0.00    -0.248 NA
ATOM     43  C   UNL A   1      42.828  31.698  28.776  1.00  0.00     0.031 C 
ATOM     44  C   UNL A   1      41.413  26.888  29.123  1.00  0.00     0.029 A 
ATOM     45  N   UNL A   1      43.434  27.325  28.287  1.00  0.00    -0.354 N 
ATOM     46  C   UNL A   1      44.962  31.303  28.057  1.00  0.00     0.074 A 
ATOM     47  C   UNL A   1      43.961  32.283  28.420  1.00  0.00     0.031 C 
ATOM     48  C   UNL A   1      41.945  25.719  28.718  1.00  0.00     0.029 A 
ATOM     49  C   UNL A   1      43.231  25.979  28.081  1.00  0.00     0.049 A 
ATOM     50  H   UNL A   1      44.289  27.778  28.107  1.00  0.00     0.167 HD
ATOM     51  C   UNL A   1      46.264  31.595  27.834  1.00  0.00     0.037 A 
ATOM     52  C   UNL A   1      43.973  25.075  27.412  1.00  0.00     0.037 A 
ATOM     53  C   UNL A   1      47.264  30.632  27.464  1.00  0.00     0.049 A 
ATOM     54  C   UNL A   1      45.338  25.455  26.913  1.00  0.00     0.074 A 
ATOM     55  C   UNL A   1      48.623  30.822  27.284  1.00  0.00     0.029 A 
ATOM     56  N   UNL A   1      47.009  29.297  27.200  1.00  0.00    -0.354 N 
ATOM     57  N   UNL A   1      45.935  26.619  26.961  1.00  0.00    -0.248 NA
ATOM     58  C   UNL A   1      46.155  24.380  26.330  1.00  0.00     0.031 C 
ATOM     59  C   UNL A   1      49.185  29.606  26.878  1.00  0.00     0.029 A 
ATOM     60  C   UNL A   1      48.179  28.654  26.836  1.00  0.00     0.049 A 
ATOM     61  H   UNL A   1      46.125  28.868  27.261  1.00  0.00     0.167 HD
ATOM     62  C   UNL A   1      47.229  26.395  26.509  1.00  0.00     0.074 A 
ATOM     63  C   UNL A   1      47.309  25.002  26.125  1.00  0.00     0.031 C 
ATOM     64  C   UNL A   1      48.269  27.262  26.476  1.00  0.00     0.037 A 
BRANCH  51  65
ATOM     65  C   UNL A   1      46.683  33.017  28.060  1.00  0.00     0.058 A 
ATOM     66  C   UNL A   1      47.168  33.425  29.314  1.00  0.00     0.135 A 
ATOM     67  C   UNL A   1      46.613  33.971  27.036  1.00  0.00     0.135 A 
ATOM     68  F   UNL A   1      47.238  32.551  30.331  1.00  0.00    -0.206 F 
ATOM     69  C   UNL A   1      47.537  34.741  29.555  1.00  0.00     0.059 A 
ATOM     70  C   UNL A   1      47.000  35.291  27.248  1.00  0.00     0.059 A 
ATOM     71  F   UNL A   1      46.155  33.628  25.821  1.00  0.00    -0.206 F 
ATOM     72  C   UNL A   1      47.444  35.668  28.516  1.00  0.00     0.060 A 
BRANCH  72  73
ATOM     73  S   UNL A   1      47.915  37.378  28.850  1.00  0.00     0.124 S 
ATOM     74  O   UNL A   1      48.836  37.211  29.971  1.00  0.00    -0.237 OA
ATOM     75  O   UNL A   1      48.522  37.788  27.588  1.00  0.00    -0.237 OA
ATOM     76  O   UNL A   1      46.646  38.022  29.169  1.00  0.00    -0.744 OA
ENDBRANCH  72  73
ENDBRANCH  51  65
BRANCH  52  77
ATOM     77  C   UNL A   1      43.458  23.712  27.133  1.00  0.00     0.058 A 
ATOM     78  C   UNL A   1      42.764  23.413  25.955  1.00  0.00     0.135 A 
ATOM     79  C   UNL A   1      43.574  22.705  28.103  1.00  0.00     0.135 A 
ATOM     80  F   UNL A   1      42.601  24.357  25.016  1.00  0.00    -0.206 F 
ATOM     81  C   UNL A   1      42.193  22.161  25.749  1.00  0.00     0.059 A 
ATOM     82  C   UNL A   1      43.029  21.439  27.914  1.00  0.00     0.059 A 
ATOM     83  F   UNL A   1      44.213  22.956  29.256  1.00  0.00    -0.206 F 
ATOM     84  C   UNL A   1      42.326  21.182  26.738  1.00  0.00     0.060 A 
BRANCH  84  85
ATOM     85  S   UNL A   1      41.592  19.554  26.463  1.00  0.00     0.124 S 
ATOM     86  O   UNL A   1      40.220  19.907  26.122  1.00  0.00    -0.237 OA
ATOM     87  O   UNL A   1      42.407  19.026  25.374  1.00  0.00    -0.237 OA
ATOM     88  O   UNL A   1      41.774  18.889  27.750  1.00  0.00    -0.744 OA
ENDBRANCH  84  85
ENDBRANCH  52  77
BRANCH  64  89
ATOM     89  C   UNL A   1      49.619  26.712  26.120  1.00  0.00     0.058 A 
ATOM     90  C   UNL A   1      50.159  26.825  24.833  1.00  0.00     0.135 A 
ATOM     91  C   UNL A   1      50.403  26.101  27.113  1.00  0.00     0.135 A 
ATOM     92  F   UNL A   1      49.441  27.384  23.846  1.00  0.00    -0.206 F 
ATOM     93  C   UNL A   1      51.432  26.345  24.538  1.00  0.00     0.059 A 
ATOM     94  C   UNL A   1      51.686  25.636  26.847  1.00  0.00     0.059 A 
ATOM     95  F   UNL A   1      49.930  25.969  28.363  1.00  0.00    -0.206 F 
ATOM     96  C   UNL A   1      52.190  25.756  25.553  1.00  0.00     0.060 A 
BRANCH  96  97
ATOM     97  S   UNL A   1      53.862  25.192  25.178  1.00  0.00     0.124 S 
ATOM     98  O   UNL A   1      53.674  23.747  25.098  1.00  0.00    -0.237 OA
ATOM     99  O   UNL A   1      54.146  25.865  23.914  1.00  0.00    -0.237 OA
ATOM    100  O   UNL A   1      54.642  25.663  26.318  1.00  0.00    -0.744 OA
ENDBRANCH  96  97
ENDBRANCH  64  89
ENDBRANCH  38  39
ENDBRANCH  31  33
ENDBRANCH  30  31
ENDBRANCH  29  30
ENDBRANCH  28  29
ENDBRANCH  27  28
ENDBRANCH   1  27
TORSDOF 24
ENDMDL
