MODEL 1
REMARK VINA RESULT:      -9.8      0.000      0.000
REMARK SMILES C[C@@H](Sc1nc2c(cc1C#N)CCC2)C(=O)OCCOCCOCCOC(=O)c1ccc(-c2c3nc(c(-c4c(F)cc(S(=O)(=O)[O-])cc4F)c4ccc([nH]4)c(-c4c(F)cc(S(=O)(=O)[O-])cc4F)c4nc(c(-c5c(F)cc(S(=O)(=O)[O-])cc5F)c5ccc2[nH]5)C=C4)C=C3)cc1
REMARK SMILES IDX 21 1 20 2 19 3 18 4 17 5 15 6 16 7 2 8 1 9 3 10 4 11 5 12
REMARK SMILES IDX 9 13 6 14 8 15 7 16 14 17 12 18 13 19 10 20 11 21 22 22
REMARK SMILES IDX 23 23 24 24 25 25 26 26 27 27 28 28 29 29 30 30 94 31 31 32
REMARK SMILES IDX 93 33 32 34 33 35 34 36 87 37 35 38 92 39 86 40 88 41 36 42
REMARK SMILES IDX 91 43 85 44 84 45 37 47 71 48 50 49 70 50 51 51 54 52 69 53
REMARK SMILES IDX 89 54 52 55 53 56 68 58 90 59 55 60 38 61 39 62 48 63 40 64
REMARK SMILES IDX 41 65 47 66 49 67 42 68 43 69 44 70 45 71 46 72 72 73 73 74
REMARK SMILES IDX 82 75 74 76 75 77 81 78 83 79 76 80 77 81 78 82 79 83 80 84
REMARK SMILES IDX 56 85 57 86 66 87 58 88 59 89 65 90 67 91 60 92 61 93 62 94
REMARK SMILES IDX 63 95 64 96
REMARK H PARENT 88 46 54 57
REMARK Flexibility Score: inf
ROOT
ATOM      1  C   UNL A   1      32.588  29.466  27.103  1.00  0.00     0.188 C 
ENDROOT
BRANCH   1   2
ATOM      2  O   UNL A   1      32.870  28.862  25.849  1.00  0.00    -0.376 OA
BRANCH   2   3
ATOM      3  C   UNL A   1      32.193  29.414  24.724  1.00  0.00     0.202 C 
BRANCH   3   4
ATOM      4  C   UNL A   1      30.785  28.870  24.419  1.00  0.00     0.261 C 
BRANCH   4   5
ATOM      5  O   UNL A   1      30.729  27.529  23.875  1.00  0.00    -0.462 OA
BRANCH   5   6
ATOM      6  C   UNL A   1      30.923  27.416  22.526  1.00  0.00     0.319 C 
ATOM      7  O   UNL A   1      30.281  28.040  21.687  1.00  0.00    -0.251 OA
BRANCH   6   8
ATOM      8  C   UNL A   1      32.044  26.441  22.141  1.00  0.00     0.160 C 
ATOM      9  C   UNL A   1      33.458  26.935  22.436  1.00  0.00     0.032 C 
BRANCH   8  10
ATOM     10  S   UNL A   1      31.713  24.839  22.974  1.00  0.00    -0.090 SA
BRANCH  10  11
ATOM     11  C   UNL A   1      33.275  24.581  23.814  1.00  0.00     0.115 A 
ATOM     12  N   UNL A   1      34.244  24.007  23.051  1.00  0.00    -0.245 NA
ATOM     13  C   UNL A   1      33.440  24.840  25.188  1.00  0.00     0.085 A 
ATOM     14  C   UNL A   1      35.375  23.664  23.693  1.00  0.00     0.045 A 
ATOM     15  C   UNL A   1      34.658  24.521  25.803  1.00  0.00     0.028 A 
ATOM     16  C   UNL A   1      35.617  23.890  25.041  1.00  0.00    -0.025 A 
ATOM     17  C   UNL A   1      36.521  22.905  23.075  1.00  0.00     0.057 C 
ATOM     18  C   UNL A   1      36.934  23.325  25.461  1.00  0.00     0.038 C 
ATOM     19  C   UNL A   1      37.167  22.306  24.335  1.00  0.00     0.011 C 
BRANCH  13  20
ATOM     20  C   UNL A   1      32.391  25.373  25.999  1.00  0.00     0.102 C 
ATOM     21  N   UNL A   1      31.552  25.797  26.684  1.00  0.00    -0.192 NA
ENDBRANCH  13  20
ENDBRANCH  10  11
ENDBRANCH   8  10
ENDBRANCH   6   8
ENDBRANCH   5   6
ENDBRANCH   4   5
ENDBRANCH   3   4
ENDBRANCH   2   3
ENDBRANCH   1   2
BRANCH   1  22
ATOM     22  C   UNL A   1      33.318  30.777  27.378  1.00  0.00     0.188 C 
BRANCH  22  23
ATOM     23  O   UNL A   1      34.731  30.767  27.418  1.00  0.00    -0.376 OA
BRANCH  23  24
ATOM     24  C   UNL A   1      35.345  31.838  28.142  1.00  0.00     0.202 C 
BRANCH  24  25
ATOM     25  C   UNL A   1      35.207  31.959  29.691  1.00  0.00     0.261 C 
BRANCH  25  26
ATOM     26  O   UNL A   1      36.350  31.692  30.544  1.00  0.00    -0.460 OA
BRANCH  26  27
ATOM     27  C   UNL A   1      36.732  30.408  30.747  1.00  0.00     0.338 C 
ATOM     28  O   UNL A   1      35.975  29.465  30.901  1.00  0.00    -0.246 OA
BRANCH  27  29
ATOM     29  C   UNL A   1      38.200  30.268  30.437  1.00  0.00     0.060 A 
ATOM     30  C   UNL A   1      38.588  30.263  29.087  1.00  0.00     0.016 A 
ATOM     31  C   UNL A   1      39.195  30.220  31.420  1.00  0.00     0.016 A 
ATOM     32  C   UNL A   1      39.939  30.185  28.718  1.00  0.00     0.010 A 
ATOM     33  C   UNL A   1      40.552  30.102  31.049  1.00  0.00     0.010 A 
ATOM     34  C   UNL A   1      40.935  30.054  29.693  1.00  0.00    -0.014 A 
BRANCH  34  35
ATOM     35  C   UNL A   1      42.314  29.644  29.278  1.00  0.00     0.031 A 
ATOM     36  C   UNL A   1      42.516  28.229  28.786  1.00  0.00     0.074 A 
ATOM     37  C   UNL A   1      43.359  30.499  29.255  1.00  0.00     0.049 A 
ATOM     38  N   UNL A   1      43.602  27.645  28.347  1.00  0.00    -0.248 NA
ATOM     39  C   UNL A   1      41.329  27.357  28.786  1.00  0.00     0.031 C 
ATOM     40  C   UNL A   1      43.314  31.903  29.655  1.00  0.00     0.029 A 
ATOM     41  N   UNL A   1      44.670  30.306  28.871  1.00  0.00    -0.354 N 
ATOM     42  C   UNL A   1      43.230  26.345  28.022  1.00  0.00     0.074 A 
ATOM     43  C   UNL A   1      41.827  26.212  28.346  1.00  0.00     0.031 C 
ATOM     44  C   UNL A   1      44.538  32.443  29.505  1.00  0.00     0.029 A 
ATOM     45  C   UNL A   1      45.468  31.421  29.021  1.00  0.00     0.049 A 
ATOM     46  H   UNL A   1      45.006  29.450  28.522  1.00  0.00     0.167 HD
ATOM     47  C   UNL A   1      43.980  25.353  27.487  1.00  0.00     0.037 A 
ATOM     48  C   UNL A   1      46.793  31.596  28.812  1.00  0.00     0.037 A 
ATOM     49  C   UNL A   1      45.372  25.479  27.145  1.00  0.00     0.049 A 
ATOM     50  C   UNL A   1      47.629  30.448  28.287  1.00  0.00     0.074 A 
ATOM     51  C   UNL A   1      46.197  24.531  26.565  1.00  0.00     0.029 A 
ATOM     52  N   UNL A   1      46.147  26.608  27.359  1.00  0.00    -0.354 N 
ATOM     53  N   UNL A   1      47.246  29.243  27.936  1.00  0.00    -0.248 NA
ATOM     54  C   UNL A   1      49.075  30.679  28.129  1.00  0.00     0.031 C 
ATOM     55  C   UNL A   1      47.486  25.061  26.492  1.00  0.00     0.029 A 
ATOM     56  C   UNL A   1      47.450  26.364  26.962  1.00  0.00     0.049 A 
ATOM     57  H   UNL A   1      45.819  27.456  27.735  1.00  0.00     0.167 HD
ATOM     58  C   UNL A   1      48.396  28.585  27.502  1.00  0.00     0.074 A 
ATOM     59  C   UNL A   1      49.486  29.529  27.611  1.00  0.00     0.031 C 
ATOM     60  C   UNL A   1      48.534  27.310  27.060  1.00  0.00     0.037 A 
BRANCH  47  61
ATOM     61  C   UNL A   1      43.325  24.021  27.236  1.00  0.00     0.058 A 
ATOM     62  C   UNL A   1      42.843  23.666  25.967  1.00  0.00     0.135 A 
ATOM     63  C   UNL A   1      43.277  23.052  28.252  1.00  0.00     0.135 A 
ATOM     64  F   UNL A   1      42.849  24.560  24.966  1.00  0.00    -0.206 F 
ATOM     65  C   UNL A   1      42.334  22.397  25.715  1.00  0.00     0.059 A 
ATOM     66  C   UNL A   1      42.800  21.768  28.014  1.00  0.00     0.059 A 
ATOM     67  F   UNL A   1      43.722  23.343  29.485  1.00  0.00    -0.206 F 
ATOM     68  C   UNL A   1      42.328  21.450  26.742  1.00  0.00     0.060 A 
BRANCH  68  69
ATOM     69  S   UNL A   1      41.709  19.794  26.377  1.00  0.00     0.124 S 
ATOM     70  O   UNL A   1      40.288  20.052  26.167  1.00  0.00    -0.237 OA
ATOM     71  O   UNL A   1      42.471  19.438  25.185  1.00  0.00    -0.237 OA
ATOM     72  O   UNL A   1      42.036  19.034  27.580  1.00  0.00    -0.744 OA
ENDBRANCH  68  69
ENDBRANCH  47  61
BRANCH  48  73
ATOM     73  C   UNL A   1      47.439  32.908  29.120  1.00  0.00     0.058 A 
ATOM     74  C   UNL A   1      47.554  33.918  28.151  1.00  0.00     0.135 A 
ATOM     75  C   UNL A   1      47.986  33.166  30.388  1.00  0.00     0.135 A 
ATOM     76  F   UNL A   1      47.072  33.718  26.914  1.00  0.00    -0.206 F 
ATOM     77  C   UNL A   1      48.195  35.125  28.422  1.00  0.00     0.059 A 
ATOM     78  C   UNL A   1      48.603  34.377  30.693  1.00  0.00     0.059 A 
ATOM     79  F   UNL A   1      47.913  32.237  31.354  1.00  0.00    -0.206 F 
ATOM     80  C   UNL A   1      48.711  35.348  29.699  1.00  0.00     0.060 A 
BRANCH  80  81
ATOM     81  S   UNL A   1      49.507  36.933  30.047  1.00  0.00     0.124 S 
ATOM     82  O   UNL A   1      49.884  37.375  28.709  1.00  0.00    -0.237 OA
ATOM     83  O   UNL A   1      48.428  37.680  30.684  1.00  0.00    -0.237 OA
ATOM     84  O   UNL A   1      50.615  36.569  30.925  1.00  0.00    -0.744 OA
ENDBRANCH  80  81
ENDBRANCH  48  73
BRANCH  60  85
ATOM     85  C   UNL A   1      49.902  26.832  26.646  1.00  0.00     0.058 A 
ATOM     86  C   UNL A   1      50.793  26.272  27.572  1.00  0.00     0.135 A 
ATOM     87  C   UNL A   1      50.270  26.806  25.288  1.00  0.00     0.135 A 
ATOM     88  F   UNL A   1      50.495  26.272  28.881  1.00  0.00    -0.206 F 
ATOM     89  C   UNL A   1      51.999  25.704  27.172  1.00  0.00     0.059 A 
ATOM     90  C   UNL A   1      51.456  26.216  24.862  1.00  0.00     0.059 A 
ATOM     91  F   UNL A   1      49.449  27.316  24.356  1.00  0.00    -0.206 F 
ATOM     92  C   UNL A   1      52.316  25.667  25.812  1.00  0.00     0.060 A 
BRANCH  92  93
ATOM     93  S   UNL A   1      53.848  24.856  25.306  1.00  0.00     0.124 S 
ATOM     94  O   UNL A   1      53.388  23.497  25.036  1.00  0.00    -0.237 OA
ATOM     95  O   UNL A   1      54.238  25.637  24.136  1.00  0.00    -0.237 OA
ATOM     96  O   UNL A   1      54.715  25.003  26.470  1.00  0.00    -0.744 OA
ENDBRANCH  92  93
ENDBRANCH  60  85
ENDBRANCH  34  35
ENDBRANCH  27  29
ENDBRANCH  26  27
ENDBRANCH  25  26
ENDBRANCH  24  25
ENDBRANCH  23  24
ENDBRANCH  22  23
ENDBRANCH   1  22
TORSDOF 23
ENDMDL
MODEL 2
REMARK VINA RESULT:      -9.7      1.517      8.365
REMARK SMILES C[C@@H](Sc1nc2c(cc1C#N)CCC2)C(=O)OCCOCCOCCOC(=O)c1ccc(-c2c3nc(c(-c4c(F)cc(S(=O)(=O)[O-])cc4F)c4ccc([nH]4)c(-c4c(F)cc(S(=O)(=O)[O-])cc4F)c4nc(c(-c5c(F)cc(S(=O)(=O)[O-])cc5F)c5ccc2[nH]5)C=C4)C=C3)cc1
REMARK SMILES IDX 21 1 20 2 19 3 18 4 17 5 15 6 16 7 2 8 1 9 3 10 4 11 5 12
REMARK SMILES IDX 9 13 6 14 8 15 7 16 14 17 12 18 13 19 10 20 11 21 22 22
REMARK SMILES IDX 23 23 24 24 25 25 26 26 27 27 28 28 29 29 30 30 94 31 31 32
REMARK SMILES IDX 93 33 32 34 33 35 34 36 87 37 35 38 92 39 86 40 88 41 36 42
REMARK SMILES IDX 91 43 85 44 84 45 37 47 71 48 50 49 70 50 51 51 54 52 69 53
REMARK SMILES IDX 89 54 52 55 53 56 68 58 90 59 55 60 38 61 39 62 48 63 40 64
REMARK SMILES IDX 41 65 47 66 49 67 42 68 43 69 44 70 45 71 46 72 72 73 73 74
REMARK SMILES IDX 82 75 74 76 75 77 81 78 83 79 76 80 77 81 78 82 79 83 80 84
REMARK SMILES IDX 56 85 57 86 66 87 58 88 59 89 65 90 67 91 60 92 61 93 62 94
REMARK SMILES IDX 63 95 64 96
REMARK H PARENT 88 46 54 57
REMARK Flexibility Score: inf
ROOT
ATOM      1  C   UNL A   1      33.455  31.127  27.348  1.00  0.00     0.188 C 
ENDROOT
BRANCH   1   2
ATOM      2  O   UNL A   1      33.432  29.725  27.576  1.00  0.00    -0.376 OA
BRANCH   2   3
ATOM      3  C   UNL A   1      32.815  28.938  26.562  1.00  0.00     0.202 C 
BRANCH   3   4
ATOM      4  C   UNL A   1      31.724  27.949  27.011  1.00  0.00     0.261 C 
BRANCH   4   5
ATOM      5  O   UNL A   1      31.072  27.203  25.954  1.00  0.00    -0.462 OA
BRANCH   5   6
ATOM      6  C   UNL A   1      30.849  25.876  26.201  1.00  0.00     0.319 C 
ATOM      7  O   UNL A   1      29.733  25.380  26.318  1.00  0.00    -0.251 OA
BRANCH   6   8
ATOM      8  C   UNL A   1      32.132  25.040  26.305  1.00  0.00     0.160 C 
ATOM      9  C   UNL A   1      31.950  23.655  26.922  1.00  0.00     0.032 C 
BRANCH   8  10
ATOM     10  S   UNL A   1      32.872  24.928  24.629  1.00  0.00    -0.090 SA
BRANCH  10  11
ATOM     11  C   UNL A   1      34.212  23.779  24.942  1.00  0.00     0.115 A 
ATOM     12  N   UNL A   1      35.263  24.304  25.628  1.00  0.00    -0.245 NA
ATOM     13  C   UNL A   1      34.223  22.476  24.410  1.00  0.00     0.085 A 
ATOM     14  C   UNL A   1      36.345  23.513  25.748  1.00  0.00     0.045 A 
ATOM     15  C   UNL A   1      35.348  21.665  24.611  1.00  0.00     0.028 A 
ATOM     16  C   UNL A   1      36.432  22.217  25.258  1.00  0.00    -0.025 A 
ATOM     17  C   UNL A   1      37.659  23.934  26.352  1.00  0.00     0.057 C 
ATOM     18  C   UNL A   1      37.789  21.637  25.488  1.00  0.00     0.038 C 
ATOM     19  C   UNL A   1      38.607  22.922  25.686  1.00  0.00     0.011 C 
BRANCH  13  20
ATOM     20  C   UNL A   1      33.146  21.959  23.627  1.00  0.00     0.102 C 
ATOM     21  N   UNL A   1      32.289  21.518  22.976  1.00  0.00    -0.192 NA
ENDBRANCH  13  20
ENDBRANCH  10  11
ENDBRANCH   8  10
ENDBRANCH   6   8
ENDBRANCH   5   6
ENDBRANCH   4   5
ENDBRANCH   3   4
ENDBRANCH   2   3
ENDBRANCH   1   2
BRANCH   1  22
ATOM     22  C   UNL A   1      34.413  31.920  28.232  1.00  0.00     0.188 C 
BRANCH  22  23
ATOM     23  O   UNL A   1      35.230  32.903  27.629  1.00  0.00    -0.376 OA
BRANCH  23  24
ATOM     24  C   UNL A   1      35.760  33.901  28.507  1.00  0.00     0.202 C 
BRANCH  24  25
ATOM     25  C   UNL A   1      35.862  33.664  30.044  1.00  0.00     0.261 C 
BRANCH  25  26
ATOM     26  O   UNL A   1      37.080  33.117  30.614  1.00  0.00    -0.460 OA
BRANCH  26  27
ATOM     27  C   UNL A   1      37.080  31.835  31.057  1.00  0.00     0.338 C 
ATOM     28  O   UNL A   1      36.161  31.297  31.650  1.00  0.00    -0.246 OA
BRANCH  27  29
ATOM     29  C   UNL A   1      38.233  31.092  30.435  1.00  0.00     0.060 A 
ATOM     30  C   UNL A   1      39.311  30.739  31.264  1.00  0.00     0.016 A 
ATOM     31  C   UNL A   1      38.250  30.672  29.100  1.00  0.00     0.016 A 
ATOM     32  C   UNL A   1      40.399  30.004  30.771  1.00  0.00     0.010 A 
ATOM     33  C   UNL A   1      39.363  29.966  28.594  1.00  0.00     0.010 A 
ATOM     34  C   UNL A   1      40.462  29.651  29.417  1.00  0.00    -0.014 A 
BRANCH  34  35
ATOM     35  C   UNL A   1      41.760  29.169  28.849  1.00  0.00     0.031 A 
ATOM     36  C   UNL A   1      42.893  30.162  28.722  1.00  0.00     0.074 A 
ATOM     37  C   UNL A   1      41.982  27.879  28.516  1.00  0.00     0.049 A 
ATOM     38  N   UNL A   1      44.115  29.983  28.290  1.00  0.00    -0.248 NA
ATOM     39  C   UNL A   1      42.607  31.542  29.149  1.00  0.00     0.031 C 
ATOM     40  C   UNL A   1      41.007  26.796  28.622  1.00  0.00     0.029 A 
ATOM     41  N   UNL A   1      43.111  27.259  28.022  1.00  0.00    -0.354 N 
ATOM     42  C   UNL A   1      44.739  31.222  28.389  1.00  0.00     0.074 A 
ATOM     43  C   UNL A   1      43.754  32.153  28.891  1.00  0.00     0.031 C 
ATOM     44  C   UNL A   1      41.573  25.651  28.199  1.00  0.00     0.029 A 
ATOM     45  C   UNL A   1      42.947  25.914  27.766  1.00  0.00     0.049 A 
ATOM     46  H   UNL A   1      43.958  27.734  27.865  1.00  0.00     0.167 HD
ATOM     47  C   UNL A   1      46.020  31.556  28.105  1.00  0.00     0.037 A 
ATOM     48  C   UNL A   1      43.794  25.004  27.231  1.00  0.00     0.037 A 
ATOM     49  C   UNL A   1      47.013  30.634  27.622  1.00  0.00     0.049 A 
ATOM     50  C   UNL A   1      45.198  25.420  26.848  1.00  0.00     0.074 A 
ATOM     51  C   UNL A   1      48.346  30.884  27.343  1.00  0.00     0.029 A 
ATOM     52  N   UNL A   1      46.788  29.297  27.334  1.00  0.00    -0.354 N 
ATOM     53  N   UNL A   1      45.784  26.583  27.001  1.00  0.00    -0.248 NA
ATOM     54  C   UNL A   1      46.058  24.402  26.219  1.00  0.00     0.031 C 
ATOM     55  C   UNL A   1      48.909  29.719  26.822  1.00  0.00     0.029 A 
ATOM     56  C   UNL A   1      47.947  28.723  26.840  1.00  0.00     0.049 A 
ATOM     57  H   UNL A   1      45.933  28.827  27.463  1.00  0.00     0.167 HD
ATOM     58  C   UNL A   1      47.079  26.431  26.506  1.00  0.00     0.074 A 
ATOM     59  C   UNL A   1      47.201  25.057  26.070  1.00  0.00     0.031 C 
ATOM     60  C   UNL A   1      48.072  27.349  26.417  1.00  0.00     0.037 A 
BRANCH  47  61
ATOM     61  C   UNL A   1      46.442  32.987  28.299  1.00  0.00     0.058 A 
ATOM     62  C   UNL A   1      47.001  33.434  29.507  1.00  0.00     0.135 A 
ATOM     63  C   UNL A   1      46.385  33.894  27.227  1.00  0.00     0.135 A 
ATOM     64  F   UNL A   1      47.063  32.613  30.567  1.00  0.00    -0.206 F 
ATOM     65  C   UNL A   1      47.484  34.730  29.645  1.00  0.00     0.059 A 
ATOM     66  C   UNL A   1      46.890  35.185  27.335  1.00  0.00     0.059 A 
ATOM     67  F   UNL A   1      45.857  33.518  26.051  1.00  0.00    -0.206 F 
ATOM     68  C   UNL A   1      47.437  35.594  28.550  1.00  0.00     0.060 A 
BRANCH  68  69
ATOM     69  S   UNL A   1      48.118  37.256  28.739  1.00  0.00     0.124 S 
ATOM     70  O   UNL A   1      47.896  37.503  30.160  1.00  0.00    -0.237 OA
ATOM     71  O   UNL A   1      49.508  37.064  28.339  1.00  0.00    -0.237 OA
ATOM     72  O   UNL A   1      47.309  38.063  27.830  1.00  0.00    -0.744 OA
ENDBRANCH  68  69
ENDBRANCH  47  61
BRANCH  48  73
ATOM     73  C   UNL A   1      43.340  23.600  26.993  1.00  0.00     0.058 A 
ATOM     74  C   UNL A   1      43.053  23.128  25.702  1.00  0.00     0.135 A 
ATOM     75  C   UNL A   1      43.151  22.709  28.062  1.00  0.00     0.135 A 
ATOM     76  F   UNL A   1      43.191  23.942  24.644  1.00  0.00    -0.206 F 
ATOM     77  C   UNL A   1      42.587  21.833  25.481  1.00  0.00     0.059 A 
ATOM     78  C   UNL A   1      42.718  21.400  27.865  1.00  0.00     0.059 A 
ATOM     79  F   UNL A   1      43.402  23.105  29.320  1.00  0.00    -0.206 F 
ATOM     80  C   UNL A   1      42.429  20.974  26.569  1.00  0.00     0.060 A 
BRANCH  80  81
ATOM     81  S   UNL A   1      41.859  19.286  26.265  1.00  0.00     0.124 S 
ATOM     82  O   UNL A   1      42.318  18.597  27.466  1.00  0.00    -0.237 OA
ATOM     83  O   UNL A   1      40.417  19.470  26.146  1.00  0.00    -0.237 OA
ATOM     84  O   UNL A   1      42.543  18.917  25.028  1.00  0.00    -0.744 OA
ENDBRANCH  80  81
ENDBRANCH  48  73
BRANCH  60  85
ATOM     85  C   UNL A   1      49.397  26.929  25.834  1.00  0.00     0.058 A 
ATOM     86  C   UNL A   1      49.699  27.134  24.480  1.00  0.00     0.135 A 
ATOM     87  C   UNL A   1      50.422  26.445  26.666  1.00  0.00     0.135 A 
ATOM     88  F   UNL A   1      48.758  27.591  23.639  1.00  0.00    -0.206 F 
ATOM     89  C   UNL A   1      50.968  26.875  23.970  1.00  0.00     0.059 A 
ATOM     90  C   UNL A   1      51.707  26.209  26.185  1.00  0.00     0.059 A 
ATOM     91  F   UNL A   1      50.194  26.244  27.974  1.00  0.00    -0.206 F 
ATOM     92  C   UNL A   1      51.970  26.427  24.833  1.00  0.00     0.060 A 
BRANCH  92  93
ATOM     93  S   UNL A   1      53.630  26.172  24.168  1.00  0.00     0.124 S 
ATOM     94  O   UNL A   1      53.364  26.080  22.736  1.00  0.00    -0.237 OA
ATOM     95  O   UNL A   1      54.326  27.378  24.607  1.00  0.00    -0.237 OA
ATOM     96  O   UNL A   1      54.069  24.934  24.804  1.00  0.00    -0.744 OA
ENDBRANCH  92  93
ENDBRANCH  60  85
ENDBRANCH  34  35
ENDBRANCH  27  29
ENDBRANCH  26  27
ENDBRANCH  25  26
ENDBRANCH  24  25
ENDBRANCH  23  24
ENDBRANCH  22  23
ENDBRANCH   1  22
TORSDOF 23
ENDMDL
MODEL 3
REMARK VINA RESULT:      -9.3      1.232      8.180
REMARK SMILES C[C@@H](Sc1nc2c(cc1C#N)CCC2)C(=O)OCCOCCOCCOC(=O)c1ccc(-c2c3nc(c(-c4c(F)cc(S(=O)(=O)[O-])cc4F)c4ccc([nH]4)c(-c4c(F)cc(S(=O)(=O)[O-])cc4F)c4nc(c(-c5c(F)cc(S(=O)(=O)[O-])cc5F)c5ccc2[nH]5)C=C4)C=C3)cc1
REMARK SMILES IDX 21 1 20 2 19 3 18 4 17 5 15 6 16 7 2 8 1 9 3 10 4 11 5 12
REMARK SMILES IDX 9 13 6 14 8 15 7 16 14 17 12 18 13 19 10 20 11 21 22 22
REMARK SMILES IDX 23 23 24 24 25 25 26 26 27 27 28 28 29 29 30 30 94 31 31 32
REMARK SMILES IDX 93 33 32 34 33 35 34 36 87 37 35 38 92 39 86 40 88 41 36 42
REMARK SMILES IDX 91 43 85 44 84 45 37 47 71 48 50 49 70 50 51 51 54 52 69 53
REMARK SMILES IDX 89 54 52 55 53 56 68 58 90 59 55 60 38 61 39 62 48 63 40 64
REMARK SMILES IDX 41 65 47 66 49 67 42 68 43 69 44 70 45 71 46 72 72 73 73 74
REMARK SMILES IDX 82 75 74 76 75 77 81 78 83 79 76 80 77 81 78 82 79 83 80 84
REMARK SMILES IDX 56 85 57 86 66 87 58 88 59 89 65 90 67 91 60 92 61 93 62 94
REMARK SMILES IDX 63 95 64 96
REMARK H PARENT 88 46 54 57
REMARK Flexibility Score: inf
ROOT
ATOM      1  C   UNL A   1      32.842  27.692  25.554  1.00  0.00     0.188 C 
ENDROOT
BRANCH   1   2
ATOM      2  O   UNL A   1      32.215  28.737  24.825  1.00  0.00    -0.376 OA
BRANCH   2   3
ATOM      3  C   UNL A   1      30.797  28.661  24.721  1.00  0.00     0.202 C 
BRANCH   3   4
ATOM      4  C   UNL A   1      30.214  28.292  23.345  1.00  0.00     0.261 C 
BRANCH   4   5
ATOM      5  O   UNL A   1      30.943  27.287  22.599  1.00  0.00    -0.462 OA
BRANCH   5   6
ATOM      6  C   UNL A   1      30.776  25.992  23.007  1.00  0.00     0.319 C 
ATOM      7  O   UNL A   1      29.898  25.626  23.781  1.00  0.00    -0.251 OA
BRANCH   6   8
ATOM      8  C   UNL A   1      31.785  25.013  22.391  1.00  0.00     0.160 C 
ATOM      9  C   UNL A   1      33.219  25.530  22.315  1.00  0.00     0.032 C 
BRANCH   8  10
ATOM     10  S   UNL A   1      31.695  23.439  23.331  1.00  0.00    -0.090 SA
BRANCH  10  11
ATOM     11  C   UNL A   1      33.266  23.485  24.192  1.00  0.00     0.115 A 
ATOM     12  N   UNL A   1      34.336  23.101  23.445  1.00  0.00    -0.245 NA
ATOM     13  C   UNL A   1      33.361  23.776  25.566  1.00  0.00     0.085 A 
ATOM     14  C   UNL A   1      35.503  22.981  24.102  1.00  0.00     0.045 A 
ATOM     15  C   UNL A   1      34.610  23.696  26.197  1.00  0.00     0.028 A 
ATOM     16  C   UNL A   1      35.680  23.254  25.452  1.00  0.00    -0.025 A 
ATOM     17  C   UNL A   1      36.780  22.448  23.504  1.00  0.00     0.057 C 
ATOM     18  C   UNL A   1      37.075  22.951  25.891  1.00  0.00     0.038 C 
ATOM     19  C   UNL A   1      37.511  21.988  24.776  1.00  0.00     0.011 C 
BRANCH  13  20
ATOM     20  C   UNL A   1      32.220  24.106  26.360  1.00  0.00     0.102 C 
ATOM     21  N   UNL A   1      31.298  24.351  27.025  1.00  0.00    -0.192 NA
ENDBRANCH  13  20
ENDBRANCH  10  11
ENDBRANCH   8  10
ENDBRANCH   6   8
ENDBRANCH   5   6
ENDBRANCH   4   5
ENDBRANCH   3   4
ENDBRANCH   2   3
ENDBRANCH   1   2
BRANCH   1  22
ATOM     22  C   UNL A   1      33.970  28.126  26.485  1.00  0.00     0.188 C 
BRANCH  22  23
ATOM     23  O   UNL A   1      33.695  29.103  27.468  1.00  0.00    -0.376 OA
BRANCH  23  24
ATOM     24  C   UNL A   1      34.436  30.323  27.363  1.00  0.00     0.202 C 
BRANCH  24  25
ATOM     25  C   UNL A   1      34.382  31.409  28.480  1.00  0.00     0.261 C 
BRANCH  25  26
ATOM     26  O   UNL A   1      35.609  32.025  28.953  1.00  0.00    -0.460 OA
BRANCH  26  27
ATOM     27  C   UNL A   1      36.211  31.524  30.060  1.00  0.00     0.338 C 
ATOM     28  O   UNL A   1      35.695  31.432  31.160  1.00  0.00    -0.246 OA
BRANCH  27  29
ATOM     29  C   UNL A   1      37.477  30.812  29.660  1.00  0.00     0.060 A 
ATOM     30  C   UNL A   1      38.387  30.472  30.675  1.00  0.00     0.016 A 
ATOM     31  C   UNL A   1      37.755  30.409  28.349  1.00  0.00     0.016 A 
ATOM     32  C   UNL A   1      39.565  29.766  30.391  1.00  0.00     0.010 A 
ATOM     33  C   UNL A   1      38.960  29.733  28.057  1.00  0.00     0.010 A 
ATOM     34  C   UNL A   1      39.891  29.431  29.071  1.00  0.00    -0.014 A 
BRANCH  34  35
ATOM     35  C   UNL A   1      41.283  28.982  28.754  1.00  0.00     0.031 A 
ATOM     36  C   UNL A   1      42.401  29.993  28.881  1.00  0.00     0.074 A 
ATOM     37  C   UNL A   1      41.589  27.707  28.434  1.00  0.00     0.049 A 
ATOM     38  N   UNL A   1      43.687  29.842  28.691  1.00  0.00    -0.248 NA
ATOM     39  C   UNL A   1      42.012  31.355  29.282  1.00  0.00     0.031 C 
ATOM     40  C   UNL A   1      40.631  26.610  28.315  1.00  0.00     0.029 A 
ATOM     41  N   UNL A   1      42.804  27.117  28.153  1.00  0.00    -0.354 N 
ATOM     42  C   UNL A   1      44.257  31.085  28.946  1.00  0.00     0.074 A 
ATOM     43  C   UNL A   1      43.176  31.987  29.272  1.00  0.00     0.031 C 
ATOM     44  C   UNL A   1      41.290  25.485  27.978  1.00  0.00     0.029 A 
ATOM     45  C   UNL A   1      42.717  25.778  27.831  1.00  0.00     0.049 A 
ATOM     46  H   UNL A   1      43.656  27.607  28.178  1.00  0.00     0.167 HD
ATOM     47  C   UNL A   1      45.562  31.443  28.929  1.00  0.00     0.037 A 
ATOM     48  C   UNL A   1      43.668  24.897  27.445  1.00  0.00     0.037 A 
ATOM     49  C   UNL A   1      46.647  30.549  28.623  1.00  0.00     0.049 A 
ATOM     50  C   UNL A   1      45.113  25.341  27.357  1.00  0.00     0.074 A 
ATOM     51  C   UNL A   1      48.004  30.824  28.618  1.00  0.00     0.029 A 
ATOM     52  N   UNL A   1      46.507  29.220  28.258  1.00  0.00    -0.354 N 
ATOM     53  N   UNL A   1      45.637  26.506  27.655  1.00  0.00    -0.248 NA
ATOM     54  C   UNL A   1      46.098  24.354  26.880  1.00  0.00     0.031 C 
ATOM     55  C   UNL A   1      48.679  29.683  28.183  1.00  0.00     0.029 A 
ATOM     56  C   UNL A   1      47.750  28.675  27.983  1.00  0.00     0.049 A 
ATOM     57  H   UNL A   1      45.652  28.735  28.203  1.00  0.00     0.167 HD
ATOM     58  C   UNL A   1      47.005  26.385  27.420  1.00  0.00     0.074 A 
ATOM     59  C   UNL A   1      47.236  25.028  26.977  1.00  0.00     0.031 C 
ATOM     60  C   UNL A   1      47.980  27.318  27.553  1.00  0.00     0.037 A 
BRANCH  47  61
ATOM     61  C   UNL A   1      45.913  32.873  29.243  1.00  0.00     0.058 A 
ATOM     62  C   UNL A   1      45.962  33.856  28.242  1.00  0.00     0.135 A 
ATOM     63  C   UNL A   1      46.096  33.281  30.575  1.00  0.00     0.135 A 
ATOM     64  F   UNL A   1      45.811  33.517  26.952  1.00  0.00    -0.206 F 
ATOM     65  C   UNL A   1      46.184  35.193  28.552  1.00  0.00     0.059 A 
ATOM     66  C   UNL A   1      46.289  34.617  30.908  1.00  0.00     0.059 A 
ATOM     67  F   UNL A   1      46.062  32.380  31.569  1.00  0.00    -0.206 F 
ATOM     68  C   UNL A   1      46.333  35.566  29.889  1.00  0.00     0.060 A 
BRANCH  68  69
ATOM     69  S   UNL A   1      46.569  37.315  30.269  1.00  0.00     0.124 S 
ATOM     70  O   UNL A   1      46.407  37.323  31.720  1.00  0.00    -0.237 OA
ATOM     71  O   UNL A   1      47.923  37.556  29.781  1.00  0.00    -0.237 OA
ATOM     72  O   UNL A   1      45.505  37.975  29.518  1.00  0.00    -0.744 OA
ENDBRANCH  68  69
ENDBRANCH  47  61
BRANCH  48  73
ATOM     73  C   UNL A   1      43.295  23.496  27.083  1.00  0.00     0.058 A 
ATOM     74  C   UNL A   1      43.034  22.526  28.064  1.00  0.00     0.135 A 
ATOM     75  C   UNL A   1      43.226  23.089  25.740  1.00  0.00     0.135 A 
ATOM     76  F   UNL A   1      43.110  22.850  29.364  1.00  0.00    -0.206 F 
ATOM     77  C   UNL A   1      42.729  21.208  27.731  1.00  0.00     0.059 A 
ATOM     78  C   UNL A   1      42.892  21.785  25.380  1.00  0.00     0.059 A 
ATOM     79  F   UNL A   1      43.473  23.969  24.757  1.00  0.00    -0.206 F 
ATOM     80  C   UNL A   1      42.655  20.848  26.384  1.00  0.00     0.060 A 
BRANCH  80  81
ATOM     81  S   UNL A   1      42.223  19.144  25.965  1.00  0.00     0.124 S 
ATOM     82  O   UNL A   1      42.770  18.412  27.102  1.00  0.00    -0.237 OA
ATOM     83  O   UNL A   1      40.767  19.210  25.891  1.00  0.00    -0.237 OA
ATOM     84  O   UNL A   1      42.902  18.927  24.691  1.00  0.00    -0.744 OA
ENDBRANCH  80  81
ENDBRANCH  48  73
BRANCH  60  85
ATOM     85  C   UNL A   1      49.400  26.932  27.230  1.00  0.00     0.058 A 
ATOM     86  C   UNL A   1      50.199  26.240  28.152  1.00  0.00     0.135 A 
ATOM     87  C   UNL A   1      49.921  27.135  25.939  1.00  0.00     0.135 A 
ATOM     88  F   UNL A   1      49.755  26.021  29.400  1.00  0.00    -0.206 F 
ATOM     89  C   UNL A   1      51.460  25.761  27.809  1.00  0.00     0.059 A 
ATOM     90  C   UNL A   1      51.166  26.638  25.565  1.00  0.00     0.059 A 
ATOM     91  F   UNL A   1      49.195  27.779  25.012  1.00  0.00    -0.206 F 
ATOM     92  C   UNL A   1      51.930  25.952  26.508  1.00  0.00     0.060 A 
BRANCH  92  93
ATOM     93  S   UNL A   1      53.535  25.256  26.060  1.00  0.00     0.124 S 
ATOM     94  O   UNL A   1      53.145  24.010  25.408  1.00  0.00    -0.237 OA
ATOM     95  O   UNL A   1      54.084  26.286  25.183  1.00  0.00    -0.237 OA
ATOM     96  O   UNL A   1      54.213  25.105  27.343  1.00  0.00    -0.744 OA
ENDBRANCH  92  93
ENDBRANCH  60  85
ENDBRANCH  34  35
ENDBRANCH  27  29
ENDBRANCH  26  27
ENDBRANCH  25  26
ENDBRANCH  24  25
ENDBRANCH  23  24
ENDBRANCH  22  23
ENDBRANCH   1  22
TORSDOF 23
ENDMDL
