MODEL 1
REMARK VINA RESULT:      -9.4      0.000      0.000
REMARK SMILES Cc1ccc(C[C@@H](Cc2cc(F)cc(Br)c2)C(=O)OCCOCCOCCOC(=O)c2ccc(-c3c4nc(c(-c5c(F)cc(S(=O)(=O)[O-])cc5F)c5ccc([nH]5)c(-c5c(F)cc(S(=O)(=O)[O-])cc5F)c5nc(c(-c6c(F)cc(S(=O)(=O)[O-])cc6F)c6ccc3[nH]6)C=C5)C=C4)cc2)cc1
REMARK SMILES IDX 24 1 23 2 22 3 21 4 20 5 19 6 17 7 18 8 7 9 6 10 5 11 1 12
REMARK SMILES IDX 2 13 3 14 98 15 4 16 97 17 8 18 9 19 10 20 16 21 11 22 14 23
REMARK SMILES IDX 12 24 13 25 15 26 25 27 26 28 27 29 28 30 29 31 30 32 31 33
REMARK SMILES IDX 32 34 96 35 33 36 95 37 34 38 35 39 36 40 89 41 37 42 94 43
REMARK SMILES IDX 88 44 90 45 38 46 93 47 87 48 86 49 39 51 73 52 52 53 72 54
REMARK SMILES IDX 53 55 56 56 71 57 91 58 54 59 55 60 70 62 92 63 57 64 40 65
REMARK SMILES IDX 41 66 50 67 42 68 43 69 49 70 51 71 44 72 45 73 46 74 47 75
REMARK SMILES IDX 48 76 74 77 75 78 84 79 76 80 77 81 83 82 85 83 78 84 79 85
REMARK SMILES IDX 80 86 81 87 82 88 58 89 59 90 68 91 60 92 61 93 67 94 69 95
REMARK SMILES IDX 62 96 63 97 64 98 65 99 66 100
REMARK H PARENT 90 50 56 61
REMARK Flexibility Score: inf
ROOT
ATOM      1  C   UNL A   1      36.749  34.135  35.008  1.00  0.00     0.188 C 
ENDROOT
BRANCH   1   2
ATOM      2  C   UNL A   1      35.898  34.336  33.744  1.00  0.00     0.188 C 
BRANCH   2   3
ATOM      3  O   UNL A   1      35.188  35.556  33.401  1.00  0.00    -0.376 OA
BRANCH   3   4
ATOM      4  C   UNL A   1      34.358  35.846  32.249  1.00  0.00     0.202 C 
BRANCH   4   5
ATOM      5  C   UNL A   1      33.885  34.902  30.812  1.00  0.00     0.261 C 
BRANCH   5   6
ATOM      6  O   UNL A   1      34.264  33.351  30.206  1.00  0.00    -0.463 OA
BRANCH   6   7
ATOM      7  C   UNL A   1      35.017  32.744  29.171  1.00  0.00     0.309 C 
ATOM      8  O   UNL A   1      34.719  32.667  27.978  1.00  0.00    -0.252 OA
BRANCH   7   9
ATOM      9  C   UNL A   1      36.327  32.052  29.406  1.00  0.00     0.108 C 
BRANCH   9  10
ATOM     10  C   UNL A   1      36.867  32.306  30.798  1.00  0.00     0.051 C 
BRANCH  10  11
ATOM     11  C   UNL A   1      38.214  32.969  30.671  1.00  0.00    -0.047 A 
ATOM     12  C   UNL A   1      42.106  34.391  29.546  1.00  0.00     0.044 C 
ATOM     13  C   UNL A   1      40.745  33.917  29.948  1.00  0.00    -0.051 A 
ATOM     14  C   UNL A   1      40.614  32.679  30.580  1.00  0.00     0.004 A 
ATOM     15  C   UNL A   1      39.601  34.674  29.665  1.00  0.00     0.004 A 
ATOM     16  C   UNL A   1      39.363  32.234  30.985  1.00  0.00     0.004 A 
ATOM     17  C   UNL A   1      38.339  34.196  30.009  1.00  0.00     0.004 A 
ENDBRANCH  10  11
ENDBRANCH   9  10
BRANCH   9  18
ATOM     18  C   UNL A   1      36.489  30.539  28.895  1.00  0.00     0.051 C 
BRANCH  18  19
ATOM     19  C   UNL A   1      37.707  29.669  29.061  1.00  0.00    -0.043 A 
ATOM     20  C   UNL A   1      37.740  28.641  30.020  1.00  0.00     0.043 A 
ATOM     21  C   UNL A   1      38.790  29.804  28.215  1.00  0.00     0.019 A 
ATOM     22  C   UNL A   1      38.698  27.634  29.948  1.00  0.00     0.124 A 
ATOM     23  C   UNL A   1      39.659  28.733  28.087  1.00  0.00     0.021 A 
ATOM     24  F   UNL A   1      38.635  26.598  30.792  1.00  0.00    -0.207 F 
ATOM     25  C   UNL A   1      39.629  27.633  28.930  1.00  0.00     0.055 A 
ATOM     26  Br  UNL A   1      40.615  28.711  26.507  1.00  0.00    -0.051 Br
ENDBRANCH  18  19
ENDBRANCH   9  18
ENDBRANCH   7   9
ENDBRANCH   6   7
ENDBRANCH   5   6
ENDBRANCH   4   5
ENDBRANCH   3   4
ENDBRANCH   2   3
ENDBRANCH   1   2
BRANCH   1  27
ATOM     27  O   UNL A   1      36.660  32.806  35.472  1.00  0.00    -0.376 OA
BRANCH  27  28
ATOM     28  C   UNL A   1      37.885  32.137  35.694  1.00  0.00     0.202 C 
BRANCH  28  29
ATOM     29  C   UNL A   1      38.211  31.026  34.681  1.00  0.00     0.261 C 
BRANCH  29  30
ATOM     30  O   UNL A   1      38.945  29.936  35.286  1.00  0.00    -0.460 OA
BRANCH  30  31
ATOM     31  C   UNL A   1      40.317  30.052  35.287  1.00  0.00     0.338 C 
ATOM     32  O   UNL A   1      40.921  30.723  36.110  1.00  0.00    -0.246 OA
BRANCH  31  33
ATOM     33  C   UNL A   1      40.908  29.238  34.175  1.00  0.00     0.060 A 
ATOM     34  C   UNL A   1      42.177  28.657  34.119  1.00  0.00     0.016 A 
ATOM     35  C   UNL A   1      40.232  29.253  33.006  1.00  0.00     0.016 A 
ATOM     36  C   UNL A   1      42.847  28.318  32.857  1.00  0.00     0.010 A 
ATOM     37  C   UNL A   1      40.980  29.097  31.835  1.00  0.00     0.010 A 
ATOM     38  C   UNL A   1      42.309  28.619  31.594  1.00  0.00    -0.014 A 
BRANCH  38  39
ATOM     39  C   UNL A   1      43.134  28.550  30.062  1.00  0.00     0.031 A 
ATOM     40  C   UNL A   1      43.735  27.271  29.048  1.00  0.00     0.074 A 
ATOM     41  C   UNL A   1      43.446  29.716  29.449  1.00  0.00     0.049 A 
ATOM     42  N   UNL A   1      43.772  27.232  27.715  1.00  0.00    -0.248 NA
ATOM     43  C   UNL A   1      44.340  25.980  29.480  1.00  0.00     0.031 C 
ATOM     44  C   UNL A   1      43.673  29.914  28.020  1.00  0.00     0.029 A 
ATOM     45  N   UNL A   1      43.834  30.918  30.014  1.00  0.00    -0.354 N 
ATOM     46  C   UNL A   1      44.263  25.993  27.258  1.00  0.00     0.074 A 
ATOM     47  C   UNL A   1      44.497  25.209  28.419  1.00  0.00     0.031 C 
ATOM     48  C   UNL A   1      44.432  30.993  27.836  1.00  0.00     0.029 A 
ATOM     49  C   UNL A   1      44.762  31.508  29.137  1.00  0.00     0.049 A 
ATOM     50  H   UNL A   1      43.520  31.292  30.869  1.00  0.00     0.167 HD
ATOM     51  C   UNL A   1      44.958  25.668  26.126  1.00  0.00     0.037 A 
ATOM     52  C   UNL A   1      45.972  31.980  29.529  1.00  0.00     0.037 A 
ATOM     53  C   UNL A   1      45.777  26.784  25.682  1.00  0.00     0.049 A 
ATOM     54  C   UNL A   1      47.150  31.503  28.685  1.00  0.00     0.074 A 
ATOM     55  C   UNL A   1      45.537  27.901  24.913  1.00  0.00     0.029 A 
ATOM     56  N   UNL A   1      47.015  27.005  26.292  1.00  0.00    -0.354 N 
ATOM     57  N   UNL A   1      47.099  30.732  27.616  1.00  0.00    -0.248 NA
ATOM     58  C   UNL A   1      48.527  31.816  29.062  1.00  0.00     0.031 C 
ATOM     59  C   UNL A   1      46.554  28.858  25.212  1.00  0.00     0.029 A 
ATOM     60  C   UNL A   1      47.443  28.325  26.140  1.00  0.00     0.049 A 
ATOM     61  H   UNL A   1      47.526  26.313  26.772  1.00  0.00     0.167 HD
ATOM     62  C   UNL A   1      48.362  30.175  27.429  1.00  0.00     0.074 A 
ATOM     63  C   UNL A   1      49.219  31.071  28.186  1.00  0.00     0.031 C 
ATOM     64  C   UNL A   1      48.584  28.907  26.904  1.00  0.00     0.037 A 
BRANCH  51  65
ATOM     65  C   UNL A   1      44.984  24.205  25.585  1.00  0.00     0.058 A 
ATOM     66  C   UNL A   1      43.830  23.577  25.069  1.00  0.00     0.135 A 
ATOM     67  C   UNL A   1      46.099  23.318  25.699  1.00  0.00     0.135 A 
ATOM     68  F   UNL A   1      42.684  24.264  24.947  1.00  0.00    -0.206 F 
ATOM     69  C   UNL A   1      43.779  22.206  24.718  1.00  0.00     0.059 A 
ATOM     70  C   UNL A   1      46.090  21.972  25.299  1.00  0.00     0.059 A 
ATOM     71  F   UNL A   1      47.252  23.701  26.270  1.00  0.00    -0.206 F 
ATOM     72  C   UNL A   1      44.911  21.405  24.851  1.00  0.00     0.060 A 
BRANCH  72  73
ATOM     73  S   UNL A   1      44.826  19.618  24.550  1.00  0.00     0.124 S 
ATOM     74  O   UNL A   1      43.765  19.212  25.466  1.00  0.00    -0.237 OA
ATOM     75  O   UNL A   1      44.503  19.540  23.130  1.00  0.00    -0.237 OA
ATOM     76  O   UNL A   1      46.163  19.145  24.906  1.00  0.00    -0.744 OA
ENDBRANCH  72  73
ENDBRANCH  51  65
BRANCH  52  77
ATOM     77  C   UNL A   1      45.924  32.444  30.959  1.00  0.00     0.058 A 
ATOM     78  C   UNL A   1      45.412  33.747  31.143  1.00  0.00     0.135 A 
ATOM     79  C   UNL A   1      45.810  31.567  32.055  1.00  0.00     0.135 A 
ATOM     80  F   UNL A   1      45.471  34.634  30.135  1.00  0.00    -0.206 F 
ATOM     81  C   UNL A   1      44.672  34.104  32.267  1.00  0.00     0.059 A 
ATOM     82  C   UNL A   1      45.082  31.913  33.207  1.00  0.00     0.059 A 
ATOM     83  F   UNL A   1      46.290  30.320  31.984  1.00  0.00    -0.206 F 
ATOM     84  C   UNL A   1      44.466  33.163  33.270  1.00  0.00     0.060 A 
BRANCH  84  85
ATOM     85  S   UNL A   1      43.211  33.557  34.515  1.00  0.00     0.124 S 
ATOM     86  O   UNL A   1      43.207  35.013  34.507  1.00  0.00    -0.237 OA
ATOM     87  O   UNL A   1      42.027  32.926  33.935  1.00  0.00    -0.237 OA
ATOM     88  O   UNL A   1      43.725  32.930  35.728  1.00  0.00    -0.744 OA
ENDBRANCH  84  85
ENDBRANCH  52  77
BRANCH  64  89
ATOM     89  C   UNL A   1      49.914  28.131  27.152  1.00  0.00     0.058 A 
ATOM     90  C   UNL A   1      50.167  27.297  28.268  1.00  0.00     0.135 A 
ATOM     91  C   UNL A   1      50.995  28.161  26.238  1.00  0.00     0.135 A 
ATOM     92  F   UNL A   1      49.183  26.851  29.057  1.00  0.00    -0.206 F 
ATOM     93  C   UNL A   1      51.434  26.805  28.603  1.00  0.00     0.059 A 
ATOM     94  C   UNL A   1      52.253  27.590  26.502  1.00  0.00     0.059 A 
ATOM     95  F   UNL A   1      50.865  28.722  25.028  1.00  0.00    -0.206 F 
ATOM     96  C   UNL A   1      52.492  27.000  27.733  1.00  0.00     0.060 A 
BRANCH  96  97
ATOM     97  S   UNL A   1      54.145  26.462  28.216  1.00  0.00     0.124 S 
ATOM     98  O   UNL A   1      54.324  25.284  27.374  1.00  0.00    -0.237 OA
ATOM     99  O   UNL A   1      54.979  27.611  27.871  1.00  0.00    -0.237 OA
ATOM    100  O   UNL A   1      54.012  26.200  29.646  1.00  0.00    -0.744 OA
ENDBRANCH  96  97
ENDBRANCH  64  89
ENDBRANCH  38  39
ENDBRANCH  31  33
ENDBRANCH  30  31
ENDBRANCH  29  30
ENDBRANCH  28  29
ENDBRANCH  27  28
ENDBRANCH   1  27
TORSDOF 24
ENDMDL
MODEL 2
REMARK VINA RESULT:      -9.3      5.389      7.228
REMARK SMILES Cc1ccc(C[C@@H](Cc2cc(F)cc(Br)c2)C(=O)OCCOCCOCCOC(=O)c2ccc(-c3c4nc(c(-c5c(F)cc(S(=O)(=O)[O-])cc5F)c5ccc([nH]5)c(-c5c(F)cc(S(=O)(=O)[O-])cc5F)c5nc(c(-c6c(F)cc(S(=O)(=O)[O-])cc6F)c6ccc3[nH]6)C=C5)C=C4)cc2)cc1
REMARK SMILES IDX 24 1 23 2 22 3 21 4 20 5 19 6 17 7 18 8 7 9 6 10 5 11 1 12
REMARK SMILES IDX 2 13 3 14 98 15 4 16 97 17 8 18 9 19 10 20 16 21 11 22 14 23
REMARK SMILES IDX 12 24 13 25 15 26 25 27 26 28 27 29 28 30 29 31 30 32 31 33
REMARK SMILES IDX 32 34 96 35 33 36 95 37 34 38 35 39 36 40 89 41 37 42 94 43
REMARK SMILES IDX 88 44 90 45 38 46 93 47 87 48 86 49 39 51 73 52 52 53 72 54
REMARK SMILES IDX 53 55 56 56 71 57 91 58 54 59 55 60 70 62 92 63 57 64 40 65
REMARK SMILES IDX 41 66 50 67 42 68 43 69 49 70 51 71 44 72 45 73 46 74 47 75
REMARK SMILES IDX 48 76 74 77 75 78 84 79 76 80 77 81 83 82 85 83 78 84 79 85
REMARK SMILES IDX 80 86 81 87 82 88 58 89 59 90 68 91 60 92 61 93 67 94 69 95
REMARK SMILES IDX 62 96 63 97 64 98 65 99 66 100
REMARK H PARENT 90 50 56 61
REMARK Flexibility Score: inf
ROOT
ATOM      1  C   UNL A   1      31.735  30.646  26.604  1.00  0.00     0.188 C 
ENDROOT
BRANCH   1   2
ATOM      2  C   UNL A   1      31.775  29.124  26.397  1.00  0.00     0.188 C 
BRANCH   2   3
ATOM      3  O   UNL A   1      31.537  28.447  25.133  1.00  0.00    -0.376 OA
BRANCH   3   4
ATOM      4  C   UNL A   1      31.446  27.029  24.851  1.00  0.00     0.202 C 
BRANCH   4   5
ATOM      5  C   UNL A   1      30.251  25.772  25.266  1.00  0.00     0.261 C 
BRANCH   5   6
ATOM      6  O   UNL A   1      30.328  24.212  25.958  1.00  0.00    -0.463 OA
BRANCH   6   7
ATOM      7  C   UNL A   1      31.240  23.142  26.125  1.00  0.00     0.309 C 
ATOM      8  O   UNL A   1      31.750  22.752  27.176  1.00  0.00    -0.252 OA
BRANCH   7   9
ATOM      9  C   UNL A   1      31.758  22.319  24.982  1.00  0.00     0.108 C 
BRANCH   9  10
ATOM     10  C   UNL A   1      32.334  23.176  23.875  1.00  0.00     0.051 C 
BRANCH  10  11
ATOM     11  C   UNL A   1      33.784  23.444  24.187  1.00  0.00    -0.047 A 
ATOM     12  C   UNL A   1      37.766  23.669  25.779  1.00  0.00     0.044 C 
ATOM     13  C   UNL A   1      36.387  23.592  25.202  1.00  0.00    -0.051 A 
ATOM     14  C   UNL A   1      35.379  24.396  25.737  1.00  0.00     0.004 A 
ATOM     15  C   UNL A   1      36.083  22.701  24.164  1.00  0.00     0.004 A 
ATOM     16  C   UNL A   1      34.100  24.359  25.199  1.00  0.00     0.004 A 
ATOM     17  C   UNL A   1      34.785  22.614  23.669  1.00  0.00     0.004 A 
ENDBRANCH  10  11
ENDBRANCH   9  10
BRANCH   9  18
ATOM     18  C   UNL A   1      32.614  21.003  25.320  1.00  0.00     0.051 C 
BRANCH  18  19
ATOM     19  C   UNL A   1      32.538  19.683  24.599  1.00  0.00    -0.043 A 
ATOM     20  C   UNL A   1      32.217  19.621  23.231  1.00  0.00     0.043 A 
ATOM     21  C   UNL A   1      32.867  18.508  25.244  1.00  0.00     0.019 A 
ATOM     22  C   UNL A   1      32.480  18.471  22.493  1.00  0.00     0.124 A 
ATOM     23  C   UNL A   1      33.233  17.417  24.472  1.00  0.00     0.021 A 
ATOM     24  F   UNL A   1      32.287  18.475  21.169  1.00  0.00    -0.207 F 
ATOM     25  C   UNL A   1      33.061  17.376  23.096  1.00  0.00     0.055 A 
ATOM     26  Br  UNL A   1      34.284  16.179  25.350  1.00  0.00    -0.051 Br
ENDBRANCH  18  19
ENDBRANCH   9  18
ENDBRANCH   7   9
ENDBRANCH   6   7
ENDBRANCH   5   6
ENDBRANCH   4   5
ENDBRANCH   3   4
ENDBRANCH   2   3
ENDBRANCH   1   2
BRANCH   1  27
ATOM     27  O   UNL A   1      33.009  31.144  26.950  1.00  0.00    -0.376 OA
BRANCH  27  28
ATOM     28  C   UNL A   1      34.060  30.200  26.991  1.00  0.00     0.202 C 
BRANCH  28  29
ATOM     29  C   UNL A   1      34.621  29.913  28.394  1.00  0.00     0.261 C 
BRANCH  29  30
ATOM     30  O   UNL A   1      35.312  31.056  28.949  1.00  0.00    -0.460 OA
BRANCH  30  31
ATOM     31  C   UNL A   1      35.987  30.846  30.130  1.00  0.00     0.338 C 
ATOM     32  O   UNL A   1      35.676  31.398  31.174  1.00  0.00    -0.246 OA
BRANCH  31  33
ATOM     33  C   UNL A   1      37.095  29.857  29.926  1.00  0.00     0.060 A 
ATOM     34  C   UNL A   1      38.144  29.553  30.798  1.00  0.00     0.016 A 
ATOM     35  C   UNL A   1      37.229  29.367  28.675  1.00  0.00     0.016 A 
ATOM     36  C   UNL A   1      39.416  28.973  30.348  1.00  0.00     0.010 A 
ATOM     37  C   UNL A   1      38.516  29.001  28.267  1.00  0.00     0.010 A 
ATOM     38  C   UNL A   1      39.723  28.747  28.995  1.00  0.00    -0.014 A 
BRANCH  38  39
ATOM     39  C   UNL A   1      41.286  28.363  28.327  1.00  0.00     0.031 A 
ATOM     40  C   UNL A   1      42.115  26.892  27.911  1.00  0.00     0.074 A 
ATOM     41  C   UNL A   1      42.135  29.382  28.059  1.00  0.00     0.049 A 
ATOM     42  N   UNL A   1      42.961  26.687  26.900  1.00  0.00    -0.248 NA
ATOM     43  C   UNL A   1      42.048  25.582  28.617  1.00  0.00     0.031 C 
ATOM     44  C   UNL A   1      43.233  29.368  27.095  1.00  0.00     0.029 A 
ATOM     45  N   UNL A   1      42.320  30.566  28.751  1.00  0.00    -0.354 N 
ATOM     46  C   UNL A   1      43.369  25.340  26.846  1.00  0.00     0.074 A 
ATOM     47  C   UNL A   1      42.671  24.674  27.887  1.00  0.00     0.031 C 
ATOM     48  C   UNL A   1      44.139  30.282  27.440  1.00  0.00     0.029 A 
ATOM     49  C   UNL A   1      43.685  30.890  28.662  1.00  0.00     0.049 A 
ATOM     50  H   UNL A   1      41.626  31.085  29.219  1.00  0.00     0.167 HD
ATOM     51  C   UNL A   1      44.533  24.775  26.404  1.00  0.00     0.037 A 
ATOM     52  C   UNL A   1      44.454  31.206  29.733  1.00  0.00     0.037 A 
ATOM     53  C   UNL A   1      45.654  25.684  26.586  1.00  0.00     0.049 A 
ATOM     54  C   UNL A   1      45.776  30.449  29.819  1.00  0.00     0.074 A 
ATOM     55  C   UNL A   1      46.171  26.725  25.847  1.00  0.00     0.029 A 
ATOM     56  N   UNL A   1      46.259  25.776  27.842  1.00  0.00    -0.354 N 
ATOM     57  N   UNL A   1      46.247  29.574  28.952  1.00  0.00    -0.248 NA
ATOM     58  C   UNL A   1      46.650  30.581  30.983  1.00  0.00     0.031 C 
ATOM     59  C   UNL A   1      46.949  27.536  26.728  1.00  0.00     0.029 A 
ATOM     60  C   UNL A   1      46.941  26.983  28.005  1.00  0.00     0.049 A 
ATOM     61  H   UNL A   1      46.211  25.074  28.532  1.00  0.00     0.167 HD
ATOM     62  C   UNL A   1      47.210  28.803  29.599  1.00  0.00     0.074 A 
ATOM     63  C   UNL A   1      47.570  29.636  30.735  1.00  0.00     0.031 C 
ATOM     64  C   UNL A   1      47.450  27.462  29.322  1.00  0.00     0.037 A 
BRANCH  51  65
ATOM     65  C   UNL A   1      44.597  23.272  25.990  1.00  0.00     0.058 A 
ATOM     66  C   UNL A   1      45.815  22.560  25.946  1.00  0.00     0.135 A 
ATOM     67  C   UNL A   1      43.494  22.526  25.473  1.00  0.00     0.135 A 
ATOM     68  F   UNL A   1      46.954  23.142  26.349  1.00  0.00    -0.206 F 
ATOM     69  C   UNL A   1      45.932  21.248  25.425  1.00  0.00     0.059 A 
ATOM     70  C   UNL A   1      43.575  21.202  25.011  1.00  0.00     0.059 A 
ATOM     71  F   UNL A   1      42.275  23.071  25.330  1.00  0.00    -0.206 F 
ATOM     72  C   UNL A   1      44.808  20.581  24.945  1.00  0.00     0.060 A 
BRANCH  72  73
ATOM     73  S   UNL A   1      44.961  18.962  24.138  1.00  0.00     0.124 S 
ATOM     74  O   UNL A   1      44.569  19.275  22.767  1.00  0.00    -0.237 OA
ATOM     75  O   UNL A   1      46.367  18.629  24.336  1.00  0.00    -0.237 OA
ATOM     76  O   UNL A   1      44.017  18.122  24.873  1.00  0.00    -0.744 OA
ENDBRANCH  72  73
ENDBRANCH  51  65
BRANCH  52  77
ATOM     77  C   UNL A   1      43.625  31.840  30.816  1.00  0.00     0.058 A 
ATOM     78  C   UNL A   1      43.188  33.154  30.536  1.00  0.00     0.135 A 
ATOM     79  C   UNL A   1      42.843  31.102  31.725  1.00  0.00     0.135 A 
ATOM     80  F   UNL A   1      43.874  33.912  29.665  1.00  0.00    -0.206 F 
ATOM     81  C   UNL A   1      41.962  33.641  30.981  1.00  0.00     0.059 A 
ATOM     82  C   UNL A   1      41.610  31.582  32.202  1.00  0.00     0.059 A 
ATOM     83  F   UNL A   1      43.192  29.858  32.073  1.00  0.00    -0.206 F 
ATOM     84  C   UNL A   1      41.154  32.828  31.769  1.00  0.00     0.060 A 
BRANCH  84  85
ATOM     85  S   UNL A   1      39.442  33.364  32.010  1.00  0.00     0.124 S 
ATOM     86  O   UNL A   1      39.581  34.807  32.149  1.00  0.00    -0.237 OA
ATOM     87  O   UNL A   1      38.824  32.912  30.765  1.00  0.00    -0.237 OA
ATOM     88  O   UNL A   1      39.026  32.648  33.212  1.00  0.00    -0.744 OA
ENDBRANCH  84  85
ENDBRANCH  52  77
BRANCH  64  89
ATOM     89  C   UNL A   1      48.151  26.520  30.348  1.00  0.00     0.058 A 
ATOM     90  C   UNL A   1      47.564  26.054  31.550  1.00  0.00     0.135 A 
ATOM     91  C   UNL A   1      49.452  26.001  30.141  1.00  0.00     0.135 A 
ATOM     92  F   UNL A   1      46.246  26.127  31.770  1.00  0.00    -0.206 F 
ATOM     93  C   UNL A   1      48.277  25.413  32.570  1.00  0.00     0.059 A 
ATOM     94  C   UNL A   1      50.161  25.268  31.110  1.00  0.00     0.059 A 
ATOM     95  F   UNL A   1      50.082  26.158  28.969  1.00  0.00    -0.206 F 
ATOM     96  C   UNL A   1      49.599  25.066  32.362  1.00  0.00     0.060 A 
BRANCH  96  97
ATOM     97  S   UNL A   1      50.548  24.342  33.715  1.00  0.00     0.124 S 
ATOM     98  O   UNL A   1      49.483  23.883  34.602  1.00  0.00    -0.237 OA
ATOM     99  O   UNL A   1      51.311  23.286  33.054  1.00  0.00    -0.237 OA
ATOM    100  O   UNL A   1      51.342  25.462  34.210  1.00  0.00    -0.744 OA
ENDBRANCH  96  97
ENDBRANCH  64  89
ENDBRANCH  38  39
ENDBRANCH  31  33
ENDBRANCH  30  31
ENDBRANCH  29  30
ENDBRANCH  28  29
ENDBRANCH  27  28
ENDBRANCH   1  27
TORSDOF 24
ENDMDL
MODEL 3
REMARK VINA RESULT:      -8.9      1.444      2.039
REMARK SMILES Cc1ccc(C[C@@H](Cc2cc(F)cc(Br)c2)C(=O)OCCOCCOCCOC(=O)c2ccc(-c3c4nc(c(-c5c(F)cc(S(=O)(=O)[O-])cc5F)c5ccc([nH]5)c(-c5c(F)cc(S(=O)(=O)[O-])cc5F)c5nc(c(-c6c(F)cc(S(=O)(=O)[O-])cc6F)c6ccc3[nH]6)C=C5)C=C4)cc2)cc1
REMARK SMILES IDX 24 1 23 2 22 3 21 4 20 5 19 6 17 7 18 8 7 9 6 10 5 11 1 12
REMARK SMILES IDX 2 13 3 14 98 15 4 16 97 17 8 18 9 19 10 20 16 21 11 22 14 23
REMARK SMILES IDX 12 24 13 25 15 26 25 27 26 28 27 29 28 30 29 31 30 32 31 33
REMARK SMILES IDX 32 34 96 35 33 36 95 37 34 38 35 39 36 40 89 41 37 42 94 43
REMARK SMILES IDX 88 44 90 45 38 46 93 47 87 48 86 49 39 51 73 52 52 53 72 54
REMARK SMILES IDX 53 55 56 56 71 57 91 58 54 59 55 60 70 62 92 63 57 64 40 65
REMARK SMILES IDX 41 66 50 67 42 68 43 69 49 70 51 71 44 72 45 73 46 74 47 75
REMARK SMILES IDX 48 76 74 77 75 78 84 79 76 80 77 81 83 82 85 83 78 84 79 85
REMARK SMILES IDX 80 86 81 87 82 88 58 89 59 90 68 91 60 92 61 93 67 94 69 95
REMARK SMILES IDX 62 96 63 97 64 98 65 99 66 100
REMARK H PARENT 90 50 56 61
REMARK Flexibility Score: inf
ROOT
ATOM      1  C   UNL A   1      36.422  34.174  35.143  1.00  0.00     0.188 C 
ENDROOT
BRANCH   1   2
ATOM      2  C   UNL A   1      35.600  34.383  33.862  1.00  0.00     0.188 C 
BRANCH   2   3
ATOM      3  O   UNL A   1      34.828  35.575  33.551  1.00  0.00    -0.376 OA
BRANCH   3   4
ATOM      4  C   UNL A   1      34.123  35.923  32.334  1.00  0.00     0.202 C 
BRANCH   4   5
ATOM      5  C   UNL A   1      33.878  35.087  30.778  1.00  0.00     0.261 C 
BRANCH   5   6
ATOM      6  O   UNL A   1      34.361  33.584  30.124  1.00  0.00    -0.463 OA
BRANCH   6   7
ATOM      7  C   UNL A   1      35.288  33.053  29.195  1.00  0.00     0.309 C 
ATOM      8  O   UNL A   1      35.254  33.150  27.967  1.00  0.00    -0.252 OA
BRANCH   7   9
ATOM      9  C   UNL A   1      36.477  32.233  29.600  1.00  0.00     0.108 C 
BRANCH   9  10
ATOM     10  C   UNL A   1      36.889  32.490  31.033  1.00  0.00     0.051 C 
BRANCH  10  11
ATOM     11  C   UNL A   1      38.363  32.806  31.055  1.00  0.00    -0.047 A 
ATOM     12  C   UNL A   1      42.283  34.553  31.184  1.00  0.00     0.044 C 
ATOM     13  C   UNL A   1      40.925  33.925  31.151  1.00  0.00    -0.051 A 
ATOM     14  C   UNL A   1      40.217  33.896  29.948  1.00  0.00     0.004 A 
ATOM     15  C   UNL A   1      40.339  33.404  32.311  1.00  0.00     0.004 A 
ATOM     16  C   UNL A   1      38.968  33.294  29.890  1.00  0.00     0.004 A 
ATOM     17  C   UNL A   1      39.057  32.861  32.269  1.00  0.00     0.004 A 
ENDBRANCH  10  11
ENDBRANCH   9  10
BRANCH   9  18
ATOM     18  C   UNL A   1      36.519  30.688  29.162  1.00  0.00     0.051 C 
BRANCH  18  19
ATOM     19  C   UNL A   1      37.689  29.752  29.314  1.00  0.00    -0.043 A 
ATOM     20  C   UNL A   1      37.691  28.746  30.297  1.00  0.00     0.043 A 
ATOM     21  C   UNL A   1      38.751  29.804  28.434  1.00  0.00     0.019 A 
ATOM     22  C   UNL A   1      38.586  27.683  30.221  1.00  0.00     0.124 A 
ATOM     23  C   UNL A   1      39.553  28.680  28.307  1.00  0.00     0.021 A 
ATOM     24  F   UNL A   1      38.487  26.671  31.091  1.00  0.00    -0.207 F 
ATOM     25  C   UNL A   1      39.483  27.603  29.177  1.00  0.00     0.055 A 
ATOM     26  Br  UNL A   1      40.457  28.566  26.701  1.00  0.00    -0.051 Br
ENDBRANCH  18  19
ENDBRANCH   9  18
ENDBRANCH   7   9
ENDBRANCH   6   7
ENDBRANCH   5   6
ENDBRANCH   4   5
ENDBRANCH   3   4
ENDBRANCH   2   3
ENDBRANCH   1   2
BRANCH   1  27
ATOM     27  O   UNL A   1      36.367  32.829  35.566  1.00  0.00    -0.376 OA
BRANCH  27  28
ATOM     28  C   UNL A   1      37.597  32.239  35.936  1.00  0.00     0.202 C 
BRANCH  28  29
ATOM     29  C   UNL A   1      38.037  31.053  35.062  1.00  0.00     0.261 C 
BRANCH  29  30
ATOM     30  O   UNL A   1      39.173  30.354  35.623  1.00  0.00    -0.460 OA
BRANCH  30  31
ATOM     31  C   UNL A   1      40.416  30.831  35.273  1.00  0.00     0.338 C 
ATOM     32  O   UNL A   1      40.872  31.872  35.719  1.00  0.00    -0.246 OA
BRANCH  31  33
ATOM     33  C   UNL A   1      41.082  29.888  34.317  1.00  0.00     0.060 A 
ATOM     34  C   UNL A   1      42.446  29.601  34.207  1.00  0.00     0.016 A 
ATOM     35  C   UNL A   1      40.317  29.435  33.301  1.00  0.00     0.016 A 
ATOM     36  C   UNL A   1      43.057  29.078  32.978  1.00  0.00     0.010 A 
ATOM     37  C   UNL A   1      40.967  29.125  32.101  1.00  0.00     0.010 A 
ATOM     38  C   UNL A   1      42.344  28.897  31.780  1.00  0.00    -0.014 A 
BRANCH  38  39
ATOM     39  C   UNL A   1      43.013  28.587  30.202  1.00  0.00     0.031 A 
ATOM     40  C   UNL A   1      43.514  27.162  29.340  1.00  0.00     0.074 A 
ATOM     41  C   UNL A   1      43.259  29.642  29.392  1.00  0.00     0.049 A 
ATOM     42  N   UNL A   1      43.417  26.921  28.031  1.00  0.00    -0.248 NA
ATOM     43  C   UNL A   1      44.162  25.944  29.900  1.00  0.00     0.031 C 
ATOM     44  C   UNL A   1      43.341  29.619  27.934  1.00  0.00     0.029 A 
ATOM     45  N   UNL A   1      43.698  30.912  29.726  1.00  0.00    -0.354 N 
ATOM     46  C   UNL A   1      43.864  25.621  27.722  1.00  0.00     0.074 A 
ATOM     47  C   UNL A   1      44.214  25.019  28.958  1.00  0.00     0.031 C 
ATOM     48  C   UNL A   1      44.075  30.649  27.513  1.00  0.00     0.029 A 
ATOM     49  C   UNL A   1      44.532  31.351  28.683  1.00  0.00     0.049 A 
ATOM     50  H   UNL A   1      43.469  31.414  30.542  1.00  0.00     0.167 HD
ATOM     51  C   UNL A   1      44.443  25.120  26.589  1.00  0.00     0.037 A 
ATOM     52  C   UNL A   1      45.773  31.861  28.877  1.00  0.00     0.037 A 
ATOM     53  C   UNL A   1      45.211  26.146  25.902  1.00  0.00     0.049 A 
ATOM     54  C   UNL A   1      46.862  31.248  28.002  1.00  0.00     0.074 A 
ATOM     55  C   UNL A   1      44.892  27.137  24.999  1.00  0.00     0.029 A 
ATOM     56  N   UNL A   1      46.503  26.442  26.345  1.00  0.00    -0.354 N 
ATOM     57  N   UNL A   1      46.708  30.325  27.073  1.00  0.00    -0.248 NA
ATOM     58  C   UNL A   1      48.269  31.597  28.190  1.00  0.00     0.031 C 
ATOM     59  C   UNL A   1      45.931  28.116  25.047  1.00  0.00     0.029 A 
ATOM     60  C   UNL A   1      46.909  27.718  25.953  1.00  0.00     0.049 A 
ATOM     61  H   UNL A   1      47.061  25.824  26.872  1.00  0.00     0.167 HD
ATOM     62  C   UNL A   1      47.947  29.730  26.848  1.00  0.00     0.074 A 
ATOM     63  C   UNL A   1      48.873  30.720  27.372  1.00  0.00     0.031 C 
ATOM     64  C   UNL A   1      48.119  28.395  26.503  1.00  0.00     0.037 A 
BRANCH  51  65
ATOM     65  C   UNL A   1      44.420  23.592  26.276  1.00  0.00     0.058 A 
ATOM     66  C   UNL A   1      45.607  22.841  26.130  1.00  0.00     0.135 A 
ATOM     67  C   UNL A   1      43.244  22.847  25.955  1.00  0.00     0.135 A 
ATOM     68  F   UNL A   1      46.801  23.413  26.346  1.00  0.00    -0.206 F 
ATOM     69  C   UNL A   1      45.628  21.494  25.692  1.00  0.00     0.059 A 
ATOM     70  C   UNL A   1      43.236  21.494  25.580  1.00  0.00     0.059 A 
ATOM     71  F   UNL A   1      42.030  23.418  25.928  1.00  0.00    -0.206 F 
ATOM     72  C   UNL A   1      44.437  20.832  25.404  1.00  0.00     0.060 A 
BRANCH  72  73
ATOM     73  S   UNL A   1      44.450  19.159  24.700  1.00  0.00     0.124 S 
ATOM     74  O   UNL A   1      45.680  18.610  25.263  1.00  0.00    -0.237 OA
ATOM     75  O   UNL A   1      43.209  18.581  25.203  1.00  0.00    -0.237 OA
ATOM     76  O   UNL A   1      44.483  19.393  23.258  1.00  0.00    -0.744 OA
ENDBRANCH  72  73
ENDBRANCH  51  65
BRANCH  52  77
ATOM     77  C   UNL A   1      45.867  32.537  30.217  1.00  0.00     0.058 A 
ATOM     78  C   UNL A   1      46.547  31.796  31.209  1.00  0.00     0.135 A 
ATOM     79  C   UNL A   1      45.853  33.936  30.382  1.00  0.00     0.135 A 
ATOM     80  F   UNL A   1      46.617  30.458  31.109  1.00  0.00    -0.206 F 
ATOM     81  C   UNL A   1      47.317  32.405  32.197  1.00  0.00     0.059 A 
ATOM     82  C   UNL A   1      46.608  34.571  31.383  1.00  0.00     0.059 A 
ATOM     83  F   UNL A   1      45.211  34.719  29.508  1.00  0.00    -0.206 F 
ATOM     84  C   UNL A   1      47.385  33.793  32.243  1.00  0.00     0.060 A 
BRANCH  84  85
ATOM     85  S   UNL A   1      48.669  34.513  33.298  1.00  0.00     0.124 S 
ATOM     86  O   UNL A   1      48.045  34.488  34.614  1.00  0.00    -0.237 OA
ATOM     87  O   UNL A   1      49.763  33.563  33.106  1.00  0.00    -0.237 OA
ATOM     88  O   UNL A   1      48.881  35.837  32.722  1.00  0.00    -0.744 OA
ENDBRANCH  84  85
ENDBRANCH  52  77
BRANCH  64  89
ATOM     89  C   UNL A   1      49.470  27.649  26.732  1.00  0.00     0.058 A 
ATOM     90  C   UNL A   1      50.063  27.424  27.998  1.00  0.00     0.135 A 
ATOM     91  C   UNL A   1      50.217  27.083  25.672  1.00  0.00     0.135 A 
ATOM     92  F   UNL A   1      49.375  27.557  29.138  1.00  0.00    -0.206 F 
ATOM     93  C   UNL A   1      51.377  26.975  28.176  1.00  0.00     0.059 A 
ATOM     94  C   UNL A   1      51.502  26.532  25.833  1.00  0.00     0.059 A 
ATOM     95  F   UNL A   1      49.715  27.009  24.432  1.00  0.00    -0.206 F 
ATOM     96  C   UNL A   1      52.114  26.575  27.076  1.00  0.00     0.060 A 
BRANCH  96  97
ATOM     97  S   UNL A   1      53.842  26.102  27.292  1.00  0.00     0.124 S 
ATOM     98  O   UNL A   1      53.925  24.916  26.446  1.00  0.00    -0.237 OA
ATOM     99  O   UNL A   1      54.567  27.272  26.803  1.00  0.00    -0.237 OA
ATOM    100  O   UNL A   1      53.950  25.861  28.727  1.00  0.00    -0.744 OA
ENDBRANCH  96  97
ENDBRANCH  64  89
ENDBRANCH  38  39
ENDBRANCH  31  33
ENDBRANCH  30  31
ENDBRANCH  29  30
ENDBRANCH  28  29
ENDBRANCH  27  28
ENDBRANCH   1  27
TORSDOF 24
ENDMDL
