MODEL 1
REMARK VINA RESULT:     -11.8      0.000      0.000
REMARK SMILES O=C(Cc1c(C(=O)c2cc3c(cn2)CCCC3)[nH]c2cc(Cl)ccc12)OCCOCCOCCOC(=O)c1ccc(-c2c3nc(c(-c4c(F)cc(S(=O)(=O)[O-])cc4F)c4ccc([nH]4)c(-c4c(F)cc(S(=O)(=O)[O-])cc4F)c4nc(c(-c5c(F)cc(S(=O)(=O)[O-])cc5F)c5ccc2[nH]5)C=C4)C=C3)cc1
REMARK SMILES IDX 30 1 29 2 28 3 27 4 26 5 2 6 1 7 3 8 4 9 5 10 25 11 18 12
REMARK SMILES IDX 19 13 24 14 20 16 23 17 21 18 22 19 6 20 7 21 8 22 9 23
REMARK SMILES IDX 13 24 10 25 12 26 11 27 17 28 14 29 16 30 15 31 31 32 32 33
REMARK SMILES IDX 33 34 34 35 35 36 36 37 37 38 38 39 39 40 103 41 40 42
REMARK SMILES IDX 102 43 41 44 42 45 43 46 96 47 44 48 101 49 95 50 97 51
REMARK SMILES IDX 45 52 100 53 94 54 93 55 46 57 80 58 59 59 79 60 60 61 63 62
REMARK SMILES IDX 78 63 98 64 61 65 62 66 77 68 99 69 64 70 47 71 48 72 57 73
REMARK SMILES IDX 49 74 50 75 56 76 58 77 51 78 52 79 53 80 54 81 55 82 81 83
REMARK SMILES IDX 82 84 91 85 83 86 84 87 90 88 92 89 85 90 86 91 87 92 88 93
REMARK SMILES IDX 89 94 65 95 66 96 75 97 67 98 68 99 74 100 76 101 69 102
REMARK SMILES IDX 70 103 71 104 72 105 73 106
REMARK H PARENT 18 15 97 56 63 67
REMARK Flexibility Score: inf
ROOT
ATOM      1  C   UNL A   1      37.541  23.714  25.659  1.00  0.00     0.188 C 
ENDROOT
BRANCH   1   2
ATOM      2  O   UNL A   1      36.228  23.667  26.169  1.00  0.00    -0.376 OA
BRANCH   2   3
ATOM      3  C   UNL A   1      35.142  24.193  25.419  1.00  0.00     0.202 C 
BRANCH   3   4
ATOM      4  C   UNL A   1      35.063  23.982  23.905  1.00  0.00     0.261 C 
BRANCH   4   5
ATOM      5  O   UNL A   1      33.885  24.383  23.167  1.00  0.00    -0.463 OA
BRANCH   5   6
ATOM      6  C   UNL A   1      33.049  23.697  22.369  1.00  0.00     0.310 C 
ATOM      7  O   UNL A   1      33.337  23.583  21.176  1.00  0.00    -0.252 OA
BRANCH   6   8
ATOM      8  C   UNL A   1      31.780  23.106  22.912  1.00  0.00     0.161 C 
BRANCH   8   9
ATOM      9  C   UNL A   1      31.984  22.230  24.109  1.00  0.00     0.000 A 
ATOM     10  C   UNL A   1      31.885  22.483  25.485  1.00  0.00     0.093 A 
ATOM     11  C   UNL A   1      32.226  20.821  23.969  1.00  0.00     0.004 A 
ATOM     12  N   UNL A   1      32.357  21.352  26.120  1.00  0.00    -0.351 N 
ATOM     13  C   UNL A   1      32.496  20.317  25.233  1.00  0.00     0.048 A 
ATOM     14  C   UNL A   1      32.209  19.929  22.872  1.00  0.00     0.012 A 
ATOM     15  H   UNL A   1      32.565  21.297  27.080  1.00  0.00     0.167 HD
ATOM     16  C   UNL A   1      32.801  18.972  25.458  1.00  0.00     0.047 A 
ATOM     17  C   UNL A   1      32.468  18.571  23.080  1.00  0.00     0.021 A 
ATOM     18  C   UNL A   1      32.775  18.111  24.355  1.00  0.00     0.043 A 
ATOM     19  Cl  UNL A   1      33.122  16.446  24.607  1.00  0.00    -0.084 Cl
BRANCH  10  20
ATOM     20  C   UNL A   1      31.244  23.559  26.229  1.00  0.00     0.227 C 
ATOM     21  O   UNL A   1      30.824  23.374  27.369  1.00  0.00    -0.285 OA
BRANCH  20  22
ATOM     22  C   UNL A   1      31.163  24.962  25.696  1.00  0.00     0.113 A 
ATOM     23  C   UNL A   1      30.117  25.411  24.900  1.00  0.00     0.036 A 
ATOM     24  N   UNL A   1      32.193  25.766  26.072  1.00  0.00    -0.252 NA
ATOM     25  C   UNL A   1      30.167  26.726  24.408  1.00  0.00    -0.041 A 
ATOM     26  C   UNL A   1      32.222  27.023  25.592  1.00  0.00     0.115 A 
ATOM     27  C   UNL A   1      31.267  27.538  24.729  1.00  0.00    -0.026 A 
ATOM     28  C   UNL A   1      29.078  27.216  23.483  1.00  0.00     0.036 C 
ATOM     29  C   UNL A   1      31.422  28.931  24.189  1.00  0.00     0.037 C 
ATOM     30  C   UNL A   1      29.181  28.701  23.120  1.00  0.00     0.005 C 
ATOM     31  C   UNL A   1      30.629  29.120  22.898  1.00  0.00     0.005 C 
ENDBRANCH  20  22
ENDBRANCH  10  20
ENDBRANCH   8   9
ENDBRANCH   6   8
ENDBRANCH   5   6
ENDBRANCH   4   5
ENDBRANCH   3   4
ENDBRANCH   2   3
ENDBRANCH   1   2
BRANCH   1  32
ATOM     32  C   UNL A   1      38.258  22.363  25.614  1.00  0.00     0.188 C 
BRANCH  32  33
ATOM     33  O   UNL A   1      37.728  21.349  24.777  1.00  0.00    -0.376 OA
BRANCH  33  34
ATOM     34  C   UNL A   1      37.850  19.980  25.164  1.00  0.00     0.202 C 
BRANCH  34  35
ATOM     35  C   UNL A   1      39.220  19.310  25.374  1.00  0.00     0.261 C 
BRANCH  35  36
ATOM     36  O   UNL A   1      40.119  20.004  26.258  1.00  0.00    -0.460 OA
BRANCH  36  37
ATOM     37  C   UNL A   1      41.429  19.678  26.156  1.00  0.00     0.338 C 
ATOM     38  O   UNL A   1      41.885  18.619  25.745  1.00  0.00    -0.246 OA
BRANCH  37  39
ATOM     39  C   UNL A   1      42.296  20.832  26.477  1.00  0.00     0.060 A 
ATOM     40  C   UNL A   1      42.892  21.589  25.468  1.00  0.00     0.016 A 
ATOM     41  C   UNL A   1      42.409  21.231  27.816  1.00  0.00     0.016 A 
ATOM     42  C   UNL A   1      43.566  22.771  25.803  1.00  0.00     0.010 A 
ATOM     43  C   UNL A   1      43.097  22.401  28.151  1.00  0.00     0.010 A 
ATOM     44  C   UNL A   1      43.652  23.199  27.142  1.00  0.00    -0.014 A 
BRANCH  44  45
ATOM     45  C   UNL A   1      44.138  24.571  27.443  1.00  0.00     0.031 A 
ATOM     46  C   UNL A   1      45.571  24.970  27.271  1.00  0.00     0.074 A 
ATOM     47  C   UNL A   1      43.237  25.477  27.872  1.00  0.00     0.049 A 
ATOM     48  N   UNL A   1      46.097  26.167  27.313  1.00  0.00    -0.248 NA
ATOM     49  C   UNL A   1      46.540  23.891  27.033  1.00  0.00     0.031 C 
ATOM     50  C   UNL A   1      41.827  25.188  28.139  1.00  0.00     0.029 A 
ATOM     51  N   UNL A   1      43.361  26.817  28.138  1.00  0.00    -0.354 N 
ATOM     52  C   UNL A   1      47.454  25.998  27.069  1.00  0.00     0.074 A 
ATOM     53  C   UNL A   1      47.677  24.571  26.943  1.00  0.00     0.031 C 
ATOM     54  C   UNL A   1      41.206  26.325  28.485  1.00  0.00     0.029 A 
ATOM     55  C   UNL A   1      42.171  27.420  28.475  1.00  0.00     0.049 A 
ATOM     56  H   UNL A   1      44.217  27.300  28.092  1.00  0.00     0.167 HD
ATOM     57  C   UNL A   1      48.411  26.950  26.940  1.00  0.00     0.037 A 
ATOM     58  C   UNL A   1      41.882  28.712  28.722  1.00  0.00     0.037 A 
ATOM     59  C   UNL A   1      48.176  28.365  27.099  1.00  0.00     0.049 A 
ATOM     60  C   UNL A   1      42.965  29.747  28.598  1.00  0.00     0.074 A 
ATOM     61  C   UNL A   1      49.071  29.409  26.933  1.00  0.00     0.029 A 
ATOM     62  N   UNL A   1      46.970  28.936  27.483  1.00  0.00    -0.354 N 
ATOM     63  N   UNL A   1      44.217  29.587  28.245  1.00  0.00    -0.248 NA
ATOM     64  C   UNL A   1      42.596  31.138  28.895  1.00  0.00     0.031 C 
ATOM     65  C   UNL A   1      48.424  30.602  27.273  1.00  0.00     0.029 A 
ATOM     66  C   UNL A   1      47.109  30.311  27.597  1.00  0.00     0.049 A 
ATOM     67  H   UNL A   1      46.138  28.437  27.650  1.00  0.00     0.167 HD
ATOM     68  C   UNL A   1      44.784  30.857  28.264  1.00  0.00     0.074 A 
ATOM     69  C   UNL A   1      43.732  31.778  28.645  1.00  0.00     0.031 C 
ATOM     70  C   UNL A   1      46.060  31.222  27.989  1.00  0.00     0.037 A 
BRANCH  57  71
ATOM     71  C   UNL A   1      49.805  26.502  26.594  1.00  0.00     0.058 A 
ATOM     72  C   UNL A   1      50.690  26.043  27.582  1.00  0.00     0.135 A 
ATOM     73  C   UNL A   1      50.241  26.463  25.259  1.00  0.00     0.135 A 
ATOM     74  F   UNL A   1      50.329  26.058  28.875  1.00  0.00    -0.206 F 
ATOM     75  C   UNL A   1      51.967  25.592  27.264  1.00  0.00     0.059 A 
ATOM     76  C   UNL A   1      51.504  25.990  24.914  1.00  0.00     0.059 A 
ATOM     77  F   UNL A   1      49.434  26.882  24.271  1.00  0.00    -0.206 F 
ATOM     78  C   UNL A   1      52.366  25.572  25.927  1.00  0.00     0.060 A 
BRANCH  78  79
ATOM     79  S   UNL A   1      54.036  25.013  25.537  1.00  0.00     0.124 S 
ATOM     80  O   UNL A   1      54.784  25.556  26.666  1.00  0.00    -0.237 OA
ATOM     81  O   UNL A   1      53.881  23.561  25.512  1.00  0.00    -0.237 OA
ATOM     82  O   UNL A   1      54.312  25.634  24.245  1.00  0.00    -0.744 OA
ENDBRANCH  78  79
ENDBRANCH  57  71
BRANCH  58  83
ATOM     83  C   UNL A   1      40.483  29.094  29.047  1.00  0.00     0.058 A 
ATOM     84  C   UNL A   1      40.057  29.203  30.378  1.00  0.00     0.135 A 
ATOM     85  C   UNL A   1      39.563  29.416  28.037  1.00  0.00     0.135 A 
ATOM     86  F   UNL A   1      40.899  28.903  31.379  1.00  0.00    -0.206 F 
ATOM     87  C   UNL A   1      38.768  29.617  30.699  1.00  0.00     0.059 A 
ATOM     88  C   UNL A   1      38.277  29.856  28.332  1.00  0.00     0.059 A 
ATOM     89  F   UNL A   1      39.928  29.343  26.747  1.00  0.00    -0.206 F 
ATOM     90  C   UNL A   1      37.888  29.950  29.667  1.00  0.00     0.060 A 
BRANCH  90  91
ATOM     91  S   UNL A   1      36.242  30.552  30.100  1.00  0.00     0.124 S 
ATOM     92  O   UNL A   1      36.019  29.902  31.387  1.00  0.00    -0.237 OA
ATOM     93  O   UNL A   1      36.448  31.997  30.143  1.00  0.00    -0.237 OA
ATOM     94  O   UNL A   1      35.408  30.077  29.001  1.00  0.00    -0.744 OA
ENDBRANCH  90  91
ENDBRANCH  58  83
BRANCH  70  95
ATOM     95  C   UNL A   1      46.410  32.683  28.097  1.00  0.00     0.058 A 
ATOM     96  C   UNL A   1      46.137  33.579  27.051  1.00  0.00     0.135 A 
ATOM     97  C   UNL A   1      46.938  33.208  29.288  1.00  0.00     0.135 A 
ATOM     98  F   UNL A   1      45.643  33.129  25.887  1.00  0.00    -0.206 F 
ATOM     99  C   UNL A   1      46.375  34.944  27.182  1.00  0.00     0.059 A 
ATOM    100  C   UNL A   1      47.158  34.573  29.450  1.00  0.00     0.059 A 
ATOM    101  F   UNL A   1      47.213  32.396  30.321  1.00  0.00    -0.206 F 
ATOM    102  C   UNL A   1      46.874  35.433  28.391  1.00  0.00     0.060 A 
BRANCH 102 103
ATOM    103  S   UNL A   1      47.108  37.215  28.566  1.00  0.00     0.124 S 
ATOM    104  O   UNL A   1      46.919  37.676  27.194  1.00  0.00    -0.237 OA
ATOM    105  O   UNL A   1      46.052  37.575  29.507  1.00  0.00    -0.237 OA
ATOM    106  O   UNL A   1      48.468  37.332  29.084  1.00  0.00    -0.744 OA
ENDBRANCH 102 103
ENDBRANCH  70  95
ENDBRANCH  44  45
ENDBRANCH  37  39
ENDBRANCH  36  37
ENDBRANCH  35  36
ENDBRANCH  34  35
ENDBRANCH  33  34
ENDBRANCH  32  33
ENDBRANCH   1  32
TORSDOF 23
ENDMDL
MODEL 2
REMARK VINA RESULT:     -11.8      5.908      8.044
REMARK SMILES O=C(Cc1c(C(=O)c2cc3c(cn2)CCCC3)[nH]c2cc(Cl)ccc12)OCCOCCOCCOC(=O)c1ccc(-c2c3nc(c(-c4c(F)cc(S(=O)(=O)[O-])cc4F)c4ccc([nH]4)c(-c4c(F)cc(S(=O)(=O)[O-])cc4F)c4nc(c(-c5c(F)cc(S(=O)(=O)[O-])cc5F)c5ccc2[nH]5)C=C4)C=C3)cc1
REMARK SMILES IDX 30 1 29 2 28 3 27 4 26 5 2 6 1 7 3 8 4 9 5 10 25 11 18 12
REMARK SMILES IDX 19 13 24 14 20 16 23 17 21 18 22 19 6 20 7 21 8 22 9 23
REMARK SMILES IDX 13 24 10 25 12 26 11 27 17 28 14 29 16 30 15 31 31 32 32 33
REMARK SMILES IDX 33 34 34 35 35 36 36 37 37 38 38 39 39 40 103 41 40 42
REMARK SMILES IDX 102 43 41 44 42 45 43 46 96 47 44 48 101 49 95 50 97 51
REMARK SMILES IDX 45 52 100 53 94 54 93 55 46 57 80 58 59 59 79 60 60 61 63 62
REMARK SMILES IDX 78 63 98 64 61 65 62 66 77 68 99 69 64 70 47 71 48 72 57 73
REMARK SMILES IDX 49 74 50 75 56 76 58 77 51 78 52 79 53 80 54 81 55 82 81 83
REMARK SMILES IDX 82 84 91 85 83 86 84 87 90 88 92 89 85 90 86 91 87 92 88 93
REMARK SMILES IDX 89 94 65 95 66 96 75 97 67 98 68 99 74 100 76 101 69 102
REMARK SMILES IDX 70 103 71 104 72 105 73 106
REMARK H PARENT 18 15 97 56 63 67
REMARK Flexibility Score: inf
ROOT
ATOM      1  C   UNL A   1      40.044  22.418  26.558  1.00  0.00     0.188 C 
ENDROOT
BRANCH   1   2
ATOM      2  O   UNL A   1      39.179  21.726  25.686  1.00  0.00    -0.376 OA
BRANCH   2   3
ATOM      3  C   UNL A   1      37.779  21.962  25.721  1.00  0.00     0.202 C 
BRANCH   3   4
ATOM      4  C   UNL A   1      36.995  22.214  24.431  1.00  0.00     0.261 C 
BRANCH   4   5
ATOM      5  O   UNL A   1      35.611  22.631  24.480  1.00  0.00    -0.463 OA
BRANCH   5   6
ATOM      6  C   UNL A   1      34.700  22.835  23.513  1.00  0.00     0.310 C 
ATOM      7  O   UNL A   1      34.980  23.612  22.597  1.00  0.00    -0.252 OA
BRANCH   6   8
ATOM      8  C   UNL A   1      33.364  22.153  23.560  1.00  0.00     0.161 C 
BRANCH   8   9
ATOM      9  C   UNL A   1      33.199  21.222  24.722  1.00  0.00     0.000 A 
ATOM     10  C   UNL A   1      33.032  21.455  26.094  1.00  0.00     0.093 A 
ATOM     11  C   UNL A   1      33.063  19.806  24.527  1.00  0.00     0.004 A 
ATOM     12  N   UNL A   1      33.112  20.221  26.707  1.00  0.00    -0.351 N 
ATOM     13  C   UNL A   1      33.055  19.212  25.782  1.00  0.00     0.048 A 
ATOM     14  C   UNL A   1      32.918  18.983  23.386  1.00  0.00     0.012 A 
ATOM     15  H   UNL A   1      33.198  20.084  27.678  1.00  0.00     0.167 HD
ATOM     16  C   UNL A   1      32.960  17.830  25.959  1.00  0.00     0.047 A 
ATOM     17  C   UNL A   1      32.776  17.601  23.543  1.00  0.00     0.021 A 
ATOM     18  C   UNL A   1      32.815  17.040  24.813  1.00  0.00     0.043 A 
ATOM     19  Cl  UNL A   1      32.671  15.337  25.005  1.00  0.00    -0.084 Cl
BRANCH  10  20
ATOM     20  C   UNL A   1      32.634  22.645  26.834  1.00  0.00     0.227 C 
ATOM     21  O   UNL A   1      32.636  22.653  28.063  1.00  0.00    -0.285 OA
BRANCH  20  22
ATOM     22  C   UNL A   1      32.311  23.942  26.149  1.00  0.00     0.113 A 
ATOM     23  C   UNL A   1      33.210  24.998  26.061  1.00  0.00     0.036 A 
ATOM     24  N   UNL A   1      31.066  23.995  25.603  1.00  0.00    -0.252 NA
ATOM     25  C   UNL A   1      32.786  26.188  25.446  1.00  0.00    -0.041 A 
ATOM     26  C   UNL A   1      30.680  25.143  25.017  1.00  0.00     0.115 A 
ATOM     27  C   UNL A   1      31.476  26.276  24.949  1.00  0.00    -0.026 A 
ATOM     28  C   UNL A   1      33.721  27.374  25.400  1.00  0.00     0.036 C 
ATOM     29  C   UNL A   1      30.932  27.536  24.338  1.00  0.00     0.037 C 
ATOM     30  C   UNL A   1      33.189  28.564  24.596  1.00  0.00     0.005 C 
ATOM     31  C   UNL A   1      31.695  28.766  24.822  1.00  0.00     0.005 C 
ENDBRANCH  20  22
ENDBRANCH  10  20
ENDBRANCH   8   9
ENDBRANCH   6   8
ENDBRANCH   5   6
ENDBRANCH   4   5
ENDBRANCH   3   4
ENDBRANCH   2   3
ENDBRANCH   1   2
BRANCH   1  32
ATOM     32  C   UNL A   1      41.515  22.008  26.456  1.00  0.00     0.188 C 
BRANCH  32  33
ATOM     33  O   UNL A   1      42.211  22.299  25.256  1.00  0.00    -0.376 OA
BRANCH  33  34
ATOM     34  C   UNL A   1      43.488  22.933  25.318  1.00  0.00     0.202 C 
BRANCH  34  35
ATOM     35  C   UNL A   1      43.732  24.200  26.158  1.00  0.00     0.261 C 
BRANCH  35  36
ATOM     36  O   UNL A   1      43.354  25.439  25.531  1.00  0.00    -0.460 OA
BRANCH  36  37
ATOM     37  C   UNL A   1      42.121  25.909  25.829  1.00  0.00     0.338 C 
ATOM     38  O   UNL A   1      41.118  25.816  25.133  1.00  0.00    -0.246 OA
BRANCH  37  39
ATOM     39  C   UNL A   1      42.071  26.452  27.204  1.00  0.00     0.060 A 
ATOM     40  C   UNL A   1      42.887  27.516  27.589  1.00  0.00     0.016 A 
ATOM     41  C   UNL A   1      41.095  25.960  28.082  1.00  0.00     0.016 A 
ATOM     42  C   UNL A   1      42.694  28.112  28.842  1.00  0.00     0.010 A 
ATOM     43  C   UNL A   1      40.915  26.544  29.340  1.00  0.00     0.010 A 
ATOM     44  C   UNL A   1      41.690  27.648  29.715  1.00  0.00    -0.014 A 
BRANCH  44  45
ATOM     45  C   UNL A   1      41.334  28.452  30.913  1.00  0.00     0.031 A 
ATOM     46  C   UNL A   1      42.111  28.375  32.191  1.00  0.00     0.074 A 
ATOM     47  C   UNL A   1      40.277  29.284  30.821  1.00  0.00     0.049 A 
ATOM     48  N   UNL A   1      42.031  29.148  33.244  1.00  0.00    -0.248 NA
ATOM     49  C   UNL A   1      43.093  27.289  32.311  1.00  0.00     0.031 C 
ATOM     50  C   UNL A   1      39.406  29.396  29.650  1.00  0.00     0.029 A 
ATOM     51  N   UNL A   1      39.769  30.200  31.706  1.00  0.00    -0.354 N 
ATOM     52  C   UNL A   1      42.978  28.671  34.142  1.00  0.00     0.074 A 
ATOM     53  C   UNL A   1      43.575  27.500  33.531  1.00  0.00     0.031 C 
ATOM     54  C   UNL A   1      38.500  30.361  29.870  1.00  0.00     0.029 A 
ATOM     55  C   UNL A   1      38.718  30.928  31.198  1.00  0.00     0.049 A 
ATOM     56  H   UNL A   1      40.122  30.325  32.616  1.00  0.00     0.167 HD
ATOM     57  C   UNL A   1      43.326  29.182  35.349  1.00  0.00     0.037 A 
ATOM     58  C   UNL A   1      38.024  31.954  31.727  1.00  0.00     0.037 A 
ATOM     59  C   UNL A   1      42.699  30.332  35.956  1.00  0.00     0.049 A 
ATOM     60  C   UNL A   1      38.412  32.487  33.077  1.00  0.00     0.074 A 
ATOM     61  C   UNL A   1      43.020  30.956  37.150  1.00  0.00     0.029 A 
ATOM     62  N   UNL A   1      41.610  31.016  35.433  1.00  0.00    -0.354 N 
ATOM     63  N   UNL A   1      39.390  32.105  33.862  1.00  0.00    -0.248 NA
ATOM     64  C   UNL A   1      37.610  33.596  33.612  1.00  0.00     0.031 C 
ATOM     65  C   UNL A   1      42.092  31.976  37.377  1.00  0.00     0.029 A 
ATOM     66  C   UNL A   1      41.223  32.029  36.298  1.00  0.00     0.049 A 
ATOM     67  H   UNL A   1      41.175  30.812  34.573  1.00  0.00     0.167 HD
ATOM     68  C   UNL A   1      39.331  32.934  34.976  1.00  0.00     0.074 A 
ATOM     69  C   UNL A   1      38.232  33.852  34.756  1.00  0.00     0.031 C 
ATOM     70  C   UNL A   1      40.119  32.932  36.079  1.00  0.00     0.037 A 
BRANCH  57  71
ATOM     71  C   UNL A   1      44.449  28.516  36.096  1.00  0.00     0.058 A 
ATOM     72  C   UNL A   1      44.204  27.467  36.997  1.00  0.00     0.135 A 
ATOM     73  C   UNL A   1      45.787  28.876  35.862  1.00  0.00     0.135 A 
ATOM     74  F   UNL A   1      42.946  27.080  37.261  1.00  0.00    -0.206 F 
ATOM     75  C   UNL A   1      45.241  26.821  37.663  1.00  0.00     0.059 A 
ATOM     76  C   UNL A   1      46.842  28.226  36.495  1.00  0.00     0.059 A 
ATOM     77  F   UNL A   1      46.080  29.866  35.005  1.00  0.00    -0.206 F 
ATOM     78  C   UNL A   1      46.557  27.210  37.407  1.00  0.00     0.060 A 
BRANCH  78  79
ATOM     79  S   UNL A   1      47.886  26.382  38.303  1.00  0.00     0.124 S 
ATOM     80  O   UNL A   1      48.110  25.215  37.456  1.00  0.00    -0.237 OA
ATOM     81  O   UNL A   1      48.943  27.390  38.294  1.00  0.00    -0.237 OA
ATOM     82  O   UNL A   1      47.298  26.105  39.609  1.00  0.00    -0.744 OA
ENDBRANCH  78  79
ENDBRANCH  57  71
BRANCH  58  83
ATOM     83  C   UNL A   1      36.933  32.578  30.934  1.00  0.00     0.058 A 
ATOM     84  C   UNL A   1      35.591  32.258  31.178  1.00  0.00     0.135 A 
ATOM     85  C   UNL A   1      37.207  33.551  29.960  1.00  0.00     0.135 A 
ATOM     86  F   UNL A   1      35.279  31.331  32.097  1.00  0.00    -0.206 F 
ATOM     87  C   UNL A   1      34.556  32.878  30.485  1.00  0.00     0.059 A 
ATOM     88  C   UNL A   1      36.189  34.204  29.272  1.00  0.00     0.059 A 
ATOM     89  F   UNL A   1      38.476  33.905  29.700  1.00  0.00    -0.206 F 
ATOM     90  C   UNL A   1      34.866  33.857  29.540  1.00  0.00     0.060 A 
BRANCH  90  91
ATOM     91  S   UNL A   1      33.510  34.702  28.699  1.00  0.00     0.124 S 
ATOM     92  O   UNL A   1      33.085  33.692  27.737  1.00  0.00    -0.237 OA
ATOM     93  O   UNL A   1      32.587  34.964  29.799  1.00  0.00    -0.237 OA
ATOM     94  O   UNL A   1      34.150  35.885  28.132  1.00  0.00    -0.744 OA
ENDBRANCH  90  91
ENDBRANCH  58  83
BRANCH  70  95
ATOM     95  C   UNL A   1      39.825  33.946  37.153  1.00  0.00     0.058 A 
ATOM     96  C   UNL A   1      39.040  33.620  38.270  1.00  0.00     0.135 A 
ATOM     97  C   UNL A   1      40.408  35.223  37.113  1.00  0.00     0.135 A 
ATOM     98  F   UNL A   1      38.450  32.417  38.355  1.00  0.00    -0.206 F 
ATOM     99  C   UNL A   1      38.842  34.525  39.309  1.00  0.00     0.059 A 
ATOM    100  C   UNL A   1      40.246  36.134  38.153  1.00  0.00     0.059 A 
ATOM    101  F   UNL A   1      41.172  35.584  36.070  1.00  0.00    -0.206 F 
ATOM    102  C   UNL A   1      39.459  35.776  39.247  1.00  0.00     0.060 A 
BRANCH 102 103
ATOM    103  S   UNL A   1      39.250  36.909  40.637  1.00  0.00     0.124 S 
ATOM    104  O   UNL A   1      39.042  38.182  39.954  1.00  0.00    -0.237 OA
ATOM    105  O   UNL A   1      38.082  36.355  41.315  1.00  0.00    -0.237 OA
ATOM    106  O   UNL A   1      40.507  36.790  41.369  1.00  0.00    -0.744 OA
ENDBRANCH 102 103
ENDBRANCH  70  95
ENDBRANCH  44  45
ENDBRANCH  37  39
ENDBRANCH  36  37
ENDBRANCH  35  36
ENDBRANCH  34  35
ENDBRANCH  33  34
ENDBRANCH  32  33
ENDBRANCH   1  32
TORSDOF 23
ENDMDL
MODEL 3
REMARK VINA RESULT:     -11.4      6.102     10.996
REMARK SMILES O=C(Cc1c(C(=O)c2cc3c(cn2)CCCC3)[nH]c2cc(Cl)ccc12)OCCOCCOCCOC(=O)c1ccc(-c2c3nc(c(-c4c(F)cc(S(=O)(=O)[O-])cc4F)c4ccc([nH]4)c(-c4c(F)cc(S(=O)(=O)[O-])cc4F)c4nc(c(-c5c(F)cc(S(=O)(=O)[O-])cc5F)c5ccc2[nH]5)C=C4)C=C3)cc1
REMARK SMILES IDX 30 1 29 2 28 3 27 4 26 5 2 6 1 7 3 8 4 9 5 10 25 11 18 12
REMARK SMILES IDX 19 13 24 14 20 16 23 17 21 18 22 19 6 20 7 21 8 22 9 23
REMARK SMILES IDX 13 24 10 25 12 26 11 27 17 28 14 29 16 30 15 31 31 32 32 33
REMARK SMILES IDX 33 34 34 35 35 36 36 37 37 38 38 39 39 40 103 41 40 42
REMARK SMILES IDX 102 43 41 44 42 45 43 46 96 47 44 48 101 49 95 50 97 51
REMARK SMILES IDX 45 52 100 53 94 54 93 55 46 57 80 58 59 59 79 60 60 61 63 62
REMARK SMILES IDX 78 63 98 64 61 65 62 66 77 68 99 69 64 70 47 71 48 72 57 73
REMARK SMILES IDX 49 74 50 75 56 76 58 77 51 78 52 79 53 80 54 81 55 82 81 83
REMARK SMILES IDX 82 84 91 85 83 86 84 87 90 88 92 89 85 90 86 91 87 92 88 93
REMARK SMILES IDX 89 94 65 95 66 96 75 97 67 98 68 99 74 100 76 101 69 102
REMARK SMILES IDX 70 103 71 104 72 105 73 106
REMARK H PARENT 18 15 97 56 63 67
REMARK Flexibility Score: inf
ROOT
ATOM      1  C   UNL A   1      39.336  21.952  26.310  1.00  0.00     0.188 C 
ENDROOT
BRANCH   1   2
ATOM      2  O   UNL A   1      38.314  21.716  25.367  1.00  0.00    -0.376 OA
BRANCH   2   3
ATOM      3  C   UNL A   1      37.280  22.669  25.170  1.00  0.00     0.202 C 
BRANCH   3   4
ATOM      4  C   UNL A   1      36.887  23.117  23.759  1.00  0.00     0.261 C 
BRANCH   4   5
ATOM      5  O   UNL A   1      35.511  23.042  23.320  1.00  0.00    -0.463 OA
BRANCH   5   6
ATOM      6  C   UNL A   1      34.510  23.939  23.348  1.00  0.00     0.310 C 
ATOM      7  O   UNL A   1      34.677  24.986  23.978  1.00  0.00    -0.252 OA
BRANCH   6   8
ATOM      8  C   UNL A   1      33.211  23.662  22.649  1.00  0.00     0.161 C 
BRANCH   8   9
ATOM      9  C   UNL A   1      32.004  24.105  23.417  1.00  0.00     0.000 A 
ATOM     10  C   UNL A   1      31.337  23.549  24.518  1.00  0.00     0.093 A 
ATOM     11  C   UNL A   1      31.375  25.368  23.153  1.00  0.00     0.004 A 
ATOM     12  N   UNL A   1      30.186  24.291  24.687  1.00  0.00    -0.351 N 
ATOM     13  C   UNL A   1      30.226  25.432  23.928  1.00  0.00     0.048 A 
ATOM     14  C   UNL A   1      31.706  26.475  22.338  1.00  0.00     0.012 A 
ATOM     15  H   UNL A   1      29.438  24.036  25.273  1.00  0.00     0.167 HD
ATOM     16  C   UNL A   1      29.356  26.524  23.898  1.00  0.00     0.047 A 
ATOM     17  C   UNL A   1      30.873  27.599  22.326  1.00  0.00     0.021 A 
ATOM     18  C   UNL A   1      29.709  27.607  23.084  1.00  0.00     0.043 A 
ATOM     19  Cl  UNL A   1      28.669  28.977  23.047  1.00  0.00    -0.084 Cl
BRANCH  10  20
ATOM     20  C   UNL A   1      31.748  22.554  25.499  1.00  0.00     0.227 C 
ATOM     21  O   UNL A   1      31.340  22.604  26.658  1.00  0.00    -0.285 OA
BRANCH  20  22
ATOM     22  C   UNL A   1      32.591  21.366  25.129  1.00  0.00     0.113 A 
ATOM     23  C   UNL A   1      32.166  20.378  24.250  1.00  0.00     0.036 A 
ATOM     24  N   UNL A   1      33.819  21.344  25.715  1.00  0.00    -0.252 NA
ATOM     25  C   UNL A   1      33.011  19.281  24.016  1.00  0.00    -0.041 A 
ATOM     26  C   UNL A   1      34.615  20.285  25.477  1.00  0.00     0.115 A 
ATOM     27  C   UNL A   1      34.248  19.214  24.678  1.00  0.00    -0.026 A 
ATOM     28  C   UNL A   1      32.543  18.159  23.119  1.00  0.00     0.036 C 
ATOM     29  C   UNL A   1      35.176  18.041  24.528  1.00  0.00     0.037 C 
ATOM     30  C   UNL A   1      33.602  17.087  22.846  1.00  0.00     0.005 C 
ATOM     31  C   UNL A   1      34.424  16.786  24.093  1.00  0.00     0.005 C 
ENDBRANCH  20  22
ENDBRANCH  10  20
ENDBRANCH   8   9
ENDBRANCH   6   8
ENDBRANCH   5   6
ENDBRANCH   4   5
ENDBRANCH   3   4
ENDBRANCH   2   3
ENDBRANCH   1   2
BRANCH   1  32
ATOM     32  C   UNL A   1      40.358  20.821  26.440  1.00  0.00     0.188 C 
BRANCH  32  33
ATOM     33  O   UNL A   1      41.732  21.163  26.513  1.00  0.00    -0.376 OA
BRANCH  33  34
ATOM     34  C   UNL A   1      42.189  22.375  25.916  1.00  0.00     0.202 C 
BRANCH  34  35
ATOM     35  C   UNL A   1      42.856  23.492  26.741  1.00  0.00     0.261 C 
BRANCH  35  36
ATOM     36  O   UNL A   1      42.927  24.777  26.098  1.00  0.00    -0.460 OA
BRANCH  36  37
ATOM     37  C   UNL A   1      41.845  25.577  26.238  1.00  0.00     0.338 C 
ATOM     38  O   UNL A   1      40.883  25.640  25.482  1.00  0.00    -0.246 OA
BRANCH  37  39
ATOM     39  C   UNL A   1      41.877  26.304  27.525  1.00  0.00     0.060 A 
ATOM     40  C   UNL A   1      42.854  27.265  27.786  1.00  0.00     0.016 A 
ATOM     41  C   UNL A   1      40.829  26.101  28.434  1.00  0.00     0.016 A 
ATOM     42  C   UNL A   1      42.754  28.051  28.942  1.00  0.00     0.010 A 
ATOM     43  C   UNL A   1      40.740  26.874  29.596  1.00  0.00     0.010 A 
ATOM     44  C   UNL A   1      41.683  27.879  29.842  1.00  0.00    -0.014 A 
BRANCH  44  45
ATOM     45  C   UNL A   1      41.457  28.886  30.910  1.00  0.00     0.031 A 
ATOM     46  C   UNL A   1      40.343  29.886  30.847  1.00  0.00     0.074 A 
ATOM     47  C   UNL A   1      42.287  28.875  31.972  1.00  0.00     0.049 A 
ATOM     48  N   UNL A   1      39.914  30.692  31.785  1.00  0.00    -0.248 NA
ATOM     49  C   UNL A   1      39.625  30.007  29.571  1.00  0.00     0.031 C 
ATOM     50  C   UNL A   1      43.446  27.992  32.113  1.00  0.00     0.029 A 
ATOM     51  N   UNL A   1      42.278  29.604  33.134  1.00  0.00    -0.354 N 
ATOM     52  C   UNL A   1      38.850  31.392  31.231  1.00  0.00     0.074 A 
ATOM     53  C   UNL A   1      38.742  30.958  29.852  1.00  0.00     0.031 C 
ATOM     54  C   UNL A   1      44.008  28.197  33.313  1.00  0.00     0.029 A 
ATOM     55  C   UNL A   1      43.259  29.230  34.022  1.00  0.00     0.049 A 
ATOM     56  H   UNL A   1      41.632  30.324  33.314  1.00  0.00     0.167 HD
ATOM     57  C   UNL A   1      38.032  32.293  31.829  1.00  0.00     0.037 A 
ATOM     58  C   UNL A   1      43.513  29.650  35.276  1.00  0.00     0.037 A 
ATOM     59  C   UNL A   1      38.173  32.736  33.196  1.00  0.00     0.049 A 
ATOM     60  C   UNL A   1      42.607  30.668  35.911  1.00  0.00     0.074 A 
ATOM     61  C   UNL A   1      37.360  33.603  33.906  1.00  0.00     0.029 A 
ATOM     62  N   UNL A   1      39.203  32.370  34.051  1.00  0.00    -0.354 N 
ATOM     63  N   UNL A   1      41.531  31.231  35.417  1.00  0.00    -0.248 NA
ATOM     64  C   UNL A   1      42.942  31.102  37.274  1.00  0.00     0.031 C 
ATOM     65  C   UNL A   1      37.929  33.807  35.167  1.00  0.00     0.029 A 
ATOM     66  C   UNL A   1      39.068  33.023  35.267  1.00  0.00     0.049 A 
ATOM     67  H   UNL A   1      39.925  31.739  33.827  1.00  0.00     0.167 HD
ATOM     68  C   UNL A   1      41.051  32.075  36.412  1.00  0.00     0.074 A 
ATOM     69  C   UNL A   1      41.945  31.934  37.545  1.00  0.00     0.031 C 
ATOM     70  C   UNL A   1      39.968  32.889  36.387  1.00  0.00     0.037 A 
BRANCH  57  71
ATOM     71  C   UNL A   1      36.893  32.854  31.021  1.00  0.00     0.058 A 
ATOM     72  C   UNL A   1      37.086  33.927  30.137  1.00  0.00     0.135 A 
ATOM     73  C   UNL A   1      35.615  32.273  31.073  1.00  0.00     0.135 A 
ATOM     74  F   UNL A   1      38.286  34.522  30.045  1.00  0.00    -0.206 F 
ATOM     75  C   UNL A   1      36.047  34.426  29.358  1.00  0.00     0.059 A 
ATOM     76  C   UNL A   1      34.567  32.738  30.283  1.00  0.00     0.059 A 
ATOM     77  F   UNL A   1      35.375  31.239  31.894  1.00  0.00    -0.206 F 
ATOM     78  C   UNL A   1      34.790  33.826  29.441  1.00  0.00     0.060 A 
BRANCH  78  79
ATOM     79  S   UNL A   1      33.447  34.506  28.447  1.00  0.00     0.124 S 
ATOM     80  O   UNL A   1      33.009  33.320  27.719  1.00  0.00    -0.237 OA
ATOM     81  O   UNL A   1      32.528  35.007  29.465  1.00  0.00    -0.237 OA
ATOM     82  O   UNL A   1      34.103  35.530  27.640  1.00  0.00    -0.744 OA
ENDBRANCH  78  79
ENDBRANCH  57  71
BRANCH  58  83
ATOM     83  C   UNL A   1      44.645  29.049  36.029  1.00  0.00     0.058 A 
ATOM     84  C   UNL A   1      44.454  27.919  36.836  1.00  0.00     0.135 A 
ATOM     85  C   UNL A   1      45.949  29.554  35.907  1.00  0.00     0.135 A 
ATOM     86  F   UNL A   1      43.225  27.402  36.986  1.00  0.00    -0.206 F 
ATOM     87  C   UNL A   1      45.515  27.309  37.498  1.00  0.00     0.059 A 
ATOM     88  C   UNL A   1      47.030  28.947  36.539  1.00  0.00     0.059 A 
ATOM     89  F   UNL A   1      46.187  30.624  35.132  1.00  0.00    -0.206 F 
ATOM     90  C   UNL A   1      46.801  27.826  37.335  1.00  0.00     0.060 A 
BRANCH  90  91
ATOM     91  S   UNL A   1      48.177  26.983  38.145  1.00  0.00     0.124 S 
ATOM     92  O   UNL A   1      49.181  28.040  38.197  1.00  0.00    -0.237 OA
ATOM     93  O   UNL A   1      47.588  26.599  39.424  1.00  0.00    -0.237 OA
ATOM     94  O   UNL A   1      48.474  25.876  37.241  1.00  0.00    -0.744 OA
ENDBRANCH  90  91
ENDBRANCH  58  83
BRANCH  70  95
ATOM     95  C   UNL A   1      39.680  33.712  37.615  1.00  0.00     0.058 A 
ATOM     96  C   UNL A   1      38.789  33.263  38.603  1.00  0.00     0.135 A 
ATOM     97  C   UNL A   1      40.367  34.913  37.852  1.00  0.00     0.135 A 
ATOM     98  F   UNL A   1      38.097  32.126  38.423  1.00  0.00    -0.206 F 
ATOM     99  C   UNL A   1      38.589  33.976  39.781  1.00  0.00     0.059 A 
ATOM    100  C   UNL A   1      40.204  35.628  39.035  1.00  0.00     0.059 A 
ATOM    101  F   UNL A   1      41.234  35.386  36.943  1.00  0.00    -0.206 F 
ATOM    102  C   UNL A   1      39.311  35.151  39.993  1.00  0.00     0.060 A 
BRANCH 102 103
ATOM    103  S   UNL A   1      39.092  36.024  41.559  1.00  0.00     0.124 S 
ATOM    104  O   UNL A   1      37.833  35.462  42.039  1.00  0.00    -0.237 OA
ATOM    105  O   UNL A   1      40.286  35.632  42.301  1.00  0.00    -0.237 OA
ATOM    106  O   UNL A   1      39.039  37.429  41.164  1.00  0.00    -0.744 OA
ENDBRANCH 102 103
ENDBRANCH  70  95
ENDBRANCH  44  45
ENDBRANCH  37  39
ENDBRANCH  36  37
ENDBRANCH  35  36
ENDBRANCH  34  35
ENDBRANCH  33  34
ENDBRANCH  32  33
ENDBRANCH   1  32
TORSDOF 23
ENDMDL
