MODEL 1
REMARK VINA RESULT:      -9.4      0.000      0.000
REMARK SMILES CC[C@H]1CO[C@@H](C)CN1c1cccc(F)c1C(=O)OCCOCCOCCOC(=O)c1ccc(-c2c3nc(c(-c4c(F)cc(S(=O)(=O)[O-])cc4F)c4ccc([nH]4)c(-c4c(F)cc(S(=O)(=O)[O-])cc4F)c4nc(c(-c5c(F)cc(S(=O)(=O)[O-])cc5F)c5ccc2[nH]5)C=C4)C=C3)cc1
REMARK SMILES IDX 24 1 23 2 22 3 21 4 20 5 19 6 17 7 18 8 16 9 10 10 11 11
REMARK SMILES IDX 12 12 14 13 13 14 15 15 9 16 3 17 4 18 5 19 8 20 6 21 7 22
REMARK SMILES IDX 2 23 1 24 25 25 26 26 27 27 28 28 29 29 30 30 31 31 32 32
REMARK SMILES IDX 96 33 33 34 95 35 34 36 35 37 36 38 89 39 37 40 94 41 88 42
REMARK SMILES IDX 90 43 38 44 93 45 87 46 86 47 39 49 73 50 52 51 72 52 53 53
REMARK SMILES IDX 56 54 71 55 91 56 54 57 55 58 70 60 92 61 57 62 40 63 41 64
REMARK SMILES IDX 50 65 42 66 43 67 49 68 51 69 44 70 45 71 46 72 47 73 48 74
REMARK SMILES IDX 74 75 75 76 84 77 76 78 77 79 83 80 85 81 78 82 79 83 80 84
REMARK SMILES IDX 81 85 82 86 58 87 59 88 68 89 60 90 61 91 67 92 69 93 62 94
REMARK SMILES IDX 63 95 64 96 65 97 66 98
REMARK H PARENT 90 48 56 59
REMARK Flexibility Score: inf
ROOT
ATOM      1  C   UNL A   1      40.174  24.315  26.809  1.00  0.00     0.188 C 
ENDROOT
BRANCH   1   2
ATOM      2  C   UNL A   1      38.770  23.700  26.929  1.00  0.00     0.188 C 
BRANCH   2   3
ATOM      3  O   UNL A   1      38.465  22.803  25.857  1.00  0.00    -0.376 OA
BRANCH   3   4
ATOM      4  C   UNL A   1      37.063  22.614  25.653  1.00  0.00     0.202 C 
BRANCH   4   5
ATOM      5  C   UNL A   1      36.588  23.319  24.383  1.00  0.00     0.261 C 
BRANCH   5   6
ATOM      6  O   UNL A   1      35.433  24.129  24.658  1.00  0.00    -0.460 OA
BRANCH   6   7
ATOM      7  C   UNL A   1      34.384  24.126  23.794  1.00  0.00     0.343 C 
ATOM      8  O   UNL A   1      34.413  24.327  22.607  1.00  0.00    -0.246 OA
BRANCH   7   9
ATOM      9  C   UNL A   1      33.206  23.816  24.635  1.00  0.00     0.119 A 
ATOM     10  C   UNL A   1      32.348  24.804  25.166  1.00  0.00     0.055 A 
ATOM     11  C   UNL A   1      31.166  24.348  25.775  1.00  0.00     0.027 A 
ATOM     12  C   UNL A   1      30.890  22.983  25.939  1.00  0.00     0.005 A 
ATOM     13  C   UNL A   1      32.933  22.454  24.814  1.00  0.00     0.139 A 
ATOM     14  C   UNL A   1      31.787  22.033  25.472  1.00  0.00     0.040 A 
ATOM     15  F   UNL A   1      33.772  21.517  24.346  1.00  0.00    -0.206 F 
BRANCH  10  16
ATOM     16  N   UNL A   1      32.637  26.151  25.156  1.00  0.00    -0.363 N 
ATOM     17  C   UNL A   1      32.434  27.039  23.973  1.00  0.00     0.108 C 
ATOM     18  C   UNL A   1      31.804  28.326  24.543  1.00  0.00     0.185 C 
ATOM     19  O   UNL A   1      32.770  28.989  25.388  1.00  0.00    -0.375 OA
ATOM     20  C   UNL A   1      33.656  26.726  26.047  1.00  0.00     0.148 C 
ATOM     21  C   UNL A   1      33.254  28.171  26.471  1.00  0.00     0.134 C 
ATOM     22  C   UNL A   1      32.277  28.218  27.635  1.00  0.00     0.040 C 
BRANCH  17  23
ATOM     23  C   UNL A   1      31.661  26.438  22.793  1.00  0.00     0.024 C 
ATOM     24  C   UNL A   1      30.654  27.450  22.236  1.00  0.00     0.006 C 
ENDBRANCH  17  23
ENDBRANCH  10  16
ENDBRANCH   7   9
ENDBRANCH   6   7
ENDBRANCH   5   6
ENDBRANCH   4   5
ENDBRANCH   3   4
ENDBRANCH   2   3
ENDBRANCH   1   2
BRANCH   1  25
ATOM     25  O   UNL A   1      41.318  23.482  26.629  1.00  0.00    -0.376 OA
BRANCH  25  26
ATOM     26  C   UNL A   1      42.249  23.806  25.613  1.00  0.00     0.202 C 
BRANCH  26  27
ATOM     27  C   UNL A   1      42.542  25.300  25.448  1.00  0.00     0.261 C 
BRANCH  27  28
ATOM     28  O   UNL A   1      43.929  25.647  25.590  1.00  0.00    -0.460 OA
BRANCH  28  29
ATOM     29  C   UNL A   1      44.403  25.561  26.858  1.00  0.00     0.338 C 
ATOM     30  O   UNL A   1      45.378  24.929  27.234  1.00  0.00    -0.246 OA
BRANCH  29  31
ATOM     31  C   UNL A   1      43.610  26.412  27.772  1.00  0.00     0.060 A 
ATOM     32  C   UNL A   1      43.870  27.788  27.777  1.00  0.00     0.016 A 
ATOM     33  C   UNL A   1      42.716  25.863  28.698  1.00  0.00     0.016 A 
ATOM     34  C   UNL A   1      43.286  28.609  28.744  1.00  0.00     0.010 A 
ATOM     35  C   UNL A   1      42.141  26.686  29.676  1.00  0.00     0.010 A 
ATOM     36  C   UNL A   1      42.455  28.055  29.729  1.00  0.00    -0.014 A 
BRANCH  36  37
ATOM     37  C   UNL A   1      42.077  28.869  30.914  1.00  0.00     0.031 A 
ATOM     38  C   UNL A   1      40.874  29.767  30.820  1.00  0.00     0.074 A 
ATOM     39  C   UNL A   1      42.761  28.792  32.070  1.00  0.00     0.049 A 
ATOM     40  N   UNL A   1      40.363  30.561  31.725  1.00  0.00    -0.248 NA
ATOM     41  C   UNL A   1      40.149  29.766  29.539  1.00  0.00     0.031 C 
ATOM     42  C   UNL A   1      43.915  27.934  32.304  1.00  0.00     0.029 A 
ATOM     43  N   UNL A   1      42.584  29.444  33.265  1.00  0.00    -0.354 N 
ATOM     44  C   UNL A   1      39.249  31.140  31.131  1.00  0.00     0.074 A 
ATOM     45  C   UNL A   1      39.176  30.633  29.778  1.00  0.00     0.031 C 
ATOM     46  C   UNL A   1      44.345  28.102  33.566  1.00  0.00     0.029 A 
ATOM     47  C   UNL A   1      43.512  29.107  34.222  1.00  0.00     0.049 A 
ATOM     48  H   UNL A   1      41.858  30.091  33.423  1.00  0.00     0.167 HD
ATOM     49  C   UNL A   1      38.361  32.010  31.667  1.00  0.00     0.037 A 
ATOM     50  C   UNL A   1      43.680  29.567  35.480  1.00  0.00     0.037 A 
ATOM     51  C   UNL A   1      38.447  32.540  33.002  1.00  0.00     0.049 A 
ATOM     52  C   UNL A   1      42.736  30.609  36.021  1.00  0.00     0.074 A 
ATOM     53  C   UNL A   1      37.605  33.448  33.620  1.00  0.00     0.029 A 
ATOM     54  N   UNL A   1      39.432  32.217  33.922  1.00  0.00    -0.354 N 
ATOM     55  N   UNL A   1      41.687  31.147  35.447  1.00  0.00    -0.248 NA
ATOM     56  C   UNL A   1      43.002  31.112  37.377  1.00  0.00     0.031 C 
ATOM     57  C   UNL A   1      38.103  33.704  34.901  1.00  0.00     0.029 A 
ATOM     58  C   UNL A   1      39.229  32.921  35.097  1.00  0.00     0.049 A 
ATOM     59  H   UNL A   1      40.167  31.582  33.763  1.00  0.00     0.167 HD
ATOM     60  C   UNL A   1      41.151  32.029  36.381  1.00  0.00     0.074 A 
ATOM     61  C   UNL A   1      41.990  31.951  37.558  1.00  0.00     0.031 C 
ATOM     62  C   UNL A   1      40.061  32.827  36.270  1.00  0.00     0.037 A 
BRANCH  49  63
ATOM     63  C   UNL A   1      37.222  32.457  30.799  1.00  0.00     0.058 A 
ATOM     64  C   UNL A   1      37.379  33.528  29.907  1.00  0.00     0.135 A 
ATOM     65  C   UNL A   1      35.958  31.851  30.886  1.00  0.00     0.135 A 
ATOM     66  F   UNL A   1      38.570  34.133  29.778  1.00  0.00    -0.206 F 
ATOM     67  C   UNL A   1      36.319  33.993  29.138  1.00  0.00     0.059 A 
ATOM     68  C   UNL A   1      34.888  32.287  30.111  1.00  0.00     0.059 A 
ATOM     69  F   UNL A   1      35.766  30.807  31.706  1.00  0.00    -0.206 F 
ATOM     70  C   UNL A   1      35.076  33.368  29.250  1.00  0.00     0.060 A 
BRANCH  70  71
ATOM     71  S   UNL A   1      33.717  33.960  28.218  1.00  0.00     0.124 S 
ATOM     72  O   UNL A   1      32.883  34.657  29.191  1.00  0.00    -0.237 OA
ATOM     73  O   UNL A   1      34.413  34.806  27.253  1.00  0.00    -0.237 OA
ATOM     74  O   UNL A   1      33.152  32.732  27.667  1.00  0.00    -0.744 OA
ENDBRANCH  70  71
ENDBRANCH  49  63
BRANCH  50  75
ATOM     75  C   UNL A   1      44.787  29.041  36.321  1.00  0.00     0.058 A 
ATOM     76  C   UNL A   1      44.603  27.931  37.158  1.00  0.00     0.135 A 
ATOM     77  C   UNL A   1      46.055  29.642  36.300  1.00  0.00     0.135 A 
ATOM     78  F   UNL A   1      43.411  27.318  37.212  1.00  0.00    -0.206 F 
ATOM     79  C   UNL A   1      45.631  27.444  37.959  1.00  0.00     0.059 A 
ATOM     80  C   UNL A   1      47.106  29.160  37.075  1.00  0.00     0.059 A 
ATOM     81  F   UNL A   1      46.283  30.695  35.501  1.00  0.00    -0.206 F 
ATOM     82  C   UNL A   1      46.879  28.069  37.914  1.00  0.00     0.060 A 
BRANCH  82  83
ATOM     83  S   UNL A   1      48.206  27.420  38.954  1.00  0.00     0.124 S 
ATOM     84  O   UNL A   1      48.849  28.649  39.405  1.00  0.00    -0.237 OA
ATOM     85  O   UNL A   1      47.463  26.681  39.971  1.00  0.00    -0.237 OA
ATOM     86  O   UNL A   1      48.986  26.602  38.033  1.00  0.00    -0.744 OA
ENDBRANCH  82  83
ENDBRANCH  50  75
BRANCH  62  87
ATOM     87  C   UNL A   1      39.676  33.665  37.458  1.00  0.00     0.058 A 
ATOM     88  C   UNL A   1      40.252  34.932  37.650  1.00  0.00     0.135 A 
ATOM     89  C   UNL A   1      38.814  33.179  38.453  1.00  0.00     0.135 A 
ATOM     90  F   UNL A   1      41.088  35.441  36.730  1.00  0.00    -0.206 F 
ATOM     91  C   UNL A   1      40.008  35.676  38.799  1.00  0.00     0.059 A 
ATOM     92  C   UNL A   1      38.536  33.917  39.601  1.00  0.00     0.059 A 
ATOM     93  F   UNL A   1      38.230  31.979  38.312  1.00  0.00    -0.206 F 
ATOM     94  C   UNL A   1      39.154  35.156  39.773  1.00  0.00     0.060 A 
BRANCH  94  95
ATOM     95  S   UNL A   1      38.850  36.133  41.261  1.00  0.00     0.124 S 
ATOM     96  O   UNL A   1      38.532  37.442  40.700  1.00  0.00    -0.237 OA
ATOM     97  O   UNL A   1      37.738  35.420  41.880  1.00  0.00    -0.237 OA
ATOM     98  O   UNL A   1      40.117  36.051  41.983  1.00  0.00    -0.744 OA
ENDBRANCH  94  95
ENDBRANCH  62  87
ENDBRANCH  36  37
ENDBRANCH  29  31
ENDBRANCH  28  29
ENDBRANCH  27  28
ENDBRANCH  26  27
ENDBRANCH  25  26
ENDBRANCH   1  25
TORSDOF 22
ENDMDL
MODEL 2
REMARK VINA RESULT:      -9.2      9.350     15.183
REMARK SMILES CC[C@H]1CO[C@@H](C)CN1c1cccc(F)c1C(=O)OCCOCCOCCOC(=O)c1ccc(-c2c3nc(c(-c4c(F)cc(S(=O)(=O)[O-])cc4F)c4ccc([nH]4)c(-c4c(F)cc(S(=O)(=O)[O-])cc4F)c4nc(c(-c5c(F)cc(S(=O)(=O)[O-])cc5F)c5ccc2[nH]5)C=C4)C=C3)cc1
REMARK SMILES IDX 24 1 23 2 22 3 21 4 20 5 19 6 17 7 18 8 16 9 10 10 11 11
REMARK SMILES IDX 12 12 14 13 13 14 15 15 9 16 3 17 4 18 5 19 8 20 6 21 7 22
REMARK SMILES IDX 2 23 1 24 25 25 26 26 27 27 28 28 29 29 30 30 31 31 32 32
REMARK SMILES IDX 96 33 33 34 95 35 34 36 35 37 36 38 89 39 37 40 94 41 88 42
REMARK SMILES IDX 90 43 38 44 93 45 87 46 86 47 39 49 73 50 52 51 72 52 53 53
REMARK SMILES IDX 56 54 71 55 91 56 54 57 55 58 70 60 92 61 57 62 40 63 41 64
REMARK SMILES IDX 50 65 42 66 43 67 49 68 51 69 44 70 45 71 46 72 47 73 48 74
REMARK SMILES IDX 74 75 75 76 84 77 76 78 77 79 83 80 85 81 78 82 79 83 80 84
REMARK SMILES IDX 81 85 82 86 58 87 59 88 68 89 60 90 61 91 67 92 69 93 62 94
REMARK SMILES IDX 63 95 64 96 65 97 66 98
REMARK H PARENT 90 48 56 59
REMARK Flexibility Score: inf
ROOT
ATOM      1  C   UNL A   1      45.439  38.750  26.561  1.00  0.00     0.188 C 
ENDROOT
BRANCH   1   2
ATOM      2  C   UNL A   1      46.968  38.679  26.420  1.00  0.00     0.188 C 
BRANCH   2   3
ATOM      3  O   UNL A   1      47.487  39.657  25.514  1.00  0.00    -0.376 OA
BRANCH   3   4
ATOM      4  C   UNL A   1      46.501  40.200  24.633  1.00  0.00     0.202 C 
BRANCH   4   5
ATOM      5  C   UNL A   1      47.147  40.825  23.397  1.00  0.00     0.261 C 
BRANCH   5   6
ATOM      6  O   UNL A   1      46.224  41.707  22.738  1.00  0.00    -0.460 OA
BRANCH   6   7
ATOM      7  C   UNL A   1      46.481  42.132  21.472  1.00  0.00     0.343 C 
ATOM      8  O   UNL A   1      46.720  41.453  20.507  1.00  0.00    -0.246 OA
BRANCH   7   9
ATOM      9  C   UNL A   1      46.396  43.608  21.547  1.00  0.00     0.119 A 
ATOM     10  C   UNL A   1      45.267  44.344  21.128  1.00  0.00     0.055 A 
ATOM     11  C   UNL A   1      45.258  45.714  21.445  1.00  0.00     0.027 A 
ATOM     12  C   UNL A   1      46.349  46.346  22.058  1.00  0.00     0.005 A 
ATOM     13  C   UNL A   1      47.491  44.246  22.146  1.00  0.00     0.139 A 
ATOM     14  C   UNL A   1      47.478  45.611  22.393  1.00  0.00     0.040 A 
ATOM     15  F   UNL A   1      48.581  43.550  22.505  1.00  0.00    -0.206 F 
BRANCH  10  16
ATOM     16  N   UNL A   1      44.231  43.803  20.400  1.00  0.00    -0.363 N 
ATOM     17  C   UNL A   1      43.127  42.993  20.997  1.00  0.00     0.108 C 
ATOM     18  C   UNL A   1      41.841  43.509  20.321  1.00  0.00     0.185 C 
ATOM     19  O   UNL A   1      41.880  43.173  18.917  1.00  0.00    -0.375 OA
ATOM     20  C   UNL A   1      44.378  43.478  18.974  1.00  0.00     0.148 C 
ATOM     21  C   UNL A   1      43.030  43.697  18.224  1.00  0.00     0.134 C 
ATOM     22  C   UNL A   1      42.780  45.141  17.821  1.00  0.00     0.040 C 
BRANCH  17  23
ATOM     23  C   UNL A   1      43.055  42.959  22.528  1.00  0.00     0.024 C 
ATOM     24  C   UNL A   1      41.597  42.968  23.000  1.00  0.00     0.006 C 
ENDBRANCH  17  23
ENDBRANCH  10  16
ENDBRANCH   7   9
ENDBRANCH   6   7
ENDBRANCH   5   6
ENDBRANCH   4   5
ENDBRANCH   3   4
ENDBRANCH   2   3
ENDBRANCH   1   2
BRANCH   1  25
ATOM     25  O   UNL A   1      44.843  39.328  27.721  1.00  0.00    -0.376 OA
BRANCH  25  26
ATOM     26  C   UNL A   1      44.356  38.472  28.739  1.00  0.00     0.202 C 
BRANCH  26  27
ATOM     27  C   UNL A   1      45.134  38.517  30.058  1.00  0.00     0.261 C 
BRANCH  27  28
ATOM     28  O   UNL A   1      45.698  37.256  30.452  1.00  0.00    -0.460 OA
BRANCH  28  29
ATOM     29  C   UNL A   1      46.880  36.958  29.858  1.00  0.00     0.338 C 
ATOM     30  O   UNL A   1      47.832  37.707  29.703  1.00  0.00    -0.246 OA
BRANCH  29  31
ATOM     31  C   UNL A   1      46.919  35.535  29.454  1.00  0.00     0.060 A 
ATOM     32  C   UNL A   1      46.480  35.208  28.165  1.00  0.00     0.016 A 
ATOM     33  C   UNL A   1      47.257  34.522  30.358  1.00  0.00     0.016 A 
ATOM     34  C   UNL A   1      46.319  33.870  27.796  1.00  0.00     0.010 A 
ATOM     35  C   UNL A   1      47.084  33.181  29.991  1.00  0.00     0.010 A 
ATOM     36  C   UNL A   1      46.576  32.850  28.723  1.00  0.00    -0.014 A 
BRANCH  36  37
ATOM     37  C   UNL A   1      46.130  31.462  28.430  1.00  0.00     0.031 A 
ATOM     38  C   UNL A   1      44.706  31.081  28.731  1.00  0.00     0.074 A 
ATOM     39  C   UNL A   1      46.956  30.559  27.872  1.00  0.00     0.049 A 
ATOM     40  N   UNL A   1      44.102  29.935  28.556  1.00  0.00    -0.248 NA
ATOM     41  C   UNL A   1      43.849  32.134  29.301  1.00  0.00     0.031 C 
ATOM     42  C   UNL A   1      48.340  30.812  27.495  1.00  0.00     0.029 A 
ATOM     43  N   UNL A   1      46.750  29.247  27.522  1.00  0.00    -0.354 N 
ATOM     44  C   UNL A   1      42.794  30.131  28.976  1.00  0.00     0.074 A 
ATOM     45  C   UNL A   1      42.696  31.496  29.446  1.00  0.00     0.031 C 
ATOM     46  C   UNL A   1      48.866  29.697  26.960  1.00  0.00     0.029 A 
ATOM     47  C   UNL A   1      47.859  28.637  26.985  1.00  0.00     0.049 A 
ATOM     48  H   UNL A   1      45.888  28.786  27.644  1.00  0.00     0.167 HD
ATOM     49  C   UNL A   1      41.761  29.254  28.965  1.00  0.00     0.037 A 
ATOM     50  C   UNL A   1      48.047  27.366  26.574  1.00  0.00     0.037 A 
ATOM     51  C   UNL A   1      41.860  27.888  28.527  1.00  0.00     0.049 A 
ATOM     52  C   UNL A   1      46.909  26.382  26.662  1.00  0.00     0.074 A 
ATOM     53  C   UNL A   1      40.871  26.920  28.505  1.00  0.00     0.029 A 
ATOM     54  N   UNL A   1      43.014  27.291  28.041  1.00  0.00    -0.354 N 
ATOM     55  N   UNL A   1      45.677  26.583  27.061  1.00  0.00    -0.248 NA
ATOM     56  C   UNL A   1      47.189  24.998  26.251  1.00  0.00     0.031 C 
ATOM     57  C   UNL A   1      41.436  25.727  28.043  1.00  0.00     0.029 A 
ATOM     58  C   UNL A   1      42.766  25.964  27.733  1.00  0.00     0.049 A 
ATOM     59  H   UNL A   1      43.881  27.744  27.932  1.00  0.00     0.167 HD
ATOM     60  C   UNL A   1      45.027  25.360  26.922  1.00  0.00     0.074 A 
ATOM     61  C   UNL A   1      46.002  24.425  26.400  1.00  0.00     0.031 C 
ATOM     62  C   UNL A   1      43.739  25.044  27.201  1.00  0.00     0.037 A 
BRANCH  49  63
ATOM     63  C   UNL A   1      40.432  29.747  29.455  1.00  0.00     0.058 A 
ATOM     64  C   UNL A   1      40.220  29.997  30.819  1.00  0.00     0.135 A 
ATOM     65  C   UNL A   1      39.352  29.926  28.575  1.00  0.00     0.135 A 
ATOM     66  F   UNL A   1      41.223  29.851  31.698  1.00  0.00    -0.206 F 
ATOM     67  C   UNL A   1      38.977  30.397  31.298  1.00  0.00     0.059 A 
ATOM     68  C   UNL A   1      38.105  30.346  29.031  1.00  0.00     0.059 A 
ATOM     69  F   UNL A   1      39.513  29.724  27.259  1.00  0.00    -0.206 F 
ATOM     70  C   UNL A   1      37.926  30.566  30.396  1.00  0.00     0.060 A 
BRANCH  70  71
ATOM     71  S   UNL A   1      36.328  31.121  31.029  1.00  0.00     0.124 S 
ATOM     72  O   UNL A   1      35.603  31.413  29.798  1.00  0.00    -0.237 OA
ATOM     73  O   UNL A   1      35.872  29.951  31.775  1.00  0.00    -0.237 OA
ATOM     74  O   UNL A   1      36.674  32.278  31.848  1.00  0.00    -0.744 OA
ENDBRANCH  70  71
ENDBRANCH  49  63
BRANCH  50  75
ATOM     75  C   UNL A   1      49.368  26.947  26.034  1.00  0.00     0.058 A 
ATOM     76  C   UNL A   1      49.673  27.077  24.671  1.00  0.00     0.135 A 
ATOM     77  C   UNL A   1      50.353  26.411  26.877  1.00  0.00     0.135 A 
ATOM     78  F   UNL A   1      48.767  27.587  23.824  1.00  0.00    -0.206 F 
ATOM     79  C   UNL A   1      50.901  26.672  24.158  1.00  0.00     0.059 A 
ATOM     80  C   UNL A   1      51.597  26.019  26.392  1.00  0.00     0.059 A 
ATOM     81  F   UNL A   1      50.112  26.285  28.192  1.00  0.00    -0.206 F 
ATOM     82  C   UNL A   1      51.856  26.140  25.027  1.00  0.00     0.060 A 
BRANCH  82  83
ATOM     83  S   UNL A   1      53.449  25.627  24.346  1.00  0.00     0.124 S 
ATOM     84  O   UNL A   1      53.241  25.848  22.919  1.00  0.00    -0.237 OA
ATOM     85  O   UNL A   1      54.373  26.545  25.004  1.00  0.00    -0.237 OA
ATOM     86  O   UNL A   1      53.556  24.231  24.757  1.00  0.00    -0.744 OA
ENDBRANCH  82  83
ENDBRANCH  50  75
BRANCH  62  87
ATOM     87  C   UNL A   1      43.279  23.640  26.920  1.00  0.00     0.058 A 
ATOM     88  C   UNL A   1      43.123  22.721  27.970  1.00  0.00     0.135 A 
ATOM     89  C   UNL A   1      43.085  23.177  25.608  1.00  0.00     0.135 A 
ATOM     90  F   UNL A   1      43.302  23.111  29.242  1.00  0.00    -0.206 F 
ATOM     91  C   UNL A   1      42.817  21.386  27.730  1.00  0.00     0.059 A 
ATOM     92  C   UNL A   1      42.756  21.850  25.346  1.00  0.00     0.059 A 
ATOM     93  F   UNL A   1      43.212  24.018  24.571  1.00  0.00    -0.206 F 
ATOM     94  C   UNL A   1      42.643  20.958  26.413  1.00  0.00     0.060 A 
BRANCH  94  95
ATOM     95  S   UNL A   1      42.251  19.220  26.117  1.00  0.00     0.124 S 
ATOM     96  O   UNL A   1      42.651  18.605  27.378  1.00  0.00    -0.237 OA
ATOM     97  O   UNL A   1      40.816  19.265  25.860  1.00  0.00    -0.237 OA
ATOM     98  O   UNL A   1      43.077  18.879  24.962  1.00  0.00    -0.744 OA
ENDBRANCH  94  95
ENDBRANCH  62  87
ENDBRANCH  36  37
ENDBRANCH  29  31
ENDBRANCH  28  29
ENDBRANCH  27  28
ENDBRANCH  26  27
ENDBRANCH  25  26
ENDBRANCH   1  25
TORSDOF 22
ENDMDL
MODEL 3
REMARK VINA RESULT:      -9.1      8.783     16.347
REMARK SMILES CC[C@H]1CO[C@@H](C)CN1c1cccc(F)c1C(=O)OCCOCCOCCOC(=O)c1ccc(-c2c3nc(c(-c4c(F)cc(S(=O)(=O)[O-])cc4F)c4ccc([nH]4)c(-c4c(F)cc(S(=O)(=O)[O-])cc4F)c4nc(c(-c5c(F)cc(S(=O)(=O)[O-])cc5F)c5ccc2[nH]5)C=C4)C=C3)cc1
REMARK SMILES IDX 24 1 23 2 22 3 21 4 20 5 19 6 17 7 18 8 16 9 10 10 11 11
REMARK SMILES IDX 12 12 14 13 13 14 15 15 9 16 3 17 4 18 5 19 8 20 6 21 7 22
REMARK SMILES IDX 2 23 1 24 25 25 26 26 27 27 28 28 29 29 30 30 31 31 32 32
REMARK SMILES IDX 96 33 33 34 95 35 34 36 35 37 36 38 89 39 37 40 94 41 88 42
REMARK SMILES IDX 90 43 38 44 93 45 87 46 86 47 39 49 73 50 52 51 72 52 53 53
REMARK SMILES IDX 56 54 71 55 91 56 54 57 55 58 70 60 92 61 57 62 40 63 41 64
REMARK SMILES IDX 50 65 42 66 43 67 49 68 51 69 44 70 45 71 46 72 47 73 48 74
REMARK SMILES IDX 74 75 75 76 84 77 76 78 77 79 83 80 85 81 78 82 79 83 80 84
REMARK SMILES IDX 81 85 82 86 58 87 59 88 68 89 60 90 61 91 67 92 69 93 62 94
REMARK SMILES IDX 63 95 64 96 65 97 66 98
REMARK H PARENT 90 48 56 59
REMARK Flexibility Score: inf
ROOT
ATOM      1  C   UNL A   1      43.305  39.836  28.748  1.00  0.00     0.188 C 
ENDROOT
BRANCH   1   2
ATOM      2  C   UNL A   1      41.782  39.854  28.533  1.00  0.00     0.188 C 
BRANCH   2   3
ATOM      3  O   UNL A   1      41.398  40.561  27.350  1.00  0.00    -0.376 OA
BRANCH   3   4
ATOM      4  C   UNL A   1      42.233  40.286  26.224  1.00  0.00     0.202 C 
BRANCH   4   5
ATOM      5  C   UNL A   1      42.262  41.466  25.254  1.00  0.00     0.261 C 
BRANCH   5   6
ATOM      6  O   UNL A   1      43.439  41.416  24.432  1.00  0.00    -0.460 OA
BRANCH   6   7
ATOM      7  C   UNL A   1      44.667  41.337  25.012  1.00  0.00     0.343 C 
ATOM      8  O   UNL A   1      45.236  40.344  25.385  1.00  0.00    -0.246 OA
BRANCH   7   9
ATOM      9  C   UNL A   1      45.142  42.737  25.077  1.00  0.00     0.119 A 
ATOM     10  C   UNL A   1      45.617  43.450  23.954  1.00  0.00     0.055 A 
ATOM     11  C   UNL A   1      45.845  44.826  24.134  1.00  0.00     0.027 A 
ATOM     12  C   UNL A   1      45.703  45.448  25.382  1.00  0.00     0.005 A 
ATOM     13  C   UNL A   1      45.016  43.361  26.325  1.00  0.00     0.139 A 
ATOM     14  C   UNL A   1      45.305  44.708  26.486  1.00  0.00     0.040 A 
ATOM     15  F   UNL A   1      44.605  42.670  27.401  1.00  0.00    -0.206 F 
BRANCH  10  16
ATOM     16  N   UNL A   1      45.907  42.860  22.743  1.00  0.00    -0.363 N 
ATOM     17  C   UNL A   1      44.917  42.703  21.636  1.00  0.00     0.108 C 
ATOM     18  C   UNL A   1      45.685  43.088  20.356  1.00  0.00     0.185 C 
ATOM     19  O   UNL A   1      46.723  42.112  20.117  1.00  0.00    -0.375 OA
ATOM     20  C   UNL A   1      46.975  41.859  22.609  1.00  0.00     0.148 C 
ATOM     21  C   UNL A   1      47.651  41.970  21.210  1.00  0.00     0.134 C 
ATOM     22  C   UNL A   1      48.718  43.050  21.129  1.00  0.00     0.040 C 
BRANCH  17  23
ATOM     23  C   UNL A   1      43.581  43.436  21.804  1.00  0.00     0.024 C 
ATOM     24  C   UNL A   1      42.637  43.108  20.642  1.00  0.00     0.006 C 
ENDBRANCH  17  23
ENDBRANCH  10  16
ENDBRANCH   7   9
ENDBRANCH   6   7
ENDBRANCH   5   6
ENDBRANCH   4   5
ENDBRANCH   3   4
ENDBRANCH   2   3
ENDBRANCH   1   2
BRANCH   1  25
ATOM     25  O   UNL A   1      43.853  39.539  30.030  1.00  0.00    -0.376 OA
BRANCH  25  26
ATOM     26  C   UNL A   1      45.156  38.992  30.108  1.00  0.00     0.202 C 
BRANCH  26  27
ATOM     27  C   UNL A   1      45.282  37.537  29.646  1.00  0.00     0.261 C 
BRANCH  27  28
ATOM     28  O   UNL A   1      46.165  37.348  28.530  1.00  0.00    -0.460 OA
BRANCH  28  29
ATOM     29  C   UNL A   1      47.347  36.758  28.840  1.00  0.00     0.338 C 
ATOM     30  O   UNL A   1      48.326  37.294  29.334  1.00  0.00    -0.246 OA
BRANCH  29  31
ATOM     31  C   UNL A   1      47.295  35.306  28.559  1.00  0.00     0.060 A 
ATOM     32  C   UNL A   1      46.846  34.899  27.297  1.00  0.00     0.016 A 
ATOM     33  C   UNL A   1      47.560  34.355  29.550  1.00  0.00     0.016 A 
ATOM     34  C   UNL A   1      46.602  33.547  27.041  1.00  0.00     0.010 A 
ATOM     35  C   UNL A   1      47.304  33.001  29.296  1.00  0.00     0.010 A 
ATOM     36  C   UNL A   1      46.785  32.595  28.055  1.00  0.00    -0.014 A 
BRANCH  36  37
ATOM     37  C   UNL A   1      46.252  31.219  27.875  1.00  0.00     0.031 A 
ATOM     38  C   UNL A   1      47.195  30.131  27.439  1.00  0.00     0.074 A 
ATOM     39  C   UNL A   1      44.964  30.922  28.126  1.00  0.00     0.049 A 
ATOM     40  N   UNL A   1      46.951  28.865  27.221  1.00  0.00    -0.248 NA
ATOM     41  C   UNL A   1      48.598  30.521  27.225  1.00  0.00     0.031 C 
ATOM     42  C   UNL A   1      43.962  31.872  28.591  1.00  0.00     0.029 A 
ATOM     43  N   UNL A   1      44.279  29.738  28.028  1.00  0.00    -0.354 N 
ATOM     44  C   UNL A   1      48.169  28.304  26.862  1.00  0.00     0.074 A 
ATOM     45  C   UNL A   1      49.146  29.371  26.859  1.00  0.00     0.031 C 
ATOM     46  C   UNL A   1      42.787  31.239  28.746  1.00  0.00     0.029 A 
ATOM     47  C   UNL A   1      42.948  29.838  28.359  1.00  0.00     0.049 A 
ATOM     48  H   UNL A   1      44.700  28.892  27.746  1.00  0.00     0.167 HD
ATOM     49  C   UNL A   1      48.452  27.012  26.570  1.00  0.00     0.037 A 
ATOM     50  C   UNL A   1      41.967  28.912  28.340  1.00  0.00     0.037 A 
ATOM     51  C   UNL A   1      47.479  25.953  26.543  1.00  0.00     0.049 A 
ATOM     52  C   UNL A   1      42.287  27.502  27.916  1.00  0.00     0.074 A 
ATOM     53  C   UNL A   1      47.672  24.618  26.231  1.00  0.00     0.029 A 
ATOM     54  N   UNL A   1      46.131  26.105  26.831  1.00  0.00    -0.354 N 
ATOM     55  N   UNL A   1      43.445  26.986  27.580  1.00  0.00    -0.248 NA
ATOM     56  C   UNL A   1      41.168  26.550  27.862  1.00  0.00     0.031 C 
ATOM     57  C   UNL A   1      46.434  23.971  26.293  1.00  0.00     0.029 A 
ATOM     58  C   UNL A   1      45.477  24.893  26.688  1.00  0.00     0.049 A 
ATOM     59  H   UNL A   1      45.703  26.950  27.098  1.00  0.00     0.167 HD
ATOM     60  C   UNL A   1      43.198  25.644  27.303  1.00  0.00     0.074 A 
ATOM     61  C   UNL A   1      41.783  25.427  27.513  1.00  0.00     0.031 C 
ATOM     62  C   UNL A   1      44.070  24.682  26.912  1.00  0.00     0.037 A 
BRANCH  49  63
ATOM     63  C   UNL A   1      49.876  26.674  26.239  1.00  0.00     0.058 A 
ATOM     64  C   UNL A   1      50.367  26.838  24.936  1.00  0.00     0.135 A 
ATOM     65  C   UNL A   1      50.742  26.144  27.209  1.00  0.00     0.135 A 
ATOM     66  F   UNL A   1      49.582  27.351  23.976  1.00  0.00    -0.206 F 
ATOM     67  C   UNL A   1      51.666  26.474  24.599  1.00  0.00     0.059 A 
ATOM     68  C   UNL A   1      52.053  25.793  26.899  1.00  0.00     0.059 A 
ATOM     69  F   UNL A   1      50.327  25.994  28.476  1.00  0.00    -0.206 F 
ATOM     70  C   UNL A   1      52.500  25.950  25.588  1.00  0.00     0.060 A 
BRANCH  70  71
ATOM     71  S   UNL A   1      54.196  25.518  25.143  1.00  0.00     0.124 S 
ATOM     72  O   UNL A   1      54.953  26.100  26.247  1.00  0.00    -0.237 OA
ATOM     73  O   UNL A   1      54.141  24.059  25.109  1.00  0.00    -0.237 OA
ATOM     74  O   UNL A   1      54.379  26.159  23.845  1.00  0.00    -0.744 OA
ENDBRANCH  70  71
ENDBRANCH  49  63
BRANCH  50  75
ATOM     75  C   UNL A   1      40.585  29.285  28.740  1.00  0.00     0.058 A 
ATOM     76  C   UNL A   1      40.214  29.369  30.091  1.00  0.00     0.135 A 
ATOM     77  C   UNL A   1      39.607  29.569  27.774  1.00  0.00     0.135 A 
ATOM     78  F   UNL A   1      41.113  29.111  31.053  1.00  0.00    -0.206 F 
ATOM     79  C   UNL A   1      38.918  29.702  30.471  1.00  0.00     0.059 A 
ATOM     80  C   UNL A   1      38.310  29.926  28.130  1.00  0.00     0.059 A 
ATOM     81  F   UNL A   1      39.921  29.519  26.471  1.00  0.00    -0.206 F 
ATOM     82  C   UNL A   1      37.971  29.975  29.482  1.00  0.00     0.060 A 
BRANCH  82  83
ATOM     83  S   UNL A   1      36.295  30.414  29.992  1.00  0.00     0.124 S 
ATOM     84  O   UNL A   1      36.344  30.138  31.423  1.00  0.00    -0.237 OA
ATOM     85  O   UNL A   1      36.220  31.823  29.617  1.00  0.00    -0.237 OA
ATOM     86  O   UNL A   1      35.457  29.514  29.206  1.00  0.00    -0.744 OA
ENDBRANCH  82  83
ENDBRANCH  50  75
BRANCH  62  87
ATOM     87  C   UNL A   1      43.541  23.289  26.714  1.00  0.00     0.058 A 
ATOM     88  C   UNL A   1      43.239  22.480  27.822  1.00  0.00     0.135 A 
ATOM     89  C   UNL A   1      43.424  22.720  25.436  1.00  0.00     0.135 A 
ATOM     90  F   UNL A   1      43.340  22.973  29.067  1.00  0.00    -0.206 F 
ATOM     91  C   UNL A   1      42.865  21.149  27.672  1.00  0.00     0.059 A 
ATOM     92  C   UNL A   1      43.028  21.396  25.261  1.00  0.00     0.059 A 
ATOM     93  F   UNL A   1      43.690  23.454  24.345  1.00  0.00    -0.206 F 
ATOM     94  C   UNL A   1      42.770  20.614  26.386  1.00  0.00     0.060 A 
BRANCH  94  95
ATOM     95  S   UNL A   1      42.287  18.883  26.208  1.00  0.00     0.124 S 
ATOM     96  O   UNL A   1      42.514  18.370  27.555  1.00  0.00    -0.237 OA
ATOM     97  O   UNL A   1      40.892  18.990  25.796  1.00  0.00    -0.237 OA
ATOM     98  O   UNL A   1      43.199  18.382  25.184  1.00  0.00    -0.744 OA
ENDBRANCH  94  95
ENDBRANCH  62  87
ENDBRANCH  36  37
ENDBRANCH  29  31
ENDBRANCH  28  29
ENDBRANCH  27  28
ENDBRANCH  26  27
ENDBRANCH  25  26
ENDBRANCH   1  25
TORSDOF 22
ENDMDL
