MODEL 1
REMARK VINA RESULT:     -10.7      0.000      0.000
REMARK SMILES Cc1cc(C)n(-c2nc(C)c(C)c(Oc3cccc(C(=O)OCCOCCOCCOC(=O)c4ccc(-c5c6nc(c(-c7c(F)cc(S(=O)(=O)[O-])cc7F)c7ccc([nH]7)c(-c7c(F)cc(S(=O)(=O)[O-])cc7F)c7nc(c(-c8c(F)cc(S(=O)(=O)[O-])cc8F)c8ccc5[nH]8)C=C7)C=C6)cc4)c3)n2)n1
REMARK SMILES IDX 26 1 25 2 24 3 23 4 22 5 20 6 21 7 19 8 15 9 16 10 100 11
REMARK SMILES IDX 17 12 18 13 14 14 13 15 7 16 8 17 101 18 9 19 10 20 11 21
REMARK SMILES IDX 12 22 6 23 1 24 2 25 3 26 102 27 4 28 5 29 27 30 28 31 29 32
REMARK SMILES IDX 30 33 31 34 32 35 33 36 34 37 35 38 99 39 36 40 98 41 37 42
REMARK SMILES IDX 38 43 39 44 92 45 40 46 97 47 91 48 93 49 41 50 96 51 90 52
REMARK SMILES IDX 89 53 42 55 76 56 55 57 75 58 56 59 59 60 74 61 94 62 57 63
REMARK SMILES IDX 58 64 73 66 95 67 60 68 43 69 44 70 53 71 45 72 46 73 52 74
REMARK SMILES IDX 54 75 47 76 48 77 49 78 50 79 51 80 77 81 78 82 87 83 79 84
REMARK SMILES IDX 80 85 86 86 88 87 81 88 82 89 83 90 84 91 85 92 61 93 62 94
REMARK SMILES IDX 71 95 63 96 64 97 70 98 72 99 65 100 66 101 67 102 68 103
REMARK SMILES IDX 69 104
REMARK H PARENT 93 54 59 65
REMARK Flexibility Score: inf
ROOT
ATOM      1  C   UNL A   1      38.427  22.972  26.122  1.00  0.00     0.188 C 
ENDROOT
BRANCH   1   2
ATOM      2  O   UNL A   1      37.667  22.368  25.102  1.00  0.00    -0.376 OA
BRANCH   2   3
ATOM      3  C   UNL A   1      36.252  22.429  25.105  1.00  0.00     0.202 C 
BRANCH   3   4
ATOM      4  C   UNL A   1      35.342  22.355  23.860  1.00  0.00     0.261 C 
BRANCH   4   5
ATOM      5  O   UNL A   1      35.187  23.538  23.073  1.00  0.00    -0.460 OA
BRANCH   5   6
ATOM      6  C   UNL A   1      33.943  23.767  22.585  1.00  0.00     0.338 C 
ATOM      7  O   UNL A   1      33.515  23.426  21.495  1.00  0.00    -0.246 OA
BRANCH   6   8
ATOM      8  C   UNL A   1      33.081  24.299  23.668  1.00  0.00     0.063 A 
ATOM      9  C   UNL A   1      32.691  25.720  25.579  1.00  0.00     0.130 A 
ATOM     10  C   UNL A   1      31.377  25.255  25.662  1.00  0.00     0.047 A 
ATOM     11  C   UNL A   1      33.573  25.176  24.636  1.00  0.00     0.062 A 
ATOM     12  C   UNL A   1      30.908  24.322  24.740  1.00  0.00     0.005 A 
ATOM     13  C   UNL A   1      31.748  23.873  23.721  1.00  0.00     0.016 A 
BRANCH   9  14
ATOM     14  O   UNL A   1      33.045  26.714  26.465  1.00  0.00    -0.439 OA
BRANCH  14  15
ATOM     15  C   UNL A   1      32.536  27.993  26.239  1.00  0.00     0.227 A 
ATOM     16  C   UNL A   1      31.264  29.386  24.950  1.00  0.00     0.254 A 
ATOM     17  N   UNL A   1      31.812  30.486  25.505  1.00  0.00    -0.216 NA
ATOM     18  N   UNL A   1      31.548  28.142  25.341  1.00  0.00    -0.175 NA
ATOM     19  C   UNL A   1      32.662  30.305  26.543  1.00  0.00     0.050 A 
ATOM     20  C   UNL A   1      33.040  31.568  27.259  1.00  0.00     0.067 C 
ATOM     21  C   UNL A   1      33.110  29.049  26.930  1.00  0.00     0.033 A 
ATOM     22  C   UNL A   1      34.113  28.846  28.020  1.00  0.00     0.052 C 
BRANCH  16  23
ATOM     23  N   UNL A   1      30.393  29.543  23.819  1.00  0.00    -0.203 N 
ATOM     24  C   UNL A   1      27.938  31.445  22.074  1.00  0.00     0.069 C 
ATOM     25  C   UNL A   1      28.936  30.452  22.539  1.00  0.00     0.060 A 
ATOM     26  C   UNL A   1      29.428  29.333  21.837  1.00  0.00     0.049 A 
ATOM     27  N   UNL A   1      29.456  30.534  23.767  1.00  0.00    -0.170 NA
ATOM     28  C   UNL A   1      30.332  28.736  22.689  1.00  0.00     0.045 A 
ATOM     29  C   UNL A   1      31.045  27.440  22.575  1.00  0.00     0.067 C 
ENDBRANCH  16  23
ENDBRANCH  14  15
ENDBRANCH   9  14
ENDBRANCH   6   8
ENDBRANCH   5   6
ENDBRANCH   4   5
ENDBRANCH   3   4
ENDBRANCH   2   3
ENDBRANCH   1   2
BRANCH   1  30
ATOM     30  C   UNL A   1      39.618  22.218  26.751  1.00  0.00     0.188 C 
BRANCH  30  31
ATOM     31  O   UNL A   1      40.440  21.384  25.961  1.00  0.00    -0.376 OA
BRANCH  31  32
ATOM     32  C   UNL A   1      40.764  20.043  26.287  1.00  0.00     0.202 C 
BRANCH  32  33
ATOM     33  C   UNL A   1      42.120  19.364  26.108  1.00  0.00     0.261 C 
BRANCH  33  34
ATOM     34  O   UNL A   1      43.237  20.212  26.201  1.00  0.00    -0.460 OA
BRANCH  34  35
ATOM     35  C   UNL A   1      43.895  20.342  25.030  1.00  0.00     0.338 C 
ATOM     36  O   UNL A   1      44.050  19.494  24.172  1.00  0.00    -0.246 OA
BRANCH  35  37
ATOM     37  C   UNL A   1      44.440  21.696  24.956  1.00  0.00     0.060 A 
ATOM     38  C   UNL A   1      45.573  21.943  25.732  1.00  0.00     0.016 A 
ATOM     39  C   UNL A   1      43.610  22.712  24.466  1.00  0.00     0.016 A 
ATOM     40  C   UNL A   1      45.683  23.185  26.299  1.00  0.00     0.010 A 
ATOM     41  C   UNL A   1      43.717  23.948  25.041  1.00  0.00     0.010 A 
ATOM     42  C   UNL A   1      44.666  24.110  26.045  1.00  0.00    -0.014 A 
BRANCH  42  43
ATOM     43  C   UNL A   1      44.566  25.254  26.915  1.00  0.00     0.031 A 
ATOM     44  C   UNL A   1      45.684  26.198  26.746  1.00  0.00     0.074 A 
ATOM     45  C   UNL A   1      43.492  25.423  27.711  1.00  0.00     0.049 A 
ATOM     46  N   UNL A   1      46.643  26.443  27.573  1.00  0.00    -0.248 NA
ATOM     47  C   UNL A   1      45.875  26.776  25.407  1.00  0.00     0.031 C 
ATOM     48  C   UNL A   1      42.236  24.665  27.740  1.00  0.00     0.029 A 
ATOM     49  N   UNL A   1      43.273  26.402  28.623  1.00  0.00    -0.354 N 
ATOM     50  C   UNL A   1      47.437  27.389  26.938  1.00  0.00     0.074 A 
ATOM     51  C   UNL A   1      47.051  27.385  25.552  1.00  0.00     0.031 C 
ATOM     52  C   UNL A   1      41.313  25.358  28.450  1.00  0.00     0.029 A 
ATOM     53  C   UNL A   1      41.949  26.524  29.034  1.00  0.00     0.049 A 
ATOM     54  H   UNL A   1      43.992  26.981  28.965  1.00  0.00     0.167 HD
ATOM     55  C   UNL A   1      48.174  28.286  27.644  1.00  0.00     0.037 A 
ATOM     56  C   UNL A   1      41.445  27.583  29.717  1.00  0.00     0.037 A 
ATOM     57  C   UNL A   1      48.334  27.874  29.014  1.00  0.00     0.049 A 
ATOM     58  C   UNL A   1      42.611  28.268  30.352  1.00  0.00     0.074 A 
ATOM     59  C   UNL A   1      48.943  26.798  29.630  1.00  0.00     0.029 A 
ATOM     60  N   UNL A   1      47.472  28.401  29.948  1.00  0.00    -0.354 N 
ATOM     61  N   UNL A   1      43.350  27.721  31.284  1.00  0.00    -0.248 NA
ATOM     62  C   UNL A   1      43.255  29.335  29.598  1.00  0.00     0.031 C 
ATOM     63  C   UNL A   1      48.086  26.453  30.715  1.00  0.00     0.029 A 
ATOM     64  C   UNL A   1      47.034  27.370  30.742  1.00  0.00     0.049 A 
ATOM     65  H   UNL A   1      47.216  29.349  30.031  1.00  0.00     0.167 HD
ATOM     66  C   UNL A   1      44.655  28.082  30.972  1.00  0.00     0.074 A 
ATOM     67  C   UNL A   1      44.526  29.122  29.952  1.00  0.00     0.031 C 
ATOM     68  C   UNL A   1      45.720  27.313  31.351  1.00  0.00     0.037 A 
BRANCH  55  69
ATOM     69  C   UNL A   1      48.446  29.686  27.166  1.00  0.00     0.058 A 
ATOM     70  C   UNL A   1      49.775  30.126  27.027  1.00  0.00     0.135 A 
ATOM     71  C   UNL A   1      47.454  30.692  27.078  1.00  0.00     0.135 A 
ATOM     72  F   UNL A   1      50.795  29.257  27.113  1.00  0.00    -0.206 F 
ATOM     73  C   UNL A   1      50.096  31.474  26.866  1.00  0.00     0.059 A 
ATOM     74  C   UNL A   1      47.749  32.028  26.854  1.00  0.00     0.059 A 
ATOM     75  F   UNL A   1      46.158  30.443  27.302  1.00  0.00    -0.206 F 
ATOM     76  C   UNL A   1      49.075  32.418  26.791  1.00  0.00     0.060 A 
BRANCH  76  77
ATOM     77  S   UNL A   1      49.490  34.166  26.693  1.00  0.00     0.124 S 
ATOM     78  O   UNL A   1      48.359  34.773  27.385  1.00  0.00    -0.237 OA
ATOM     79  O   UNL A   1      50.770  34.211  27.392  1.00  0.00    -0.237 OA
ATOM     80  O   UNL A   1      49.559  34.416  25.256  1.00  0.00    -0.744 OA
ENDBRANCH  76  77
ENDBRANCH  55  69
BRANCH  56  81
ATOM     81  C   UNL A   1      40.150  28.279  29.465  1.00  0.00     0.058 A 
ATOM     82  C   UNL A   1      39.284  28.611  30.524  1.00  0.00     0.135 A 
ATOM     83  C   UNL A   1      39.870  28.890  28.224  1.00  0.00     0.135 A 
ATOM     84  F   UNL A   1      39.486  28.094  31.745  1.00  0.00    -0.206 F 
ATOM     85  C   UNL A   1      38.238  29.532  30.375  1.00  0.00     0.059 A 
ATOM     86  C   UNL A   1      38.831  29.804  28.051  1.00  0.00     0.059 A 
ATOM     87  F   UNL A   1      40.658  28.689  27.158  1.00  0.00    -0.206 F 
ATOM     88  C   UNL A   1      38.035  30.142  29.137  1.00  0.00     0.060 A 
BRANCH  88  89
ATOM     89  S   UNL A   1      36.805  31.461  28.983  1.00  0.00     0.124 S 
ATOM     90  O   UNL A   1      36.389  31.326  27.590  1.00  0.00    -0.237 OA
ATOM     91  O   UNL A   1      35.817  31.078  29.984  1.00  0.00    -0.237 OA
ATOM     92  O   UNL A   1      37.564  32.671  29.291  1.00  0.00    -0.744 OA
ENDBRANCH  88  89
ENDBRANCH  56  81
BRANCH  68  93
ATOM     93  C   UNL A   1      45.470  26.175  32.314  1.00  0.00     0.058 A 
ATOM     94  C   UNL A   1      45.012  24.900  31.930  1.00  0.00     0.135 A 
ATOM     95  C   UNL A   1      45.872  26.330  33.647  1.00  0.00     0.135 A 
ATOM     96  F   UNL A   1      44.705  24.636  30.654  1.00  0.00    -0.206 F 
ATOM     97  C   UNL A   1      44.923  23.841  32.840  1.00  0.00     0.059 A 
ATOM     98  C   UNL A   1      45.821  25.282  34.564  1.00  0.00     0.059 A 
ATOM     99  F   UNL A   1      46.378  27.503  34.063  1.00  0.00    -0.206 F 
ATOM    100  C   UNL A   1      45.334  24.042  34.157  1.00  0.00     0.060 A 
BRANCH 100 101
ATOM    101  S   UNL A   1      45.288  22.658  35.318  1.00  0.00     0.124 S 
ATOM    102  O   UNL A   1      46.685  22.237  35.351  1.00  0.00    -0.237 OA
ATOM    103  O   UNL A   1      44.786  23.283  36.537  1.00  0.00    -0.237 OA
ATOM    104  O   UNL A   1      44.368  21.713  34.688  1.00  0.00    -0.744 OA
ENDBRANCH 100 101
ENDBRANCH  68  93
ENDBRANCH  42  43
ENDBRANCH  35  37
ENDBRANCH  34  35
ENDBRANCH  33  34
ENDBRANCH  32  33
ENDBRANCH  31  32
ENDBRANCH  30  31
ENDBRANCH   1  30
TORSDOF 23
ENDMDL
MODEL 2
REMARK VINA RESULT:     -10.7      2.764      9.586
REMARK SMILES Cc1cc(C)n(-c2nc(C)c(C)c(Oc3cccc(C(=O)OCCOCCOCCOC(=O)c4ccc(-c5c6nc(c(-c7c(F)cc(S(=O)(=O)[O-])cc7F)c7ccc([nH]7)c(-c7c(F)cc(S(=O)(=O)[O-])cc7F)c7nc(c(-c8c(F)cc(S(=O)(=O)[O-])cc8F)c8ccc5[nH]8)C=C7)C=C6)cc4)c3)n2)n1
REMARK SMILES IDX 26 1 25 2 24 3 23 4 22 5 20 6 21 7 19 8 15 9 16 10 100 11
REMARK SMILES IDX 17 12 18 13 14 14 13 15 7 16 8 17 101 18 9 19 10 20 11 21
REMARK SMILES IDX 12 22 6 23 1 24 2 25 3 26 102 27 4 28 5 29 27 30 28 31 29 32
REMARK SMILES IDX 30 33 31 34 32 35 33 36 34 37 35 38 99 39 36 40 98 41 37 42
REMARK SMILES IDX 38 43 39 44 92 45 40 46 97 47 91 48 93 49 41 50 96 51 90 52
REMARK SMILES IDX 89 53 42 55 76 56 55 57 75 58 56 59 59 60 74 61 94 62 57 63
REMARK SMILES IDX 58 64 73 66 95 67 60 68 43 69 44 70 53 71 45 72 46 73 52 74
REMARK SMILES IDX 54 75 47 76 48 77 49 78 50 79 51 80 77 81 78 82 87 83 79 84
REMARK SMILES IDX 80 85 86 86 88 87 81 88 82 89 83 90 84 91 85 92 61 93 62 94
REMARK SMILES IDX 71 95 63 96 64 97 70 98 72 99 65 100 66 101 67 102 68 103
REMARK SMILES IDX 69 104
REMARK H PARENT 93 54 59 65
REMARK Flexibility Score: inf
ROOT
ATOM      1  C   UNL A   1      32.931  35.829  30.582  1.00  0.00     0.188 C 
ENDROOT
BRANCH   1   2
ATOM      2  O   UNL A   1      33.606  35.645  29.359  1.00  0.00    -0.376 OA
BRANCH   2   3
ATOM      3  C   UNL A   1      33.740  34.360  28.780  1.00  0.00     0.202 C 
BRANCH   3   4
ATOM      4  C   UNL A   1      35.072  33.626  28.509  1.00  0.00     0.261 C 
BRANCH   4   5
ATOM      5  O   UNL A   1      35.098  32.654  27.461  1.00  0.00    -0.460 OA
BRANCH   5   6
ATOM      6  C   UNL A   1      35.089  31.357  27.855  1.00  0.00     0.338 C 
ATOM      7  O   UNL A   1      35.766  30.860  28.740  1.00  0.00    -0.246 OA
BRANCH   6   8
ATOM      8  C   UNL A   1      33.956  30.655  27.206  1.00  0.00     0.063 A 
ATOM      9  C   UNL A   1      33.029  28.827  25.932  1.00  0.00     0.130 A 
ATOM     10  C   UNL A   1      31.758  29.398  26.029  1.00  0.00     0.047 A 
ATOM     11  C   UNL A   1      34.145  29.500  26.444  1.00  0.00     0.062 A 
ATOM     12  C   UNL A   1      31.582  30.591  26.726  1.00  0.00     0.005 A 
ATOM     13  C   UNL A   1      32.673  31.199  27.346  1.00  0.00     0.016 A 
BRANCH   9  14
ATOM     14  O   UNL A   1      33.101  27.598  25.313  1.00  0.00    -0.439 OA
BRANCH  14  15
ATOM     15  C   UNL A   1      32.532  27.479  24.045  1.00  0.00     0.227 A 
ATOM     16  C   UNL A   1      30.876  28.072  22.586  1.00  0.00     0.254 A 
ATOM     17  N   UNL A   1      31.150  27.035  21.770  1.00  0.00    -0.216 NA
ATOM     18  N   UNL A   1      31.586  28.360  23.680  1.00  0.00    -0.175 NA
ATOM     19  C   UNL A   1      32.234  26.279  22.064  1.00  0.00     0.050 A 
ATOM     20  C   UNL A   1      32.616  25.303  20.989  1.00  0.00     0.067 C 
ATOM     21  C   UNL A   1      32.950  26.427  23.245  1.00  0.00     0.033 A 
ATOM     22  C   UNL A   1      34.096  25.542  23.615  1.00  0.00     0.052 C 
BRANCH  16  23
ATOM     23  N   UNL A   1      29.707  28.866  22.327  1.00  0.00    -0.203 N 
ATOM     24  C   UNL A   1      28.192  31.673  20.740  1.00  0.00     0.069 C 
ATOM     25  C   UNL A   1      28.515  30.444  21.505  1.00  0.00     0.060 A 
ATOM     26  C   UNL A   1      27.616  29.572  22.152  1.00  0.00     0.049 A 
ATOM     27  N   UNL A   1      29.784  30.066  21.679  1.00  0.00    -0.170 NA
ATOM     28  C   UNL A   1      28.401  28.586  22.710  1.00  0.00     0.045 A 
ATOM     29  C   UNL A   1      28.044  27.489  23.643  1.00  0.00     0.067 C 
ENDBRANCH  16  23
ENDBRANCH  14  15
ENDBRANCH   9  14
ENDBRANCH   6   8
ENDBRANCH   5   6
ENDBRANCH   4   5
ENDBRANCH   3   4
ENDBRANCH   2   3
ENDBRANCH   1   2
BRANCH   1  30
ATOM     30  C   UNL A   1      33.653  35.547  31.916  1.00  0.00     0.188 C 
BRANCH  30  31
ATOM     31  O   UNL A   1      33.320  34.413  32.690  1.00  0.00    -0.376 OA
BRANCH  31  32
ATOM     32  C   UNL A   1      34.192  33.317  32.916  1.00  0.00     0.202 C 
BRANCH  32  33
ATOM     33  C   UNL A   1      35.098  32.647  31.887  1.00  0.00     0.261 C 
BRANCH  33  34
ATOM     34  O   UNL A   1      35.468  31.322  32.178  1.00  0.00    -0.460 OA
BRANCH  34  35
ATOM     35  C   UNL A   1      36.762  31.208  32.538  1.00  0.00     0.338 C 
ATOM     36  O   UNL A   1      37.254  31.463  33.621  1.00  0.00    -0.246 OA
BRANCH  35  37
ATOM     37  C   UNL A   1      37.523  30.741  31.380  1.00  0.00     0.060 A 
ATOM     38  C   UNL A   1      37.559  29.359  31.188  1.00  0.00     0.016 A 
ATOM     39  C   UNL A   1      38.452  31.618  30.807  1.00  0.00     0.016 A 
ATOM     40  C   UNL A   1      38.722  28.826  30.699  1.00  0.00     0.010 A 
ATOM     41  C   UNL A   1      39.616  31.084  30.329  1.00  0.00     0.010 A 
ATOM     42  C   UNL A   1      39.773  29.704  30.417  1.00  0.00    -0.014 A 
BRANCH  42  43
ATOM     43  C   UNL A   1      41.094  29.147  30.274  1.00  0.00     0.031 A 
ATOM     44  C   UNL A   1      41.806  29.032  31.559  1.00  0.00     0.074 A 
ATOM     45  C   UNL A   1      41.534  28.716  29.076  1.00  0.00     0.049 A 
ATOM     46  N   UNL A   1      42.823  29.715  31.962  1.00  0.00    -0.248 NA
ATOM     47  C   UNL A   1      41.175  28.208  32.602  1.00  0.00     0.031 C 
ATOM     48  C   UNL A   1      40.791  28.564  27.820  1.00  0.00     0.029 A 
ATOM     49  N   UNL A   1      42.759  28.226  28.762  1.00  0.00    -0.354 N 
ATOM     50  C   UNL A   1      43.100  29.235  33.235  1.00  0.00     0.074 A 
ATOM     51  C   UNL A   1      41.942  28.489  33.654  1.00  0.00     0.031 C 
ATOM     52  C   UNL A   1      41.515  27.805  26.962  1.00  0.00     0.029 A 
ATOM     53  C   UNL A   1      42.814  27.541  27.552  1.00  0.00     0.049 A 
ATOM     54  H   UNL A   1      43.544  28.345  29.343  1.00  0.00     0.167 HD
ATOM     55  C   UNL A   1      44.357  29.272  33.750  1.00  0.00     0.037 A 
ATOM     56  C   UNL A   1      43.841  26.744  27.161  1.00  0.00     0.037 A 
ATOM     57  C   UNL A   1      45.197  30.186  33.021  1.00  0.00     0.049 A 
ATOM     58  C   UNL A   1      45.025  27.152  27.975  1.00  0.00     0.074 A 
ATOM     59  C   UNL A   1      45.178  31.552  32.813  1.00  0.00     0.029 A 
ATOM     60  N   UNL A   1      46.009  29.668  32.039  1.00  0.00    -0.354 N 
ATOM     61  N   UNL A   1      45.595  28.326  27.883  1.00  0.00    -0.248 NA
ATOM     62  C   UNL A   1      45.246  26.454  29.235  1.00  0.00     0.031 C 
ATOM     63  C   UNL A   1      45.587  31.729  31.459  1.00  0.00     0.029 A 
ATOM     64  C   UNL A   1      45.892  30.473  30.932  1.00  0.00     0.049 A 
ATOM     65  H   UNL A   1      46.573  28.864  32.116  1.00  0.00     0.167 HD
ATOM     66  C   UNL A   1      45.898  28.688  29.190  1.00  0.00     0.074 A 
ATOM     67  C   UNL A   1      45.706  27.468  29.974  1.00  0.00     0.031 C 
ATOM     68  C   UNL A   1      45.995  29.999  29.566  1.00  0.00     0.037 A 
BRANCH  55  69
ATOM     69  C   UNL A   1      44.894  28.225  34.687  1.00  0.00     0.058 A 
ATOM     70  C   UNL A   1      45.108  26.917  34.215  1.00  0.00     0.135 A 
ATOM     71  C   UNL A   1      44.971  28.392  36.089  1.00  0.00     0.135 A 
ATOM     72  F   UNL A   1      45.040  26.644  32.903  1.00  0.00    -0.206 F 
ATOM     73  C   UNL A   1      45.330  25.845  35.080  1.00  0.00     0.059 A 
ATOM     74  C   UNL A   1      45.253  27.351  36.962  1.00  0.00     0.059 A 
ATOM     75  F   UNL A   1      44.680  29.552  36.691  1.00  0.00    -0.206 F 
ATOM     76  C   UNL A   1      45.390  26.072  36.452  1.00  0.00     0.060 A 
BRANCH  76  77
ATOM     77  S   UNL A   1      45.565  24.677  37.575  1.00  0.00     0.124 S 
ATOM     78  O   UNL A   1      44.764  25.114  38.711  1.00  0.00    -0.237 OA
ATOM     79  O   UNL A   1      45.013  23.583  36.783  1.00  0.00    -0.237 OA
ATOM     80  O   UNL A   1      47.006  24.610  37.807  1.00  0.00    -0.744 OA
ENDBRANCH  76  77
ENDBRANCH  55  69
BRANCH  56  81
ATOM     81  C   UNL A   1      43.739  25.404  26.514  1.00  0.00     0.058 A 
ATOM     82  C   UNL A   1      44.366  25.141  25.280  1.00  0.00     0.135 A 
ATOM     83  C   UNL A   1      43.278  24.275  27.223  1.00  0.00     0.135 A 
ATOM     84  F   UNL A   1      44.854  26.153  24.546  1.00  0.00    -0.206 F 
ATOM     85  C   UNL A   1      44.568  23.839  24.806  1.00  0.00     0.059 A 
ATOM     86  C   UNL A   1      43.462  22.970  26.767  1.00  0.00     0.059 A 
ATOM     87  F   UNL A   1      42.713  24.399  28.433  1.00  0.00    -0.206 F 
ATOM     88  C   UNL A   1      44.133  22.757  25.570  1.00  0.00     0.060 A 
BRANCH  88  89
ATOM     89  S   UNL A   1      44.549  21.073  25.053  1.00  0.00     0.124 S 
ATOM     90  O   UNL A   1      44.653  21.218  23.604  1.00  0.00    -0.237 OA
ATOM     91  O   UNL A   1      45.800  20.834  25.762  1.00  0.00    -0.237 OA
ATOM     92  O   UNL A   1      43.411  20.284  25.519  1.00  0.00    -0.744 OA
ENDBRANCH  88  89
ENDBRANCH  56  81
BRANCH  68  93
ATOM     93  C   UNL A   1      45.989  31.052  28.483  1.00  0.00     0.058 A 
ATOM     94  C   UNL A   1      44.823  31.575  27.893  1.00  0.00     0.135 A 
ATOM     95  C   UNL A   1      47.201  31.675  28.154  1.00  0.00     0.135 A 
ATOM     96  F   UNL A   1      43.614  31.107  28.229  1.00  0.00    -0.206 F 
ATOM     97  C   UNL A   1      44.865  32.643  26.990  1.00  0.00     0.059 A 
ATOM     98  C   UNL A   1      47.264  32.760  27.281  1.00  0.00     0.059 A 
ATOM     99  F   UNL A   1      48.344  31.268  28.730  1.00  0.00    -0.206 F 
ATOM    100  C   UNL A   1      46.093  33.232  26.692  1.00  0.00     0.060 A 
BRANCH 100 101
ATOM    101  S   UNL A   1      46.143  34.656  25.581  1.00  0.00     0.124 S 
ATOM    102  O   UNL A   1      45.300  34.214  24.475  1.00  0.00    -0.237 OA
ATOM    103  O   UNL A   1      45.592  35.724  26.410  1.00  0.00    -0.237 OA
ATOM    104  O   UNL A   1      47.563  34.794  25.265  1.00  0.00    -0.744 OA
ENDBRANCH 100 101
ENDBRANCH  68  93
ENDBRANCH  42  43
ENDBRANCH  35  37
ENDBRANCH  34  35
ENDBRANCH  33  34
ENDBRANCH  32  33
ENDBRANCH  31  32
ENDBRANCH  30  31
ENDBRANCH   1  30
TORSDOF 23
ENDMDL
MODEL 3
REMARK VINA RESULT:     -10.5      4.512      9.398
REMARK SMILES Cc1cc(C)n(-c2nc(C)c(C)c(Oc3cccc(C(=O)OCCOCCOCCOC(=O)c4ccc(-c5c6nc(c(-c7c(F)cc(S(=O)(=O)[O-])cc7F)c7ccc([nH]7)c(-c7c(F)cc(S(=O)(=O)[O-])cc7F)c7nc(c(-c8c(F)cc(S(=O)(=O)[O-])cc8F)c8ccc5[nH]8)C=C7)C=C6)cc4)c3)n2)n1
REMARK SMILES IDX 26 1 25 2 24 3 23 4 22 5 20 6 21 7 19 8 15 9 16 10 100 11
REMARK SMILES IDX 17 12 18 13 14 14 13 15 7 16 8 17 101 18 9 19 10 20 11 21
REMARK SMILES IDX 12 22 6 23 1 24 2 25 3 26 102 27 4 28 5 29 27 30 28 31 29 32
REMARK SMILES IDX 30 33 31 34 32 35 33 36 34 37 35 38 99 39 36 40 98 41 37 42
REMARK SMILES IDX 38 43 39 44 92 45 40 46 97 47 91 48 93 49 41 50 96 51 90 52
REMARK SMILES IDX 89 53 42 55 76 56 55 57 75 58 56 59 59 60 74 61 94 62 57 63
REMARK SMILES IDX 58 64 73 66 95 67 60 68 43 69 44 70 53 71 45 72 46 73 52 74
REMARK SMILES IDX 54 75 47 76 48 77 49 78 50 79 51 80 77 81 78 82 87 83 79 84
REMARK SMILES IDX 80 85 86 86 88 87 81 88 82 89 83 90 84 91 85 92 61 93 62 94
REMARK SMILES IDX 71 95 63 96 64 97 70 98 72 99 65 100 66 101 67 102 68 103
REMARK SMILES IDX 69 104
REMARK H PARENT 93 54 59 65
REMARK Flexibility Score: inf
ROOT
ATOM      1  C   UNL A   1      32.851  37.041  31.594  1.00  0.00     0.188 C 
ENDROOT
BRANCH   1   2
ATOM      2  O   UNL A   1      33.153  36.688  30.264  1.00  0.00    -0.376 OA
BRANCH   2   3
ATOM      3  C   UNL A   1      33.275  35.333  29.873  1.00  0.00     0.202 C 
BRANCH   3   4
ATOM      4  C   UNL A   1      33.333  34.814  28.419  1.00  0.00     0.261 C 
BRANCH   4   5
ATOM      5  O   UNL A   1      33.281  33.401  28.211  1.00  0.00    -0.460 OA
BRANCH   5   6
ATOM      6  C   UNL A   1      34.409  32.833  27.716  1.00  0.00     0.338 C 
ATOM      7  O   UNL A   1      35.500  33.367  27.598  1.00  0.00    -0.246 OA
BRANCH   6   8
ATOM      8  C   UNL A   1      34.192  31.377  27.546  1.00  0.00     0.063 A 
ATOM      9  C   UNL A   1      32.766  29.455  27.239  1.00  0.00     0.130 A 
ATOM     10  C   UNL A   1      33.886  28.621  27.214  1.00  0.00     0.047 A 
ATOM     11  C   UNL A   1      32.912  30.824  27.495  1.00  0.00     0.062 A 
ATOM     12  C   UNL A   1      35.163  29.166  27.342  1.00  0.00     0.005 A 
ATOM     13  C   UNL A   1      35.317  30.546  27.470  1.00  0.00     0.016 A 
BRANCH   9  14
ATOM     14  O   UNL A   1      31.550  28.850  27.006  1.00  0.00    -0.439 OA
BRANCH  14  15
ATOM     15  C   UNL A   1      31.510  27.816  26.071  1.00  0.00     0.227 A 
ATOM     16  C   UNL A   1      31.995  25.647  25.541  1.00  0.00     0.254 A 
ATOM     17  N   UNL A   1      31.823  25.875  24.223  1.00  0.00    -0.216 NA
ATOM     18  N   UNL A   1      31.779  26.566  26.485  1.00  0.00    -0.175 NA
ATOM     19  C   UNL A   1      31.362  27.094  23.855  1.00  0.00     0.050 A 
ATOM     20  C   UNL A   1      30.967  27.195  22.411  1.00  0.00     0.067 C 
ATOM     21  C   UNL A   1      31.233  28.145  24.754  1.00  0.00     0.033 A 
ATOM     22  C   UNL A   1      30.807  29.517  24.341  1.00  0.00     0.052 C 
BRANCH  16  23
ATOM     23  N   UNL A   1      32.525  24.379  25.959  1.00  0.00    -0.203 N 
ATOM     24  C   UNL A   1      35.320  22.217  26.413  1.00  0.00     0.069 C 
ATOM     25  C   UNL A   1      33.988  22.866  26.358  1.00  0.00     0.060 A 
ATOM     26  C   UNL A   1      32.773  22.383  26.883  1.00  0.00     0.049 A 
ATOM     27  N   UNL A   1      33.825  24.033  25.728  1.00  0.00    -0.170 NA
ATOM     28  C   UNL A   1      31.835  23.346  26.582  1.00  0.00     0.045 A 
ATOM     29  C   UNL A   1      30.359  23.328  26.732  1.00  0.00     0.067 C 
ENDBRANCH  16  23
ENDBRANCH  14  15
ENDBRANCH   9  14
ENDBRANCH   6   8
ENDBRANCH   5   6
ENDBRANCH   4   5
ENDBRANCH   3   4
ENDBRANCH   2   3
ENDBRANCH   1   2
BRANCH   1  30
ATOM     30  C   UNL A   1      33.963  37.568  32.526  1.00  0.00     0.188 C 
BRANCH  30  31
ATOM     31  O   UNL A   1      34.384  36.814  33.644  1.00  0.00    -0.376 OA
BRANCH  31  32
ATOM     32  C   UNL A   1      34.600  35.413  33.625  1.00  0.00     0.202 C 
BRANCH  32  33
ATOM     33  C   UNL A   1      35.672  34.667  32.833  1.00  0.00     0.261 C 
BRANCH  33  34
ATOM     34  O   UNL A   1      35.807  33.301  33.135  1.00  0.00    -0.460 OA
BRANCH  34  35
ATOM     35  C   UNL A   1      35.176  32.504  32.249  1.00  0.00     0.338 C 
ATOM     36  O   UNL A   1      33.995  32.512  31.958  1.00  0.00    -0.246 OA
BRANCH  35  37
ATOM     37  C   UNL A   1      36.154  31.572  31.690  1.00  0.00     0.060 A 
ATOM     38  C   UNL A   1      36.903  30.843  32.616  1.00  0.00     0.016 A 
ATOM     39  C   UNL A   1      36.546  31.752  30.358  1.00  0.00     0.016 A 
ATOM     40  C   UNL A   1      38.209  30.582  32.294  1.00  0.00     0.010 A 
ATOM     41  C   UNL A   1      37.852  31.499  30.044  1.00  0.00     0.010 A 
ATOM     42  C   UNL A   1      38.683  31.048  31.065  1.00  0.00    -0.014 A 
BRANCH  42  43
ATOM     43  C   UNL A   1      40.110  31.121  30.880  1.00  0.00     0.031 A 
ATOM     44  C   UNL A   1      40.668  29.905  30.264  1.00  0.00     0.074 A 
ATOM     45  C   UNL A   1      40.787  32.247  31.180  1.00  0.00     0.049 A 
ATOM     46  N   UNL A   1      41.419  29.014  30.816  1.00  0.00    -0.248 NA
ATOM     47  C   UNL A   1      40.150  29.528  28.940  1.00  0.00     0.031 C 
ATOM     48  C   UNL A   1      40.264  33.568  31.548  1.00  0.00     0.029 A 
ATOM     49  N   UNL A   1      42.125  32.459  31.122  1.00  0.00    -0.354 N 
ATOM     50  C   UNL A   1      41.655  28.073  29.822  1.00  0.00     0.074 A 
ATOM     51  C   UNL A   1      40.687  28.318  28.786  1.00  0.00     0.031 C 
ATOM     52  C   UNL A   1      41.257  34.485  31.447  1.00  0.00     0.029 A 
ATOM     53  C   UNL A   1      42.500  33.799  31.146  1.00  0.00     0.049 A 
ATOM     54  H   UNL A   1      42.778  31.724  31.066  1.00  0.00     0.167 HD
ATOM     55  C   UNL A   1      42.790  27.325  29.808  1.00  0.00     0.037 A 
ATOM     56  C   UNL A   1      43.737  34.262  30.831  1.00  0.00     0.037 A 
ATOM     57  C   UNL A   1      43.448  27.343  31.088  1.00  0.00     0.049 A 
ATOM     58  C   UNL A   1      44.669  33.104  30.972  1.00  0.00     0.074 A 
ATOM     59  C   UNL A   1      43.104  26.905  32.352  1.00  0.00     0.029 A 
ATOM     60  N   UNL A   1      44.477  28.237  31.268  1.00  0.00    -0.354 N 
ATOM     61  N   UNL A   1      44.924  32.518  32.114  1.00  0.00    -0.248 NA
ATOM     62  C   UNL A   1      44.909  32.287  29.790  1.00  0.00     0.031 C 
ATOM     63  C   UNL A   1      43.613  27.895  33.242  1.00  0.00     0.029 A 
ATOM     64  C   UNL A   1      44.292  28.849  32.483  1.00  0.00     0.049 A 
ATOM     65  H   UNL A   1      45.215  28.406  30.638  1.00  0.00     0.167 HD
ATOM     66  C   UNL A   1      44.965  31.159  31.825  1.00  0.00     0.074 A 
ATOM     67  C   UNL A   1      45.001  31.084  30.365  1.00  0.00     0.031 C 
ATOM     68  C   UNL A   1      44.676  30.217  32.773  1.00  0.00     0.037 A 
BRANCH  55  69
ATOM     69  C   UNL A   1      43.461  26.872  28.540  1.00  0.00     0.058 A 
ATOM     70  C   UNL A   1      43.239  25.566  28.067  1.00  0.00     0.135 A 
ATOM     71  C   UNL A   1      44.507  27.585  27.908  1.00  0.00     0.135 A 
ATOM     72  F   UNL A   1      42.283  24.795  28.609  1.00  0.00    -0.206 F 
ATOM     73  C   UNL A   1      44.035  24.993  27.074  1.00  0.00     0.059 A 
ATOM     74  C   UNL A   1      45.268  27.056  26.876  1.00  0.00     0.059 A 
ATOM     75  F   UNL A   1      44.907  28.792  28.326  1.00  0.00    -0.206 F 
ATOM     76  C   UNL A   1      45.053  25.744  26.493  1.00  0.00     0.060 A 
BRANCH  76  77
ATOM     77  S   UNL A   1      46.148  24.972  25.292  1.00  0.00     0.124 S 
ATOM     78  O   UNL A   1      45.216  24.143  24.539  1.00  0.00    -0.237 OA
ATOM     79  O   UNL A   1      46.689  26.131  24.590  1.00  0.00    -0.237 OA
ATOM     80  O   UNL A   1      47.106  24.249  26.125  1.00  0.00    -0.744 OA
ENDBRANCH  76  77
ENDBRANCH  55  69
BRANCH  56  81
ATOM     81  C   UNL A   1      44.061  35.452  29.992  1.00  0.00     0.058 A 
ATOM     82  C   UNL A   1      43.583  35.564  28.672  1.00  0.00     0.135 A 
ATOM     83  C   UNL A   1      44.594  36.630  30.556  1.00  0.00     0.135 A 
ATOM     84  F   UNL A   1      43.040  34.500  28.062  1.00  0.00    -0.206 F 
ATOM     85  C   UNL A   1      43.587  36.780  27.975  1.00  0.00     0.059 A 
ATOM     86  C   UNL A   1      44.615  37.849  29.880  1.00  0.00     0.059 A 
ATOM     87  F   UNL A   1      45.030  36.655  31.824  1.00  0.00    -0.206 F 
ATOM     88  C   UNL A   1      44.084  37.924  28.599  1.00  0.00     0.060 A 
BRANCH  88  89
ATOM     89  S   UNL A   1      43.928  39.528  27.776  1.00  0.00     0.124 S 
ATOM     90  O   UNL A   1      43.125  40.283  28.733  1.00  0.00    -0.237 OA
ATOM     91  O   UNL A   1      45.320  39.942  27.644  1.00  0.00    -0.237 OA
ATOM     92  O   UNL A   1      43.256  39.202  26.520  1.00  0.00    -0.744 OA
ENDBRANCH  88  89
ENDBRANCH  56  81
BRANCH  68  93
ATOM     93  C   UNL A   1      44.530  30.671  34.207  1.00  0.00     0.058 A 
ATOM     94  C   UNL A   1      43.343  31.192  34.755  1.00  0.00     0.135 A 
ATOM     95  C   UNL A   1      45.579  30.408  35.098  1.00  0.00     0.135 A 
ATOM     96  F   UNL A   1      42.258  31.377  33.993  1.00  0.00    -0.206 F 
ATOM     97  C   UNL A   1      43.220  31.474  36.120  1.00  0.00     0.059 A 
ATOM     98  C   UNL A   1      45.469  30.651  36.466  1.00  0.00     0.059 A 
ATOM     99  F   UNL A   1      46.716  29.851  34.651  1.00  0.00    -0.206 F 
ATOM    100  C   UNL A   1      44.289  31.196  36.969  1.00  0.00     0.060 A 
BRANCH 100 101
ATOM    101  S   UNL A   1      44.109  31.492  38.743  1.00  0.00     0.124 S 
ATOM    102  O   UNL A   1      44.797  32.768  38.914  1.00  0.00    -0.237 OA
ATOM    103  O   UNL A   1      42.660  31.526  38.913  1.00  0.00    -0.237 OA
ATOM    104  O   UNL A   1      44.772  30.341  39.351  1.00  0.00    -0.744 OA
ENDBRANCH 100 101
ENDBRANCH  68  93
ENDBRANCH  42  43
ENDBRANCH  35  37
ENDBRANCH  34  35
ENDBRANCH  33  34
ENDBRANCH  32  33
ENDBRANCH  31  32
ENDBRANCH  30  31
ENDBRANCH   1  30
TORSDOF 23
ENDMDL
