MODEL 1
REMARK VINA RESULT:      -7.6      0.000      0.000
REMARK SMILES C[C@@H](C(=O)OCCOCCOCCOC(=O)c1ccc(-c2c3nc(c(-c4c(F)cc(S(=O)(=O)[O-])cc4F)c4ccc([nH]4)c(-c4c(F)cc(S(=O)(=O)[O-])cc4F)c4nc(c(-c5c(F)cc(S(=O)(=O)[O-])cc5F)c5ccc2[nH]5)C=C4)C=C3)cc1)c1ccc(-c2cccc(OC(=O)NCCC3CCCCC3)c2)c(F)c1
REMARK SMILES IDX 7 1 6 2 5 3 3 4 4 5 2 6 1 7 83 8 84 9 107 10 85 11 105 12
REMARK SMILES IDX 86 13 106 14 87 15 88 16 104 17 89 18 91 19 90 20 92 21
REMARK SMILES IDX 93 22 94 23 95 24 96 26 97 27 98 28 99 29 103 30 100 31
REMARK SMILES IDX 102 32 101 33 8 34 9 35 10 36 11 37 12 38 13 39 14 40 15 41
REMARK SMILES IDX 16 42 17 43 18 44 82 45 19 46 81 47 20 48 21 49 22 50 75 51
REMARK SMILES IDX 23 52 80 53 74 54 76 55 24 56 79 57 73 58 72 59 25 61 59 62
REMARK SMILES IDX 38 63 58 64 39 65 42 66 57 67 77 68 40 69 41 70 56 72 78 73
REMARK SMILES IDX 43 74 26 75 27 76 36 77 28 78 29 79 35 80 37 81 30 82 31 83
REMARK SMILES IDX 32 84 33 85 34 86 60 87 61 88 70 89 62 90 63 91 69 92 71 93
REMARK SMILES IDX 64 94 65 95 66 96 67 97 68 98 44 99 45 100 54 101 46 102
REMARK SMILES IDX 47 103 53 104 55 105 48 106 49 107 50 108 51 109 52 110
REMARK H PARENT 95 25 76 60 42 71
REMARK Flexibility Score: inf
ROOT
ATOM      1  C   UNL A   1      47.208  20.285  35.997  1.00  0.00     0.202 C 
ENDROOT
BRANCH   1   2
ATOM      2  C   UNL A   1      46.223  21.316  36.586  1.00  0.00     0.261 C 
BRANCH   2   3
ATOM      3  O   UNL A   1      46.076  22.555  35.852  1.00  0.00    -0.463 OA
BRANCH   3   4
ATOM      4  C   UNL A   1      44.915  22.714  35.155  1.00  0.00     0.313 C 
ATOM      5  O   UNL A   1      44.275  21.777  34.688  1.00  0.00    -0.252 OA
BRANCH   4   6
ATOM      6  C   UNL A   1      44.465  24.179  34.963  1.00  0.00     0.126 C 
ATOM      7  C   UNL A   1      42.967  24.498  35.049  1.00  0.00     0.025 C 
BRANCH   6   8
ATOM      8  C   UNL A   1      45.072  24.793  33.704  1.00  0.00    -0.031 A 
ATOM      9  C   UNL A   1      46.214  25.604  33.757  1.00  0.00     0.005 A 
ATOM     10  C   UNL A   1      44.508  24.557  32.450  1.00  0.00     0.044 A 
ATOM     11  C   UNL A   1      46.774  26.147  32.584  1.00  0.00     0.012 A 
ATOM     12  C   UNL A   1      45.079  25.081  31.297  1.00  0.00     0.131 A 
ATOM     13  C   UNL A   1      46.210  25.895  31.326  1.00  0.00     0.018 A 
ATOM     14  F   UNL A   1      44.498  24.778  30.135  1.00  0.00    -0.206 F 
BRANCH  13  15
ATOM     15  C   UNL A   1      46.739  26.478  30.084  1.00  0.00    -0.012 A 
ATOM     16  C   UNL A   1      47.962  26.058  29.543  1.00  0.00     0.009 A 
ATOM     17  C   UNL A   1      46.001  27.459  29.392  1.00  0.00     0.056 A 
ATOM     18  C   UNL A   1      48.432  26.605  28.347  1.00  0.00     0.004 A 
ATOM     19  C   UNL A   1      46.468  27.996  28.193  1.00  0.00     0.133 A 
ATOM     20  C   UNL A   1      47.685  27.568  27.666  1.00  0.00     0.047 A 
BRANCH  19  21
ATOM     21  O   UNL A   1      45.813  29.024  27.461  1.00  0.00    -0.410 OA
BRANCH  21  22
ATOM     22  C   UNL A   1      45.971  29.296  26.103  1.00  0.00     0.412 C 
ATOM     23  O   UNL A   1      46.009  28.463  25.196  1.00  0.00    -0.224 OA
ATOM     24  N   UNL A   1      46.040  30.628  25.803  1.00  0.00    -0.321 N 
ATOM     25  H   UNL A   1      46.118  30.851  24.848  1.00  0.00     0.167 HD
BRANCH  24  26
ATOM     26  C   UNL A   1      46.009  31.754  26.720  1.00  0.00     0.119 C 
BRANCH  26  27
ATOM     27  C   UNL A   1      45.065  32.857  26.237  1.00  0.00     0.025 C 
BRANCH  27  28
ATOM     28  C   UNL A   1      44.506  33.790  27.336  1.00  0.00    -0.009 C 
ATOM     29  C   UNL A   1      43.492  34.820  26.819  1.00  0.00     0.003 C 
ATOM     30  C   UNL A   1      43.833  32.943  28.422  1.00  0.00     0.003 C 
ATOM     31  C   UNL A   1      42.906  35.667  27.958  1.00  0.00     0.000 C 
ATOM     32  C   UNL A   1      43.307  33.795  29.568  1.00  0.00     0.000 C 
ATOM     33  C   UNL A   1      42.301  34.815  29.070  1.00  0.00     0.000 C 
ENDBRANCH  27  28
ENDBRANCH  26  27
ENDBRANCH  24  26
ENDBRANCH  21  22
ENDBRANCH  19  21
ENDBRANCH  13  15
ENDBRANCH   6   8
ENDBRANCH   4   6
ENDBRANCH   3   4
ENDBRANCH   2   3
ENDBRANCH   1   2
BRANCH   1  34
ATOM     34  O   UNL A   1      48.561  20.659  35.756  1.00  0.00    -0.376 OA
BRANCH  34  35
ATOM     35  C   UNL A   1      49.396  20.912  36.878  1.00  0.00     0.188 C 
BRANCH  35  36
ATOM     36  C   UNL A   1      50.007  22.318  37.018  1.00  0.00     0.188 C 
BRANCH  36  37
ATOM     37  O   UNL A   1      49.836  22.896  38.292  1.00  0.00    -0.376 OA
BRANCH  37  38
ATOM     38  C   UNL A   1      48.705  23.714  38.520  1.00  0.00     0.202 C 
BRANCH  38  39
ATOM     39  C   UNL A   1      48.124  24.589  37.396  1.00  0.00     0.261 C 
BRANCH  39  40
ATOM     40  O   UNL A   1      47.276  25.681  37.780  1.00  0.00    -0.460 OA
BRANCH  40  41
ATOM     41  C   UNL A   1      47.708  26.938  37.523  1.00  0.00     0.338 C 
ATOM     42  O   UNL A   1      48.860  27.336  37.580  1.00  0.00    -0.246 OA
BRANCH  41  43
ATOM     43  C   UNL A   1      46.567  27.684  36.933  1.00  0.00     0.060 A 
ATOM     44  C   UNL A   1      45.276  27.151  37.039  1.00  0.00     0.016 A 
ATOM     45  C   UNL A   1      46.762  28.925  36.317  1.00  0.00     0.016 A 
ATOM     46  C   UNL A   1      44.185  27.850  36.509  1.00  0.00     0.010 A 
ATOM     47  C   UNL A   1      45.670  29.620  35.786  1.00  0.00     0.010 A 
ATOM     48  C   UNL A   1      44.374  29.082  35.865  1.00  0.00    -0.014 A 
BRANCH  48  49
ATOM     49  C   UNL A   1      43.273  29.685  35.064  1.00  0.00     0.031 A 
ATOM     50  C   UNL A   1      42.395  30.693  35.750  1.00  0.00     0.074 A 
ATOM     51  C   UNL A   1      42.995  29.306  33.803  1.00  0.00     0.049 A 
ATOM     52  N   UNL A   1      41.302  31.279  35.336  1.00  0.00    -0.248 NA
ATOM     53  C   UNL A   1      42.771  31.020  37.133  1.00  0.00     0.031 C 
ATOM     54  C   UNL A   1      43.706  28.273  33.060  1.00  0.00     0.029 A 
ATOM     55  N   UNL A   1      42.024  29.737  32.930  1.00  0.00    -0.354 N 
ATOM     56  C   UNL A   1      40.848  32.026  36.417  1.00  0.00     0.074 A 
ATOM     57  C   UNL A   1      41.737  31.743  37.523  1.00  0.00     0.031 C 
ATOM     58  C   UNL A   1      43.167  28.164  31.833  1.00  0.00     0.029 A 
ATOM     59  C   UNL A   1      42.038  29.084  31.718  1.00  0.00     0.049 A 
ATOM     60  H   UNL A   1      41.378  30.448  33.150  1.00  0.00     0.167 HD
ATOM     61  C   UNL A   1      39.811  32.897  36.474  1.00  0.00     0.037 A 
ATOM     62  C   UNL A   1      41.220  29.201  30.649  1.00  0.00     0.037 A 
ATOM     63  C   UNL A   1      38.955  33.180  35.338  1.00  0.00     0.049 A 
ATOM     64  C   UNL A   1      40.090  30.201  30.702  1.00  0.00     0.074 A 
ATOM     65  C   UNL A   1      37.932  34.107  35.226  1.00  0.00     0.029 A 
ATOM     66  N   UNL A   1      39.049  32.560  34.092  1.00  0.00    -0.354 N 
ATOM     67  N   UNL A   1      39.751  31.016  31.674  1.00  0.00    -0.248 NA
ATOM     68  C   UNL A   1      39.227  30.299  29.516  1.00  0.00     0.031 C 
ATOM     69  C   UNL A   1      37.404  34.042  33.932  1.00  0.00     0.029 A 
ATOM     70  C   UNL A   1      38.101  33.080  33.221  1.00  0.00     0.049 A 
ATOM     71  H   UNL A   1      39.697  31.854  33.864  1.00  0.00     0.167 HD
ATOM     72  C   UNL A   1      38.649  31.727  31.212  1.00  0.00     0.074 A 
ATOM     73  C   UNL A   1      38.401  31.277  29.858  1.00  0.00     0.031 C 
ATOM     74  C   UNL A   1      37.894  32.654  31.856  1.00  0.00     0.037 A 
BRANCH  61  75
ATOM     75  C   UNL A   1      39.614  33.659  37.778  1.00  0.00     0.058 A 
ATOM     76  C   UNL A   1      38.749  33.187  38.788  1.00  0.00     0.135 A 
ATOM     77  C   UNL A   1      40.350  34.816  38.076  1.00  0.00     0.135 A 
ATOM     78  F   UNL A   1      38.044  32.056  38.609  1.00  0.00    -0.206 F 
ATOM     79  C   UNL A   1      38.609  33.828  40.013  1.00  0.00     0.059 A 
ATOM     80  C   UNL A   1      40.278  35.437  39.325  1.00  0.00     0.059 A 
ATOM     81  F   UNL A   1      41.182  35.343  37.165  1.00  0.00    -0.206 F 
ATOM     82  C   UNL A   1      39.411  34.928  40.289  1.00  0.00     0.060 A 
BRANCH  82  83
ATOM     83  S   UNL A   1      39.343  35.617  41.954  1.00  0.00     0.124 S 
ATOM     84  O   UNL A   1      39.239  37.048  41.684  1.00  0.00    -0.237 OA
ATOM     85  O   UNL A   1      38.140  34.986  42.490  1.00  0.00    -0.237 OA
ATOM     86  O   UNL A   1      40.600  35.184  42.555  1.00  0.00    -0.744 OA
ENDBRANCH  82  83
ENDBRANCH  61  75
BRANCH  62  87
ATOM     87  C   UNL A   1      41.425  28.341  29.446  1.00  0.00     0.058 A 
ATOM     88  C   UNL A   1      40.633  27.206  29.207  1.00  0.00     0.135 A 
ATOM     89  C   UNL A   1      42.426  28.634  28.505  1.00  0.00     0.135 A 
ATOM     90  F   UNL A   1      39.696  26.842  30.096  1.00  0.00    -0.206 F 
ATOM     91  C   UNL A   1      40.810  26.408  28.081  1.00  0.00     0.059 A 
ATOM     92  C   UNL A   1      42.607  27.865  27.358  1.00  0.00     0.059 A 
ATOM     93  F   UNL A   1      43.232  29.691  28.686  1.00  0.00    -0.206 F 
ATOM     94  C   UNL A   1      41.795  26.752  27.155  1.00  0.00     0.060 A 
BRANCH  94  95
ATOM     95  S   UNL A   1      41.976  25.740  25.671  1.00  0.00     0.124 S 
ATOM     96  O   UNL A   1      42.596  26.682  24.746  1.00  0.00    -0.237 OA
ATOM     97  O   UNL A   1      42.832  24.657  26.145  1.00  0.00    -0.237 OA
ATOM     98  O   UNL A   1      40.605  25.355  25.355  1.00  0.00    -0.744 OA
ENDBRANCH  94  95
ENDBRANCH  62  87
BRANCH  74  99
ATOM     99  C   UNL A   1      36.757  33.274  31.082  1.00  0.00     0.058 A 
ATOM    100  C   UNL A   1      36.987  34.180  30.033  1.00  0.00     0.135 A 
ATOM    101  C   UNL A   1      35.423  32.940  31.371  1.00  0.00     0.135 A 
ATOM    102  F   UNL A   1      38.241  34.547  29.721  1.00  0.00    -0.206 F 
ATOM    103  C   UNL A   1      35.939  34.751  29.316  1.00  0.00     0.059 A 
ATOM    104  C   UNL A   1      34.360  33.477  30.648  1.00  0.00     0.059 A 
ATOM    105  F   UNL A   1      35.141  32.075  32.358  1.00  0.00    -0.206 F 
ATOM    106  C   UNL A   1      34.627  34.391  29.629  1.00  0.00     0.060 A 
BRANCH 106 107
ATOM    107  S   UNL A   1      33.280  35.118  28.670  1.00  0.00     0.124 S 
ATOM    108  O   UNL A   1      33.984  36.128  27.887  1.00  0.00    -0.237 OA
ATOM    109  O   UNL A   1      32.778  33.972  27.919  1.00  0.00    -0.237 OA
ATOM    110  O   UNL A   1      32.375  35.636  29.692  1.00  0.00    -0.744 OA
ENDBRANCH 106 107
ENDBRANCH  74  99
ENDBRANCH  48  49
ENDBRANCH  41  43
ENDBRANCH  40  41
ENDBRANCH  39  40
ENDBRANCH  38  39
ENDBRANCH  37  38
ENDBRANCH  36  37
ENDBRANCH  35  36
ENDBRANCH  34  35
ENDBRANCH   1  34
TORSDOF 27
ENDMDL
MODEL 2
REMARK VINA RESULT:      -7.5      1.286      7.788
REMARK SMILES C[C@@H](C(=O)OCCOCCOCCOC(=O)c1ccc(-c2c3nc(c(-c4c(F)cc(S(=O)(=O)[O-])cc4F)c4ccc([nH]4)c(-c4c(F)cc(S(=O)(=O)[O-])cc4F)c4nc(c(-c5c(F)cc(S(=O)(=O)[O-])cc5F)c5ccc2[nH]5)C=C4)C=C3)cc1)c1ccc(-c2cccc(OC(=O)NCCC3CCCCC3)c2)c(F)c1
REMARK SMILES IDX 7 1 6 2 5 3 3 4 4 5 2 6 1 7 83 8 84 9 107 10 85 11 105 12
REMARK SMILES IDX 86 13 106 14 87 15 88 16 104 17 89 18 91 19 90 20 92 21
REMARK SMILES IDX 93 22 94 23 95 24 96 26 97 27 98 28 99 29 103 30 100 31
REMARK SMILES IDX 102 32 101 33 8 34 9 35 10 36 11 37 12 38 13 39 14 40 15 41
REMARK SMILES IDX 16 42 17 43 18 44 82 45 19 46 81 47 20 48 21 49 22 50 75 51
REMARK SMILES IDX 23 52 80 53 74 54 76 55 24 56 79 57 73 58 72 59 25 61 59 62
REMARK SMILES IDX 38 63 58 64 39 65 42 66 57 67 77 68 40 69 41 70 56 72 78 73
REMARK SMILES IDX 43 74 26 75 27 76 36 77 28 78 29 79 35 80 37 81 30 82 31 83
REMARK SMILES IDX 32 84 33 85 34 86 60 87 61 88 70 89 62 90 63 91 69 92 71 93
REMARK SMILES IDX 64 94 65 95 66 96 67 97 68 98 44 99 45 100 54 101 46 102
REMARK SMILES IDX 47 103 53 104 55 105 48 106 49 107 50 108 51 109 52 110
REMARK H PARENT 95 25 76 60 42 71
REMARK Flexibility Score: inf
ROOT
ATOM      1  C   UNL A   1      47.626  20.777  34.615  1.00  0.00     0.202 C 
ENDROOT
BRANCH   1   2
ATOM      2  C   UNL A   1      46.184  21.241  34.904  1.00  0.00     0.261 C 
BRANCH   2   3
ATOM      3  O   UNL A   1      45.439  21.760  33.776  1.00  0.00    -0.463 OA
BRANCH   3   4
ATOM      4  C   UNL A   1      44.492  22.702  34.054  1.00  0.00     0.313 C 
ATOM      5  O   UNL A   1      43.286  22.485  33.989  1.00  0.00    -0.252 OA
BRANCH   4   6
ATOM      6  C   UNL A   1      45.047  24.091  34.435  1.00  0.00     0.126 C 
ATOM      7  C   UNL A   1      44.162  25.026  35.268  1.00  0.00     0.025 C 
BRANCH   6   8
ATOM      8  C   UNL A   1      45.605  24.825  33.218  1.00  0.00    -0.031 A 
ATOM      9  C   UNL A   1      46.723  25.667  33.314  1.00  0.00     0.005 A 
ATOM     10  C   UNL A   1      45.019  24.674  31.961  1.00  0.00     0.044 A 
ATOM     11  C   UNL A   1      47.237  26.322  32.178  1.00  0.00     0.012 A 
ATOM     12  C   UNL A   1      45.546  25.309  30.843  1.00  0.00     0.131 A 
ATOM     13  C   UNL A   1      46.652  26.155  30.915  1.00  0.00     0.018 A 
ATOM     14  F   UNL A   1      44.948  25.083  29.672  1.00  0.00    -0.206 F 
BRANCH  13  15
ATOM     15  C   UNL A   1      47.134  26.854  29.715  1.00  0.00    -0.012 A 
ATOM     16  C   UNL A   1      48.320  26.473  29.074  1.00  0.00     0.009 A 
ATOM     17  C   UNL A   1      46.384  27.913  29.164  1.00  0.00     0.056 A 
ATOM     18  C   UNL A   1      48.745  27.133  27.919  1.00  0.00     0.004 A 
ATOM     19  C   UNL A   1      46.804  28.563  28.004  1.00  0.00     0.133 A 
ATOM     20  C   UNL A   1      47.986  28.172  27.377  1.00  0.00     0.047 A 
BRANCH  19  21
ATOM     21  O   UNL A   1      46.136  29.670  27.414  1.00  0.00    -0.410 OA
BRANCH  21  22
ATOM     22  C   UNL A   1      46.488  30.304  26.224  1.00  0.00     0.412 C 
ATOM     23  O   UNL A   1      46.374  29.835  25.091  1.00  0.00    -0.224 OA
ATOM     24  N   UNL A   1      46.954  31.579  26.385  1.00  0.00    -0.321 N 
ATOM     25  H   UNL A   1      47.179  32.064  25.558  1.00  0.00     0.167 HD
BRANCH  24  26
ATOM     26  C   UNL A   1      47.157  32.308  27.625  1.00  0.00     0.119 C 
BRANCH  26  27
ATOM     27  C   UNL A   1      45.852  32.908  28.154  1.00  0.00     0.025 C 
BRANCH  27  28
ATOM     28  C   UNL A   1      45.757  33.053  29.691  1.00  0.00    -0.009 C 
ATOM     29  C   UNL A   1      44.459  32.490  30.287  1.00  0.00     0.003 C 
ATOM     30  C   UNL A   1      46.945  32.334  30.340  1.00  0.00     0.003 C 
ATOM     31  C   UNL A   1      44.447  32.583  31.820  1.00  0.00     0.000 C 
ATOM     32  C   UNL A   1      46.945  32.483  31.854  1.00  0.00     0.000 C 
ATOM     33  C   UNL A   1      45.669  31.928  32.456  1.00  0.00     0.000 C 
ENDBRANCH  27  28
ENDBRANCH  26  27
ENDBRANCH  24  26
ENDBRANCH  21  22
ENDBRANCH  19  21
ENDBRANCH  13  15
ENDBRANCH   6   8
ENDBRANCH   4   6
ENDBRANCH   3   4
ENDBRANCH   2   3
ENDBRANCH   1   2
BRANCH   1  34
ATOM     34  O   UNL A   1      48.637  21.742  34.341  1.00  0.00    -0.376 OA
BRANCH  34  35
ATOM     35  C   UNL A   1      49.704  21.875  35.270  1.00  0.00     0.188 C 
BRANCH  35  36
ATOM     36  C   UNL A   1      50.145  23.297  35.663  1.00  0.00     0.188 C 
BRANCH  36  37
ATOM     37  O   UNL A   1      50.300  23.489  37.050  1.00  0.00    -0.376 OA
BRANCH  37  38
ATOM     38  C   UNL A   1      49.187  23.930  37.803  1.00  0.00     0.202 C 
BRANCH  38  39
ATOM     39  C   UNL A   1      47.975  24.581  37.114  1.00  0.00     0.261 C 
BRANCH  39  40
ATOM     40  O   UNL A   1      47.658  25.933  37.473  1.00  0.00    -0.460 OA
BRANCH  40  41
ATOM     41  C   UNL A   1      48.142  26.926  36.691  1.00  0.00     0.338 C 
ATOM     42  O   UNL A   1      49.285  27.030  36.274  1.00  0.00    -0.246 OA
BRANCH  41  43
ATOM     43  C   UNL A   1      46.982  27.736  36.238  1.00  0.00     0.060 A 
ATOM     44  C   UNL A   1      45.748  27.578  36.880  1.00  0.00     0.016 A 
ATOM     45  C   UNL A   1      47.122  28.679  35.214  1.00  0.00     0.016 A 
ATOM     46  C   UNL A   1      44.649  28.348  36.482  1.00  0.00     0.010 A 
ATOM     47  C   UNL A   1      46.021  29.445  34.816  1.00  0.00     0.010 A 
ATOM     48  C   UNL A   1      44.772  29.277  35.438  1.00  0.00    -0.014 A 
BRANCH  48  49
ATOM     49  C   UNL A   1      43.555  29.886  34.831  1.00  0.00     0.031 A 
ATOM     50  C   UNL A   1      43.185  29.445  33.443  1.00  0.00     0.074 A 
ATOM     51  C   UNL A   1      42.841  30.852  35.438  1.00  0.00     0.049 A 
ATOM     52  N   UNL A   1      42.259  29.894  32.635  1.00  0.00    -0.248 NA
ATOM     53  C   UNL A   1      44.043  28.403  32.862  1.00  0.00     0.031 C 
ATOM     54  C   UNL A   1      43.150  31.434  36.738  1.00  0.00     0.029 A 
ATOM     55  N   UNL A   1      41.716  31.528  35.028  1.00  0.00    -0.354 N 
ATOM     56  C   UNL A   1      42.440  29.202  31.443  1.00  0.00     0.074 A 
ATOM     57  C   UNL A   1      43.615  28.376  31.612  1.00  0.00     0.031 C 
ATOM     58  C   UNL A   1      42.224  32.362  37.036  1.00  0.00     0.029 A 
ATOM     59  C   UNL A   1      41.283  32.480  35.924  1.00  0.00     0.049 A 
ATOM     60  H   UNL A   1      41.261  31.347  34.173  1.00  0.00     0.167 HD
ATOM     61  C   UNL A   1      41.675  29.221  30.324  1.00  0.00     0.037 A 
ATOM     62  C   UNL A   1      40.259  33.357  35.844  1.00  0.00     0.037 A 
ATOM     63  C   UNL A   1      40.484  30.040  30.197  1.00  0.00     0.049 A 
ATOM     64  C   UNL A   1      39.386  33.348  34.613  1.00  0.00     0.074 A 
ATOM     65  C   UNL A   1      39.565  30.087  29.162  1.00  0.00     0.029 A 
ATOM     66  N   UNL A   1      40.023  30.935  31.161  1.00  0.00    -0.354 N 
ATOM     67  N   UNL A   1      39.467  32.588  33.545  1.00  0.00    -0.248 NA
ATOM     68  C   UNL A   1      38.281  34.317  34.570  1.00  0.00     0.031 C 
ATOM     69  C   UNL A   1      38.564  31.008  29.489  1.00  0.00     0.029 A 
ATOM     70  C   UNL A   1      38.845  31.537  30.737  1.00  0.00     0.049 A 
ATOM     71  H   UNL A   1      40.469  31.115  32.020  1.00  0.00     0.167 HD
ATOM     72  C   UNL A   1      38.422  32.978  32.715  1.00  0.00     0.074 A 
ATOM     73  C   UNL A   1      37.696  34.014  33.420  1.00  0.00     0.031 C 
ATOM     74  C   UNL A   1      38.103  32.537  31.472  1.00  0.00     0.037 A 
BRANCH  61  75
ATOM     75  C   UNL A   1      42.061  28.268  29.202  1.00  0.00     0.058 A 
ATOM     76  C   UNL A   1      42.836  28.694  28.102  1.00  0.00     0.135 A 
ATOM     77  C   UNL A   1      41.744  26.902  29.250  1.00  0.00     0.135 A 
ATOM     78  F   UNL A   1      43.231  29.975  28.002  1.00  0.00    -0.206 F 
ATOM     79  C   UNL A   1      43.259  27.825  27.104  1.00  0.00     0.059 A 
ATOM     80  C   UNL A   1      42.216  25.998  28.296  1.00  0.00     0.059 A 
ATOM     81  F   UNL A   1      40.994  26.416  30.252  1.00  0.00    -0.206 F 
ATOM     82  C   UNL A   1      42.982  26.470  27.232  1.00  0.00     0.060 A 
BRANCH  82  83
ATOM     83  S   UNL A   1      43.709  25.348  26.023  1.00  0.00     0.124 S 
ATOM     84  O   UNL A   1      42.881  25.594  24.846  1.00  0.00    -0.237 OA
ATOM     85  O   UNL A   1      45.082  25.841  25.945  1.00  0.00    -0.237 OA
ATOM     86  O   UNL A   1      43.548  24.033  26.636  1.00  0.00    -0.744 OA
ENDBRANCH  82  83
ENDBRANCH  61  75
BRANCH  62  87
ATOM     87  C   UNL A   1      40.011  34.328  36.951  1.00  0.00     0.058 A 
ATOM     88  C   UNL A   1      40.579  35.612  36.946  1.00  0.00     0.135 A 
ATOM     89  C   UNL A   1      39.202  33.990  38.048  1.00  0.00     0.135 A 
ATOM     90  F   UNL A   1      41.405  35.978  35.953  1.00  0.00    -0.206 F 
ATOM     91  C   UNL A   1      40.341  36.527  37.967  1.00  0.00     0.059 A 
ATOM     92  C   UNL A   1      38.929  34.894  39.071  1.00  0.00     0.059 A 
ATOM     93  F   UNL A   1      38.649  32.769  38.125  1.00  0.00    -0.206 F 
ATOM     94  C   UNL A   1      39.506  36.162  39.023  1.00  0.00     0.060 A 
BRANCH  94  95
ATOM     95  S   UNL A   1      39.161  37.376  40.312  1.00  0.00     0.124 S 
ATOM     96  O   UNL A   1      38.531  36.550  41.336  1.00  0.00    -0.237 OA
ATOM     97  O   UNL A   1      40.498  37.871  40.628  1.00  0.00    -0.237 OA
ATOM     98  O   UNL A   1      38.285  38.336  39.648  1.00  0.00    -0.744 OA
ENDBRANCH  94  95
ENDBRANCH  62  87
BRANCH  74  99
ATOM     99  C   UNL A   1      36.887  33.143  30.816  1.00  0.00     0.058 A 
ATOM    100  C   UNL A   1      37.001  34.134  29.826  1.00  0.00     0.135 A 
ATOM    101  C   UNL A   1      35.594  32.713  31.160  1.00  0.00     0.135 A 
ATOM    102  F   UNL A   1      38.210  34.593  29.467  1.00  0.00    -0.206 F 
ATOM    103  C   UNL A   1      35.879  34.692  29.218  1.00  0.00     0.059 A 
ATOM    104  C   UNL A   1      34.459  33.237  30.544  1.00  0.00     0.059 A 
ATOM    105  F   UNL A   1      35.423  31.765  32.095  1.00  0.00    -0.206 F 
ATOM    106  C   UNL A   1      34.612  34.236  29.582  1.00  0.00     0.060 A 
BRANCH 106 107
ATOM    107  S   UNL A   1      33.169  34.950  28.763  1.00  0.00     0.124 S 
ATOM    108  O   UNL A   1      32.285  35.211  29.894  1.00  0.00    -0.237 OA
ATOM    109  O   UNL A   1      33.732  36.130  28.114  1.00  0.00    -0.237 OA
ATOM    110  O   UNL A   1      32.732  33.892  27.857  1.00  0.00    -0.744 OA
ENDBRANCH 106 107
ENDBRANCH  74  99
ENDBRANCH  48  49
ENDBRANCH  41  43
ENDBRANCH  40  41
ENDBRANCH  39  40
ENDBRANCH  38  39
ENDBRANCH  37  38
ENDBRANCH  36  37
ENDBRANCH  35  36
ENDBRANCH  34  35
ENDBRANCH   1  34
TORSDOF 27
ENDMDL
MODEL 3
REMARK VINA RESULT:      -7.4      5.535     13.074
REMARK SMILES C[C@@H](C(=O)OCCOCCOCCOC(=O)c1ccc(-c2c3nc(c(-c4c(F)cc(S(=O)(=O)[O-])cc4F)c4ccc([nH]4)c(-c4c(F)cc(S(=O)(=O)[O-])cc4F)c4nc(c(-c5c(F)cc(S(=O)(=O)[O-])cc5F)c5ccc2[nH]5)C=C4)C=C3)cc1)c1ccc(-c2cccc(OC(=O)NCCC3CCCCC3)c2)c(F)c1
REMARK SMILES IDX 7 1 6 2 5 3 3 4 4 5 2 6 1 7 83 8 84 9 107 10 85 11 105 12
REMARK SMILES IDX 86 13 106 14 87 15 88 16 104 17 89 18 91 19 90 20 92 21
REMARK SMILES IDX 93 22 94 23 95 24 96 26 97 27 98 28 99 29 103 30 100 31
REMARK SMILES IDX 102 32 101 33 8 34 9 35 10 36 11 37 12 38 13 39 14 40 15 41
REMARK SMILES IDX 16 42 17 43 18 44 82 45 19 46 81 47 20 48 21 49 22 50 75 51
REMARK SMILES IDX 23 52 80 53 74 54 76 55 24 56 79 57 73 58 72 59 25 61 59 62
REMARK SMILES IDX 38 63 58 64 39 65 42 66 57 67 77 68 40 69 41 70 56 72 78 73
REMARK SMILES IDX 43 74 26 75 27 76 36 77 28 78 29 79 35 80 37 81 30 82 31 83
REMARK SMILES IDX 32 84 33 85 34 86 60 87 61 88 70 89 62 90 63 91 69 92 71 93
REMARK SMILES IDX 64 94 65 95 66 96 67 97 68 98 44 99 45 100 54 101 46 102
REMARK SMILES IDX 47 103 53 104 55 105 48 106 49 107 50 108 51 109 52 110
REMARK H PARENT 95 25 76 60 42 71
REMARK Flexibility Score: inf
ROOT
ATOM      1  C   UNL A   1      41.076  27.513  26.405  1.00  0.00     0.202 C 
ENDROOT
BRANCH   1   2
ATOM      2  C   UNL A   1      42.498  26.921  26.498  1.00  0.00     0.261 C 
BRANCH   2   3
ATOM      3  O   UNL A   1      42.584  25.495  26.733  1.00  0.00    -0.463 OA
BRANCH   3   4
ATOM      4  C   UNL A   1      42.469  25.085  28.029  1.00  0.00     0.313 C 
ATOM      5  O   UNL A   1      42.734  25.802  28.989  1.00  0.00    -0.252 OA
BRANCH   4   6
ATOM      6  C   UNL A   1      42.002  23.625  28.212  1.00  0.00     0.126 C 
ATOM      7  C   UNL A   1      43.012  22.499  27.956  1.00  0.00     0.025 C 
BRANCH   6   8
ATOM      8  C   UNL A   1      40.699  23.355  27.464  1.00  0.00    -0.031 A 
ATOM      9  C   UNL A   1      40.474  22.148  26.787  1.00  0.00     0.005 A 
ATOM     10  C   UNL A   1      39.679  24.307  27.438  1.00  0.00     0.044 A 
ATOM     11  C   UNL A   1      39.258  21.906  26.118  1.00  0.00     0.012 A 
ATOM     12  C   UNL A   1      38.476  24.051  26.793  1.00  0.00     0.131 A 
ATOM     13  C   UNL A   1      38.233  22.862  26.108  1.00  0.00     0.018 A 
ATOM     14  F   UNL A   1      37.540  25.001  26.846  1.00  0.00    -0.206 F 
BRANCH  13  15
ATOM     15  C   UNL A   1      36.967  22.665  25.386  1.00  0.00    -0.012 A 
ATOM     16  C   UNL A   1      36.838  23.000  24.031  1.00  0.00     0.009 A 
ATOM     17  C   UNL A   1      35.857  22.098  26.045  1.00  0.00     0.056 A 
ATOM     18  C   UNL A   1      35.635  22.778  23.357  1.00  0.00     0.004 A 
ATOM     19  C   UNL A   1      34.660  21.868  25.367  1.00  0.00     0.133 A 
ATOM     20  C   UNL A   1      34.548  22.206  24.019  1.00  0.00     0.047 A 
BRANCH  19  21
ATOM     21  O   UNL A   1      33.480  21.350  25.968  1.00  0.00    -0.410 OA
BRANCH  21  22
ATOM     22  C   UNL A   1      32.253  21.156  25.338  1.00  0.00     0.412 C 
ATOM     23  O   UNL A   1      31.906  20.149  24.720  1.00  0.00    -0.224 OA
ATOM     24  N   UNL A   1      31.375  22.193  25.490  1.00  0.00    -0.321 N 
ATOM     25  H   UNL A   1      30.487  22.069  25.084  1.00  0.00     0.167 HD
BRANCH  24  26
ATOM     26  C   UNL A   1      31.589  23.453  26.179  1.00  0.00     0.119 C 
BRANCH  26  27
ATOM     27  C   UNL A   1      31.285  24.654  25.280  1.00  0.00     0.025 C 
BRANCH  27  28
ATOM     28  C   UNL A   1      31.705  26.033  25.840  1.00  0.00    -0.009 C 
ATOM     29  C   UNL A   1      33.220  26.189  26.034  1.00  0.00     0.003 C 
ATOM     30  C   UNL A   1      31.218  27.133  24.890  1.00  0.00     0.003 C 
ATOM     31  C   UNL A   1      33.593  27.600  26.513  1.00  0.00     0.000 C 
ATOM     32  C   UNL A   1      31.548  28.524  25.407  1.00  0.00     0.000 C 
ATOM     33  C   UNL A   1      33.043  28.692  25.600  1.00  0.00     0.000 C 
ENDBRANCH  27  28
ENDBRANCH  26  27
ENDBRANCH  24  26
ENDBRANCH  21  22
ENDBRANCH  19  21
ENDBRANCH  13  15
ENDBRANCH   6   8
ENDBRANCH   4   6
ENDBRANCH   3   4
ENDBRANCH   2   3
ENDBRANCH   1   2
BRANCH   1  34
ATOM     34  O   UNL A   1      40.858  28.881  26.739  1.00  0.00    -0.376 OA
BRANCH  34  35
ATOM     35  C   UNL A   1      40.140  29.173  27.930  1.00  0.00     0.188 C 
BRANCH  35  36
ATOM     36  C   UNL A   1      38.761  28.514  28.120  1.00  0.00     0.188 C 
BRANCH  36  37
ATOM     37  O   UNL A   1      37.731  29.420  28.444  1.00  0.00    -0.376 OA
BRANCH  37  38
ATOM     38  C   UNL A   1      36.575  29.452  27.629  1.00  0.00     0.202 C 
BRANCH  38  39
ATOM     39  C   UNL A   1      35.526  30.565  27.792  1.00  0.00     0.261 C 
BRANCH  39  40
ATOM     40  O   UNL A   1      35.167  30.945  29.128  1.00  0.00    -0.460 OA
BRANCH  40  41
ATOM     41  C   UNL A   1      34.952  32.258  29.377  1.00  0.00     0.338 C 
ATOM     42  O   UNL A   1      33.974  32.909  29.046  1.00  0.00    -0.246 OA
BRANCH  41  43
ATOM     43  C   UNL A   1      36.005  32.705  30.325  1.00  0.00     0.060 A 
ATOM     44  C   UNL A   1      36.109  34.068  30.635  1.00  0.00     0.016 A 
ATOM     45  C   UNL A   1      36.857  31.781  30.938  1.00  0.00     0.016 A 
ATOM     46  C   UNL A   1      37.080  34.505  31.543  1.00  0.00     0.010 A 
ATOM     47  C   UNL A   1      37.829  32.222  31.844  1.00  0.00     0.010 A 
ATOM     48  C   UNL A   1      37.957  33.589  32.144  1.00  0.00    -0.014 A 
BRANCH  48  49
ATOM     49  C   UNL A   1      39.156  34.076  32.882  1.00  0.00     0.031 A 
ATOM     50  C   UNL A   1      40.419  34.267  32.090  1.00  0.00     0.074 A 
ATOM     51  C   UNL A   1      39.167  34.267  34.213  1.00  0.00     0.049 A 
ATOM     52  N   UNL A   1      41.629  34.560  32.492  1.00  0.00    -0.248 NA
ATOM     53  C   UNL A   1      40.305  34.010  30.647  1.00  0.00     0.031 C 
ATOM     54  C   UNL A   1      38.040  34.025  35.107  1.00  0.00     0.029 A 
ATOM     55  N   UNL A   1      40.171  34.692  35.051  1.00  0.00    -0.354 N 
ATOM     56  C   UNL A   1      42.423  34.499  31.353  1.00  0.00     0.074 A 
ATOM     57  C   UNL A   1      41.571  34.055  30.271  1.00  0.00     0.031 C 
ATOM     58  C   UNL A   1      38.403  34.328  36.365  1.00  0.00     0.029 A 
ATOM     59  C   UNL A   1      39.806  34.738  36.377  1.00  0.00     0.049 A 
ATOM     60  H   UNL A   1      41.069  34.942  34.731  1.00  0.00     0.167 HD
ATOM     61  C   UNL A   1      43.733  34.821  31.211  1.00  0.00     0.037 A 
ATOM     62  C   UNL A   1      40.526  35.055  37.475  1.00  0.00     0.037 A 
ATOM     63  C   UNL A   1      44.554  35.290  32.311  1.00  0.00     0.049 A 
ATOM     64  C   UNL A   1      41.973  35.451  37.308  1.00  0.00     0.074 A 
ATOM     65  C   UNL A   1      45.863  35.741  32.291  1.00  0.00     0.029 A 
ATOM     66  N   UNL A   1      44.127  35.407  33.633  1.00  0.00    -0.354 N 
ATOM     67  N   UNL A   1      42.687  35.536  36.208  1.00  0.00    -0.248 NA
ATOM     68  C   UNL A   1      42.719  35.791  38.528  1.00  0.00     0.031 C 
ATOM     69  C   UNL A   1      46.231  36.116  33.588  1.00  0.00     0.029 A 
ATOM     70  C   UNL A   1      45.149  35.912  34.427  1.00  0.00     0.049 A 
ATOM     71  H   UNL A   1      43.229  35.166  33.957  1.00  0.00     0.167 HD
ATOM     72  C   UNL A   1      43.954  35.951  36.604  1.00  0.00     0.074 A 
ATOM     73  C   UNL A   1      43.901  36.138  38.039  1.00  0.00     0.031 C 
ATOM     74  C   UNL A   1      45.068  36.138  35.852  1.00  0.00     0.037 A 
BRANCH  61  75
ATOM     75  C   UNL A   1      44.315  34.756  29.806  1.00  0.00     0.058 A 
ATOM     76  C   UNL A   1      44.274  35.866  28.935  1.00  0.00     0.135 A 
ATOM     77  C   UNL A   1      45.000  33.623  29.341  1.00  0.00     0.135 A 
ATOM     78  F   UNL A   1      43.684  37.012  29.319  1.00  0.00    -0.206 F 
ATOM     79  C   UNL A   1      44.861  35.852  27.676  1.00  0.00     0.059 A 
ATOM     80  C   UNL A   1      45.658  33.610  28.108  1.00  0.00     0.059 A 
ATOM     81  F   UNL A   1      45.072  32.517  30.097  1.00  0.00    -0.206 F 
ATOM     82  C   UNL A   1      45.590  34.734  27.288  1.00  0.00     0.060 A 
BRANCH  82  83
ATOM     83  S   UNL A   1      46.498  34.824  25.734  1.00  0.00     0.124 S 
ATOM     84  O   UNL A   1      46.923  36.221  25.713  1.00  0.00    -0.237 OA
ATOM     85  O   UNL A   1      47.559  33.844  25.951  1.00  0.00    -0.237 OA
ATOM     86  O   UNL A   1      45.500  34.459  24.733  1.00  0.00    -0.744 OA
ENDBRANCH  82  83
ENDBRANCH  61  75
BRANCH  62  87
ATOM     87  C   UNL A   1      39.901  34.995  38.830  1.00  0.00     0.058 A 
ATOM     88  C   UNL A   1      39.838  33.798  39.560  1.00  0.00     0.135 A 
ATOM     89  C   UNL A   1      39.345  36.140  39.425  1.00  0.00     0.135 A 
ATOM     90  F   UNL A   1      40.303  32.659  39.025  1.00  0.00    -0.206 F 
ATOM     91  C   UNL A   1      39.269  33.738  40.830  1.00  0.00     0.059 A 
ATOM     92  C   UNL A   1      38.791  36.112  40.702  1.00  0.00     0.059 A 
ATOM     93  F   UNL A   1      39.352  37.310  38.769  1.00  0.00    -0.206 F 
ATOM     94  C   UNL A   1      38.756  34.904  41.397  1.00  0.00     0.060 A 
BRANCH  94  95
ATOM     95  S   UNL A   1      38.072  34.824  43.065  1.00  0.00     0.124 S 
ATOM     96  O   UNL A   1      38.474  36.115  43.612  1.00  0.00    -0.237 OA
ATOM     97  O   UNL A   1      36.645  34.662  42.800  1.00  0.00    -0.237 OA
ATOM     98  O   UNL A   1      38.731  33.660  43.645  1.00  0.00    -0.744 OA
ENDBRANCH  94  95
ENDBRANCH  62  87
BRANCH  74  99
ATOM     99  C   UNL A   1      46.309  36.613  36.568  1.00  0.00     0.058 A 
ATOM    100  C   UNL A   1      46.581  37.981  36.742  1.00  0.00     0.135 A 
ATOM    101  C   UNL A   1      47.223  35.694  37.110  1.00  0.00     0.135 A 
ATOM    102  F   UNL A   1      45.750  38.904  36.233  1.00  0.00    -0.206 F 
ATOM    103  C   UNL A   1      47.724  38.420  37.404  1.00  0.00     0.059 A 
ATOM    104  C   UNL A   1      48.359  36.112  37.802  1.00  0.00     0.059 A 
ATOM    105  F   UNL A   1      47.014  34.375  36.980  1.00  0.00    -0.206 F 
ATOM    106  C   UNL A   1      48.607  37.478  37.934  1.00  0.00     0.060 A 
BRANCH 106 107
ATOM    107  S   UNL A   1      50.070  38.065  38.816  1.00  0.00     0.124 S 
ATOM    108  O   UNL A   1      51.134  37.747  37.870  1.00  0.00    -0.237 OA
ATOM    109  O   UNL A   1      49.780  39.485  38.989  1.00  0.00    -0.237 OA
ATOM    110  O   UNL A   1      50.068  37.276  40.045  1.00  0.00    -0.744 OA
ENDBRANCH 106 107
ENDBRANCH  74  99
ENDBRANCH  48  49
ENDBRANCH  41  43
ENDBRANCH  40  41
ENDBRANCH  39  40
ENDBRANCH  38  39
ENDBRANCH  37  38
ENDBRANCH  36  37
ENDBRANCH  35  36
ENDBRANCH  34  35
ENDBRANCH   1  34
TORSDOF 27
ENDMDL
