MODEL 1
REMARK VINA RESULT:      -9.5      0.000      0.000
REMARK SMILES C/C=C/C[C@@H](C(=O)OCCOCCOCCOC(=O)c1ccc(-c2c3nc(c(-c4c(F)cc(S(=O)(=O)[O-])cc4F)c4ccc([nH]4)c(-c4c(F)cc(S(=O)(=O)[O-])cc4F)c4nc(c(-c5c(F)cc(S(=O)(=O)[O-])cc5F)c5ccc2[nH]5)C=C4)C=C3)cc1)c1cccc(Cl)c1
REMARK SMILES IDX 13 1 12 2 11 3 10 4 9 5 8 6 6 7 7 8 5 9 4 10 3 11 1 12 2 13
REMARK SMILES IDX 86 14 87 15 92 16 88 17 90 18 89 19 91 20 14 21 15 22 16 23
REMARK SMILES IDX 17 24 18 25 19 26 20 27 21 28 85 29 22 30 84 31 23 32 24 33
REMARK SMILES IDX 25 34 78 35 26 36 83 37 77 38 79 39 27 40 82 41 76 42 75 43
REMARK SMILES IDX 28 45 62 46 41 47 61 48 42 49 45 50 60 51 80 52 43 53 44 54
REMARK SMILES IDX 59 56 81 57 46 58 29 59 30 60 39 61 31 62 32 63 38 64 40 65
REMARK SMILES IDX 33 66 34 67 35 68 36 69 37 70 63 71 64 72 73 73 65 74 66 75
REMARK SMILES IDX 72 76 74 77 67 78 68 79 69 80 70 81 71 82 47 83 48 84 57 85
REMARK SMILES IDX 49 86 50 87 56 88 58 89 51 90 52 91 53 92 54 93 55 94
REMARK H PARENT 79 44 45 55
REMARK Flexibility Score: inf
ROOT
ATOM      1  C   UNL A   1      41.864  20.438  26.096  1.00  0.00     0.188 C 
ENDROOT
BRANCH   1   2
ATOM      2  C   UNL A   1      40.374  20.519  26.468  1.00  0.00     0.188 C 
BRANCH   2   3
ATOM      3  O   UNL A   1      39.547  21.419  25.739  1.00  0.00    -0.376 OA
BRANCH   3   4
ATOM      4  C   UNL A   1      38.646  22.240  26.478  1.00  0.00     0.202 C 
BRANCH   4   5
ATOM      5  C   UNL A   1      38.267  23.617  25.896  1.00  0.00     0.261 C 
BRANCH   5   6
ATOM      6  O   UNL A   1      36.844  23.843  25.767  1.00  0.00    -0.463 OA
BRANCH   6   7
ATOM      7  C   UNL A   1      36.293  23.624  24.545  1.00  0.00     0.313 C 
ATOM      8  O   UNL A   1      36.933  23.192  23.590  1.00  0.00    -0.252 OA
BRANCH   7   9
ATOM      9  C   UNL A   1      34.773  23.884  24.461  1.00  0.00     0.133 C 
BRANCH   9  10
ATOM     10  C   UNL A   1      34.097  24.612  25.658  1.00  0.00     0.047 C 
BRANCH  10  11
ATOM     11  C   UNL A   1      33.869  26.097  25.624  1.00  0.00    -0.030 C 
ATOM     12  C   UNL A   1      32.388  28.104  25.398  1.00  0.00     0.035 C 
ATOM     13  C   UNL A   1      32.686  26.645  25.303  1.00  0.00    -0.035 C 
ENDBRANCH  10  11
ENDBRANCH   9  10
BRANCH   9  14
ATOM     14  C   UNL A   1      33.943  22.668  23.971  1.00  0.00    -0.032 A 
ATOM     15  C   UNL A   1      32.985  22.781  22.946  1.00  0.00     0.005 A 
ATOM     16  C   UNL A   1      34.029  21.415  24.619  1.00  0.00     0.025 A 
ATOM     17  C   UNL A   1      32.162  21.701  22.588  1.00  0.00     0.002 A 
ATOM     18  C   UNL A   1      33.205  20.342  24.261  1.00  0.00     0.041 A 
ATOM     19  C   UNL A   1      32.266  20.482  23.252  1.00  0.00     0.020 A 
ATOM     20  Cl  UNL A   1      33.348  18.845  25.099  1.00  0.00    -0.084 Cl
ENDBRANCH   9  14
ENDBRANCH   7   9
ENDBRANCH   6   7
ENDBRANCH   5   6
ENDBRANCH   4   5
ENDBRANCH   3   4
ENDBRANCH   2   3
ENDBRANCH   1   2
BRANCH   1  21
ATOM     21  O   UNL A   1      42.727  21.108  26.990  1.00  0.00    -0.376 OA
BRANCH  21  22
ATOM     22  C   UNL A   1      43.373  22.286  26.542  1.00  0.00     0.202 C 
BRANCH  22  23
ATOM     23  C   UNL A   1      42.582  23.205  25.591  1.00  0.00     0.261 C 
BRANCH  23  24
ATOM     24  O   UNL A   1      41.756  24.209  26.211  1.00  0.00    -0.460 OA
BRANCH  24  25
ATOM     25  C   UNL A   1      42.057  25.501  25.940  1.00  0.00     0.338 C 
ATOM     26  O   UNL A   1      42.145  26.004  24.829  1.00  0.00    -0.246 OA
BRANCH  25  27
ATOM     27  C   UNL A   1      41.978  26.269  27.209  1.00  0.00     0.060 A 
ATOM     28  C   UNL A   1      41.032  25.877  28.171  1.00  0.00     0.016 A 
ATOM     29  C   UNL A   1      42.844  27.330  27.476  1.00  0.00     0.016 A 
ATOM     30  C   UNL A   1      40.917  26.578  29.373  1.00  0.00     0.010 A 
ATOM     31  C   UNL A   1      42.714  28.045  28.674  1.00  0.00     0.010 A 
ATOM     32  C   UNL A   1      41.722  27.699  29.611  1.00  0.00    -0.014 A 
BRANCH  32  33
ATOM     33  C   UNL A   1      41.375  28.622  30.724  1.00  0.00     0.031 A 
ATOM     34  C   UNL A   1      42.199  28.559  31.986  1.00  0.00     0.074 A 
ATOM     35  C   UNL A   1      40.391  29.533  30.614  1.00  0.00     0.049 A 
ATOM     36  N   UNL A   1      42.094  29.258  33.087  1.00  0.00    -0.248 NA
ATOM     37  C   UNL A   1      43.288  27.568  32.008  1.00  0.00     0.031 C 
ATOM     38  C   UNL A   1      39.539  29.723  29.441  1.00  0.00     0.029 A 
ATOM     39  N   UNL A   1      39.940  30.471  31.512  1.00  0.00    -0.354 N 
ATOM     40  C   UNL A   1      43.097  28.791  33.930  1.00  0.00     0.074 A 
ATOM     41  C   UNL A   1      43.774  27.722  33.229  1.00  0.00     0.031 C 
ATOM     42  C   UNL A   1      38.666  30.714  29.693  1.00  0.00     0.029 A 
ATOM     43  C   UNL A   1      38.877  31.212  31.053  1.00  0.00     0.049 A 
ATOM     44  H   UNL A   1      40.342  30.600  32.401  1.00  0.00     0.167 HD
ATOM     45  C   UNL A   1      43.438  29.222  35.168  1.00  0.00     0.037 A 
ATOM     46  C   UNL A   1      38.151  32.172  31.663  1.00  0.00     0.037 A 
ATOM     47  C   UNL A   1      42.764  30.286  35.867  1.00  0.00     0.049 A 
ATOM     48  C   UNL A   1      38.508  32.594  33.069  1.00  0.00     0.074 A 
ATOM     49  C   UNL A   1      43.043  30.803  37.120  1.00  0.00     0.029 A 
ATOM     50  N   UNL A   1      41.674  30.992  35.379  1.00  0.00    -0.354 N 
ATOM     51  N   UNL A   1      39.474  32.160  33.844  1.00  0.00    -0.248 NA
ATOM     52  C   UNL A   1      37.678  33.644  33.678  1.00  0.00     0.031 C 
ATOM     53  C   UNL A   1      42.087  31.780  37.415  1.00  0.00     0.029 A 
ATOM     54  C   UNL A   1      41.252  31.921  36.317  1.00  0.00     0.049 A 
ATOM     55  H   UNL A   1      41.260  30.853  34.497  1.00  0.00     0.167 HD
ATOM     56  C   UNL A   1      39.388  32.907  35.017  1.00  0.00     0.074 A 
ATOM     57  C   UNL A   1      38.286  33.830  34.841  1.00  0.00     0.031 C 
ATOM     58  C   UNL A   1      40.154  32.838  36.135  1.00  0.00     0.037 A 
BRANCH  45  59
ATOM     59  C   UNL A   1      44.576  28.521  35.861  1.00  0.00     0.058 A 
ATOM     60  C   UNL A   1      45.908  28.936  35.708  1.00  0.00     0.135 A 
ATOM     61  C   UNL A   1      44.325  27.436  36.718  1.00  0.00     0.135 A 
ATOM     62  F   UNL A   1      46.210  29.955  34.886  1.00  0.00    -0.206 F 
ATOM     63  C   UNL A   1      46.954  28.285  36.356  1.00  0.00     0.059 A 
ATOM     64  C   UNL A   1      45.351  26.790  37.401  1.00  0.00     0.059 A 
ATOM     65  F   UNL A   1      43.071  26.994  36.899  1.00  0.00    -0.206 F 
ATOM     66  C   UNL A   1      46.665  27.213  37.203  1.00  0.00     0.060 A 
BRANCH  66  67
ATOM     67  S   UNL A   1      48.031  26.385  38.043  1.00  0.00     0.124 S 
ATOM     68  O   UNL A   1      47.488  26.220  39.388  1.00  0.00    -0.237 OA
ATOM     69  O   UNL A   1      48.178  25.160  37.265  1.00  0.00    -0.237 OA
ATOM     70  O   UNL A   1      49.131  27.337  37.925  1.00  0.00    -0.744 OA
ENDBRANCH  66  67
ENDBRANCH  45  59
BRANCH  46  71
ATOM     71  C   UNL A   1      37.005  32.806  30.955  1.00  0.00     0.058 A 
ATOM     72  C   UNL A   1      35.686  32.375  31.169  1.00  0.00     0.135 A 
ATOM     73  C   UNL A   1      37.206  33.847  30.034  1.00  0.00     0.135 A 
ATOM     74  F   UNL A   1      35.439  31.373  32.027  1.00  0.00    -0.206 F 
ATOM     75  C   UNL A   1      34.612  32.940  30.488  1.00  0.00     0.059 A 
ATOM     76  C   UNL A   1      36.146  34.449  29.363  1.00  0.00     0.059 A 
ATOM     77  F   UNL A   1      38.446  34.302  29.794  1.00  0.00    -0.206 F 
ATOM     78  C   UNL A   1      34.852  33.982  29.590  1.00  0.00     0.060 A 
BRANCH  78  79
ATOM     79  S   UNL A   1      33.446  34.746  28.753  1.00  0.00     0.124 S 
ATOM     80  O   UNL A   1      33.055  33.698  27.817  1.00  0.00    -0.237 OA
ATOM     81  O   UNL A   1      32.529  34.988  29.862  1.00  0.00    -0.237 OA
ATOM     82  O   UNL A   1      34.024  35.946  28.154  1.00  0.00    -0.744 OA
ENDBRANCH  78  79
ENDBRANCH  46  71
BRANCH  58  83
ATOM     83  C   UNL A   1      39.859  33.817  37.244  1.00  0.00     0.058 A 
ATOM     84  C   UNL A   1      38.973  33.514  38.291  1.00  0.00     0.135 A 
ATOM     85  C   UNL A   1      40.490  35.073  37.270  1.00  0.00     0.135 A 
ATOM     86  F   UNL A   1      38.341  32.330  38.320  1.00  0.00    -0.206 F 
ATOM     87  C   UNL A   1      38.688  34.436  39.295  1.00  0.00     0.059 A 
ATOM     88  C   UNL A   1      40.248  35.996  38.283  1.00  0.00     0.059 A 
ATOM     89  F   UNL A   1      41.360  35.412  36.305  1.00  0.00    -0.206 F 
ATOM     90  C   UNL A   1      39.329  35.676  39.280  1.00  0.00     0.060 A 
BRANCH  90  91
ATOM     91  S   UNL A   1      38.946  36.865  40.585  1.00  0.00     0.124 S 
ATOM     92  O   UNL A   1      38.126  36.061  41.484  1.00  0.00    -0.237 OA
ATOM     93  O   UNL A   1      40.271  37.220  41.083  1.00  0.00    -0.237 OA
ATOM     94  O   UNL A   1      38.243  37.931  39.878  1.00  0.00    -0.744 OA
ENDBRANCH  90  91
ENDBRANCH  58  83
ENDBRANCH  32  33
ENDBRANCH  25  27
ENDBRANCH  24  25
ENDBRANCH  23  24
ENDBRANCH  22  23
ENDBRANCH  21  22
ENDBRANCH   1  21
TORSDOF 23
ENDMDL
MODEL 2
REMARK VINA RESULT:      -9.2      1.170      8.373
REMARK SMILES C/C=C/C[C@@H](C(=O)OCCOCCOCCOC(=O)c1ccc(-c2c3nc(c(-c4c(F)cc(S(=O)(=O)[O-])cc4F)c4ccc([nH]4)c(-c4c(F)cc(S(=O)(=O)[O-])cc4F)c4nc(c(-c5c(F)cc(S(=O)(=O)[O-])cc5F)c5ccc2[nH]5)C=C4)C=C3)cc1)c1cccc(Cl)c1
REMARK SMILES IDX 13 1 12 2 11 3 10 4 9 5 8 6 6 7 7 8 5 9 4 10 3 11 1 12 2 13
REMARK SMILES IDX 86 14 87 15 92 16 88 17 90 18 89 19 91 20 14 21 15 22 16 23
REMARK SMILES IDX 17 24 18 25 19 26 20 27 21 28 85 29 22 30 84 31 23 32 24 33
REMARK SMILES IDX 25 34 78 35 26 36 83 37 77 38 79 39 27 40 82 41 76 42 75 43
REMARK SMILES IDX 28 45 62 46 41 47 61 48 42 49 45 50 60 51 80 52 43 53 44 54
REMARK SMILES IDX 59 56 81 57 46 58 29 59 30 60 39 61 31 62 32 63 38 64 40 65
REMARK SMILES IDX 33 66 34 67 35 68 36 69 37 70 63 71 64 72 73 73 65 74 66 75
REMARK SMILES IDX 72 76 74 77 67 78 68 79 69 80 70 81 71 82 47 83 48 84 57 85
REMARK SMILES IDX 49 86 50 87 56 88 58 89 51 90 52 91 53 92 54 93 55 94
REMARK H PARENT 79 44 45 55
REMARK Flexibility Score: inf
ROOT
ATOM      1  C   UNL A   1      39.486  22.520  26.666  1.00  0.00     0.188 C 
ENDROOT
BRANCH   1   2
ATOM      2  C   UNL A   1      38.506  21.829  25.704  1.00  0.00     0.188 C 
BRANCH   2   3
ATOM      3  O   UNL A   1      37.430  22.597  25.177  1.00  0.00    -0.376 OA
BRANCH   3   4
ATOM      4  C   UNL A   1      36.510  21.943  24.305  1.00  0.00     0.202 C 
BRANCH   4   5
ATOM      5  C   UNL A   1      35.810  22.782  23.217  1.00  0.00     0.261 C 
BRANCH   5   6
ATOM      6  O   UNL A   1      34.786  23.675  23.715  1.00  0.00    -0.463 OA
BRANCH   6   7
ATOM      7  C   UNL A   1      33.667  23.811  22.956  1.00  0.00     0.313 C 
ATOM      8  O   UNL A   1      33.684  24.265  21.815  1.00  0.00    -0.252 OA
BRANCH   7   9
ATOM      9  C   UNL A   1      32.372  23.279  23.607  1.00  0.00     0.133 C 
BRANCH   9  10
ATOM     10  C   UNL A   1      31.667  24.183  24.659  1.00  0.00     0.047 C 
BRANCH  10  11
ATOM     11  C   UNL A   1      31.196  25.563  24.293  1.00  0.00    -0.030 C 
ATOM     12  C   UNL A   1      29.411  27.189  23.628  1.00  0.00     0.035 C 
ATOM     13  C   UNL A   1      29.951  25.817  23.861  1.00  0.00    -0.035 C 
ENDBRANCH  10  11
ENDBRANCH   9  10
BRANCH   9  14
ATOM     14  C   UNL A   1      32.449  21.799  24.066  1.00  0.00    -0.032 A 
ATOM     15  C   UNL A   1      32.780  21.442  25.386  1.00  0.00     0.005 A 
ATOM     16  C   UNL A   1      32.307  20.738  23.143  1.00  0.00     0.025 A 
ATOM     17  C   UNL A   1      32.957  20.101  25.762  1.00  0.00     0.002 A 
ATOM     18  C   UNL A   1      32.485  19.402  23.521  1.00  0.00     0.041 A 
ATOM     19  C   UNL A   1      32.818  19.079  24.827  1.00  0.00     0.020 A 
ATOM     20  Cl  UNL A   1      32.314  18.157  22.345  1.00  0.00    -0.084 Cl
ENDBRANCH   9  14
ENDBRANCH   7   9
ENDBRANCH   6   7
ENDBRANCH   5   6
ENDBRANCH   4   5
ENDBRANCH   3   4
ENDBRANCH   2   3
ENDBRANCH   1   2
BRANCH   1  21
ATOM     21  O   UNL A   1      40.272  21.634  27.435  1.00  0.00    -0.376 OA
BRANCH  21  22
ATOM     22  C   UNL A   1      41.682  21.759  27.369  1.00  0.00     0.202 C 
BRANCH  22  23
ATOM     23  C   UNL A   1      42.248  22.878  26.473  1.00  0.00     0.261 C 
BRANCH  23  24
ATOM     24  O   UNL A   1      42.455  24.157  27.100  1.00  0.00    -0.460 OA
BRANCH  24  25
ATOM     25  C   UNL A   1      41.905  25.234  26.489  1.00  0.00     0.338 C 
ATOM     26  O   UNL A   1      41.549  25.298  25.322  1.00  0.00    -0.246 OA
BRANCH  25  27
ATOM     27  C   UNL A   1      41.542  26.223  27.537  1.00  0.00     0.060 A 
ATOM     28  C   UNL A   1      42.301  27.400  27.637  1.00  0.00     0.016 A 
ATOM     29  C   UNL A   1      40.449  26.024  28.381  1.00  0.00     0.016 A 
ATOM     30  C   UNL A   1      42.001  28.352  28.614  1.00  0.00     0.010 A 
ATOM     31  C   UNL A   1      40.161  26.969  29.374  1.00  0.00     0.010 A 
ATOM     32  C   UNL A   1      40.961  28.118  29.523  1.00  0.00    -0.014 A 
BRANCH  32  33
ATOM     33  C   UNL A   1      40.859  28.961  30.745  1.00  0.00     0.031 A 
ATOM     34  C   UNL A   1      39.797  30.031  30.787  1.00  0.00     0.074 A 
ATOM     35  C   UNL A   1      41.647  28.759  31.816  1.00  0.00     0.049 A 
ATOM     36  N   UNL A   1      39.510  30.886  31.735  1.00  0.00    -0.248 NA
ATOM     37  C   UNL A   1      38.945  30.154  29.592  1.00  0.00     0.031 C 
ATOM     38  C   UNL A   1      42.691  27.741  31.922  1.00  0.00     0.029 A 
ATOM     39  N   UNL A   1      41.690  29.412  33.026  1.00  0.00    -0.354 N 
ATOM     40  C   UNL A   1      38.451  31.646  31.252  1.00  0.00     0.074 A 
ATOM     41  C   UNL A   1      38.172  31.181  29.912  1.00  0.00     0.031 C 
ATOM     42  C   UNL A   1      43.275  27.840  33.129  1.00  0.00     0.029 A 
ATOM     43  C   UNL A   1      42.666  28.943  33.873  1.00  0.00     0.049 A 
ATOM     44  H   UNL A   1      41.079  30.146  33.263  1.00  0.00     0.167 HD
ATOM     45  C   UNL A   1      37.759  32.633  31.872  1.00  0.00     0.037 A 
ATOM     46  C   UNL A   1      43.033  29.363  35.102  1.00  0.00     0.037 A 
ATOM     47  C   UNL A   1      38.037  33.098  33.207  1.00  0.00     0.049 A 
ATOM     48  C   UNL A   1      42.290  30.508  35.749  1.00  0.00     0.074 A 
ATOM     49  C   UNL A   1      37.384  34.084  33.926  1.00  0.00     0.029 A 
ATOM     50  N   UNL A   1      39.052  32.618  34.021  1.00  0.00    -0.354 N 
ATOM     51  N   UNL A   1      41.275  31.202  35.291  1.00  0.00    -0.248 NA
ATOM     52  C   UNL A   1      42.740  30.919  37.088  1.00  0.00     0.031 C 
ATOM     53  C   UNL A   1      38.040  34.241  35.151  1.00  0.00     0.029 A 
ATOM     54  C   UNL A   1      39.060  33.305  35.224  1.00  0.00     0.049 A 
ATOM     55  H   UNL A   1      39.675  31.895  33.779  1.00  0.00     0.167 HD
ATOM     56  C   UNL A   1      40.945  32.108  36.297  1.00  0.00     0.074 A 
ATOM     57  C   UNL A   1      41.858  31.860  37.394  1.00  0.00     0.031 C 
ATOM     58  C   UNL A   1      39.972  33.054  36.314  1.00  0.00     0.037 A 
BRANCH  45  59
ATOM     59  C   UNL A   1      36.651  33.298  31.100  1.00  0.00     0.058 A 
ATOM     60  C   UNL A   1      36.908  34.146  30.011  1.00  0.00     0.135 A 
ATOM     61  C   UNL A   1      35.308  33.054  31.434  1.00  0.00     0.135 A 
ATOM     62  F   UNL A   1      38.173  34.430  29.659  1.00  0.00    -0.206 F 
ATOM     63  C   UNL A   1      35.877  34.752  29.300  1.00  0.00     0.059 A 
ATOM     64  C   UNL A   1      34.261  33.624  30.717  1.00  0.00     0.059 A 
ATOM     65  F   UNL A   1      35.003  32.255  32.468  1.00  0.00    -0.206 F 
ATOM     66  C   UNL A   1      34.555  34.483  29.659  1.00  0.00     0.060 A 
BRANCH  66  67
ATOM     67  S   UNL A   1      33.229  35.269  28.720  1.00  0.00     0.124 S 
ATOM     68  O   UNL A   1      33.981  36.177  27.859  1.00  0.00    -0.237 OA
ATOM     69  O   UNL A   1      32.606  34.132  28.051  1.00  0.00    -0.237 OA
ATOM     70  O   UNL A   1      32.417  35.911  29.749  1.00  0.00    -0.744 OA
ENDBRANCH  66  67
ENDBRANCH  45  59
BRANCH  46  71
ATOM     71  C   UNL A   1      44.167  28.705  35.809  1.00  0.00     0.058 A 
ATOM     72  C   UNL A   1      43.969  27.561  36.599  1.00  0.00     0.135 A 
ATOM     73  C   UNL A   1      45.472  29.218  35.724  1.00  0.00     0.135 A 
ATOM     74  F   UNL A   1      42.739  27.040  36.727  1.00  0.00    -0.206 F 
ATOM     75  C   UNL A   1      45.017  26.959  37.289  1.00  0.00     0.059 A 
ATOM     76  C   UNL A   1      46.541  28.616  36.380  1.00  0.00     0.059 A 
ATOM     77  F   UNL A   1      45.719  30.307  34.979  1.00  0.00    -0.206 F 
ATOM     78  C   UNL A   1      46.301  27.491  37.168  1.00  0.00     0.060 A 
BRANCH  78  79
ATOM     79  S   UNL A   1      47.663  26.669  38.024  1.00  0.00     0.124 S 
ATOM     80  O   UNL A   1      48.789  26.976  37.149  1.00  0.00    -0.237 OA
ATOM     81  O   UNL A   1      47.657  27.340  39.319  1.00  0.00    -0.237 OA
ATOM     82  O   UNL A   1      47.246  25.270  38.049  1.00  0.00    -0.744 OA
ENDBRANCH  78  79
ENDBRANCH  46  71
BRANCH  58  83
ATOM     83  C   UNL A   1      39.811  33.867  37.573  1.00  0.00     0.058 A 
ATOM     84  C   UNL A   1      40.546  35.041  37.803  1.00  0.00     0.135 A 
ATOM     85  C   UNL A   1      38.888  33.474  38.559  1.00  0.00     0.135 A 
ATOM     86  F   UNL A   1      41.441  35.466  36.897  1.00  0.00    -0.206 F 
ATOM     87  C   UNL A   1      40.408  35.770  38.981  1.00  0.00     0.059 A 
ATOM     88  C   UNL A   1      38.708  34.206  39.729  1.00  0.00     0.059 A 
ATOM     89  F   UNL A   1      38.145  32.370  38.387  1.00  0.00    -0.206 F 
ATOM     90  C   UNL A   1      39.488  35.341  39.941  1.00  0.00     0.060 A 
BRANCH  90  91
ATOM     91  S   UNL A   1      39.322  36.291  41.468  1.00  0.00     0.124 S 
ATOM     92  O   UNL A   1      39.061  37.631  40.954  1.00  0.00    -0.237 OA
ATOM     93  O   UNL A   1      38.198  35.633  42.124  1.00  0.00    -0.237 OA
ATOM     94  O   UNL A   1      40.615  36.112  42.121  1.00  0.00    -0.744 OA
ENDBRANCH  90  91
ENDBRANCH  58  83
ENDBRANCH  32  33
ENDBRANCH  25  27
ENDBRANCH  24  25
ENDBRANCH  23  24
ENDBRANCH  22  23
ENDBRANCH  21  22
ENDBRANCH   1  21
TORSDOF 23
ENDMDL
MODEL 3
REMARK VINA RESULT:      -9.1      1.418      8.494
REMARK SMILES C/C=C/C[C@@H](C(=O)OCCOCCOCCOC(=O)c1ccc(-c2c3nc(c(-c4c(F)cc(S(=O)(=O)[O-])cc4F)c4ccc([nH]4)c(-c4c(F)cc(S(=O)(=O)[O-])cc4F)c4nc(c(-c5c(F)cc(S(=O)(=O)[O-])cc5F)c5ccc2[nH]5)C=C4)C=C3)cc1)c1cccc(Cl)c1
REMARK SMILES IDX 13 1 12 2 11 3 10 4 9 5 8 6 6 7 7 8 5 9 4 10 3 11 1 12 2 13
REMARK SMILES IDX 86 14 87 15 92 16 88 17 90 18 89 19 91 20 14 21 15 22 16 23
REMARK SMILES IDX 17 24 18 25 19 26 20 27 21 28 85 29 22 30 84 31 23 32 24 33
REMARK SMILES IDX 25 34 78 35 26 36 83 37 77 38 79 39 27 40 82 41 76 42 75 43
REMARK SMILES IDX 28 45 62 46 41 47 61 48 42 49 45 50 60 51 80 52 43 53 44 54
REMARK SMILES IDX 59 56 81 57 46 58 29 59 30 60 39 61 31 62 32 63 38 64 40 65
REMARK SMILES IDX 33 66 34 67 35 68 36 69 37 70 63 71 64 72 73 73 65 74 66 75
REMARK SMILES IDX 72 76 74 77 67 78 68 79 69 80 70 81 71 82 47 83 48 84 57 85
REMARK SMILES IDX 49 86 50 87 56 88 58 89 51 90 52 91 53 92 54 93 55 94
REMARK H PARENT 79 44 45 55
REMARK Flexibility Score: inf
ROOT
ATOM      1  C   UNL A   1      42.276  20.153  26.757  1.00  0.00     0.188 C 
ENDROOT
BRANCH   1   2
ATOM      2  C   UNL A   1      40.775  20.233  27.081  1.00  0.00     0.188 C 
BRANCH   2   3
ATOM      3  O   UNL A   1      40.135  21.501  26.989  1.00  0.00    -0.376 OA
BRANCH   3   4
ATOM      4  C   UNL A   1      39.443  21.811  25.782  1.00  0.00     0.202 C 
BRANCH   4   5
ATOM      5  C   UNL A   1      37.919  21.583  25.733  1.00  0.00     0.261 C 
BRANCH   5   6
ATOM      6  O   UNL A   1      37.128  22.753  26.044  1.00  0.00    -0.463 OA
BRANCH   6   7
ATOM      7  C   UNL A   1      36.526  23.384  25.001  1.00  0.00     0.313 C 
ATOM      8  O   UNL A   1      36.960  23.343  23.853  1.00  0.00    -0.252 OA
BRANCH   7   9
ATOM      9  C   UNL A   1      35.203  24.100  25.350  1.00  0.00     0.133 C 
BRANCH   9  10
ATOM     10  C   UNL A   1      34.374  23.544  26.543  1.00  0.00     0.047 C 
BRANCH  10  11
ATOM     11  C   UNL A   1      33.018  22.934  26.317  1.00  0.00    -0.030 C 
ATOM     12  C   UNL A   1      30.522  22.948  26.521  1.00  0.00     0.035 C 
ATOM     13  C   UNL A   1      31.893  23.444  26.841  1.00  0.00    -0.035 C 
ENDBRANCH  10  11
ENDBRANCH   9  10
BRANCH   9  14
ATOM     14  C   UNL A   1      34.313  24.432  24.123  1.00  0.00    -0.032 A 
ATOM     15  C   UNL A   1      33.954  23.456  23.175  1.00  0.00     0.005 A 
ATOM     16  C   UNL A   1      33.923  25.760  23.840  1.00  0.00     0.025 A 
ATOM     17  C   UNL A   1      33.243  23.789  22.011  1.00  0.00     0.002 A 
ATOM     18  C   UNL A   1      33.216  26.090  22.677  1.00  0.00     0.041 A 
ATOM     19  C   UNL A   1      32.880  25.109  21.757  1.00  0.00     0.020 A 
ATOM     20  Cl  UNL A   1      32.785  27.729  22.382  1.00  0.00    -0.084 Cl
ENDBRANCH   9  14
ENDBRANCH   7   9
ENDBRANCH   6   7
ENDBRANCH   5   6
ENDBRANCH   4   5
ENDBRANCH   3   4
ENDBRANCH   2   3
ENDBRANCH   1   2
BRANCH   1  21
ATOM     21  O   UNL A   1      42.660  20.844  25.588  1.00  0.00    -0.376 OA
BRANCH  21  22
ATOM     22  C   UNL A   1      43.485  21.988  25.725  1.00  0.00     0.202 C 
BRANCH  22  23
ATOM     23  C   UNL A   1      42.860  23.353  25.375  1.00  0.00     0.261 C 
BRANCH  23  24
ATOM     24  O   UNL A   1      42.663  24.267  26.470  1.00  0.00    -0.460 OA
BRANCH  24  25
ATOM     25  C   UNL A   1      43.305  25.457  26.395  1.00  0.00     0.338 C 
ATOM     26  O   UNL A   1      44.024  25.834  25.482  1.00  0.00    -0.246 OA
BRANCH  25  27
ATOM     27  C   UNL A   1      42.765  26.340  27.461  1.00  0.00     0.060 A 
ATOM     28  C   UNL A   1      43.231  27.663  27.535  1.00  0.00     0.016 A 
ATOM     29  C   UNL A   1      41.785  25.896  28.351  1.00  0.00     0.016 A 
ATOM     30  C   UNL A   1      42.758  28.523  28.527  1.00  0.00     0.010 A 
ATOM     31  C   UNL A   1      41.326  26.753  29.359  1.00  0.00     0.010 A 
ATOM     32  C   UNL A   1      41.841  28.058  29.479  1.00  0.00    -0.014 A 
BRANCH  32  33
ATOM     33  C   UNL A   1      41.596  28.860  30.707  1.00  0.00     0.031 A 
ATOM     34  C   UNL A   1      40.429  29.815  30.715  1.00  0.00     0.074 A 
ATOM     35  C   UNL A   1      42.350  28.718  31.812  1.00  0.00     0.049 A 
ATOM     36  N   UNL A   1      40.012  30.616  31.662  1.00  0.00    -0.248 NA
ATOM     37  C   UNL A   1      39.624  29.876  29.483  1.00  0.00     0.031 C 
ATOM     38  C   UNL A   1      43.487  27.810  31.952  1.00  0.00     0.029 A 
ATOM     39  N   UNL A   1      42.270  29.346  33.033  1.00  0.00    -0.354 N 
ATOM     40  C   UNL A   1      38.903  31.275  31.141  1.00  0.00     0.074 A 
ATOM     41  C   UNL A   1      38.736  30.811  29.782  1.00  0.00     0.031 C 
ATOM     42  C   UNL A   1      44.002  27.943  33.187  1.00  0.00     0.029 A 
ATOM     43  C   UNL A   1      43.248  28.962  33.919  1.00  0.00     0.049 A 
ATOM     44  H   UNL A   1      41.576  30.009  33.252  1.00  0.00     0.167 HD
ATOM     45  C   UNL A   1      38.085  32.172  31.743  1.00  0.00     0.037 A 
ATOM     46  C   UNL A   1      43.514  29.392  35.170  1.00  0.00     0.037 A 
ATOM     47  C   UNL A   1      38.252  32.636  33.096  1.00  0.00     0.049 A 
ATOM     48  C   UNL A   1      42.627  30.442  35.799  1.00  0.00     0.074 A 
ATOM     49  C   UNL A   1      37.468  33.534  33.799  1.00  0.00     0.029 A 
ATOM     50  N   UNL A   1      39.272  32.245  33.950  1.00  0.00    -0.354 N 
ATOM     51  N   UNL A   1      41.568  31.038  35.303  1.00  0.00    -0.248 NA
ATOM     52  C   UNL A   1      42.969  30.869  37.164  1.00  0.00     0.031 C 
ATOM     53  C   UNL A   1      38.047  33.733  35.056  1.00  0.00     0.029 A 
ATOM     54  C   UNL A   1      39.153  32.904  35.164  1.00  0.00     0.049 A 
ATOM     55  H   UNL A   1      39.977  31.594  33.728  1.00  0.00     0.167 HD
ATOM     56  C   UNL A   1      41.100  31.883  36.307  1.00  0.00     0.074 A 
ATOM     57  C   UNL A   1      41.982  31.708  37.442  1.00  0.00     0.031 C 
ATOM     58  C   UNL A   1      40.035  32.725  36.292  1.00  0.00     0.037 A 
BRANCH  45  59
ATOM     59  C   UNL A   1      36.951  32.736  30.928  1.00  0.00     0.058 A 
ATOM     60  C   UNL A   1      35.648  32.221  31.013  1.00  0.00     0.135 A 
ATOM     61  C   UNL A   1      37.167  33.831  30.074  1.00  0.00     0.135 A 
ATOM     62  F   UNL A   1      35.388  31.163  31.798  1.00  0.00    -0.206 F 
ATOM     63  C   UNL A   1      34.605  32.751  30.260  1.00  0.00     0.059 A 
ATOM     64  C   UNL A   1      36.132  34.397  29.336  1.00  0.00     0.059 A 
ATOM     65  F   UNL A   1      38.393  34.361  29.951  1.00  0.00    -0.206 F 
ATOM     66  C   UNL A   1      34.856  33.842  29.426  1.00  0.00     0.060 A 
BRANCH  66  67
ATOM     67  S   UNL A   1      33.490  34.524  28.463  1.00  0.00     0.124 S 
ATOM     68  O   UNL A   1      33.122  33.383  27.630  1.00  0.00    -0.237 OA
ATOM     69  O   UNL A   1      32.530  34.888  29.500  1.00  0.00    -0.237 OA
ATOM     70  O   UNL A   1      34.099  35.645  27.754  1.00  0.00    -0.744 OA
ENDBRANCH  66  67
ENDBRANCH  45  59
BRANCH  46  71
ATOM     71  C   UNL A   1      44.675  28.839  35.921  1.00  0.00     0.058 A 
ATOM     72  C   UNL A   1      45.957  29.397  35.797  1.00  0.00     0.135 A 
ATOM     73  C   UNL A   1      44.528  27.727  36.767  1.00  0.00     0.135 A 
ATOM     74  F   UNL A   1      46.155  30.450  34.989  1.00  0.00    -0.206 F 
ATOM     75  C   UNL A   1      47.053  28.866  36.470  1.00  0.00     0.059 A 
ATOM     76  C   UNL A   1      45.603  27.198  37.475  1.00  0.00     0.059 A 
ATOM     77  F   UNL A   1      43.323  27.158  36.927  1.00  0.00    -0.206 F 
ATOM     78  C   UNL A   1      46.865  27.768  37.312  1.00  0.00     0.060 A 
BRANCH  78  79
ATOM     79  S   UNL A   1      48.283  27.122  38.224  1.00  0.00     0.124 S 
ATOM     80  O   UNL A   1      47.789  27.146  39.595  1.00  0.00    -0.237 OA
ATOM     81  O   UNL A   1      48.452  25.801  37.626  1.00  0.00    -0.237 OA
ATOM     82  O   UNL A   1      49.342  28.080  37.917  1.00  0.00    -0.744 OA
ENDBRANCH  78  79
ENDBRANCH  46  71
BRANCH  58  83
ATOM     83  C   UNL A   1      39.733  33.490  37.554  1.00  0.00     0.058 A 
ATOM     84  C   UNL A   1      40.392  34.688  37.878  1.00  0.00     0.135 A 
ATOM     85  C   UNL A   1      38.751  33.028  38.448  1.00  0.00     0.135 A 
ATOM     86  F   UNL A   1      41.339  35.179  37.062  1.00  0.00    -0.206 F 
ATOM     87  C   UNL A   1      40.123  35.373  39.059  1.00  0.00     0.059 A 
ATOM     88  C   UNL A   1      38.441  33.715  39.618  1.00  0.00     0.059 A 
ATOM     89  F   UNL A   1      38.076  31.898  38.185  1.00  0.00    -0.206 F 
ATOM     90  C   UNL A   1      39.147  34.876  39.926  1.00  0.00     0.060 A 
BRANCH  90  91
ATOM     91  S   UNL A   1      38.813  35.770  41.459  1.00  0.00     0.124 S 
ATOM     92  O   UNL A   1      39.905  35.312  42.311  1.00  0.00    -0.237 OA
ATOM     93  O   UNL A   1      38.884  37.163  41.029  1.00  0.00    -0.237 OA
ATOM     94  O   UNL A   1      37.483  35.304  41.840  1.00  0.00    -0.744 OA
ENDBRANCH  90  91
ENDBRANCH  58  83
ENDBRANCH  32  33
ENDBRANCH  25  27
ENDBRANCH  24  25
ENDBRANCH  23  24
ENDBRANCH  22  23
ENDBRANCH  21  22
ENDBRANCH   1  21
TORSDOF 23
ENDMDL
