MODEL 1
REMARK VINA RESULT:      -9.8      0.000      0.000
REMARK SMILES Cc1ccc(C(=O)NC2CC2)cc1NC(=O)[C@@H]1[C@@H](C(=O)OCCOCCOCCOC(=O)c2ccc(-c3c4nc(c(-c5c(F)cc(S(=O)(=O)[O-])cc5F)c5ccc([nH]5)c(-c5c(F)cc(S(=O)(=O)[O-])cc5F)c5nc(c(-c6c(F)cc(S(=O)(=O)[O-])cc6F)c6ccc3[nH]6)C=C5)C=C4)cc2)[C@H]2C=C[C@@H]1C2
REMARK SMILES IDX 25 1 24 2 23 3 22 4 21 5 19 6 20 7 18 8 17 9 102 10 99 11
REMARK SMILES IDX 101 12 103 13 100 14 15 15 14 16 16 18 13 19 1 20 2 21 3 22
REMARK SMILES IDX 4 23 12 24 5 25 6 26 7 27 8 28 9 30 10 31 11 32 26 33 27 34
REMARK SMILES IDX 28 35 29 36 30 37 31 38 32 39 33 40 34 41 98 42 35 43 97 44
REMARK SMILES IDX 36 45 37 46 38 47 91 48 39 49 96 50 90 51 92 52 40 53 95 54
REMARK SMILES IDX 89 55 88 56 41 58 75 59 54 60 74 61 55 62 58 63 73 64 93 65
REMARK SMILES IDX 56 66 57 67 72 69 94 70 59 71 42 72 43 73 52 74 44 75 45 76
REMARK SMILES IDX 51 77 53 78 46 79 47 80 48 81 49 82 50 83 76 84 77 85 86 86
REMARK SMILES IDX 78 87 79 88 85 89 87 90 80 91 81 92 82 93 83 94 84 95 60 96
REMARK SMILES IDX 61 97 70 98 62 99 63 100 69 101 71 102 64 103 65 104 66 105
REMARK SMILES IDX 67 106 68 107
REMARK H PARENT 14 17 8 29 92 57 58 68
REMARK Flexibility Score: inf
ROOT
ATOM      1  C   UNL A   1      32.554  23.627  26.233  1.00  0.00     0.188 C 
ENDROOT
BRANCH   1   2
ATOM      2  O   UNL A   1      31.657  24.421  26.995  1.00  0.00    -0.376 OA
BRANCH   2   3
ATOM      3  C   UNL A   1      30.609  24.894  26.150  1.00  0.00     0.202 C 
BRANCH   3   4
ATOM      4  C   UNL A   1      30.520  26.424  26.034  1.00  0.00     0.261 C 
BRANCH   4   5
ATOM      5  O   UNL A   1      29.984  27.348  24.932  1.00  0.00    -0.463 OA
BRANCH   5   6
ATOM      6  C   UNL A   1      29.160  27.161  23.843  1.00  0.00     0.310 C 
ATOM      7  O   UNL A   1      28.736  26.044  23.577  1.00  0.00    -0.252 OA
BRANCH   6   8
ATOM      8  C   UNL A   1      28.781  28.399  22.923  1.00  0.00     0.119 C 
ATOM      9  C   UNL A   1      29.819  29.574  22.997  1.00  0.00     0.100 C 
ATOM     10  C   UNL A   1      29.025  30.845  22.518  1.00  0.00     0.025 C 
ATOM     11  C   UNL A   1      27.474  29.328  22.991  1.00  0.00     0.027 C 
ATOM     12  C   UNL A   1      28.239  31.387  23.670  1.00  0.00    -0.027 C 
ATOM     13  C   UNL A   1      27.822  30.244  21.797  1.00  0.00     0.017 C 
ATOM     14  C   UNL A   1      27.376  30.429  24.016  1.00  0.00    -0.027 C 
BRANCH   9  15
ATOM     15  C   UNL A   1      31.016  29.411  22.121  1.00  0.00     0.228 C 
ATOM     16  N   UNL A   1      32.231  29.056  22.634  1.00  0.00    -0.326 N 
ATOM     17  H   UNL A   1      32.908  28.933  21.929  1.00  0.00     0.169 HD
ATOM     18  O   UNL A   1      30.976  29.791  20.945  1.00  0.00    -0.274 OA
BRANCH  16  19
ATOM     19  C   UNL A   1      32.761  28.820  23.927  1.00  0.00     0.044 A 
ATOM     20  C   UNL A   1      33.212  26.389  23.206  1.00  0.00     0.046 C 
ATOM     21  C   UNL A   1      33.271  27.529  24.190  1.00  0.00    -0.027 A 
ATOM     22  C   UNL A   1      33.840  27.243  25.444  1.00  0.00     0.006 A 
ATOM     23  C   UNL A   1      33.939  28.220  26.428  1.00  0.00     0.014 A 
ATOM     24  C   UNL A   1      32.803  29.763  24.972  1.00  0.00     0.040 A 
ATOM     25  C   UNL A   1      33.425  29.497  26.206  1.00  0.00     0.041 A 
BRANCH  25  26
ATOM     26  C   UNL A   1      33.540  30.452  27.359  1.00  0.00     0.251 C 
ATOM     27  O   UNL A   1      32.625  31.254  27.560  1.00  0.00    -0.269 OA
ATOM     28  N   UNL A   1      34.592  30.417  28.243  1.00  0.00    -0.349 N 
ATOM     29  H   UNL A   1      34.524  31.034  29.008  1.00  0.00     0.164 HD
BRANCH  28  30
ATOM     30  C   UNL A   1      35.758  29.616  28.204  1.00  0.00     0.082 C 
ATOM     31  C   UNL A   1      37.074  30.316  28.142  1.00  0.00     0.027 C 
ATOM     32  C   UNL A   1      36.718  29.550  29.356  1.00  0.00     0.027 C 
ENDBRANCH  28  30
ENDBRANCH  25  26
ENDBRANCH  16  19
ENDBRANCH   9  15
ENDBRANCH   6   8
ENDBRANCH   5   6
ENDBRANCH   4   5
ENDBRANCH   3   4
ENDBRANCH   2   3
ENDBRANCH   1   2
BRANCH   1  33
ATOM     33  C   UNL A   1      33.632  22.967  27.090  1.00  0.00     0.188 C 
BRANCH  33  34
ATOM     34  O   UNL A   1      34.636  22.253  26.376  1.00  0.00    -0.376 OA
BRANCH  34  35
ATOM     35  C   UNL A   1      35.676  23.039  25.796  1.00  0.00     0.202 C 
BRANCH  35  36
ATOM     36  C   UNL A   1      36.932  22.169  25.814  1.00  0.00     0.261 C 
BRANCH  36  37
ATOM     37  O   UNL A   1      38.074  22.965  25.420  1.00  0.00    -0.460 OA
BRANCH  37  38
ATOM     38  C   UNL A   1      39.076  22.989  26.334  1.00  0.00     0.338 C 
ATOM     39  O   UNL A   1      39.633  21.997  26.791  1.00  0.00    -0.246 OA
BRANCH  38  40
ATOM     40  C   UNL A   1      39.270  24.390  26.819  1.00  0.00     0.060 A 
ATOM     41  C   UNL A   1      40.219  25.145  26.181  1.00  0.00     0.016 A 
ATOM     42  C   UNL A   1      38.730  24.910  28.005  1.00  0.00     0.016 A 
ATOM     43  C   UNL A   1      40.731  26.282  26.829  1.00  0.00     0.010 A 
ATOM     44  C   UNL A   1      39.305  26.044  28.656  1.00  0.00     0.010 A 
ATOM     45  C   UNL A   1      40.433  26.706  28.144  1.00  0.00    -0.014 A 
BRANCH  45  46
ATOM     46  C   UNL A   1      41.223  27.709  29.084  1.00  0.00     0.031 A 
ATOM     47  C   UNL A   1      42.511  27.205  29.662  1.00  0.00     0.074 A 
ATOM     48  C   UNL A   1      41.105  29.077  29.398  1.00  0.00     0.049 A 
ATOM     49  N   UNL A   1      43.264  27.890  30.474  1.00  0.00    -0.248 NA
ATOM     50  C   UNL A   1      43.003  25.843  29.455  1.00  0.00     0.031 C 
ATOM     51  C   UNL A   1      42.245  29.993  29.195  1.00  0.00     0.029 A 
ATOM     52  N   UNL A   1      40.116  30.048  29.704  1.00  0.00    -0.354 N 
ATOM     53  C   UNL A   1      44.482  27.280  30.437  1.00  0.00     0.074 A 
ATOM     54  C   UNL A   1      44.175  25.912  30.099  1.00  0.00     0.031 C 
ATOM     55  C   UNL A   1      41.935  31.245  29.565  1.00  0.00     0.029 A 
ATOM     56  C   UNL A   1      40.592  31.300  30.102  1.00  0.00     0.049 A 
ATOM     57  H   UNL A   1      39.153  29.851  29.641  1.00  0.00     0.167 HD
ATOM     58  C   UNL A   1      45.616  28.035  30.364  1.00  0.00     0.037 A 
ATOM     59  C   UNL A   1      40.031  32.256  30.929  1.00  0.00     0.037 A 
ATOM     60  C   UNL A   1      45.418  29.468  30.654  1.00  0.00     0.049 A 
ATOM     61  C   UNL A   1      41.095  32.817  31.881  1.00  0.00     0.074 A 
ATOM     62  C   UNL A   1      45.621  30.625  29.917  1.00  0.00     0.029 A 
ATOM     63  N   UNL A   1      44.837  29.887  31.849  1.00  0.00    -0.354 N 
ATOM     64  N   UNL A   1      42.377  32.653  31.690  1.00  0.00    -0.248 NA
ATOM     65  C   UNL A   1      40.839  33.397  33.206  1.00  0.00     0.031 C 
ATOM     66  C   UNL A   1      45.162  31.737  30.679  1.00  0.00     0.029 A 
ATOM     67  C   UNL A   1      44.699  31.274  31.898  1.00  0.00     0.049 A 
ATOM     68  H   UNL A   1      44.559  29.278  32.572  1.00  0.00     0.167 HD
ATOM     69  C   UNL A   1      43.013  32.663  32.908  1.00  0.00     0.074 A 
ATOM     70  C   UNL A   1      42.056  33.320  33.781  1.00  0.00     0.031 C 
ATOM     71  C   UNL A   1      44.170  31.942  33.106  1.00  0.00     0.037 A 
BRANCH  58  72
ATOM     72  C   UNL A   1      46.915  27.493  29.778  1.00  0.00     0.058 A 
ATOM     73  C   UNL A   1      47.258  27.761  28.436  1.00  0.00     0.135 A 
ATOM     74  C   UNL A   1      47.811  26.624  30.446  1.00  0.00     0.135 A 
ATOM     75  F   UNL A   1      46.469  28.521  27.662  1.00  0.00    -0.206 F 
ATOM     76  C   UNL A   1      48.404  27.235  27.825  1.00  0.00     0.059 A 
ATOM     77  C   UNL A   1      48.998  26.159  29.886  1.00  0.00     0.059 A 
ATOM     78  F   UNL A   1      47.548  26.098  31.648  1.00  0.00    -0.206 F 
ATOM     79  C   UNL A   1      49.278  26.448  28.565  1.00  0.00     0.060 A 
BRANCH  79  80
ATOM     80  S   UNL A   1      50.757  25.763  27.801  1.00  0.00     0.124 S 
ATOM     81  O   UNL A   1      50.402  24.352  27.683  1.00  0.00    -0.237 OA
ATOM     82  O   UNL A   1      50.841  26.509  26.550  1.00  0.00    -0.237 OA
ATOM     83  O   UNL A   1      51.807  26.061  28.772  1.00  0.00    -0.744 OA
ENDBRANCH  79  80
ENDBRANCH  58  72
BRANCH  59  84
ATOM     84  C   UNL A   1      38.523  32.265  31.174  1.00  0.00     0.058 A 
ATOM     85  C   UNL A   1      38.041  31.569  32.297  1.00  0.00     0.135 A 
ATOM     86  C   UNL A   1      37.561  33.083  30.551  1.00  0.00     0.135 A 
ATOM     87  F   UNL A   1      38.802  30.614  32.858  1.00  0.00    -0.206 F 
ATOM     88  C   UNL A   1      36.836  31.893  32.942  1.00  0.00     0.059 A 
ATOM     89  C   UNL A   1      36.361  33.456  31.187  1.00  0.00     0.059 A 
ATOM     90  F   UNL A   1      37.765  33.588  29.330  1.00  0.00    -0.206 F 
ATOM     91  C   UNL A   1      36.064  32.934  32.442  1.00  0.00     0.060 A 
BRANCH  91  92
ATOM     92  S   UNL A   1      34.849  33.786  33.491  1.00  0.00     0.124 S 
ATOM     93  O   UNL A   1      34.951  35.169  33.041  1.00  0.00    -0.237 OA
ATOM     94  O   UNL A   1      33.586  33.124  33.172  1.00  0.00    -0.237 OA
ATOM     95  O   UNL A   1      35.359  33.515  34.831  1.00  0.00    -0.744 OA
ENDBRANCH  91  92
ENDBRANCH  59  84
BRANCH  71  96
ATOM     96  C   UNL A   1      44.890  31.693  34.431  1.00  0.00     0.058 A 
ATOM     97  C   UNL A   1      44.550  30.732  35.402  1.00  0.00     0.135 A 
ATOM     98  C   UNL A   1      46.081  32.415  34.711  1.00  0.00     0.135 A 
ATOM     99  F   UNL A   1      43.551  29.863  35.206  1.00  0.00    -0.206 F 
ATOM    100  C   UNL A   1      45.265  30.578  36.600  1.00  0.00     0.059 A 
ATOM    101  C   UNL A   1      46.847  32.228  35.859  1.00  0.00     0.059 A 
ATOM    102  F   UNL A   1      46.551  33.342  33.864  1.00  0.00    -0.206 F 
ATOM    103  C   UNL A   1      46.403  31.345  36.827  1.00  0.00     0.060 A 
BRANCH 103 104
ATOM    104  S   UNL A   1      47.310  31.194  38.379  1.00  0.00     0.124 S 
ATOM    105  O   UNL A   1      47.025  32.482  39.004  1.00  0.00    -0.237 OA
ATOM    106  O   UNL A   1      46.687  30.035  39.008  1.00  0.00    -0.237 OA
ATOM    107  O   UNL A   1      48.689  30.996  37.945  1.00  0.00    -0.744 OA
ENDBRANCH 103 104
ENDBRANCH  71  96
ENDBRANCH  45  46
ENDBRANCH  38  40
ENDBRANCH  37  38
ENDBRANCH  36  37
ENDBRANCH  35  36
ENDBRANCH  34  35
ENDBRANCH  33  34
ENDBRANCH   1  33
TORSDOF 24
ENDMDL
MODEL 2
REMARK VINA RESULT:      -9.5      4.078      8.119
REMARK SMILES Cc1ccc(C(=O)NC2CC2)cc1NC(=O)[C@@H]1[C@@H](C(=O)OCCOCCOCCOC(=O)c2ccc(-c3c4nc(c(-c5c(F)cc(S(=O)(=O)[O-])cc5F)c5ccc([nH]5)c(-c5c(F)cc(S(=O)(=O)[O-])cc5F)c5nc(c(-c6c(F)cc(S(=O)(=O)[O-])cc6F)c6ccc3[nH]6)C=C5)C=C4)cc2)[C@H]2C=C[C@@H]1C2
REMARK SMILES IDX 25 1 24 2 23 3 22 4 21 5 19 6 20 7 18 8 17 9 102 10 99 11
REMARK SMILES IDX 101 12 103 13 100 14 15 15 14 16 16 18 13 19 1 20 2 21 3 22
REMARK SMILES IDX 4 23 12 24 5 25 6 26 7 27 8 28 9 30 10 31 11 32 26 33 27 34
REMARK SMILES IDX 28 35 29 36 30 37 31 38 32 39 33 40 34 41 98 42 35 43 97 44
REMARK SMILES IDX 36 45 37 46 38 47 91 48 39 49 96 50 90 51 92 52 40 53 95 54
REMARK SMILES IDX 89 55 88 56 41 58 75 59 54 60 74 61 55 62 58 63 73 64 93 65
REMARK SMILES IDX 56 66 57 67 72 69 94 70 59 71 42 72 43 73 52 74 44 75 45 76
REMARK SMILES IDX 51 77 53 78 46 79 47 80 48 81 49 82 50 83 76 84 77 85 86 86
REMARK SMILES IDX 78 87 79 88 85 89 87 90 80 91 81 92 82 93 83 94 84 95 60 96
REMARK SMILES IDX 61 97 70 98 62 99 63 100 69 101 71 102 64 103 65 104 66 105
REMARK SMILES IDX 67 106 68 107
REMARK H PARENT 14 17 8 29 92 57 58 68
REMARK Flexibility Score: inf
ROOT
ATOM      1  C   UNL A   1      35.747  31.525  28.066  1.00  0.00     0.188 C 
ENDROOT
BRANCH   1   2
ATOM      2  O   UNL A   1      34.789  30.763  27.347  1.00  0.00    -0.376 OA
BRANCH   2   3
ATOM      3  C   UNL A   1      34.884  29.394  27.737  1.00  0.00     0.202 C 
BRANCH   3   4
ATOM      4  C   UNL A   1      34.026  28.429  26.906  1.00  0.00     0.261 C 
BRANCH   4   5
ATOM      5  O   UNL A   1      34.340  27.090  26.224  1.00  0.00    -0.463 OA
BRANCH   5   6
ATOM      6  C   UNL A   1      33.679  25.883  26.133  1.00  0.00     0.310 C 
ATOM      7  O   UNL A   1      32.496  25.806  26.438  1.00  0.00    -0.252 OA
BRANCH   6   8
ATOM      8  C   UNL A   1      34.466  24.590  25.655  1.00  0.00     0.119 C 
ATOM      9  C   UNL A   1      33.693  23.749  24.578  1.00  0.00     0.100 C 
ATOM     10  C   UNL A   1      34.318  22.308  24.666  1.00  0.00     0.025 C 
ATOM     11  C   UNL A   1      34.945  23.334  26.533  1.00  0.00     0.027 C 
ATOM     12  C   UNL A   1      33.671  21.568  25.795  1.00  0.00    -0.027 C 
ATOM     13  C   UNL A   1      35.636  22.552  25.394  1.00  0.00     0.017 C 
ATOM     14  C   UNL A   1      33.967  22.248  26.905  1.00  0.00    -0.027 C 
BRANCH   9  15
ATOM     15  C   UNL A   1      33.838  24.238  23.176  1.00  0.00     0.228 C 
ATOM     16  N   UNL A   1      33.067  25.257  22.693  1.00  0.00    -0.326 N 
ATOM     17  H   UNL A   1      33.316  25.505  21.773  1.00  0.00     0.169 HD
ATOM     18  O   UNL A   1      34.518  23.597  22.367  1.00  0.00    -0.274 OA
BRANCH  16  19
ATOM     19  C   UNL A   1      31.998  26.046  23.186  1.00  0.00     0.044 A 
ATOM     20  C   UNL A   1      30.522  23.937  23.118  1.00  0.00     0.046 C 
ATOM     21  C   UNL A   1      30.770  25.391  23.426  1.00  0.00    -0.027 A 
ATOM     22  C   UNL A   1      29.681  26.113  23.947  1.00  0.00     0.006 A 
ATOM     23  C   UNL A   1      29.798  27.462  24.260  1.00  0.00     0.014 A 
ATOM     24  C   UNL A   1      32.059  27.430  23.438  1.00  0.00     0.040 A 
ATOM     25  C   UNL A   1      30.990  28.142  24.014  1.00  0.00     0.041 A 
BRANCH  25  26
ATOM     26  C   UNL A   1      30.981  29.607  24.341  1.00  0.00     0.251 C 
ATOM     27  O   UNL A   1      31.907  30.073  25.008  1.00  0.00    -0.269 OA
ATOM     28  N   UNL A   1      30.018  30.464  23.864  1.00  0.00    -0.349 N 
ATOM     29  H   UNL A   1      30.155  31.416  24.073  1.00  0.00     0.164 HD
BRANCH  28  30
ATOM     30  C   UNL A   1      28.857  30.163  23.113  1.00  0.00     0.082 C 
ATOM     31  C   UNL A   1      27.653  31.018  23.330  1.00  0.00     0.027 C 
ATOM     32  C   UNL A   1      28.352  31.070  22.029  1.00  0.00     0.027 C 
ENDBRANCH  28  30
ENDBRANCH  25  26
ENDBRANCH  16  19
ENDBRANCH   9  15
ENDBRANCH   6   8
ENDBRANCH   5   6
ENDBRANCH   4   5
ENDBRANCH   3   4
ENDBRANCH   2   3
ENDBRANCH   1   2
BRANCH   1  33
ATOM     33  C   UNL A   1      35.272  32.949  28.354  1.00  0.00     0.188 C 
BRANCH  33  34
ATOM     34  O   UNL A   1      34.260  33.448  27.488  1.00  0.00    -0.376 OA
BRANCH  34  35
ATOM     35  C   UNL A   1      33.524  34.575  27.961  1.00  0.00     0.202 C 
BRANCH  35  36
ATOM     36  C   UNL A   1      34.033  34.857  29.374  1.00  0.00     0.261 C 
BRANCH  36  37
ATOM     37  O   UNL A   1      32.958  34.659  30.321  1.00  0.00    -0.460 OA
BRANCH  37  38
ATOM     38  C   UNL A   1      33.131  35.303  31.501  1.00  0.00     0.338 C 
ATOM     39  O   UNL A   1      32.809  36.466  31.721  1.00  0.00    -0.246 OA
BRANCH  38  40
ATOM     40  C   UNL A   1      33.925  34.438  32.426  1.00  0.00     0.060 A 
ATOM     41  C   UNL A   1      34.497  35.046  33.514  1.00  0.00     0.016 A 
ATOM     42  C   UNL A   1      34.319  33.120  32.150  1.00  0.00     0.016 A 
ATOM     43  C   UNL A   1      35.562  34.404  34.169  1.00  0.00     0.010 A 
ATOM     44  C   UNL A   1      35.435  32.517  32.808  1.00  0.00     0.010 A 
ATOM     45  C   UNL A   1      36.193  33.204  33.772  1.00  0.00    -0.014 A 
BRANCH  45  46
ATOM     46  C   UNL A   1      37.607  32.621  34.190  1.00  0.00     0.031 A 
ATOM     47  C   UNL A   1      38.011  31.330  33.546  1.00  0.00     0.074 A 
ATOM     48  C   UNL A   1      38.706  33.112  34.920  1.00  0.00     0.049 A 
ATOM     49  N   UNL A   1      39.124  30.704  33.802  1.00  0.00    -0.248 NA
ATOM     50  C   UNL A   1      37.142  30.581  32.638  1.00  0.00     0.031 C 
ATOM     51  C   UNL A   1      40.052  33.147  34.313  1.00  0.00     0.029 A 
ATOM     52  N   UNL A   1      38.997  33.842  36.103  1.00  0.00    -0.354 N 
ATOM     53  C   UNL A   1      39.300  29.842  32.761  1.00  0.00     0.074 A 
ATOM     54  C   UNL A   1      37.959  29.575  32.300  1.00  0.00     0.031 C 
ATOM     55  C   UNL A   1      40.961  33.635  35.172  1.00  0.00     0.029 A 
ATOM     56  C   UNL A   1      40.347  33.926  36.451  1.00  0.00     0.049 A 
ATOM     57  H   UNL A   1      38.291  34.262  36.644  1.00  0.00     0.167 HD
ATOM     58  C   UNL A   1      40.533  29.707  32.192  1.00  0.00     0.037 A 
ATOM     59  C   UNL A   1      40.952  34.061  37.688  1.00  0.00     0.037 A 
ATOM     60  C   UNL A   1      41.638  30.286  32.981  1.00  0.00     0.049 A 
ATOM     61  C   UNL A   1      42.161  33.122  37.787  1.00  0.00     0.074 A 
ATOM     62  C   UNL A   1      42.567  31.283  32.728  1.00  0.00     0.029 A 
ATOM     63  N   UNL A   1      41.856  29.903  34.304  1.00  0.00    -0.354 N 
ATOM     64  N   UNL A   1      42.709  32.556  36.745  1.00  0.00    -0.248 NA
ATOM     65  C   UNL A   1      42.713  32.565  39.029  1.00  0.00     0.031 C 
ATOM     66  C   UNL A   1      43.345  31.491  33.903  1.00  0.00     0.029 A 
ATOM     67  C   UNL A   1      42.915  30.606  34.877  1.00  0.00     0.049 A 
ATOM     68  H   UNL A   1      41.327  29.219  34.776  1.00  0.00     0.167 HD
ATOM     69  C   UNL A   1      43.276  31.366  37.131  1.00  0.00     0.074 A 
ATOM     70  C   UNL A   1      43.425  31.516  38.568  1.00  0.00     0.031 C 
ATOM     71  C   UNL A   1      43.367  30.310  36.252  1.00  0.00     0.037 A 
BRANCH  58  72
ATOM     72  C   UNL A   1      40.717  29.238  30.754  1.00  0.00     0.058 A 
ATOM     73  C   UNL A   1      41.529  28.121  30.467  1.00  0.00     0.135 A 
ATOM     74  C   UNL A   1      40.210  29.899  29.609  1.00  0.00     0.135 A 
ATOM     75  F   UNL A   1      42.126  27.433  31.452  1.00  0.00    -0.206 F 
ATOM     76  C   UNL A   1      41.788  27.684  29.162  1.00  0.00     0.059 A 
ATOM     77  C   UNL A   1      40.385  29.434  28.309  1.00  0.00     0.059 A 
ATOM     78  F   UNL A   1      39.592  31.084  29.672  1.00  0.00    -0.206 F 
ATOM     79  C   UNL A   1      41.196  28.339  28.088  1.00  0.00     0.060 A 
BRANCH  79  80
ATOM     80  S   UNL A   1      41.515  27.795  26.401  1.00  0.00     0.124 S 
ATOM     81  O   UNL A   1      40.642  26.628  26.298  1.00  0.00    -0.237 OA
ATOM     82  O   UNL A   1      41.123  28.959  25.614  1.00  0.00    -0.237 OA
ATOM     83  O   UNL A   1      42.946  27.503  26.406  1.00  0.00    -0.744 OA
ENDBRANCH  79  80
ENDBRANCH  58  72
BRANCH  59  84
ATOM     84  C   UNL A   1      40.161  34.623  38.868  1.00  0.00     0.058 A 
ATOM     85  C   UNL A   1      39.353  33.729  39.595  1.00  0.00     0.135 A 
ATOM     86  C   UNL A   1      40.315  35.882  39.479  1.00  0.00     0.135 A 
ATOM     87  F   UNL A   1      38.974  32.571  39.029  1.00  0.00    -0.206 F 
ATOM     88  C   UNL A   1      39.004  33.932  40.941  1.00  0.00     0.059 A 
ATOM     89  C   UNL A   1      40.009  36.106  40.835  1.00  0.00     0.059 A 
ATOM     90  F   UNL A   1      40.809  36.925  38.803  1.00  0.00    -0.206 F 
ATOM     91  C   UNL A   1      39.452  35.077  41.588  1.00  0.00     0.060 A 
BRANCH  91  92
ATOM     92  S   UNL A   1      39.557  35.148  43.401  1.00  0.00     0.124 S 
ATOM     93  O   UNL A   1      38.508  36.099  43.745  1.00  0.00    -0.237 OA
ATOM     94  O   UNL A   1      39.304  33.770  43.819  1.00  0.00    -0.237 OA
ATOM     95  O   UNL A   1      40.926  35.607  43.610  1.00  0.00    -0.744 OA
ENDBRANCH  91  92
ENDBRANCH  59  84
BRANCH  71  96
ATOM     96  C   UNL A   1      43.788  28.874  36.570  1.00  0.00     0.058 A 
ATOM     97  C   UNL A   1      42.935  27.767  36.732  1.00  0.00     0.135 A 
ATOM     98  C   UNL A   1      45.173  28.562  36.624  1.00  0.00     0.135 A 
ATOM     99  F   UNL A   1      41.613  27.870  36.546  1.00  0.00    -0.206 F 
ATOM    100  C   UNL A   1      43.409  26.481  37.033  1.00  0.00     0.059 A 
ATOM    101  C   UNL A   1      45.668  27.280  36.849  1.00  0.00     0.059 A 
ATOM    102  F   UNL A   1      46.108  29.506  36.455  1.00  0.00    -0.206 F 
ATOM    103  C   UNL A   1      44.779  26.252  37.108  1.00  0.00     0.060 A 
BRANCH 103 104
ATOM    104  S   UNL A   1      45.409  24.617  37.537  1.00  0.00     0.124 S 
ATOM    105  O   UNL A   1      45.245  24.618  38.988  1.00  0.00    -0.237 OA
ATOM    106  O   UNL A   1      44.521  23.723  36.802  1.00  0.00    -0.237 OA
ATOM    107  O   UNL A   1      46.787  24.650  37.059  1.00  0.00    -0.744 OA
ENDBRANCH 103 104
ENDBRANCH  71  96
ENDBRANCH  45  46
ENDBRANCH  38  40
ENDBRANCH  37  38
ENDBRANCH  36  37
ENDBRANCH  35  36
ENDBRANCH  34  35
ENDBRANCH  33  34
ENDBRANCH   1  33
TORSDOF 24
ENDMDL
MODEL 3
REMARK VINA RESULT:      -9.5      3.433      5.112
REMARK SMILES Cc1ccc(C(=O)NC2CC2)cc1NC(=O)[C@@H]1[C@@H](C(=O)OCCOCCOCCOC(=O)c2ccc(-c3c4nc(c(-c5c(F)cc(S(=O)(=O)[O-])cc5F)c5ccc([nH]5)c(-c5c(F)cc(S(=O)(=O)[O-])cc5F)c5nc(c(-c6c(F)cc(S(=O)(=O)[O-])cc6F)c6ccc3[nH]6)C=C5)C=C4)cc2)[C@H]2C=C[C@@H]1C2
REMARK SMILES IDX 25 1 24 2 23 3 22 4 21 5 19 6 20 7 18 8 17 9 102 10 99 11
REMARK SMILES IDX 101 12 103 13 100 14 15 15 14 16 16 18 13 19 1 20 2 21 3 22
REMARK SMILES IDX 4 23 12 24 5 25 6 26 7 27 8 28 9 30 10 31 11 32 26 33 27 34
REMARK SMILES IDX 28 35 29 36 30 37 31 38 32 39 33 40 34 41 98 42 35 43 97 44
REMARK SMILES IDX 36 45 37 46 38 47 91 48 39 49 96 50 90 51 92 52 40 53 95 54
REMARK SMILES IDX 89 55 88 56 41 58 75 59 54 60 74 61 55 62 58 63 73 64 93 65
REMARK SMILES IDX 56 66 57 67 72 69 94 70 59 71 42 72 43 73 52 74 44 75 45 76
REMARK SMILES IDX 51 77 53 78 46 79 47 80 48 81 49 82 50 83 76 84 77 85 86 86
REMARK SMILES IDX 78 87 79 88 85 89 87 90 80 91 81 92 82 93 83 94 84 95 60 96
REMARK SMILES IDX 61 97 70 98 62 99 63 100 69 101 71 102 64 103 65 104 66 105
REMARK SMILES IDX 67 106 68 107
REMARK H PARENT 14 17 8 29 92 57 58 68
REMARK Flexibility Score: inf
ROOT
ATOM      1  C   UNL A   1      32.560  22.875  26.993  1.00  0.00     0.188 C 
ENDROOT
BRANCH   1   2
ATOM      2  O   UNL A   1      31.317  22.719  27.660  1.00  0.00    -0.376 OA
BRANCH   2   3
ATOM      3  C   UNL A   1      30.252  22.898  26.727  1.00  0.00     0.202 C 
BRANCH   3   4
ATOM      4  C   UNL A   1      30.168  24.304  26.113  1.00  0.00     0.261 C 
BRANCH   4   5
ATOM      5  O   UNL A   1      30.448  25.701  26.685  1.00  0.00    -0.463 OA
BRANCH   5   6
ATOM      6  C   UNL A   1      30.976  26.861  26.160  1.00  0.00     0.310 C 
ATOM      7  O   UNL A   1      31.323  27.770  26.903  1.00  0.00    -0.252 OA
BRANCH   6   8
ATOM      8  C   UNL A   1      31.110  27.022  24.585  1.00  0.00     0.119 C 
ATOM      9  C   UNL A   1      31.947  28.277  24.154  1.00  0.00     0.100 C 
ATOM     10  C   UNL A   1      31.496  28.574  22.676  1.00  0.00     0.025 C 
ATOM     11  C   UNL A   1      29.942  27.220  23.502  1.00  0.00     0.027 C 
ATOM     12  C   UNL A   1      30.222  29.360  22.706  1.00  0.00    -0.027 C 
ATOM     13  C   UNL A   1      30.843  27.263  22.248  1.00  0.00     0.017 C 
ATOM     14  C   UNL A   1      29.317  28.577  23.298  1.00  0.00    -0.027 C 
BRANCH   9  15
ATOM     15  C   UNL A   1      33.426  28.080  24.162  1.00  0.00     0.228 C 
ATOM     16  N   UNL A   1      34.225  28.720  25.067  1.00  0.00    -0.326 N 
ATOM     17  H   UNL A   1      35.167  28.447  24.985  1.00  0.00     0.169 HD
ATOM     18  O   UNL A   1      33.975  27.492  23.224  1.00  0.00    -0.274 OA
BRANCH  16  19
ATOM     19  C   UNL A   1      34.035  29.679  26.093  1.00  0.00     0.044 A 
ATOM     20  C   UNL A   1      35.851  28.458  27.452  1.00  0.00     0.046 C 
ATOM     21  C   UNL A   1      34.855  29.568  27.238  1.00  0.00    -0.027 A 
ATOM     22  C   UNL A   1      34.738  30.510  28.277  1.00  0.00     0.006 A 
ATOM     23  C   UNL A   1      33.845  31.572  28.186  1.00  0.00     0.014 A 
ATOM     24  C   UNL A   1      33.086  30.718  26.068  1.00  0.00     0.040 A 
ATOM     25  C   UNL A   1      33.007  31.695  27.078  1.00  0.00     0.041 A 
BRANCH  25  26
ATOM     26  C   UNL A   1      32.048  32.849  27.116  1.00  0.00     0.251 C 
ATOM     27  O   UNL A   1      30.895  32.677  26.714  1.00  0.00    -0.269 OA
ATOM     28  N   UNL A   1      32.384  34.071  27.649  1.00  0.00    -0.349 N 
ATOM     29  H   UNL A   1      31.653  34.729  27.697  1.00  0.00     0.164 HD
BRANCH  28  30
ATOM     30  C   UNL A   1      33.637  34.510  28.139  1.00  0.00     0.082 C 
ATOM     31  C   UNL A   1      33.656  35.742  28.982  1.00  0.00     0.027 C 
ATOM     32  C   UNL A   1      33.992  34.439  29.596  1.00  0.00     0.027 C 
ENDBRANCH  28  30
ENDBRANCH  25  26
ENDBRANCH  16  19
ENDBRANCH   9  15
ENDBRANCH   6   8
ENDBRANCH   5   6
ENDBRANCH   4   5
ENDBRANCH   3   4
ENDBRANCH   2   3
ENDBRANCH   1   2
BRANCH   1  33
ATOM     33  C   UNL A   1      33.108  21.557  26.449  1.00  0.00     0.188 C 
BRANCH  33  34
ATOM     34  O   UNL A   1      32.315  20.924  25.452  1.00  0.00    -0.376 OA
BRANCH  34  35
ATOM     35  C   UNL A   1      32.940  20.714  24.187  1.00  0.00     0.202 C 
BRANCH  35  36
ATOM     36  C   UNL A   1      32.767  22.012  23.402  1.00  0.00     0.261 C 
BRANCH  36  37
ATOM     37  O   UNL A   1      34.041  22.412  22.845  1.00  0.00    -0.460 OA
BRANCH  37  38
ATOM     38  C   UNL A   1      34.422  23.670  23.178  1.00  0.00     0.338 C 
ATOM     39  O   UNL A   1      34.189  24.674  22.514  1.00  0.00    -0.246 OA
BRANCH  38  40
ATOM     40  C   UNL A   1      35.310  23.617  24.380  1.00  0.00     0.060 A 
ATOM     41  C   UNL A   1      35.058  24.517  25.383  1.00  0.00     0.016 A 
ATOM     42  C   UNL A   1      36.504  22.886  24.462  1.00  0.00     0.016 A 
ATOM     43  C   UNL A   1      36.071  24.794  26.317  1.00  0.00     0.010 A 
ATOM     44  C   UNL A   1      37.528  23.225  25.398  1.00  0.00     0.010 A 
ATOM     45  C   UNL A   1      37.395  24.301  26.293  1.00  0.00    -0.014 A 
BRANCH  45  46
ATOM     46  C   UNL A   1      38.686  24.840  27.039  1.00  0.00     0.031 A 
ATOM     47  C   UNL A   1      39.742  23.826  27.357  1.00  0.00     0.074 A 
ATOM     48  C   UNL A   1      39.193  26.116  27.348  1.00  0.00     0.049 A 
ATOM     49  N   UNL A   1      40.847  24.097  27.991  1.00  0.00    -0.248 NA
ATOM     50  C   UNL A   1      39.591  22.397  27.079  1.00  0.00     0.031 C 
ATOM     51  C   UNL A   1      40.546  26.511  26.906  1.00  0.00     0.029 A 
ATOM     52  N   UNL A   1      38.760  27.380  27.830  1.00  0.00    -0.354 N 
ATOM     53  C   UNL A   1      41.682  23.054  27.721  1.00  0.00     0.074 A 
ATOM     54  C   UNL A   1      40.790  21.949  27.474  1.00  0.00     0.031 C 
ATOM     55  C   UNL A   1      40.846  27.755  27.310  1.00  0.00     0.029 A 
ATOM     56  C   UNL A   1      39.769  28.307  28.104  1.00  0.00     0.049 A 
ATOM     57  H   UNL A   1      37.808  27.589  27.963  1.00  0.00     0.167 HD
ATOM     58  C   UNL A   1      42.989  23.295  27.411  1.00  0.00     0.037 A 
ATOM     59  C   UNL A   1      39.811  29.351  29.010  1.00  0.00     0.037 A 
ATOM     60  C   UNL A   1      43.448  24.665  27.711  1.00  0.00     0.049 A 
ATOM     61  C   UNL A   1      41.170  29.375  29.721  1.00  0.00     0.074 A 
ATOM     62  C   UNL A   1      43.958  25.691  26.929  1.00  0.00     0.029 A 
ATOM     63  N   UNL A   1      43.324  25.201  28.991  1.00  0.00    -0.354 N 
ATOM     64  N   UNL A   1      42.214  28.724  29.281  1.00  0.00    -0.248 NA
ATOM     65  C   UNL A   1      41.426  29.920  31.061  1.00  0.00     0.031 C 
ATOM     66  C   UNL A   1      44.142  26.840  27.750  1.00  0.00     0.029 A 
ATOM     67  C   UNL A   1      43.771  26.521  29.044  1.00  0.00     0.049 A 
ATOM     68  H   UNL A   1      42.964  24.708  29.765  1.00  0.00     0.167 HD
ATOM     69  C   UNL A   1      43.017  28.398  30.347  1.00  0.00     0.074 A 
ATOM     70  C   UNL A   1      42.592  29.324  31.382  1.00  0.00     0.031 C 
ATOM     71  C   UNL A   1      43.798  27.264  30.321  1.00  0.00     0.037 A 
BRANCH  58  72
ATOM     72  C   UNL A   1      43.820  22.319  26.586  1.00  0.00     0.058 A 
ATOM     73  C   UNL A   1      43.198  21.254  25.901  1.00  0.00     0.135 A 
ATOM     74  C   UNL A   1      45.234  22.312  26.512  1.00  0.00     0.135 A 
ATOM     75  F   UNL A   1      41.867  21.099  25.934  1.00  0.00    -0.206 F 
ATOM     76  C   UNL A   1      43.917  20.289  25.184  1.00  0.00     0.059 A 
ATOM     77  C   UNL A   1      45.963  21.415  25.737  1.00  0.00     0.059 A 
ATOM     78  F   UNL A   1      46.002  23.116  27.257  1.00  0.00    -0.206 F 
ATOM     79  C   UNL A   1      45.300  20.388  25.093  1.00  0.00     0.060 A 
BRANCH  79  80
ATOM     80  S   UNL A   1      46.244  19.159  24.176  1.00  0.00     0.124 S 
ATOM     81  O   UNL A   1      46.384  18.095  25.165  1.00  0.00    -0.237 OA
ATOM     82  O   UNL A   1      45.370  18.871  23.044  1.00  0.00    -0.237 OA
ATOM     83  O   UNL A   1      47.479  19.864  23.841  1.00  0.00    -0.744 OA
ENDBRANCH  79  80
ENDBRANCH  58  72
BRANCH  59  84
ATOM     84  C   UNL A   1      38.512  29.946  29.551  1.00  0.00     0.058 A 
ATOM     85  C   UNL A   1      37.934  29.334  30.678  1.00  0.00     0.135 A 
ATOM     86  C   UNL A   1      37.932  31.184  29.212  1.00  0.00     0.135 A 
ATOM     87  F   UNL A   1      38.266  28.068  30.984  1.00  0.00    -0.206 F 
ATOM     88  C   UNL A   1      37.098  30.016  31.578  1.00  0.00     0.059 A 
ATOM     89  C   UNL A   1      37.122  31.909  30.108  1.00  0.00     0.059 A 
ATOM     90  F   UNL A   1      38.167  31.759  28.027  1.00  0.00    -0.206 F 
ATOM     91  C   UNL A   1      36.803  31.352  31.342  1.00  0.00     0.060 A 
BRANCH  91  92
ATOM     92  S   UNL A   1      36.248  32.441  32.688  1.00  0.00     0.124 S 
ATOM     93  O   UNL A   1      36.826  33.727  32.317  1.00  0.00    -0.237 OA
ATOM     94  O   UNL A   1      34.790  32.373  32.613  1.00  0.00    -0.237 OA
ATOM     95  O   UNL A   1      36.829  31.797  33.861  1.00  0.00    -0.744 OA
ENDBRANCH  91  92
ENDBRANCH  59  84
BRANCH  71  96
ATOM     96  C   UNL A   1      44.591  26.660  31.481  1.00  0.00     0.058 A 
ATOM     97  C   UNL A   1      45.970  26.380  31.496  1.00  0.00     0.135 A 
ATOM     98  C   UNL A   1      43.931  26.430  32.717  1.00  0.00     0.135 A 
ATOM     99  F   UNL A   1      46.760  26.696  30.462  1.00  0.00    -0.206 F 
ATOM    100  C   UNL A   1      46.617  25.814  32.606  1.00  0.00     0.059 A 
ATOM    101  C   UNL A   1      44.567  25.938  33.854  1.00  0.00     0.059 A 
ATOM    102  F   UNL A   1      42.623  26.682  32.867  1.00  0.00    -0.206 F 
ATOM    103  C   UNL A   1      45.901  25.580  33.775  1.00  0.00     0.060 A 
BRANCH 103 104
ATOM    104  S   UNL A   1      46.703  24.813  35.198  1.00  0.00     0.124 S 
ATOM    105  O   UNL A   1      47.548  25.904  35.674  1.00  0.00    -0.237 OA
ATOM    106  O   UNL A   1      45.576  24.467  36.058  1.00  0.00    -0.237 OA
ATOM    107  O   UNL A   1      47.409  23.677  34.616  1.00  0.00    -0.744 OA
ENDBRANCH 103 104
ENDBRANCH  71  96
ENDBRANCH  45  46
ENDBRANCH  38  40
ENDBRANCH  37  38
ENDBRANCH  36  37
ENDBRANCH  35  36
ENDBRANCH  34  35
ENDBRANCH  33  34
ENDBRANCH   1  33
TORSDOF 24
ENDMDL
