MODEL 1
REMARK VINA RESULT:     -11.8      0.000      0.000
REMARK SMILES Cc1nccn1C1(C(=O)OCCOCCOCCOC(=O)c2ccc(-c3c4nc(c(-c5c(F)cc(S(=O)(=O)[O-])cc5F)c5ccc([nH]5)c(-c5c(F)cc(S(=O)(=O)[O-])cc5F)c5nc(c(-c6c(F)cc(S(=O)(=O)[O-])cc6F)c6ccc3[nH]6)C=C5)C=C4)cc2)CCN(C(=O)[C@@H]2C[C@H]2c2ccccc2)CC1
REMARK SMILES IDX 15 1 14 2 13 3 12 4 11 5 10 6 8 7 9 8 7 9 88 10 103 11 89 12
REMARK SMILES IDX 102 13 90 14 91 15 92 16 6 17 1 18 2 19 3 20 4 21 5 22 93 23
REMARK SMILES IDX 94 24 95 25 96 26 97 27 101 28 98 29 100 30 99 31 16 32
REMARK SMILES IDX 17 33 18 34 19 35 20 36 21 37 22 38 23 39 87 40 24 41 86 42
REMARK SMILES IDX 25 43 26 44 27 45 80 46 28 47 85 48 79 49 81 50 29 51 84 52
REMARK SMILES IDX 78 53 77 54 30 56 64 57 43 58 63 59 44 60 47 61 62 62 82 63
REMARK SMILES IDX 45 64 46 65 61 67 83 68 48 69 31 70 32 71 41 72 33 73 34 74
REMARK SMILES IDX 40 75 42 76 35 77 36 78 37 79 38 80 39 81 65 82 66 83 75 84
REMARK SMILES IDX 67 85 68 86 74 87 76 88 69 89 70 90 71 91 72 92 73 93 49 94
REMARK SMILES IDX 50 95 59 96 51 97 52 98 58 99 60 100 53 101 54 102 55 103
REMARK SMILES IDX 56 104 57 105
REMARK H PARENT 81 55 47 66
REMARK Flexibility Score: inf
ROOT
ATOM      1  C   UNL A   1      40.021  21.361  26.678  1.00  0.00     0.188 C 
ENDROOT
BRANCH   1   2
ATOM      2  C   UNL A   1      39.045  22.068  25.733  1.00  0.00     0.188 C 
BRANCH   2   3
ATOM      3  O   UNL A   1      37.888  22.640  26.347  1.00  0.00    -0.376 OA
BRANCH   3   4
ATOM      4  C   UNL A   1      37.318  23.769  25.686  1.00  0.00     0.202 C 
BRANCH   4   5
ATOM      5  C   UNL A   1      35.779  23.837  25.677  1.00  0.00     0.261 C 
BRANCH   5   6
ATOM      6  O   UNL A   1      35.154  23.106  24.593  1.00  0.00    -0.461 OA
BRANCH   6   7
ATOM      7  C   UNL A   1      34.770  21.823  24.826  1.00  0.00     0.332 C 
ATOM      8  O   UNL A   1      35.566  20.885  24.813  1.00  0.00    -0.249 OA
BRANCH   7   9
ATOM      9  C   UNL A   1      33.221  21.631  25.109  1.00  0.00     0.146 C 
ATOM     10  C   UNL A   1      32.854  22.264  26.488  1.00  0.00     0.062 C 
ATOM     11  C   UNL A   1      32.615  22.444  23.933  1.00  0.00     0.062 C 
ATOM     12  C   UNL A   1      31.519  23.016  26.604  1.00  0.00     0.122 C 
ATOM     13  C   UNL A   1      31.176  22.815  24.178  1.00  0.00     0.122 C 
ATOM     14  N   UNL A   1      31.112  23.661  25.356  1.00  0.00    -0.342 N 
ATOM     15  C   UNL A   1      30.643  24.976  25.418  1.00  0.00     0.226 C 
ATOM     16  O   UNL A   1      30.256  25.462  26.480  1.00  0.00    -0.275 OA
BRANCH   9  17
ATOM     17  N   UNL A   1      32.834  20.187  24.977  1.00  0.00    -0.318 N 
ATOM     18  C   UNL A   1      32.206  19.720  22.451  1.00  0.00     0.087 C 
ATOM     19  C   UNL A   1      32.446  19.400  23.884  1.00  0.00     0.106 A 
ATOM     20  N   UNL A   1      32.276  18.141  24.250  1.00  0.00    -0.242 NA
ATOM     21  C   UNL A   1      32.538  18.066  25.570  1.00  0.00     0.131 A 
ATOM     22  C   UNL A   1      32.907  19.294  26.038  1.00  0.00     0.108 A 
ENDBRANCH   9  17
BRANCH  15  23
ATOM     23  C   UNL A   1      30.684  25.910  24.244  1.00  0.00     0.087 C 
ATOM     24  C   UNL A   1      31.812  26.889  24.042  1.00  0.00     0.023 C 
ATOM     25  C   UNL A   1      30.408  27.385  24.275  1.00  0.00     0.032 C 
BRANCH  25  26
ATOM     26  C   UNL A   1      29.621  28.152  23.264  1.00  0.00    -0.044 A 
ATOM     27  C   UNL A   1      30.257  29.156  22.516  1.00  0.00     0.004 A 
ATOM     28  C   UNL A   1      28.218  28.136  23.294  1.00  0.00     0.004 A 
ATOM     29  C   UNL A   1      29.523  30.168  21.902  1.00  0.00     0.000 A 
ATOM     30  C   UNL A   1      27.480  29.147  22.678  1.00  0.00     0.000 A 
ATOM     31  C   UNL A   1      28.135  30.176  22.005  1.00  0.00     0.000 A 
ENDBRANCH  25  26
ENDBRANCH  15  23
ENDBRANCH   7   9
ENDBRANCH   6   7
ENDBRANCH   5   6
ENDBRANCH   4   5
ENDBRANCH   3   4
ENDBRANCH   2   3
ENDBRANCH   1   2
BRANCH   1  32
ATOM     32  O   UNL A   1      40.190  19.985  26.351  1.00  0.00    -0.376 OA
BRANCH  32  33
ATOM     33  C   UNL A   1      41.495  19.447  26.149  1.00  0.00     0.202 C 
BRANCH  33  34
ATOM     34  C   UNL A   1      42.688  20.399  26.173  1.00  0.00     0.261 C 
BRANCH  34  35
ATOM     35  O   UNL A   1      43.908  19.868  25.665  1.00  0.00    -0.460 OA
BRANCH  35  36
ATOM     36  C   UNL A   1      44.416  20.302  24.484  1.00  0.00     0.338 C 
ATOM     37  O   UNL A   1      44.481  19.724  23.439  1.00  0.00    -0.246 OA
BRANCH  36  38
ATOM     38  C   UNL A   1      44.812  21.707  24.730  1.00  0.00     0.060 A 
ATOM     39  C   UNL A   1      45.821  21.943  25.659  1.00  0.00     0.016 A 
ATOM     40  C   UNL A   1      44.090  22.757  24.132  1.00  0.00     0.016 A 
ATOM     41  C   UNL A   1      45.925  23.213  26.185  1.00  0.00     0.010 A 
ATOM     42  C   UNL A   1      44.189  24.016  24.656  1.00  0.00     0.010 A 
ATOM     43  C   UNL A   1      45.025  24.190  25.750  1.00  0.00    -0.014 A 
BRANCH  43  44
ATOM     44  C   UNL A   1      44.830  25.362  26.569  1.00  0.00     0.031 A 
ATOM     45  C   UNL A   1      45.863  26.400  26.452  1.00  0.00     0.074 A 
ATOM     46  C   UNL A   1      43.686  25.509  27.263  1.00  0.00     0.049 A 
ATOM     47  N   UNL A   1      46.729  26.748  27.341  1.00  0.00    -0.248 NA
ATOM     48  C   UNL A   1      46.047  27.039  25.141  1.00  0.00     0.031 C 
ATOM     49  C   UNL A   1      42.471  24.689  27.181  1.00  0.00     0.029 A 
ATOM     50  N   UNL A   1      43.327  26.503  28.115  1.00  0.00    -0.354 N 
ATOM     51  C   UNL A   1      47.415  27.817  26.782  1.00  0.00     0.074 A 
ATOM     52  C   UNL A   1      47.112  27.807  25.375  1.00  0.00     0.031 C 
ATOM     53  C   UNL A   1      41.455  25.338  27.791  1.00  0.00     0.029 A 
ATOM     54  C   UNL A   1      41.969  26.556  28.395  1.00  0.00     0.049 A 
ATOM     55  H   UNL A   1      43.977  27.134  28.502  1.00  0.00     0.167 HD
ATOM     56  C   UNL A   1      47.961  28.791  27.559  1.00  0.00     0.037 A 
ATOM     57  C   UNL A   1      41.317  27.575  29.007  1.00  0.00     0.037 A 
ATOM     58  C   UNL A   1      48.058  28.382  28.937  1.00  0.00     0.049 A 
ATOM     59  C   UNL A   1      42.340  28.377  29.734  1.00  0.00     0.074 A 
ATOM     60  C   UNL A   1      48.664  27.327  29.591  1.00  0.00     0.029 A 
ATOM     61  N   UNL A   1      47.150  28.904  29.829  1.00  0.00    -0.354 N 
ATOM     62  N   UNL A   1      42.991  27.952  30.783  1.00  0.00    -0.248 NA
ATOM     63  C   UNL A   1      42.965  29.491  29.033  1.00  0.00     0.031 C 
ATOM     64  C   UNL A   1      47.778  26.982  30.653  1.00  0.00     0.029 A 
ATOM     65  C   UNL A   1      46.703  27.871  30.617  1.00  0.00     0.049 A 
ATOM     66  H   UNL A   1      46.871  29.846  29.892  1.00  0.00     0.167 HD
ATOM     67  C   UNL A   1      44.281  28.442  30.629  1.00  0.00     0.074 A 
ATOM     68  C   UNL A   1      44.176  29.469  29.598  1.00  0.00     0.031 C 
ATOM     69  C   UNL A   1      45.358  27.772  31.142  1.00  0.00     0.037 A 
BRANCH  56  70
ATOM     70  C   UNL A   1      48.066  30.230  27.126  1.00  0.00     0.058 A 
ATOM     71  C   UNL A   1      49.304  30.891  27.219  1.00  0.00     0.135 A 
ATOM     72  C   UNL A   1      46.947  31.056  26.871  1.00  0.00     0.135 A 
ATOM     73  F   UNL A   1      50.427  30.202  27.481  1.00  0.00    -0.206 F 
ATOM     74  C   UNL A   1      49.414  32.279  27.127  1.00  0.00     0.059 A 
ATOM     75  C   UNL A   1      47.043  32.431  26.709  1.00  0.00     0.059 A 
ATOM     76  F   UNL A   1      45.693  30.586  26.873  1.00  0.00    -0.206 F 
ATOM     77  C   UNL A   1      48.273  33.039  26.887  1.00  0.00     0.060 A 
BRANCH  77  78
ATOM     78  S   UNL A   1      48.383  34.835  26.895  1.00  0.00     0.124 S 
ATOM     79  O   UNL A   1      49.760  35.039  26.461  1.00  0.00    -0.237 OA
ATOM     80  O   UNL A   1      47.345  35.210  25.941  1.00  0.00    -0.237 OA
ATOM     81  O   UNL A   1      48.100  35.180  28.286  1.00  0.00    -0.744 OA
ENDBRANCH  77  78
ENDBRANCH  56  70
BRANCH  57  82
ATOM     82  C   UNL A   1      39.930  28.054  28.770  1.00  0.00     0.058 A 
ATOM     83  C   UNL A   1      38.944  27.947  29.765  1.00  0.00     0.135 A 
ATOM     84  C   UNL A   1      39.602  28.862  27.660  1.00  0.00     0.135 A 
ATOM     85  F   UNL A   1      39.175  27.218  30.868  1.00  0.00    -0.206 F 
ATOM     86  C   UNL A   1      37.728  28.635  29.690  1.00  0.00     0.059 A 
ATOM     87  C   UNL A   1      38.391  29.542  27.553  1.00  0.00     0.059 A 
ATOM     88  F   UNL A   1      40.488  29.097  26.681  1.00  0.00    -0.206 F 
ATOM     89  C   UNL A   1      37.469  29.447  28.586  1.00  0.00     0.060 A 
BRANCH  89  90
ATOM     90  S   UNL A   1      35.989  30.484  28.569  1.00  0.00     0.124 S 
ATOM     91  O   UNL A   1      36.385  31.562  27.671  1.00  0.00    -0.237 OA
ATOM     92  O   UNL A   1      34.976  29.567  28.058  1.00  0.00    -0.237 OA
ATOM     93  O   UNL A   1      35.827  30.866  29.970  1.00  0.00    -0.744 OA
ENDBRANCH  89  90
ENDBRANCH  57  82
BRANCH  69  94
ATOM     94  C   UNL A   1      45.091  26.673  32.139  1.00  0.00     0.058 A 
ATOM     95  C   UNL A   1      44.930  26.885  33.520  1.00  0.00     0.135 A 
ATOM     96  C   UNL A   1      44.864  25.374  31.663  1.00  0.00     0.135 A 
ATOM     97  F   UNL A   1      45.011  28.116  34.043  1.00  0.00    -0.206 F 
ATOM     98  C   UNL A   1      44.618  25.844  34.395  1.00  0.00     0.059 A 
ATOM     99  C   UNL A   1      44.518  24.325  32.512  1.00  0.00     0.059 A 
ATOM    100  F   UNL A   1      44.932  25.118  30.346  1.00  0.00    -0.206 F 
ATOM    101  C   UNL A   1      44.416  24.563  33.881  1.00  0.00     0.060 A 
BRANCH 101 102
ATOM    102  S   UNL A   1      43.945  23.232  35.006  1.00  0.00     0.124 S 
ATOM    103  O   UNL A   1      44.493  22.058  34.336  1.00  0.00    -0.237 OA
ATOM    104  O   UNL A   1      44.604  23.616  36.252  1.00  0.00    -0.237 OA
ATOM    105  O   UNL A   1      42.486  23.311  35.035  1.00  0.00    -0.744 OA
ENDBRANCH 101 102
ENDBRANCH  69  94
ENDBRANCH  43  44
ENDBRANCH  36  38
ENDBRANCH  35  36
ENDBRANCH  34  35
ENDBRANCH  33  34
ENDBRANCH  32  33
ENDBRANCH   1  32
TORSDOF 23
ENDMDL
MODEL 2
REMARK VINA RESULT:     -11.3      4.566     10.747
REMARK SMILES Cc1nccn1C1(C(=O)OCCOCCOCCOC(=O)c2ccc(-c3c4nc(c(-c5c(F)cc(S(=O)(=O)[O-])cc5F)c5ccc([nH]5)c(-c5c(F)cc(S(=O)(=O)[O-])cc5F)c5nc(c(-c6c(F)cc(S(=O)(=O)[O-])cc6F)c6ccc3[nH]6)C=C5)C=C4)cc2)CCN(C(=O)[C@@H]2C[C@H]2c2ccccc2)CC1
REMARK SMILES IDX 15 1 14 2 13 3 12 4 11 5 10 6 8 7 9 8 7 9 88 10 103 11 89 12
REMARK SMILES IDX 102 13 90 14 91 15 92 16 6 17 1 18 2 19 3 20 4 21 5 22 93 23
REMARK SMILES IDX 94 24 95 25 96 26 97 27 101 28 98 29 100 30 99 31 16 32
REMARK SMILES IDX 17 33 18 34 19 35 20 36 21 37 22 38 23 39 87 40 24 41 86 42
REMARK SMILES IDX 25 43 26 44 27 45 80 46 28 47 85 48 79 49 81 50 29 51 84 52
REMARK SMILES IDX 78 53 77 54 30 56 64 57 43 58 63 59 44 60 47 61 62 62 82 63
REMARK SMILES IDX 45 64 46 65 61 67 83 68 48 69 31 70 32 71 41 72 33 73 34 74
REMARK SMILES IDX 40 75 42 76 35 77 36 78 37 79 38 80 39 81 65 82 66 83 75 84
REMARK SMILES IDX 67 85 68 86 74 87 76 88 69 89 70 90 71 91 72 92 73 93 49 94
REMARK SMILES IDX 50 95 59 96 51 97 52 98 58 99 60 100 53 101 54 102 55 103
REMARK SMILES IDX 56 104 57 105
REMARK H PARENT 81 55 47 66
REMARK Flexibility Score: inf
ROOT
ATOM      1  C   UNL A   1      34.547  32.120  28.427  1.00  0.00     0.188 C 
ENDROOT
BRANCH   1   2
ATOM      2  C   UNL A   1      35.132  30.903  27.704  1.00  0.00     0.188 C 
BRANCH   2   3
ATOM      3  O   UNL A   1      34.208  29.857  27.400  1.00  0.00    -0.376 OA
BRANCH   3   4
ATOM      4  C   UNL A   1      32.855  30.256  27.184  1.00  0.00     0.202 C 
BRANCH   4   5
ATOM      5  C   UNL A   1      31.822  29.115  27.105  1.00  0.00     0.261 C 
BRANCH   5   6
ATOM      6  O   UNL A   1      32.400  27.792  26.988  1.00  0.00    -0.461 OA
BRANCH   6   7
ATOM      7  C   UNL A   1      31.679  26.835  26.344  1.00  0.00     0.332 C 
ATOM      8  O   UNL A   1      30.751  26.235  26.886  1.00  0.00    -0.249 OA
BRANCH   7   9
ATOM      9  C   UNL A   1      32.130  26.552  24.850  1.00  0.00     0.146 C 
ATOM     10  C   UNL A   1      33.688  26.485  24.773  1.00  0.00     0.062 C 
ATOM     11  C   UNL A   1      31.490  25.156  24.620  1.00  0.00     0.062 C 
ATOM     12  C   UNL A   1      34.320  25.427  23.855  1.00  0.00     0.122 C 
ATOM     13  C   UNL A   1      32.109  24.431  23.454  1.00  0.00     0.122 C 
ATOM     14  N   UNL A   1      33.515  24.212  23.740  1.00  0.00    -0.342 N 
ATOM     15  C   UNL A   1      34.166  22.979  23.841  1.00  0.00     0.226 C 
ATOM     16  O   UNL A   1      35.383  22.891  23.686  1.00  0.00    -0.275 OA
BRANCH   9  17
ATOM     17  N   UNL A   1      31.515  27.550  23.913  1.00  0.00    -0.318 N 
ATOM     18  C   UNL A   1      33.456  28.993  22.842  1.00  0.00     0.087 C 
ATOM     19  C   UNL A   1      32.061  28.530  23.072  1.00  0.00     0.106 A 
ATOM     20  N   UNL A   1      31.112  29.123  22.368  1.00  0.00    -0.242 NA
ATOM     21  C   UNL A   1      29.937  28.566  22.723  1.00  0.00     0.131 A 
ATOM     22  C   UNL A   1      30.153  27.584  23.646  1.00  0.00     0.108 A 
ENDBRANCH   9  17
BRANCH  15  23
ATOM     23  C   UNL A   1      33.463  21.719  24.252  1.00  0.00     0.087 C 
ATOM     24  C   UNL A   1      33.166  21.405  25.696  1.00  0.00     0.023 C 
ATOM     25  C   UNL A   1      34.095  20.523  24.902  1.00  0.00     0.032 C 
BRANCH  25  26
ATOM     26  C   UNL A   1      33.807  19.094  24.578  1.00  0.00    -0.044 A 
ATOM     27  C   UNL A   1      34.865  18.171  24.540  1.00  0.00     0.004 A 
ATOM     28  C   UNL A   1      32.590  18.732  23.981  1.00  0.00     0.004 A 
ATOM     29  C   UNL A   1      34.746  16.971  23.844  1.00  0.00     0.000 A 
ATOM     30  C   UNL A   1      32.467  17.529  23.285  1.00  0.00     0.000 A 
ATOM     31  C   UNL A   1      33.554  16.662  23.195  1.00  0.00     0.000 A 
ENDBRANCH  25  26
ENDBRANCH  15  23
ENDBRANCH   7   9
ENDBRANCH   6   7
ENDBRANCH   5   6
ENDBRANCH   4   5
ENDBRANCH   3   4
ENDBRANCH   2   3
ENDBRANCH   1   2
BRANCH   1  32
ATOM     32  O   UNL A   1      35.278  33.313  28.156  1.00  0.00    -0.376 OA
BRANCH  32  33
ATOM     33  C   UNL A   1      35.170  34.438  29.026  1.00  0.00     0.202 C 
BRANCH  33  34
ATOM     34  C   UNL A   1      33.784  34.851  29.516  1.00  0.00     0.261 C 
BRANCH  34  35
ATOM     35  O   UNL A   1      33.375  34.282  30.755  1.00  0.00    -0.460 OA
BRANCH  35  36
ATOM     36  C   UNL A   1      33.555  34.952  31.921  1.00  0.00     0.338 C 
ATOM     37  O   UNL A   1      32.883  35.822  32.396  1.00  0.00    -0.246 OA
BRANCH  36  38
ATOM     38  C   UNL A   1      34.736  34.321  32.549  1.00  0.00     0.060 A 
ATOM     39  C   UNL A   1      35.782  35.150  32.944  1.00  0.00     0.016 A 
ATOM     40  C   UNL A   1      34.833  32.918  32.615  1.00  0.00     0.016 A 
ATOM     41  C   UNL A   1      37.016  34.572  33.152  1.00  0.00     0.010 A 
ATOM     42  C   UNL A   1      36.058  32.344  32.817  1.00  0.00     0.010 A 
ATOM     43  C   UNL A   1      37.145  33.193  32.969  1.00  0.00    -0.014 A 
BRANCH  43  44
ATOM     44  C   UNL A   1      38.464  32.646  32.757  1.00  0.00     0.031 A 
ATOM     45  C   UNL A   1      39.284  32.476  33.964  1.00  0.00     0.074 A 
ATOM     46  C   UNL A   1      38.813  32.199  31.535  1.00  0.00     0.049 A 
ATOM     47  N   UNL A   1      40.344  33.133  34.290  1.00  0.00    -0.248 NA
ATOM     48  C   UNL A   1      38.795  31.556  35.001  1.00  0.00     0.031 C 
ATOM     49  C   UNL A   1      37.951  32.026  30.360  1.00  0.00     0.029 A 
ATOM     50  N   UNL A   1      40.002  31.694  31.121  1.00  0.00    -0.354 N 
ATOM     51  C   UNL A   1      40.789  32.545  35.465  1.00  0.00     0.074 A 
ATOM     52  C   UNL A   1      39.699  31.746  35.962  1.00  0.00     0.031 C 
ATOM     53  C   UNL A   1      38.597  31.272  29.444  1.00  0.00     0.029 A 
ATOM     54  C   UNL A   1      39.944  31.004  29.919  1.00  0.00     0.049 A 
ATOM     55  H   UNL A   1      40.837  31.809  31.631  1.00  0.00     0.167 HD
ATOM     56  C   UNL A   1      42.108  32.539  35.797  1.00  0.00     0.037 A 
ATOM     57  C   UNL A   1      40.914  30.206  29.406  1.00  0.00     0.037 A 
ATOM     58  C   UNL A   1      42.858  33.493  35.020  1.00  0.00     0.049 A 
ATOM     59  C   UNL A   1      42.188  30.570  30.086  1.00  0.00     0.074 A 
ATOM     60  C   UNL A   1      42.770  34.857  34.819  1.00  0.00     0.029 A 
ATOM     61  N   UNL A   1      43.647  33.014  34.000  1.00  0.00    -0.354 N 
ATOM     62  N   UNL A   1      42.809  31.706  29.914  1.00  0.00    -0.248 NA
ATOM     63  C   UNL A   1      42.547  29.852  31.302  1.00  0.00     0.031 C 
ATOM     64  C   UNL A   1      43.120  35.061  33.452  1.00  0.00     0.029 A 
ATOM     65  C   UNL A   1      43.442  33.818  32.905  1.00  0.00     0.049 A 
ATOM     66  H   UNL A   1      44.250  32.237  34.046  1.00  0.00     0.167 HD
ATOM     67  C   UNL A   1      43.299  32.042  31.168  1.00  0.00     0.074 A 
ATOM     68  C   UNL A   1      43.205  30.815  31.954  1.00  0.00     0.031 C 
ATOM     69  C   UNL A   1      43.464  33.349  31.536  1.00  0.00     0.037 A 
BRANCH  56  70
ATOM     70  C   UNL A   1      42.762  31.420  36.564  1.00  0.00     0.058 A 
ATOM     71  C   UNL A   1      43.535  31.721  37.701  1.00  0.00     0.135 A 
ATOM     72  C   UNL A   1      42.873  30.097  36.079  1.00  0.00     0.135 A 
ATOM     73  F   UNL A   1      43.519  32.955  38.229  1.00  0.00    -0.206 F 
ATOM     74  C   UNL A   1      44.402  30.791  38.277  1.00  0.00     0.059 A 
ATOM     75  C   UNL A   1      43.678  29.137  36.677  1.00  0.00     0.059 A 
ATOM     76  F   UNL A   1      42.291  29.699  34.941  1.00  0.00    -0.206 F 
ATOM     77  C   UNL A   1      44.476  29.506  37.745  1.00  0.00     0.060 A 
BRANCH  77  78
ATOM     78  S   UNL A   1      45.684  28.343  38.397  1.00  0.00     0.124 S 
ATOM     79  O   UNL A   1      46.868  29.188  38.501  1.00  0.00    -0.237 OA
ATOM     80  O   UNL A   1      45.070  27.938  39.657  1.00  0.00    -0.237 OA
ATOM     81  O   UNL A   1      45.735  27.305  37.370  1.00  0.00    -0.744 OA
ENDBRANCH  77  78
ENDBRANCH  56  70
BRANCH  57  82
ATOM     82  C   UNL A   1      40.754  28.975  28.589  1.00  0.00     0.058 A 
ATOM     83  C   UNL A   1      41.550  28.749  27.452  1.00  0.00     0.135 A 
ATOM     84  C   UNL A   1      40.004  27.870  29.045  1.00  0.00     0.135 A 
ATOM     85  F   UNL A   1      42.316  29.735  26.958  1.00  0.00    -0.206 F 
ATOM     86  C   UNL A   1      41.634  27.497  26.835  1.00  0.00     0.059 A 
ATOM     87  C   UNL A   1      40.056  26.619  28.436  1.00  0.00     0.059 A 
ATOM     88  F   UNL A   1      39.263  27.943  30.161  1.00  0.00    -0.206 F 
ATOM     89  C   UNL A   1      40.896  26.431  27.347  1.00  0.00     0.060 A 
BRANCH  89  90
ATOM     90  S   UNL A   1      41.141  24.771  26.676  1.00  0.00     0.124 S 
ATOM     91  O   UNL A   1      41.856  24.109  27.760  1.00  0.00    -0.237 OA
ATOM     92  O   UNL A   1      39.770  24.325  26.449  1.00  0.00    -0.237 OA
ATOM     93  O   UNL A   1      41.922  25.008  25.465  1.00  0.00    -0.744 OA
ENDBRANCH  89  90
ENDBRANCH  57  82
BRANCH  69  94
ATOM     94  C   UNL A   1      43.407  34.396  30.452  1.00  0.00     0.058 A 
ATOM     95  C   UNL A   1      42.214  34.901  29.907  1.00  0.00     0.135 A 
ATOM     96  C   UNL A   1      44.603  35.003  30.042  1.00  0.00     0.135 A 
ATOM     97  F   UNL A   1      41.021  34.461  30.331  1.00  0.00    -0.206 F 
ATOM     98  C   UNL A   1      42.211  35.919  28.952  1.00  0.00     0.059 A 
ATOM     99  C   UNL A   1      44.623  36.044  29.116  1.00  0.00     0.059 A 
ATOM    100  F   UNL A   1      45.773  34.617  30.578  1.00  0.00    -0.206 F 
ATOM    101  C   UNL A   1      43.424  36.484  28.560  1.00  0.00     0.060 A 
BRANCH 101 102
ATOM    102  S   UNL A   1      43.413  37.848  27.377  1.00  0.00     0.124 S 
ATOM    103  O   UNL A   1      43.221  39.004  28.245  1.00  0.00    -0.237 OA
ATOM    104  O   UNL A   1      44.728  37.738  26.748  1.00  0.00    -0.237 OA
ATOM    105  O   UNL A   1      42.288  37.529  26.501  1.00  0.00    -0.744 OA
ENDBRANCH 101 102
ENDBRANCH  69  94
ENDBRANCH  43  44
ENDBRANCH  36  38
ENDBRANCH  35  36
ENDBRANCH  34  35
ENDBRANCH  33  34
ENDBRANCH  32  33
ENDBRANCH   1  32
TORSDOF 23
ENDMDL
MODEL 3
REMARK VINA RESULT:     -11.0      2.919      3.949
REMARK SMILES Cc1nccn1C1(C(=O)OCCOCCOCCOC(=O)c2ccc(-c3c4nc(c(-c5c(F)cc(S(=O)(=O)[O-])cc5F)c5ccc([nH]5)c(-c5c(F)cc(S(=O)(=O)[O-])cc5F)c5nc(c(-c6c(F)cc(S(=O)(=O)[O-])cc6F)c6ccc3[nH]6)C=C5)C=C4)cc2)CCN(C(=O)[C@@H]2C[C@H]2c2ccccc2)CC1
REMARK SMILES IDX 15 1 14 2 13 3 12 4 11 5 10 6 8 7 9 8 7 9 88 10 103 11 89 12
REMARK SMILES IDX 102 13 90 14 91 15 92 16 6 17 1 18 2 19 3 20 4 21 5 22 93 23
REMARK SMILES IDX 94 24 95 25 96 26 97 27 101 28 98 29 100 30 99 31 16 32
REMARK SMILES IDX 17 33 18 34 19 35 20 36 21 37 22 38 23 39 87 40 24 41 86 42
REMARK SMILES IDX 25 43 26 44 27 45 80 46 28 47 85 48 79 49 81 50 29 51 84 52
REMARK SMILES IDX 78 53 77 54 30 56 64 57 43 58 63 59 44 60 47 61 62 62 82 63
REMARK SMILES IDX 45 64 46 65 61 67 83 68 48 69 31 70 32 71 41 72 33 73 34 74
REMARK SMILES IDX 40 75 42 76 35 77 36 78 37 79 38 80 39 81 65 82 66 83 75 84
REMARK SMILES IDX 67 85 68 86 74 87 76 88 69 89 70 90 71 91 72 92 73 93 49 94
REMARK SMILES IDX 50 95 59 96 51 97 52 98 58 99 60 100 53 101 54 102 55 103
REMARK SMILES IDX 56 104 57 105
REMARK H PARENT 81 55 47 66
REMARK Flexibility Score: inf
ROOT
ATOM      1  C   UNL A   1      40.279  21.030  27.119  1.00  0.00     0.188 C 
ENDROOT
BRANCH   1   2
ATOM      2  C   UNL A   1      39.369  21.803  26.160  1.00  0.00     0.188 C 
BRANCH   2   3
ATOM      3  O   UNL A   1      38.499  21.008  25.352  1.00  0.00    -0.376 OA
BRANCH   3   4
ATOM      4  C   UNL A   1      37.272  21.621  24.958  1.00  0.00     0.202 C 
BRANCH   4   5
ATOM      5  C   UNL A   1      37.257  23.162  24.967  1.00  0.00     0.261 C 
BRANCH   5   6
ATOM      6  O   UNL A   1      35.934  23.747  25.045  1.00  0.00    -0.461 OA
BRANCH   6   7
ATOM      7  C   UNL A   1      35.009  23.356  24.128  1.00  0.00     0.332 C 
ATOM      8  O   UNL A   1      35.275  23.243  22.932  1.00  0.00    -0.249 OA
BRANCH   7   9
ATOM      9  C   UNL A   1      33.566  23.066  24.718  1.00  0.00     0.146 C 
ATOM     10  C   UNL A   1      33.431  23.720  26.129  1.00  0.00     0.062 C 
ATOM     11  C   UNL A   1      32.678  23.790  23.670  1.00  0.00     0.062 C 
ATOM     12  C   UNL A   1      32.092  24.380  26.494  1.00  0.00     0.122 C 
ATOM     13  C   UNL A   1      31.293  24.067  24.191  1.00  0.00     0.122 C 
ATOM     14  N   UNL A   1      31.399  24.949  25.340  1.00  0.00    -0.342 N 
ATOM     15  C   UNL A   1      30.851  26.228  25.466  1.00  0.00     0.226 C 
ATOM     16  O   UNL A   1      30.646  26.724  26.573  1.00  0.00    -0.275 OA
BRANCH   9  17
ATOM     17  N   UNL A   1      33.272  21.594  24.697  1.00  0.00    -0.318 N 
ATOM     18  C   UNL A   1      32.124  21.007  22.388  1.00  0.00     0.087 C 
ATOM     19  C   UNL A   1      32.707  20.749  23.732  1.00  0.00     0.106 A 
ATOM     20  N   UNL A   1      32.723  19.492  24.144  1.00  0.00    -0.242 NA
ATOM     21  C   UNL A   1      33.283  19.476  25.370  1.00  0.00     0.131 A 
ATOM     22  C   UNL A   1      33.653  20.741  25.725  1.00  0.00     0.108 A 
ENDBRANCH   9  17
BRANCH  15  23
ATOM     23  C   UNL A   1      30.588  27.121  24.288  1.00  0.00     0.087 C 
ATOM     24  C   UNL A   1      31.706  27.725  23.478  1.00  0.00     0.023 C 
ATOM     25  C   UNL A   1      30.761  28.611  24.249  1.00  0.00     0.032 C 
BRANCH  25  26
ATOM     26  C   UNL A   1      29.829  29.586  23.607  1.00  0.00    -0.044 A 
ATOM     27  C   UNL A   1      29.849  30.928  24.019  1.00  0.00     0.004 A 
ATOM     28  C   UNL A   1      28.722  29.134  22.875  1.00  0.00     0.004 A 
ATOM     29  C   UNL A   1      28.758  31.764  23.796  1.00  0.00     0.000 A 
ATOM     30  C   UNL A   1      27.628  29.969  22.648  1.00  0.00     0.000 A 
ATOM     31  C   UNL A   1      27.636  31.275  23.132  1.00  0.00     0.000 A 
ENDBRANCH  25  26
ENDBRANCH  15  23
ENDBRANCH   7   9
ENDBRANCH   6   7
ENDBRANCH   5   6
ENDBRANCH   4   5
ENDBRANCH   3   4
ENDBRANCH   2   3
ENDBRANCH   1   2
BRANCH   1  32
ATOM     32  O   UNL A   1      41.187  21.884  27.810  1.00  0.00    -0.376 OA
BRANCH  32  33
ATOM     33  C   UNL A   1      42.594  21.710  27.663  1.00  0.00     0.202 C 
BRANCH  33  34
ATOM     34  C   UNL A   1      43.501  22.930  27.810  1.00  0.00     0.261 C 
BRANCH  34  35
ATOM     35  O   UNL A   1      43.758  23.652  26.610  1.00  0.00    -0.460 OA
BRANCH  35  36
ATOM     36  C   UNL A   1      42.770  23.870  25.706  1.00  0.00     0.338 C 
ATOM     37  O   UNL A   1      42.428  23.181  24.789  1.00  0.00    -0.246 OA
BRANCH  36  38
ATOM     38  C   UNL A   1      42.122  25.128  26.140  1.00  0.00     0.060 A 
ATOM     39  C   UNL A   1      42.555  26.315  25.555  1.00  0.00     0.016 A 
ATOM     40  C   UNL A   1      41.197  25.115  27.200  1.00  0.00     0.016 A 
ATOM     41  C   UNL A   1      42.265  27.494  26.206  1.00  0.00     0.010 A 
ATOM     42  C   UNL A   1      40.913  26.284  27.851  1.00  0.00     0.010 A 
ATOM     43  C   UNL A   1      41.547  27.435  27.404  1.00  0.00    -0.014 A 
BRANCH  43  44
ATOM     44  C   UNL A   1      41.608  28.564  28.301  1.00  0.00     0.031 A 
ATOM     45  C   UNL A   1      42.766  29.452  28.129  1.00  0.00     0.074 A 
ATOM     46  C   UNL A   1      40.572  28.822  29.121  1.00  0.00     0.049 A 
ATOM     47  N   UNL A   1      43.757  29.614  28.938  1.00  0.00    -0.248 NA
ATOM     48  C   UNL A   1      42.911  30.147  26.842  1.00  0.00     0.031 C 
ATOM     49  C   UNL A   1      39.248  28.188  29.126  1.00  0.00     0.029 A 
ATOM     50  N   UNL A   1      40.449  29.796  30.059  1.00  0.00    -0.354 N 
ATOM     51  C   UNL A   1      44.534  30.611  28.366  1.00  0.00     0.074 A 
ATOM     52  C   UNL A   1      44.094  30.740  27.001  1.00  0.00     0.031 C 
ATOM     53  C   UNL A   1      38.404  28.930  29.876  1.00  0.00     0.029 A 
ATOM     54  C   UNL A   1      39.148  30.019  30.485  1.00  0.00     0.049 A 
ATOM     55  H   UNL A   1      41.219  30.301  30.407  1.00  0.00     0.167 HD
ATOM     56  C   UNL A   1      45.291  31.443  29.130  1.00  0.00     0.037 A 
ATOM     57  C   UNL A   1      38.716  31.076  31.219  1.00  0.00     0.037 A 
ATOM     58  C   UNL A   1      45.462  30.932  30.466  1.00  0.00     0.049 A 
ATOM     59  C   UNL A   1      39.913  31.674  31.873  1.00  0.00     0.074 A 
ATOM     60  C   UNL A   1      45.969  29.759  30.994  1.00  0.00     0.029 A 
ATOM     61  N   UNL A   1      44.733  31.513  31.477  1.00  0.00    -0.354 N 
ATOM     62  N   UNL A   1      40.595  31.092  32.821  1.00  0.00    -0.248 NA
ATOM     63  C   UNL A   1      40.622  32.735  31.169  1.00  0.00     0.031 C 
ATOM     64  C   UNL A   1      45.151  29.471  32.125  1.00  0.00     0.029 A 
ATOM     65  C   UNL A   1      44.220  30.502  32.252  1.00  0.00     0.049 A 
ATOM     66  H   UNL A   1      44.603  32.478  31.621  1.00  0.00     0.167 HD
ATOM     67  C   UNL A   1      41.921  31.405  32.556  1.00  0.00     0.074 A 
ATOM     68  C   UNL A   1      41.867  32.505  31.599  1.00  0.00     0.031 C 
ATOM     69  C   UNL A   1      42.933  30.557  32.913  1.00  0.00     0.037 A 
BRANCH  56  70
ATOM     70  C   UNL A   1      45.562  32.880  28.766  1.00  0.00     0.058 A 
ATOM     71  C   UNL A   1      46.890  33.344  28.732  1.00  0.00     0.135 A 
ATOM     72  C   UNL A   1      44.561  33.876  28.706  1.00  0.00     0.135 A 
ATOM     73  F   UNL A   1      47.917  32.482  28.807  1.00  0.00    -0.206 F 
ATOM     74  C   UNL A   1      47.200  34.704  28.702  1.00  0.00     0.059 A 
ATOM     75  C   UNL A   1      44.847  35.230  28.607  1.00  0.00     0.059 A 
ATOM     76  F   UNL A   1      43.260  33.595  28.846  1.00  0.00    -0.206 F 
ATOM     77  C   UNL A   1      46.168  35.639  28.655  1.00  0.00     0.060 A 
BRANCH  77  78
ATOM     78  S   UNL A   1      46.554  37.394  28.747  1.00  0.00     0.124 S 
ATOM     79  O   UNL A   1      46.310  37.812  27.371  1.00  0.00    -0.237 OA
ATOM     80  O   UNL A   1      45.596  37.866  29.742  1.00  0.00    -0.237 OA
ATOM     81  O   UNL A   1      47.950  37.407  29.175  1.00  0.00    -0.744 OA
ENDBRANCH  77  78
ENDBRANCH  56  70
BRANCH  57  82
ATOM     82  C   UNL A   1      37.398  31.760  31.157  1.00  0.00     0.058 A 
ATOM     83  C   UNL A   1      36.471  31.645  32.207  1.00  0.00     0.135 A 
ATOM     84  C   UNL A   1      37.118  32.750  30.191  1.00  0.00     0.135 A 
ATOM     85  F   UNL A   1      36.666  30.747  33.185  1.00  0.00    -0.206 F 
ATOM     86  C   UNL A   1      35.361  32.490  32.320  1.00  0.00     0.059 A 
ATOM     87  C   UNL A   1      36.009  33.590  30.272  1.00  0.00     0.059 A 
ATOM     88  F   UNL A   1      37.965  33.001  29.183  1.00  0.00    -0.206 F 
ATOM     89  C   UNL A   1      35.150  33.474  31.355  1.00  0.00     0.060 A 
BRANCH  89  90
ATOM     90  S   UNL A   1      33.831  34.688  31.591  1.00  0.00     0.124 S 
ATOM     91  O   UNL A   1      33.185  34.690  30.284  1.00  0.00    -0.237 OA
ATOM     92  O   UNL A   1      33.063  34.099  32.683  1.00  0.00    -0.237 OA
ATOM     93  O   UNL A   1      34.554  35.910  31.933  1.00  0.00    -0.744 OA
ENDBRANCH  89  90
ENDBRANCH  57  82
BRANCH  69  94
ATOM     94  C   UNL A   1      42.608  29.441  33.873  1.00  0.00     0.058 A 
ATOM     95  C   UNL A   1      42.051  28.208  33.489  1.00  0.00     0.135 A 
ATOM     96  C   UNL A   1      42.995  29.575  35.215  1.00  0.00     0.135 A 
ATOM     97  F   UNL A   1      41.764  27.951  32.206  1.00  0.00    -0.206 F 
ATOM     98  C   UNL A   1      41.831  27.180  34.407  1.00  0.00     0.059 A 
ATOM     99  C   UNL A   1      42.817  28.550  36.142  1.00  0.00     0.059 A 
ATOM    100  F   UNL A   1      43.599  30.701  35.631  1.00  0.00    -0.206 F 
ATOM    101  C   UNL A   1      42.215  27.362  35.734  1.00  0.00     0.060 A 
BRANCH 101 102
ATOM    102  S   UNL A   1      41.992  26.005  36.905  1.00  0.00     0.124 S 
ATOM    103  O   UNL A   1      42.788  26.450  38.043  1.00  0.00    -0.237 OA
ATOM    104  O   UNL A   1      40.546  25.991  37.109  1.00  0.00    -0.237 OA
ATOM    105  O   UNL A   1      42.521  24.847  36.187  1.00  0.00    -0.744 OA
ENDBRANCH 101 102
ENDBRANCH  69  94
ENDBRANCH  43  44
ENDBRANCH  36  38
ENDBRANCH  35  36
ENDBRANCH  34  35
ENDBRANCH  33  34
ENDBRANCH  32  33
ENDBRANCH   1  32
TORSDOF 23
ENDMDL
