MODEL 1
REMARK VINA RESULT:     -10.5      0.000      0.000
REMARK SMILES COc1cc(S(=O)(=O)Nc2cccc(C(=O)OCCOCCOCCOC(=O)c3ccc(-c4c5nc(c(-c6c(F)cc(S(=O)(=O)[O-])cc6F)c6ccc([nH]6)c(-c6c(F)cc(S(=O)(=O)[O-])cc6F)c6nc(c(-c7c(F)cc(S(=O)(=O)[O-])cc7F)c7ccc4[nH]7)C=C6)C=C5)cc3)c2)c(OC)cc1C
REMARK SMILES IDX 21 1 20 2 19 3 18 4 17 5 15 6 16 7 14 8 10 9 11 10 95 11
REMARK SMILES IDX 12 12 13 13 9 14 6 16 7 17 8 18 5 19 3 20 4 21 100 22 99 23
REMARK SMILES IDX 101 24 96 25 2 26 1 27 97 28 98 29 22 30 23 31 24 32 25 33
REMARK SMILES IDX 26 34 27 35 28 36 29 37 30 38 94 39 31 40 93 41 32 42 33 43
REMARK SMILES IDX 34 44 87 45 35 46 92 47 86 48 88 49 36 50 91 51 85 52 84 53
REMARK SMILES IDX 37 55 71 56 50 57 70 58 51 59 54 60 69 61 89 62 52 63 53 64
REMARK SMILES IDX 68 66 90 67 55 68 38 69 39 70 48 71 40 72 41 73 47 74 49 75
REMARK SMILES IDX 42 76 43 77 44 78 45 79 46 80 72 81 73 82 82 83 74 84 75 85
REMARK SMILES IDX 81 86 83 87 76 88 77 89 78 90 79 91 80 92 56 93 57 94 66 95
REMARK SMILES IDX 58 96 59 97 65 98 67 99 60 100 61 101 62 102 63 103 64 104
REMARK H PARENT 9 15 88 54 54 65
REMARK Flexibility Score: inf
ROOT
ATOM      1  C   UNL A   1      34.477  31.764  27.635  1.00  0.00     0.188 C 
ENDROOT
BRANCH   1   2
ATOM      2  O   UNL A   1      33.910  30.687  26.879  1.00  0.00    -0.376 OA
BRANCH   2   3
ATOM      3  C   UNL A   1      32.665  30.075  27.242  1.00  0.00     0.202 C 
BRANCH   3   4
ATOM      4  C   UNL A   1      31.732  29.198  26.248  1.00  0.00     0.261 C 
BRANCH   4   5
ATOM      5  O   UNL A   1      31.084  29.760  24.999  1.00  0.00    -0.460 OA
BRANCH   5   6
ATOM      6  C   UNL A   1      30.498  29.235  23.853  1.00  0.00     0.338 C 
ATOM      7  O   UNL A   1      29.827  29.955  23.123  1.00  0.00    -0.246 OA
BRANCH   6   8
ATOM      8  C   UNL A   1      30.682  27.566  23.474  1.00  0.00     0.062 A 
ATOM      9  C   UNL A   1      30.687  24.977  23.862  1.00  0.00     0.050 A 
ATOM     10  C   UNL A   1      31.410  24.832  22.708  1.00  0.00     0.027 A 
ATOM     11  C   UNL A   1      30.333  26.318  24.185  1.00  0.00     0.042 A 
ATOM     12  C   UNL A   1      31.777  25.986  21.971  1.00  0.00     0.003 A 
ATOM     13  C   UNL A   1      31.432  27.315  22.342  1.00  0.00     0.016 A 
BRANCH   9  14
ATOM     14  N   UNL A   1      30.220  23.894  24.715  1.00  0.00    -0.279 N 
ATOM     15  H   UNL A   1      29.318  23.556  24.509  1.00  0.00     0.180 HD
BRANCH  14  16
ATOM     16  S   UNL A   1      31.004  23.130  26.015  1.00  0.00     0.265 S 
ATOM     17  O   UNL A   1      30.283  21.915  26.337  1.00  0.00    -0.201 OA
ATOM     18  O   UNL A   1      31.194  24.152  27.029  1.00  0.00    -0.201 OA
BRANCH  16  19
ATOM     19  C   UNL A   1      32.643  22.622  25.543  1.00  0.00     0.133 A 
ATOM     20  C   UNL A   1      35.052  22.578  25.958  1.00  0.00     0.123 A 
ATOM     21  C   UNL A   1      33.780  23.138  26.202  1.00  0.00     0.073 A 
ATOM     22  C   UNL A   1      35.145  21.379  25.243  1.00  0.00    -0.005 A 
ATOM     23  C   UNL A   1      34.021  20.951  24.540  1.00  0.00     0.055 A 
ATOM     24  C   UNL A   1      36.381  20.548  25.082  1.00  0.00     0.048 C 
ATOM     25  C   UNL A   1      32.836  21.676  24.561  1.00  0.00     0.139 A 
BRANCH  20  26
ATOM     26  O   UNL A   1      36.138  23.229  26.490  1.00  0.00    -0.496 OA
ATOM     27  C   UNL A   1      36.913  23.945  25.514  1.00  0.00     0.278 C 
ENDBRANCH  20  26
BRANCH  25  28
ATOM     28  O   UNL A   1      31.929  21.542  23.554  1.00  0.00    -0.495 OA
ATOM     29  C   UNL A   1      32.190  20.381  22.759  1.00  0.00     0.278 C 
ENDBRANCH  25  28
ENDBRANCH  16  19
ENDBRANCH  14  16
ENDBRANCH   9  14
ENDBRANCH   6   8
ENDBRANCH   5   6
ENDBRANCH   4   5
ENDBRANCH   3   4
ENDBRANCH   2   3
ENDBRANCH   1   2
BRANCH   1  30
ATOM     30  C   UNL A   1      33.681  33.011  28.003  1.00  0.00     0.188 C 
BRANCH  30  31
ATOM     31  O   UNL A   1      34.360  34.162  27.526  1.00  0.00    -0.376 OA
BRANCH  31  32
ATOM     32  C   UNL A   1      34.334  35.310  28.350  1.00  0.00     0.202 C 
BRANCH  32  33
ATOM     33  C   UNL A   1      33.580  35.144  29.685  1.00  0.00     0.261 C 
BRANCH  33  34
ATOM     34  O   UNL A   1      34.460  35.027  30.838  1.00  0.00    -0.460 OA
BRANCH  34  35
ATOM     35  C   UNL A   1      34.808  33.764  31.307  1.00  0.00     0.338 C 
ATOM     36  O   UNL A   1      33.994  32.999  31.746  1.00  0.00    -0.246 OA
BRANCH  35  37
ATOM     37  C   UNL A   1      36.257  33.454  30.993  1.00  0.00     0.060 A 
ATOM     38  C   UNL A   1      36.897  33.362  29.748  1.00  0.00     0.016 A 
ATOM     39  C   UNL A   1      37.006  33.060  32.048  1.00  0.00     0.016 A 
ATOM     40  C   UNL A   1      38.204  32.708  29.583  1.00  0.00     0.010 A 
ATOM     41  C   UNL A   1      38.062  32.190  31.793  1.00  0.00     0.010 A 
ATOM     42  C   UNL A   1      38.850  32.032  30.632  1.00  0.00    -0.014 A 
BRANCH  42  43
ATOM     43  C   UNL A   1      40.208  31.091  30.613  1.00  0.00     0.031 A 
ATOM     44  C   UNL A   1      40.501  29.462  30.194  1.00  0.00     0.074 A 
ATOM     45  C   UNL A   1      41.361  31.789  30.702  1.00  0.00     0.049 A 
ATOM     46  N   UNL A   1      41.685  28.953  29.930  1.00  0.00    -0.248 NA
ATOM     47  C   UNL A   1      39.567  28.331  29.961  1.00  0.00     0.031 C 
ATOM     48  C   UNL A   1      42.695  31.412  30.244  1.00  0.00     0.029 A 
ATOM     49  N   UNL A   1      41.578  32.971  31.407  1.00  0.00    -0.354 N 
ATOM     50  C   UNL A   1      41.585  27.685  29.337  1.00  0.00     0.074 A 
ATOM     51  C   UNL A   1      40.204  27.421  29.231  1.00  0.00     0.031 C 
ATOM     52  C   UNL A   1      43.608  32.114  30.920  1.00  0.00     0.029 A 
ATOM     53  C   UNL A   1      42.890  32.890  31.901  1.00  0.00     0.049 A 
ATOM     54  H   UNL A   1      40.942  33.710  31.532  1.00  0.00     0.167 HD
ATOM     55  C   UNL A   1      42.653  26.881  29.067  1.00  0.00     0.037 A 
ATOM     56  C   UNL A   1      43.115  32.912  33.238  1.00  0.00     0.037 A 
ATOM     57  C   UNL A   1      43.799  27.410  29.766  1.00  0.00     0.049 A 
ATOM     58  C   UNL A   1      43.795  31.652  33.705  1.00  0.00     0.074 A 
ATOM     59  C   UNL A   1      44.793  28.302  29.422  1.00  0.00     0.029 A 
ATOM     60  N   UNL A   1      43.790  27.325  31.151  1.00  0.00    -0.354 N 
ATOM     61  N   UNL A   1      43.838  30.548  33.004  1.00  0.00    -0.248 NA
ATOM     62  C   UNL A   1      44.548  31.543  34.948  1.00  0.00     0.031 C 
ATOM     63  C   UNL A   1      45.307  28.844  30.632  1.00  0.00     0.029 A 
ATOM     64  C   UNL A   1      44.661  28.240  31.701  1.00  0.00     0.049 A 
ATOM     65  H   UNL A   1      43.237  26.697  31.670  1.00  0.00     0.167 HD
ATOM     66  C   UNL A   1      44.587  29.607  33.659  1.00  0.00     0.074 A 
ATOM     67  C   UNL A   1      45.012  30.282  34.870  1.00  0.00     0.031 C 
ATOM     68  C   UNL A   1      44.797  28.353  33.151  1.00  0.00     0.037 A 
BRANCH  55  69
ATOM     69  C   UNL A   1      42.687  25.675  28.119  1.00  0.00     0.058 A 
ATOM     70  C   UNL A   1      43.147  24.428  28.602  1.00  0.00     0.135 A 
ATOM     71  C   UNL A   1      42.377  25.666  26.739  1.00  0.00     0.135 A 
ATOM     72  F   UNL A   1      43.412  24.250  29.904  1.00  0.00    -0.206 F 
ATOM     73  C   UNL A   1      43.381  23.313  27.779  1.00  0.00     0.059 A 
ATOM     74  C   UNL A   1      42.659  24.585  25.883  1.00  0.00     0.059 A 
ATOM     75  F   UNL A   1      41.717  26.676  26.160  1.00  0.00    -0.206 F 
ATOM     76  C   UNL A   1      43.171  23.411  26.411  1.00  0.00     0.060 A 
BRANCH  76  77
ATOM     77  S   UNL A   1      43.571  22.003  25.348  1.00  0.00     0.124 S 
ATOM     78  O   UNL A   1      44.900  21.622  25.820  1.00  0.00    -0.237 OA
ATOM     79  O   UNL A   1      42.496  21.069  25.662  1.00  0.00    -0.237 OA
ATOM     80  O   UNL A   1      43.534  22.569  24.002  1.00  0.00    -0.744 OA
ENDBRANCH  76  77
ENDBRANCH  55  69
BRANCH  56  81
ATOM     81  C   UNL A   1      42.173  33.857  33.917  1.00  0.00     0.058 A 
ATOM     82  C   UNL A   1      41.133  33.231  34.649  1.00  0.00     0.135 A 
ATOM     83  C   UNL A   1      42.542  35.149  34.324  1.00  0.00     0.135 A 
ATOM     84  F   UNL A   1      40.747  31.985  34.326  1.00  0.00    -0.206 F 
ATOM     85  C   UNL A   1      40.627  33.766  35.829  1.00  0.00     0.059 A 
ATOM     86  C   UNL A   1      41.997  35.733  35.483  1.00  0.00     0.059 A 
ATOM     87  F   UNL A   1      43.552  35.787  33.714  1.00  0.00    -0.206 F 
ATOM     88  C   UNL A   1      41.109  34.992  36.270  1.00  0.00     0.060 A 
BRANCH  88  89
ATOM     89  S   UNL A   1      40.683  35.486  37.961  1.00  0.00     0.124 S 
ATOM     90  O   UNL A   1      41.994  35.623  38.585  1.00  0.00    -0.237 OA
ATOM     91  O   UNL A   1      39.967  36.739  37.725  1.00  0.00    -0.237 OA
ATOM     92  O   UNL A   1      39.874  34.371  38.439  1.00  0.00    -0.744 OA
ENDBRANCH  88  89
ENDBRANCH  56  81
BRANCH  68  93
ATOM     93  C   UNL A   1      45.204  27.134  33.961  1.00  0.00     0.058 A 
ATOM     94  C   UNL A   1      46.486  26.559  33.917  1.00  0.00     0.135 A 
ATOM     95  C   UNL A   1      44.345  26.599  34.959  1.00  0.00     0.135 A 
ATOM     96  F   UNL A   1      47.446  27.040  33.117  1.00  0.00    -0.206 F 
ATOM     97  C   UNL A   1      46.863  25.492  34.732  1.00  0.00     0.059 A 
ATOM     98  C   UNL A   1      44.729  25.588  35.837  1.00  0.00     0.059 A 
ATOM     99  F   UNL A   1      43.098  27.059  35.140  1.00  0.00    -0.206 F 
ATOM    100  C   UNL A   1      45.978  25.011  35.690  1.00  0.00     0.060 A 
BRANCH 100 101
ATOM    101  S   UNL A   1      46.476  23.654  36.759  1.00  0.00     0.124 S 
ATOM    102  O   UNL A   1      45.298  22.795  36.697  1.00  0.00    -0.237 OA
ATOM    103  O   UNL A   1      47.670  23.140  36.093  1.00  0.00    -0.237 OA
ATOM    104  O   UNL A   1      46.718  24.309  38.041  1.00  0.00    -0.744 OA
ENDBRANCH 100 101
ENDBRANCH  68  93
ENDBRANCH  42  43
ENDBRANCH  35  37
ENDBRANCH  34  35
ENDBRANCH  33  34
ENDBRANCH  32  33
ENDBRANCH  31  32
ENDBRANCH  30  31
ENDBRANCH   1  30
TORSDOF 25
ENDMDL
MODEL 2
REMARK VINA RESULT:      -9.1      1.277      2.101
REMARK SMILES COc1cc(S(=O)(=O)Nc2cccc(C(=O)OCCOCCOCCOC(=O)c3ccc(-c4c5nc(c(-c6c(F)cc(S(=O)(=O)[O-])cc6F)c6ccc([nH]6)c(-c6c(F)cc(S(=O)(=O)[O-])cc6F)c6nc(c(-c7c(F)cc(S(=O)(=O)[O-])cc7F)c7ccc4[nH]7)C=C6)C=C5)cc3)c2)c(OC)cc1C
REMARK SMILES IDX 21 1 20 2 19 3 18 4 17 5 15 6 16 7 14 8 10 9 11 10 95 11
REMARK SMILES IDX 12 12 13 13 9 14 6 16 7 17 8 18 5 19 3 20 4 21 100 22 99 23
REMARK SMILES IDX 101 24 96 25 2 26 1 27 97 28 98 29 22 30 23 31 24 32 25 33
REMARK SMILES IDX 26 34 27 35 28 36 29 37 30 38 94 39 31 40 93 41 32 42 33 43
REMARK SMILES IDX 34 44 87 45 35 46 92 47 86 48 88 49 36 50 91 51 85 52 84 53
REMARK SMILES IDX 37 55 71 56 50 57 70 58 51 59 54 60 69 61 89 62 52 63 53 64
REMARK SMILES IDX 68 66 90 67 55 68 38 69 39 70 48 71 40 72 41 73 47 74 49 75
REMARK SMILES IDX 42 76 43 77 44 78 45 79 46 80 72 81 73 82 82 83 74 84 75 85
REMARK SMILES IDX 81 86 83 87 76 88 77 89 78 90 79 91 80 92 56 93 57 94 66 95
REMARK SMILES IDX 58 96 59 97 65 98 67 99 60 100 61 101 62 102 63 103 64 104
REMARK H PARENT 9 15 88 54 54 65
REMARK Flexibility Score: inf
ROOT
ATOM      1  C   UNL A   1      35.190  30.645  28.123  1.00  0.00     0.188 C 
ENDROOT
BRANCH   1   2
ATOM      2  O   UNL A   1      34.724  29.419  27.544  1.00  0.00    -0.376 OA
BRANCH   2   3
ATOM      3  C   UNL A   1      33.336  29.061  27.538  1.00  0.00     0.202 C 
BRANCH   3   4
ATOM      4  C   UNL A   1      32.346  29.187  26.259  1.00  0.00     0.261 C 
BRANCH   4   5
ATOM      5  O   UNL A   1      32.839  29.304  24.831  1.00  0.00    -0.460 OA
BRANCH   5   6
ATOM      6  C   UNL A   1      32.402  28.873  23.583  1.00  0.00     0.338 C 
ATOM      7  O   UNL A   1      32.390  29.650  22.636  1.00  0.00    -0.246 OA
BRANCH   6   8
ATOM      8  C   UNL A   1      31.844  27.258  23.373  1.00  0.00     0.062 A 
ATOM      9  C   UNL A   1      31.006  24.874  24.053  1.00  0.00     0.050 A 
ATOM     10  C   UNL A   1      31.266  24.447  22.778  1.00  0.00     0.027 A 
ATOM     11  C   UNL A   1      31.278  26.251  24.293  1.00  0.00     0.042 A 
ATOM     12  C   UNL A   1      31.807  25.361  21.839  1.00  0.00     0.003 A 
ATOM     13  C   UNL A   1      32.095  26.724  22.124  1.00  0.00     0.016 A 
BRANCH   9  14
ATOM     14  N   UNL A   1      30.436  24.065  25.121  1.00  0.00    -0.279 N 
ATOM     15  H   UNL A   1      29.469  24.185  25.269  1.00  0.00     0.180 HD
BRANCH  14  16
ATOM     16  S   UNL A   1      31.196  22.947  26.150  1.00  0.00     0.265 S 
ATOM     17  O   UNL A   1      30.565  21.654  25.970  1.00  0.00    -0.201 OA
ATOM     18  O   UNL A   1      31.226  23.563  27.465  1.00  0.00    -0.201 OA
BRANCH  16  19
ATOM     19  C   UNL A   1      32.902  22.733  25.689  1.00  0.00     0.133 A 
ATOM     20  C   UNL A   1      34.707  21.324  24.835  1.00  0.00     0.123 A 
ATOM     21  C   UNL A   1      33.417  21.453  25.391  1.00  0.00     0.073 A 
ATOM     22  C   UNL A   1      35.371  22.467  24.375  1.00  0.00    -0.005 A 
ATOM     23  C   UNL A   1      34.873  23.709  24.763  1.00  0.00     0.055 A 
ATOM     24  C   UNL A   1      36.636  22.483  23.574  1.00  0.00     0.048 C 
ATOM     25  C   UNL A   1      33.742  23.816  25.563  1.00  0.00     0.139 A 
BRANCH  20  26
ATOM     26  O   UNL A   1      35.222  20.055  24.729  1.00  0.00    -0.496 OA
ATOM     27  C   UNL A   1      36.634  19.985  24.985  1.00  0.00     0.278 C 
ENDBRANCH  20  26
BRANCH  25  28
ATOM     28  O   UNL A   1      33.531  24.935  26.310  1.00  0.00    -0.495 OA
ATOM     29  C   UNL A   1      34.311  26.039  25.840  1.00  0.00     0.278 C 
ENDBRANCH  25  28
ENDBRANCH  16  19
ENDBRANCH  14  16
ENDBRANCH   9  14
ENDBRANCH   6   8
ENDBRANCH   5   6
ENDBRANCH   4   5
ENDBRANCH   3   4
ENDBRANCH   2   3
ENDBRANCH   1   2
BRANCH   1  30
ATOM     30  C   UNL A   1      34.295  31.872  28.268  1.00  0.00     0.188 C 
BRANCH  30  31
ATOM     31  O   UNL A   1      34.924  32.987  27.658  1.00  0.00    -0.376 OA
BRANCH  31  32
ATOM     32  C   UNL A   1      34.780  34.237  28.303  1.00  0.00     0.202 C 
BRANCH  32  33
ATOM     33  C   UNL A   1      33.932  34.218  29.591  1.00  0.00     0.261 C 
BRANCH  33  34
ATOM     34  O   UNL A   1      34.716  34.392  30.804  1.00  0.00    -0.460 OA
BRANCH  34  35
ATOM     35  C   UNL A   1      35.052  33.278  31.567  1.00  0.00     0.338 C 
ATOM     36  O   UNL A   1      34.220  32.556  32.045  1.00  0.00    -0.246 OA
BRANCH  35  37
ATOM     37  C   UNL A   1      36.544  33.022  31.516  1.00  0.00     0.060 A 
ATOM     38  C   UNL A   1      37.450  33.247  30.469  1.00  0.00     0.016 A 
ATOM     39  C   UNL A   1      37.049  32.339  32.569  1.00  0.00     0.016 A 
ATOM     40  C   UNL A   1      38.782  32.624  30.435  1.00  0.00     0.010 A 
ATOM     41  C   UNL A   1      38.165  31.539  32.336  1.00  0.00     0.010 A 
ATOM     42  C   UNL A   1      39.198  31.674  31.383  1.00  0.00    -0.014 A 
BRANCH  42  43
ATOM     43  C   UNL A   1      40.556  30.734  31.420  1.00  0.00     0.031 A 
ATOM     44  C   UNL A   1      40.916  29.169  30.842  1.00  0.00     0.074 A 
ATOM     45  C   UNL A   1      41.682  31.408  31.744  1.00  0.00     0.049 A 
ATOM     46  N   UNL A   1      42.129  28.689  30.670  1.00  0.00    -0.248 NA
ATOM     47  C   UNL A   1      40.031  28.082  30.352  1.00  0.00     0.031 C 
ATOM     48  C   UNL A   1      43.067  31.082  31.416  1.00  0.00     0.029 A 
ATOM     49  N   UNL A   1      41.796  32.491  32.613  1.00  0.00    -0.354 N 
ATOM     50  C   UNL A   1      42.118  27.506  29.916  1.00  0.00     0.074 A 
ATOM     51  C   UNL A   1      40.765  27.267  29.601  1.00  0.00     0.031 C 
ATOM     52  C   UNL A   1      43.879  31.688  32.287  1.00  0.00     0.029 A 
ATOM     53  C   UNL A   1      43.034  32.340  33.257  1.00  0.00     0.049 A 
ATOM     54  H   UNL A   1      41.142  33.212  32.747  1.00  0.00     0.167 HD
ATOM     55  C   UNL A   1      43.219  26.735  29.686  1.00  0.00     0.037 A 
ATOM     56  C   UNL A   1      43.086  32.193  34.604  1.00  0.00     0.037 A 
ATOM     57  C   UNL A   1      44.261  27.165  30.587  1.00  0.00     0.049 A 
ATOM     58  C   UNL A   1      43.713  30.880  34.993  1.00  0.00     0.074 A 
ATOM     59  C   UNL A   1      45.282  28.086  30.487  1.00  0.00     0.029 A 
ATOM     60  N   UNL A   1      44.076  26.907  31.938  1.00  0.00    -0.354 N 
ATOM     61  N   UNL A   1      43.856  29.871  34.170  1.00  0.00    -0.248 NA
ATOM     62  C   UNL A   1      44.301  30.610  36.299  1.00  0.00     0.031 C 
ATOM     63  C   UNL A   1      45.632  28.469  31.811  1.00  0.00     0.029 A 
ATOM     64  C   UNL A   1      44.861  27.740  32.705  1.00  0.00     0.049 A 
ATOM     65  H   UNL A   1      43.467  26.223  32.298  1.00  0.00     0.167 HD
ATOM     66  C   UNL A   1      44.523  28.851  34.792  1.00  0.00     0.074 A 
ATOM     67  C   UNL A   1      44.784  29.366  36.123  1.00  0.00     0.031 C 
ATOM     68  C   UNL A   1      44.809  27.670  34.163  1.00  0.00     0.037 A 
BRANCH  55  69
ATOM     69  C   UNL A   1      43.386  25.658  28.606  1.00  0.00     0.058 A 
ATOM     70  C   UNL A   1      42.923  25.917  27.294  1.00  0.00     0.135 A 
ATOM     71  C   UNL A   1      43.894  24.349  28.777  1.00  0.00     0.135 A 
ATOM     72  F   UNL A   1      42.480  27.135  26.948  1.00  0.00    -0.206 F 
ATOM     73  C   UNL A   1      42.869  24.944  26.283  1.00  0.00     0.059 A 
ATOM     74  C   UNL A   1      43.795  23.340  27.801  1.00  0.00     0.059 A 
ATOM     75  F   UNL A   1      44.579  23.999  29.871  1.00  0.00    -0.206 F 
ATOM     76  C   UNL A   1      43.272  23.644  26.555  1.00  0.00     0.060 A 
BRANCH  76  77
ATOM     77  S   UNL A   1      43.103  22.375  25.277  1.00  0.00     0.124 S 
ATOM     78  O   UNL A   1      44.122  21.404  25.662  1.00  0.00    -0.237 OA
ATOM     79  O   UNL A   1      41.720  21.948  25.455  1.00  0.00    -0.237 OA
ATOM     80  O   UNL A   1      43.379  23.099  24.038  1.00  0.00    -0.744 OA
ENDBRANCH  76  77
ENDBRANCH  55  69
BRANCH  56  81
ATOM     81  C   UNL A   1      42.056  33.051  35.269  1.00  0.00     0.058 A 
ATOM     82  C   UNL A   1      40.910  32.353  35.728  1.00  0.00     0.135 A 
ATOM     83  C   UNL A   1      42.365  34.254  35.924  1.00  0.00     0.135 A 
ATOM     84  F   UNL A   1      40.572  31.183  35.160  1.00  0.00    -0.206 F 
ATOM     85  C   UNL A   1      40.230  32.717  36.886  1.00  0.00     0.059 A 
ATOM     86  C   UNL A   1      41.650  34.670  37.063  1.00  0.00     0.059 A 
ATOM     87  F   UNL A   1      43.461  34.946  35.581  1.00  0.00    -0.206 F 
ATOM     88  C   UNL A   1      40.646  33.846  37.579  1.00  0.00     0.060 A 
BRANCH  88  89
ATOM     89  S   UNL A   1      39.965  34.088  39.242  1.00  0.00     0.124 S 
ATOM     90  O   UNL A   1      38.552  34.321  38.969  1.00  0.00    -0.237 OA
ATOM     91  O   UNL A   1      40.279  32.806  39.872  1.00  0.00    -0.237 OA
ATOM     92  O   UNL A   1      40.707  35.240  39.741  1.00  0.00    -0.744 OA
ENDBRANCH  88  89
ENDBRANCH  56  81
BRANCH  68  93
ATOM     93  C   UNL A   1      45.120  26.355  34.859  1.00  0.00     0.058 A 
ATOM     94  C   UNL A   1      44.136  25.450  35.294  1.00  0.00     0.135 A 
ATOM     95  C   UNL A   1      46.455  25.878  34.956  1.00  0.00     0.135 A 
ATOM     96  F   UNL A   1      42.830  25.706  35.149  1.00  0.00    -0.206 F 
ATOM     97  C   UNL A   1      44.446  24.210  35.854  1.00  0.00     0.059 A 
ATOM     98  C   UNL A   1      46.781  24.612  35.437  1.00  0.00     0.059 A 
ATOM     99  F   UNL A   1      47.501  26.617  34.560  1.00  0.00    -0.206 F 
ATOM    100  C   UNL A   1      45.772  23.799  35.923  1.00  0.00     0.060 A 
BRANCH 100 101
ATOM    101  S   UNL A   1      46.168  22.189  36.619  1.00  0.00     0.124 S 
ATOM    102  O   UNL A   1      47.486  21.945  36.043  1.00  0.00    -0.237 OA
ATOM    103  O   UNL A   1      46.144  22.445  38.057  1.00  0.00    -0.237 OA
ATOM    104  O   UNL A   1      45.090  21.337  36.126  1.00  0.00    -0.744 OA
ENDBRANCH 100 101
ENDBRANCH  68  93
ENDBRANCH  42  43
ENDBRANCH  35  37
ENDBRANCH  34  35
ENDBRANCH  33  34
ENDBRANCH  32  33
ENDBRANCH  31  32
ENDBRANCH  30  31
ENDBRANCH   1  30
TORSDOF 25
ENDMDL
MODEL 3
REMARK VINA RESULT:      -8.7      9.303     14.474
REMARK SMILES COc1cc(S(=O)(=O)Nc2cccc(C(=O)OCCOCCOCCOC(=O)c3ccc(-c4c5nc(c(-c6c(F)cc(S(=O)(=O)[O-])cc6F)c6ccc([nH]6)c(-c6c(F)cc(S(=O)(=O)[O-])cc6F)c6nc(c(-c7c(F)cc(S(=O)(=O)[O-])cc7F)c7ccc4[nH]7)C=C6)C=C5)cc3)c2)c(OC)cc1C
REMARK SMILES IDX 21 1 20 2 19 3 18 4 17 5 15 6 16 7 14 8 10 9 11 10 95 11
REMARK SMILES IDX 12 12 13 13 9 14 6 16 7 17 8 18 5 19 3 20 4 21 100 22 99 23
REMARK SMILES IDX 101 24 96 25 2 26 1 27 97 28 98 29 22 30 23 31 24 32 25 33
REMARK SMILES IDX 26 34 27 35 28 36 29 37 30 38 94 39 31 40 93 41 32 42 33 43
REMARK SMILES IDX 34 44 87 45 35 46 92 47 86 48 88 49 36 50 91 51 85 52 84 53
REMARK SMILES IDX 37 55 71 56 50 57 70 58 51 59 54 60 69 61 89 62 52 63 53 64
REMARK SMILES IDX 68 66 90 67 55 68 38 69 39 70 48 71 40 72 41 73 47 74 49 75
REMARK SMILES IDX 42 76 43 77 44 78 45 79 46 80 72 81 73 82 82 83 74 84 75 85
REMARK SMILES IDX 81 86 83 87 76 88 77 89 78 90 79 91 80 92 56 93 57 94 66 95
REMARK SMILES IDX 58 96 59 97 65 98 67 99 60 100 61 101 62 102 63 103 64 104
REMARK H PARENT 9 15 88 54 54 65
REMARK Flexibility Score: inf
ROOT
ATOM      1  C   UNL A   1      46.045  43.639  27.070  1.00  0.00     0.188 C 
ENDROOT
BRANCH   1   2
ATOM      2  O   UNL A   1      46.995  44.278  26.209  1.00  0.00    -0.376 OA
BRANCH   2   3
ATOM      3  C   UNL A   1      48.101  45.033  26.724  1.00  0.00     0.202 C 
BRANCH   3   4
ATOM      4  C   UNL A   1      49.650  44.555  26.695  1.00  0.00     0.261 C 
BRANCH   4   5
ATOM      5  O   UNL A   1      50.669  45.086  25.708  1.00  0.00    -0.460 OA
BRANCH   5   6
ATOM      6  C   UNL A   1      50.656  45.967  24.632  1.00  0.00     0.338 C 
ATOM      7  O   UNL A   1      51.504  46.847  24.550  1.00  0.00    -0.246 OA
BRANCH   6   8
ATOM      8  C   UNL A   1      49.428  45.847  23.432  1.00  0.00     0.062 A 
ATOM      9  C   UNL A   1      47.898  44.721  21.631  1.00  0.00     0.050 A 
ATOM     10  C   UNL A   1      47.558  45.968  21.178  1.00  0.00     0.027 A 
ATOM     11  C   UNL A   1      48.789  44.708  22.742  1.00  0.00     0.042 A 
ATOM     12  C   UNL A   1      48.130  47.109  21.796  1.00  0.00     0.003 A 
ATOM     13  C   UNL A   1      49.042  47.055  22.885  1.00  0.00     0.016 A 
BRANCH   9  14
ATOM     14  N   UNL A   1      47.384  43.460  21.117  1.00  0.00    -0.279 N 
ATOM     15  H   UNL A   1      47.879  43.084  20.352  1.00  0.00     0.180 HD
BRANCH  14  16
ATOM     16  S   UNL A   1      46.054  42.543  21.645  1.00  0.00     0.265 S 
ATOM     17  O   UNL A   1      45.937  42.688  23.083  1.00  0.00    -0.201 OA
ATOM     18  O   UNL A   1      46.216  41.223  21.060  1.00  0.00    -0.201 OA
BRANCH  16  19
ATOM     19  C   UNL A   1      44.542  43.183  20.959  1.00  0.00     0.133 A 
ATOM     20  C   UNL A   1      43.379  44.582  19.327  1.00  0.00     0.123 A 
ATOM     21  C   UNL A   1      44.562  44.226  20.008  1.00  0.00     0.073 A 
ATOM     22  C   UNL A   1      42.255  43.755  19.432  1.00  0.00    -0.005 A 
ATOM     23  C   UNL A   1      42.246  42.793  20.439  1.00  0.00     0.055 A 
ATOM     24  C   UNL A   1      41.004  43.869  18.615  1.00  0.00     0.048 C 
ATOM     25  C   UNL A   1      43.324  42.640  21.302  1.00  0.00     0.139 A 
BRANCH  20  26
ATOM     26  O   UNL A   1      43.419  45.712  18.547  1.00  0.00    -0.496 OA
ATOM     27  C   UNL A   1      44.212  45.560  17.357  1.00  0.00     0.278 C 
ENDBRANCH  20  26
BRANCH  25  28
ATOM     28  O   UNL A   1      43.151  42.067  22.525  1.00  0.00    -0.495 OA
ATOM     29  C   UNL A   1      42.400  42.912  23.402  1.00  0.00     0.278 C 
ENDBRANCH  25  28
ENDBRANCH  16  19
ENDBRANCH  14  16
ENDBRANCH   9  14
ENDBRANCH   6   8
ENDBRANCH   5   6
ENDBRANCH   4   5
ENDBRANCH   3   4
ENDBRANCH   2   3
ENDBRANCH   1   2
BRANCH   1  30
ATOM     30  C   UNL A   1      44.902  42.784  26.533  1.00  0.00     0.188 C 
BRANCH  30  31
ATOM     31  O   UNL A   1      44.666  41.702  27.420  1.00  0.00    -0.376 OA
BRANCH  31  32
ATOM     32  C   UNL A   1      44.394  40.442  26.837  1.00  0.00     0.202 C 
BRANCH  32  33
ATOM     33  C   UNL A   1      42.972  40.276  26.266  1.00  0.00     0.261 C 
BRANCH  33  34
ATOM     34  O   UNL A   1      41.957  40.062  27.287  1.00  0.00    -0.460 OA
BRANCH  34  35
ATOM     35  C   UNL A   1      42.276  39.325  28.423  1.00  0.00     0.338 C 
ATOM     36  O   UNL A   1      42.191  39.785  29.529  1.00  0.00    -0.246 OA
BRANCH  35  37
ATOM     37  C   UNL A   1      42.525  37.872  28.070  1.00  0.00     0.060 A 
ATOM     38  C   UNL A   1      41.641  36.925  27.531  1.00  0.00     0.016 A 
ATOM     39  C   UNL A   1      43.717  37.376  28.470  1.00  0.00     0.016 A 
ATOM     40  C   UNL A   1      41.915  35.481  27.578  1.00  0.00     0.010 A 
ATOM     41  C   UNL A   1      43.776  36.017  28.769  1.00  0.00     0.010 A 
ATOM     42  C   UNL A   1      43.018  34.941  28.261  1.00  0.00    -0.014 A 
BRANCH  42  43
ATOM     43  C   UNL A   1      43.400  33.366  28.586  1.00  0.00     0.031 A 
ATOM     44  C   UNL A   1      44.357  32.201  27.785  1.00  0.00     0.074 A 
ATOM     45  C   UNL A   1      43.116  32.981  29.849  1.00  0.00     0.049 A 
ATOM     46  N   UNL A   1      44.817  31.097  28.333  1.00  0.00    -0.248 NA
ATOM     47  C   UNL A   1      44.931  32.185  26.415  1.00  0.00     0.031 C 
ATOM     48  C   UNL A   1      43.718  31.908  30.635  1.00  0.00     0.029 A 
ATOM     49  N   UNL A   1      42.058  33.417  30.645  1.00  0.00    -0.354 N 
ATOM     50  C   UNL A   1      45.802  30.494  27.537  1.00  0.00     0.074 A 
ATOM     51  C   UNL A   1      45.947  31.328  26.410  1.00  0.00     0.031 C 
ATOM     52  C   UNL A   1      42.873  31.543  31.603  1.00  0.00     0.029 A 
ATOM     53  C   UNL A   1      41.663  32.304  31.405  1.00  0.00     0.049 A 
ATOM     54  H   UNL A   1      41.668  34.319  30.669  1.00  0.00     0.167 HD
ATOM     55  C   UNL A   1      46.364  29.280  27.805  1.00  0.00     0.037 A 
ATOM     56  C   UNL A   1      40.407  31.809  31.284  1.00  0.00     0.037 A 
ATOM     57  C   UNL A   1      45.564  28.631  28.815  1.00  0.00     0.049 A 
ATOM     58  C   UNL A   1      40.418  30.380  30.809  1.00  0.00     0.074 A 
ATOM     59  C   UNL A   1      45.616  28.599  30.192  1.00  0.00     0.029 A 
ATOM     60  N   UNL A   1      44.291  28.219  28.446  1.00  0.00    -0.354 N 
ATOM     61  N   UNL A   1      41.455  29.810  30.248  1.00  0.00    -0.248 NA
ATOM     62  C   UNL A   1      39.312  29.450  30.991  1.00  0.00     0.031 C 
ATOM     63  C   UNL A   1      44.311  28.273  30.654  1.00  0.00     0.029 A 
ATOM     64  C   UNL A   1      43.491  28.056  29.556  1.00  0.00     0.049 A 
ATOM     65  H   UNL A   1      44.000  28.066  27.519  1.00  0.00     0.167 HD
ATOM     66  C   UNL A   1      41.184  28.492  29.995  1.00  0.00     0.074 A 
ATOM     67  C   UNL A   1      39.830  28.316  30.484  1.00  0.00     0.031 C 
ATOM     68  C   UNL A   1      42.094  27.655  29.409  1.00  0.00     0.037 A 
BRANCH  55  69
ATOM     69  C   UNL A   1      47.667  28.715  27.224  1.00  0.00     0.058 A 
ATOM     70  C   UNL A   1      48.903  29.281  27.618  1.00  0.00     0.135 A 
ATOM     71  C   UNL A   1      47.797  27.708  26.240  1.00  0.00     0.135 A 
ATOM     72  F   UNL A   1      48.959  30.197  28.596  1.00  0.00    -0.206 F 
ATOM     73  C   UNL A   1      50.132  28.958  27.020  1.00  0.00     0.059 A 
ATOM     74  C   UNL A   1      49.004  27.409  25.583  1.00  0.00     0.059 A 
ATOM     75  F   UNL A   1      46.774  26.907  25.915  1.00  0.00    -0.206 F 
ATOM     76  C   UNL A   1      50.171  28.047  25.974  1.00  0.00     0.060 A 
BRANCH  76  77
ATOM     77  S   UNL A   1      51.743  27.714  25.143  1.00  0.00     0.124 S 
ATOM     78  O   UNL A   1      51.622  26.301  24.798  1.00  0.00    -0.237 OA
ATOM     79  O   UNL A   1      51.697  28.647  24.023  1.00  0.00    -0.237 OA
ATOM     80  O   UNL A   1      52.741  28.015  26.167  1.00  0.00    -0.744 OA
ENDBRANCH  76  77
ENDBRANCH  55  69
BRANCH  56  81
ATOM     81  C   UNL A   1      39.417  32.918  31.109  1.00  0.00     0.058 A 
ATOM     82  C   UNL A   1      38.547  32.766  30.001  1.00  0.00     0.135 A 
ATOM     83  C   UNL A   1      38.950  33.706  32.173  1.00  0.00     0.135 A 
ATOM     84  F   UNL A   1      38.923  32.005  28.958  1.00  0.00    -0.206 F 
ATOM     85  C   UNL A   1      37.224  33.198  30.027  1.00  0.00     0.059 A 
ATOM     86  C   UNL A   1      37.634  34.203  32.192  1.00  0.00     0.059 A 
ATOM     87  F   UNL A   1      39.695  33.857  33.279  1.00  0.00    -0.206 F 
ATOM     88  C   UNL A   1      36.760  33.865  31.153  1.00  0.00     0.060 A 
BRANCH  88  89
ATOM     89  S   UNL A   1      34.969  34.105  31.289  1.00  0.00     0.124 S 
ATOM     90  O   UNL A   1      34.624  34.629  29.972  1.00  0.00    -0.237 OA
ATOM     91  O   UNL A   1      34.514  32.740  31.559  1.00  0.00    -0.237 OA
ATOM     92  O   UNL A   1      34.842  35.047  32.394  1.00  0.00    -0.744 OA
ENDBRANCH  88  89
ENDBRANCH  56  81
BRANCH  68  93
ATOM     93  C   UNL A   1      41.761  26.357  28.693  1.00  0.00     0.058 A 
ATOM     94  C   UNL A   1      42.358  25.121  28.998  1.00  0.00     0.135 A 
ATOM     95  C   UNL A   1      40.680  26.285  27.774  1.00  0.00     0.135 A 
ATOM     96  F   UNL A   1      43.304  25.010  29.940  1.00  0.00    -0.206 F 
ATOM     97  C   UNL A   1      41.977  23.927  28.388  1.00  0.00     0.059 A 
ATOM     98  C   UNL A   1      40.231  25.092  27.213  1.00  0.00     0.059 A 
ATOM     99  F   UNL A   1      39.996  27.376  27.401  1.00  0.00    -0.206 F 
ATOM    100  C   UNL A   1      40.912  23.921  27.495  1.00  0.00     0.060 A 
BRANCH 100 101
ATOM    101  S   UNL A   1      40.403  22.375  26.729  1.00  0.00     0.124 S 
ATOM    102  O   UNL A   1      41.423  22.218  25.698  1.00  0.00    -0.237 OA
ATOM    103  O   UNL A   1      40.472  21.427  27.838  1.00  0.00    -0.237 OA
ATOM    104  O   UNL A   1      39.055  22.667  26.250  1.00  0.00    -0.744 OA
ENDBRANCH 100 101
ENDBRANCH  68  93
ENDBRANCH  42  43
ENDBRANCH  35  37
ENDBRANCH  34  35
ENDBRANCH  33  34
ENDBRANCH  32  33
ENDBRANCH  31  32
ENDBRANCH  30  31
ENDBRANCH   1  30
TORSDOF 25
ENDMDL
