MODEL 1
REMARK VINA RESULT:     -10.3      0.000      0.000
REMARK SMILES CC(=O)N[C@@H](Cc1c(OCC(C)C)ccc2ccccc12)C(=O)OCCOCCOCCOC(=O)c1ccc(-c2c3nc(c(-c4c(F)cc(S(=O)(=O)[O-])cc4F)c4ccc([nH]4)c(-c4c(F)cc(S(=O)(=O)[O-])cc4F)c4nc(c(-c5c(F)cc(S(=O)(=O)[O-])cc5F)c5ccc2[nH]5)C=C4)C=C3)cc1
REMARK SMILES IDX 28 1 27 2 26 3 25 4 24 5 22 6 23 7 5 8 4 9 1 10 2 11 3 12
REMARK SMILES IDX 6 14 7 15 8 16 21 17 14 18 16 19 20 20 15 21 17 22 19 23
REMARK SMILES IDX 18 24 9 25 10 26 11 27 12 28 13 29 29 30 30 31 31 32 32 33
REMARK SMILES IDX 33 34 34 35 35 36 36 37 37 38 101 39 38 40 100 41 39 42
REMARK SMILES IDX 40 43 41 44 94 45 42 46 99 47 93 48 95 49 43 50 98 51 92 52
REMARK SMILES IDX 91 53 44 55 78 56 57 57 77 58 58 59 61 60 76 61 96 62 59 63
REMARK SMILES IDX 60 64 75 66 97 67 62 68 45 69 46 70 55 71 47 72 48 73 54 74
REMARK SMILES IDX 56 75 49 76 50 77 51 78 52 79 53 80 79 81 80 82 89 83 81 84
REMARK SMILES IDX 82 85 88 86 90 87 83 88 84 89 85 90 86 91 87 92 63 93 64 94
REMARK SMILES IDX 73 95 65 96 66 97 72 98 74 99 67 100 68 101 69 102 70 103
REMARK SMILES IDX 71 104
REMARK H PARENT 4 13 95 54 61 65
REMARK Flexibility Score: inf
ROOT
ATOM      1  C   UNL A   1      39.362  21.273  26.385  1.00  0.00     0.188 C 
ENDROOT
BRANCH   1   2
ATOM      2  O   UNL A   1      38.522  21.353  25.240  1.00  0.00    -0.376 OA
BRANCH   2   3
ATOM      3  C   UNL A   1      37.114  21.233  25.395  1.00  0.00     0.202 C 
BRANCH   3   4
ATOM      4  C   UNL A   1      36.214  22.439  25.081  1.00  0.00     0.261 C 
BRANCH   4   5
ATOM      5  O   UNL A   1      35.854  23.264  26.210  1.00  0.00    -0.462 OA
BRANCH   5   6
ATOM      6  C   UNL A   1      34.632  23.041  26.763  1.00  0.00     0.329 C 
ATOM      7  O   UNL A   1      34.399  22.167  27.595  1.00  0.00    -0.250 OA
BRANCH   6   8
ATOM      8  C   UNL A   1      33.504  23.908  26.165  1.00  0.00     0.196 C 
BRANCH   8   9
ATOM      9  N   UNL A   1      32.233  23.990  26.886  1.00  0.00    -0.343 N 
ATOM     10  C   UNL A   1      31.046  22.199  25.676  1.00  0.00     0.114 C 
ATOM     11  C   UNL A   1      31.063  23.325  26.671  1.00  0.00     0.217 C 
ATOM     12  O   UNL A   1      30.059  23.638  27.307  1.00  0.00    -0.275 OA
ATOM     13  H   UNL A   1      32.221  24.621  27.641  1.00  0.00     0.164 HD
ENDBRANCH   8   9
BRANCH   8  14
ATOM     14  C   UNL A   1      34.029  25.333  25.915  1.00  0.00     0.077 C 
BRANCH  14  15
ATOM     15  C   UNL A   1      33.066  26.289  25.205  1.00  0.00     0.005 A 
ATOM     16  C   UNL A   1      32.558  27.420  25.891  1.00  0.00     0.123 A 
ATOM     17  C   UNL A   1      32.683  26.062  23.841  1.00  0.00    -0.011 A 
ATOM     18  C   UNL A   1      31.527  28.161  25.326  1.00  0.00     0.047 A 
ATOM     19  C   UNL A   1      31.754  26.948  23.242  1.00  0.00    -0.018 A 
ATOM     20  C   UNL A   1      33.195  25.033  23.012  1.00  0.00     0.009 A 
ATOM     21  C   UNL A   1      31.146  27.944  24.008  1.00  0.00     0.012 A 
ATOM     22  C   UNL A   1      31.438  26.843  21.878  1.00  0.00     0.009 A 
ATOM     23  C   UNL A   1      32.886  24.946  21.652  1.00  0.00     0.001 A 
ATOM     24  C   UNL A   1      32.018  25.862  21.081  1.00  0.00     0.001 A 
BRANCH  16  25
ATOM     25  O   UNL A   1      33.166  27.766  27.066  1.00  0.00    -0.493 OA
BRANCH  25  26
ATOM     26  C   UNL A   1      33.083  29.098  27.591  1.00  0.00     0.232 C 
BRANCH  26  27
ATOM     27  C   UNL A   1      34.213  30.078  27.177  1.00  0.00     0.020 C 
ATOM     28  C   UNL A   1      34.235  31.411  27.925  1.00  0.00     0.011 C 
ATOM     29  C   UNL A   1      35.571  29.392  27.379  1.00  0.00     0.011 C 
ENDBRANCH  26  27
ENDBRANCH  25  26
ENDBRANCH  16  25
ENDBRANCH  14  15
ENDBRANCH   8  14
ENDBRANCH   6   8
ENDBRANCH   5   6
ENDBRANCH   4   5
ENDBRANCH   3   4
ENDBRANCH   2   3
ENDBRANCH   1   2
BRANCH   1  30
ATOM     30  C   UNL A   1      40.584  20.340  26.357  1.00  0.00     0.188 C 
BRANCH  30  31
ATOM     31  O   UNL A   1      41.828  20.987  26.432  1.00  0.00    -0.376 OA
BRANCH  31  32
ATOM     32  C   UNL A   1      41.978  22.243  25.807  1.00  0.00     0.202 C 
BRANCH  32  33
ATOM     33  C   UNL A   1      42.060  23.558  26.606  1.00  0.00     0.261 C 
BRANCH  33  34
ATOM     34  O   UNL A   1      41.408  24.719  26.071  1.00  0.00    -0.460 OA
BRANCH  34  35
ATOM     35  C   UNL A   1      40.164  25.001  26.526  1.00  0.00     0.338 C 
ATOM     36  O   UNL A   1      39.120  24.467  26.180  1.00  0.00    -0.246 OA
BRANCH  35  37
ATOM     37  C   UNL A   1      40.298  25.934  27.668  1.00  0.00     0.060 A 
ATOM     38  C   UNL A   1      39.378  25.880  28.729  1.00  0.00     0.016 A 
ATOM     39  C   UNL A   1      41.341  26.858  27.688  1.00  0.00     0.016 A 
ATOM     40  C   UNL A   1      39.493  26.764  29.807  1.00  0.00     0.010 A 
ATOM     41  C   UNL A   1      41.435  27.761  28.749  1.00  0.00     0.010 A 
ATOM     42  C   UNL A   1      40.498  27.740  29.800  1.00  0.00    -0.014 A 
BRANCH  42  43
ATOM     43  C   UNL A   1      40.469  28.887  30.741  1.00  0.00     0.031 A 
ATOM     44  C   UNL A   1      41.391  28.839  31.929  1.00  0.00     0.074 A 
ATOM     45  C   UNL A   1      39.611  29.913  30.596  1.00  0.00     0.049 A 
ATOM     46  N   UNL A   1      41.402  29.574  33.008  1.00  0.00    -0.248 NA
ATOM     47  C   UNL A   1      42.434  27.799  31.893  1.00  0.00     0.031 C 
ATOM     48  C   UNL A   1      38.719  30.119  29.458  1.00  0.00     0.029 A 
ATOM     49  N   UNL A   1      39.333  30.963  31.439  1.00  0.00    -0.354 N 
ATOM     50  C   UNL A   1      42.432  29.069  33.795  1.00  0.00     0.074 A 
ATOM     51  C   UNL A   1      43.008  27.954  33.076  1.00  0.00     0.031 C 
ATOM     52  C   UNL A   1      37.969  31.213  29.686  1.00  0.00     0.029 A 
ATOM     53  C   UNL A   1      38.289  31.749  31.010  1.00  0.00     0.049 A 
ATOM     54  H   UNL A   1      39.833  31.135  32.269  1.00  0.00     0.167 HD
ATOM     55  C   UNL A   1      42.854  29.494  35.010  1.00  0.00     0.037 A 
ATOM     56  C   UNL A   1      37.640  32.755  31.635  1.00  0.00     0.037 A 
ATOM     57  C   UNL A   1      42.266  30.599  35.720  1.00  0.00     0.049 A 
ATOM     58  C   UNL A   1      38.059  33.154  33.030  1.00  0.00     0.074 A 
ATOM     59  C   UNL A   1      42.612  31.110  36.958  1.00  0.00     0.029 A 
ATOM     60  N   UNL A   1      41.201  31.360  35.258  1.00  0.00    -0.354 N 
ATOM     61  N   UNL A   1      39.019  32.662  33.778  1.00  0.00    -0.248 NA
ATOM     62  C   UNL A   1      37.303  34.241  33.669  1.00  0.00     0.031 C 
ATOM     63  C   UNL A   1      41.723  32.143  37.269  1.00  0.00     0.029 A 
ATOM     64  C   UNL A   1      40.866  32.323  36.194  1.00  0.00     0.049 A 
ATOM     65  H   UNL A   1      40.751  31.233  34.392  1.00  0.00     0.167 HD
ATOM     66  C   UNL A   1      39.011  33.408  34.954  1.00  0.00     0.074 A 
ATOM     67  C   UNL A   1      37.947  34.381  34.820  1.00  0.00     0.031 C 
ATOM     68  C   UNL A   1      39.818  33.304  36.038  1.00  0.00     0.037 A 
BRANCH  55  69
ATOM     69  C   UNL A   1      43.973  28.728  35.662  1.00  0.00     0.058 A 
ATOM     70  C   UNL A   1      45.322  29.066  35.461  1.00  0.00     0.135 A 
ATOM     71  C   UNL A   1      43.691  27.639  36.502  1.00  0.00     0.135 A 
ATOM     72  F   UNL A   1      45.650  30.086  34.652  1.00  0.00    -0.206 F 
ATOM     73  C   UNL A   1      46.350  28.327  36.036  1.00  0.00     0.059 A 
ATOM     74  C   UNL A   1      44.703  26.907  37.117  1.00  0.00     0.059 A 
ATOM     75  F   UNL A   1      42.421  27.268  36.729  1.00  0.00    -0.206 F 
ATOM     76  C   UNL A   1      46.031  27.246  36.861  1.00  0.00     0.060 A 
BRANCH  76  77
ATOM     77  S   UNL A   1      47.376  26.289  37.588  1.00  0.00     0.124 S 
ATOM     78  O   UNL A   1      48.190  25.992  36.413  1.00  0.00    -0.237 OA
ATOM     79  O   UNL A   1      47.955  27.235  38.536  1.00  0.00    -0.237 OA
ATOM     80  O   UNL A   1      46.696  25.144  38.186  1.00  0.00    -0.744 OA
ENDBRANCH  76  77
ENDBRANCH  55  69
BRANCH  56  81
ATOM     81  C   UNL A   1      36.511  33.449  30.955  1.00  0.00     0.058 A 
ATOM     82  C   UNL A   1      35.191  33.280  31.401  1.00  0.00     0.135 A 
ATOM     83  C   UNL A   1      36.723  34.295  29.855  1.00  0.00     0.135 A 
ATOM     84  F   UNL A   1      34.932  32.468  32.437  1.00  0.00    -0.206 F 
ATOM     85  C   UNL A   1      34.123  33.919  30.779  1.00  0.00     0.059 A 
ATOM     86  C   UNL A   1      35.675  34.968  29.234  1.00  0.00     0.059 A 
ATOM     87  F   UNL A   1      37.966  34.493  29.388  1.00  0.00    -0.206 F 
ATOM     88  C   UNL A   1      34.376  34.769  29.701  1.00  0.00     0.060 A 
BRANCH  88  89
ATOM     89  S   UNL A   1      32.986  35.643  28.946  1.00  0.00     0.124 S 
ATOM     90  O   UNL A   1      32.422  34.610  28.084  1.00  0.00    -0.237 OA
ATOM     91  O   UNL A   1      32.188  36.008  30.113  1.00  0.00    -0.237 OA
ATOM     92  O   UNL A   1      33.626  36.759  28.258  1.00  0.00    -0.744 OA
ENDBRANCH  88  89
ENDBRANCH  56  81
BRANCH  68  93
ATOM     93  C   UNL A   1      39.648  34.309  37.149  1.00  0.00     0.058 A 
ATOM     94  C   UNL A   1      38.969  34.003  38.338  1.00  0.00     0.135 A 
ATOM     95  C   UNL A   1      40.256  35.572  37.049  1.00  0.00     0.135 A 
ATOM     96  F   UNL A   1      38.363  32.814  38.484  1.00  0.00    -0.206 F 
ATOM     97  C   UNL A   1      38.890  34.918  39.384  1.00  0.00     0.059 A 
ATOM     98  C   UNL A   1      40.216  36.489  38.094  1.00  0.00     0.059 A 
ATOM     99  F   UNL A   1      40.928  35.913  35.938  1.00  0.00    -0.206 F 
ATOM    100  C   UNL A   1      39.525  36.156  39.257  1.00  0.00     0.060 A 
BRANCH 100 101
ATOM    101  S   UNL A   1      39.465  37.308  40.647  1.00  0.00     0.124 S 
ATOM    102  O   UNL A   1      40.884  37.532  40.905  1.00  0.00    -0.237 OA
ATOM    103  O   UNL A   1      38.736  38.438  40.082  1.00  0.00    -0.237 OA
ATOM    104  O   UNL A   1      38.752  36.560  41.678  1.00  0.00    -0.744 OA
ENDBRANCH 100 101
ENDBRANCH  68  93
ENDBRANCH  42  43
ENDBRANCH  35  37
ENDBRANCH  34  35
ENDBRANCH  33  34
ENDBRANCH  32  33
ENDBRANCH  31  32
ENDBRANCH  30  31
ENDBRANCH   1  30
TORSDOF 26
ENDMDL
MODEL 2
REMARK VINA RESULT:      -9.5      0.917      7.969
REMARK SMILES CC(=O)N[C@@H](Cc1c(OCC(C)C)ccc2ccccc12)C(=O)OCCOCCOCCOC(=O)c1ccc(-c2c3nc(c(-c4c(F)cc(S(=O)(=O)[O-])cc4F)c4ccc([nH]4)c(-c4c(F)cc(S(=O)(=O)[O-])cc4F)c4nc(c(-c5c(F)cc(S(=O)(=O)[O-])cc5F)c5ccc2[nH]5)C=C4)C=C3)cc1
REMARK SMILES IDX 28 1 27 2 26 3 25 4 24 5 22 6 23 7 5 8 4 9 1 10 2 11 3 12
REMARK SMILES IDX 6 14 7 15 8 16 21 17 14 18 16 19 20 20 15 21 17 22 19 23
REMARK SMILES IDX 18 24 9 25 10 26 11 27 12 28 13 29 29 30 30 31 31 32 32 33
REMARK SMILES IDX 33 34 34 35 35 36 36 37 37 38 101 39 38 40 100 41 39 42
REMARK SMILES IDX 40 43 41 44 94 45 42 46 99 47 93 48 95 49 43 50 98 51 92 52
REMARK SMILES IDX 91 53 44 55 78 56 57 57 77 58 58 59 61 60 76 61 96 62 59 63
REMARK SMILES IDX 60 64 75 66 97 67 62 68 45 69 46 70 55 71 47 72 48 73 54 74
REMARK SMILES IDX 56 75 49 76 50 77 51 78 52 79 53 80 79 81 80 82 89 83 81 84
REMARK SMILES IDX 82 85 88 86 90 87 83 88 84 89 85 90 86 91 87 92 63 93 64 94
REMARK SMILES IDX 73 95 65 96 66 97 72 98 74 99 67 100 68 101 69 102 70 103
REMARK SMILES IDX 71 104
REMARK H PARENT 4 13 95 54 61 65
REMARK Flexibility Score: inf
ROOT
ATOM      1  C   UNL A   1      39.872  21.810  26.473  1.00  0.00     0.188 C 
ENDROOT
BRANCH   1   2
ATOM      2  O   UNL A   1      38.934  21.920  25.409  1.00  0.00    -0.376 OA
BRANCH   2   3
ATOM      3  C   UNL A   1      37.581  21.542  25.627  1.00  0.00     0.202 C 
BRANCH   3   4
ATOM      4  C   UNL A   1      36.455  22.519  25.253  1.00  0.00     0.261 C 
BRANCH   4   5
ATOM      5  O   UNL A   1      35.832  23.210  26.356  1.00  0.00    -0.462 OA
BRANCH   5   6
ATOM      6  C   UNL A   1      34.616  22.751  26.757  1.00  0.00     0.329 C 
ATOM      7  O   UNL A   1      34.443  21.707  27.381  1.00  0.00    -0.250 OA
BRANCH   6   8
ATOM      8  C   UNL A   1      33.428  23.595  26.250  1.00  0.00     0.196 C 
BRANCH   8   9
ATOM      9  N   UNL A   1      32.180  23.569  27.015  1.00  0.00    -0.343 N 
ATOM     10  C   UNL A   1      30.673  22.923  25.172  1.00  0.00     0.114 C 
ATOM     11  C   UNL A   1      30.901  23.365  26.590  1.00  0.00     0.217 C 
ATOM     12  O   UNL A   1      29.968  23.519  27.375  1.00  0.00    -0.275 OA
ATOM     13  H   UNL A   1      32.279  23.722  27.981  1.00  0.00     0.164 HD
ENDBRANCH   8   9
BRANCH   8  14
ATOM     14  C   UNL A   1      33.874  25.057  26.073  1.00  0.00     0.077 C 
BRANCH  14  15
ATOM     15  C   UNL A   1      32.989  25.927  25.176  1.00  0.00     0.005 A 
ATOM     16  C   UNL A   1      32.348  27.072  25.712  1.00  0.00     0.123 A 
ATOM     17  C   UNL A   1      32.814  25.606  23.789  1.00  0.00    -0.011 A 
ATOM     18  C   UNL A   1      31.382  27.733  24.962  1.00  0.00     0.047 A 
ATOM     19  C   UNL A   1      31.949  26.414  23.011  1.00  0.00    -0.018 A 
ATOM     20  C   UNL A   1      33.475  24.554  23.107  1.00  0.00     0.009 A 
ATOM     21  C   UNL A   1      31.202  27.423  23.620  1.00  0.00     0.012 A 
ATOM     22  C   UNL A   1      31.834  26.216  21.626  1.00  0.00     0.009 A 
ATOM     23  C   UNL A   1      33.367  24.376  21.726  1.00  0.00     0.001 A 
ATOM     24  C   UNL A   1      32.557  25.218  20.981  1.00  0.00     0.001 A 
BRANCH  16  25
ATOM     25  O   UNL A   1      32.770  27.511  26.936  1.00  0.00    -0.493 OA
BRANCH  25  26
ATOM     26  C   UNL A   1      32.699  28.896  27.302  1.00  0.00     0.232 C 
BRANCH  26  27
ATOM     27  C   UNL A   1      34.027  29.565  27.744  1.00  0.00     0.020 C 
ATOM     28  C   UNL A   1      35.277  29.107  26.992  1.00  0.00     0.011 C 
ATOM     29  C   UNL A   1      33.901  31.086  27.583  1.00  0.00     0.011 C 
ENDBRANCH  26  27
ENDBRANCH  25  26
ENDBRANCH  16  25
ENDBRANCH  14  15
ENDBRANCH   8  14
ENDBRANCH   6   8
ENDBRANCH   5   6
ENDBRANCH   4   5
ENDBRANCH   3   4
ENDBRANCH   2   3
ENDBRANCH   1   2
BRANCH   1  30
ATOM     30  C   UNL A   1      41.179  21.031  26.245  1.00  0.00     0.188 C 
BRANCH  30  31
ATOM     31  O   UNL A   1      42.350  21.802  26.309  1.00  0.00    -0.376 OA
BRANCH  31  32
ATOM     32  C   UNL A   1      42.298  23.150  25.893  1.00  0.00     0.202 C 
BRANCH  32  33
ATOM     33  C   UNL A   1      43.133  24.255  26.567  1.00  0.00     0.261 C 
BRANCH  33  34
ATOM     34  O   UNL A   1      43.064  25.583  26.028  1.00  0.00    -0.460 OA
BRANCH  34  35
ATOM     35  C   UNL A   1      41.879  26.233  26.123  1.00  0.00     0.338 C 
ATOM     36  O   UNL A   1      40.993  26.268  25.281  1.00  0.00    -0.246 OA
BRANCH  35  37
ATOM     37  C   UNL A   1      41.745  26.734  27.509  1.00  0.00     0.060 A 
ATOM     38  C   UNL A   1      40.663  26.320  28.305  1.00  0.00     0.016 A 
ATOM     39  C   UNL A   1      42.699  27.611  28.023  1.00  0.00     0.016 A 
ATOM     40  C   UNL A   1      40.526  26.797  29.613  1.00  0.00     0.010 A 
ATOM     41  C   UNL A   1      42.542  28.112  29.318  1.00  0.00     0.010 A 
ATOM     42  C   UNL A   1      41.443  27.731  30.110  1.00  0.00    -0.014 A 
BRANCH  42  43
ATOM     43  C   UNL A   1      41.168  28.500  31.350  1.00  0.00     0.031 A 
ATOM     44  C   UNL A   1      40.112  29.570  31.287  1.00  0.00     0.074 A 
ATOM     45  C   UNL A   1      41.869  28.312  32.482  1.00  0.00     0.049 A 
ATOM     46  N   UNL A   1      39.841  30.528  32.133  1.00  0.00    -0.248 NA
ATOM     47  C   UNL A   1      39.255  29.560  30.089  1.00  0.00     0.031 C 
ATOM     48  C   UNL A   1      42.865  27.266  32.700  1.00  0.00     0.029 A 
ATOM     49  N   UNL A   1      41.866  29.026  33.656  1.00  0.00    -0.354 N 
ATOM     50  C   UNL A   1      38.805  31.254  31.558  1.00  0.00     0.074 A 
ATOM     51  C   UNL A   1      38.509  30.637  30.283  1.00  0.00     0.031 C 
ATOM     52  C   UNL A   1      43.400  27.424  33.925  1.00  0.00     0.029 A 
ATOM     53  C   UNL A   1      42.825  28.614  34.552  1.00  0.00     0.049 A 
ATOM     54  H   UNL A   1      41.238  29.762  33.839  1.00  0.00     0.167 HD
ATOM     55  C   UNL A   1      38.161  32.341  32.046  1.00  0.00     0.037 A 
ATOM     56  C   UNL A   1      43.221  29.163  35.720  1.00  0.00     0.037 A 
ATOM     57  C   UNL A   1      38.471  32.953  33.311  1.00  0.00     0.049 A 
ATOM     58  C   UNL A   1      42.561  30.431  36.205  1.00  0.00     0.074 A 
ATOM     59  C   UNL A   1      37.886  34.060  33.899  1.00  0.00     0.029 A 
ATOM     60  N   UNL A   1      39.459  32.514  34.182  1.00  0.00    -0.354 N 
ATOM     61  N   UNL A   1      41.596  31.126  35.650  1.00  0.00    -0.248 NA
ATOM     62  C   UNL A   1      43.047  30.995  37.473  1.00  0.00     0.031 C 
ATOM     63  C   UNL A   1      38.556  34.323  35.098  1.00  0.00     0.029 A 
ATOM     64  C   UNL A   1      39.512  33.339  35.292  1.00  0.00     0.049 A 
ATOM     65  H   UNL A   1      40.037  31.731  34.031  1.00  0.00     0.167 HD
ATOM     66  C   UNL A   1      41.330  32.179  36.522  1.00  0.00     0.074 A 
ATOM     67  C   UNL A   1      42.240  32.034  37.638  1.00  0.00     0.031 C 
ATOM     68  C   UNL A   1      40.408  33.168  36.412  1.00  0.00     0.037 A 
BRANCH  55  69
ATOM     69  C   UNL A   1      37.095  32.962  31.184  1.00  0.00     0.058 A 
ATOM     70  C   UNL A   1      35.729  32.704  31.389  1.00  0.00     0.135 A 
ATOM     71  C   UNL A   1      37.446  33.829  30.136  1.00  0.00     0.135 A 
ATOM     72  F   UNL A   1      35.338  31.867  32.363  1.00  0.00    -0.206 F 
ATOM     73  C   UNL A   1      34.754  33.251  30.561  1.00  0.00     0.059 A 
ATOM     74  C   UNL A   1      36.484  34.415  29.318  1.00  0.00     0.059 A 
ATOM     75  F   UNL A   1      38.736  34.110  29.892  1.00  0.00    -0.206 F 
ATOM     76  C   UNL A   1      35.142  34.104  29.526  1.00  0.00     0.060 A 
BRANCH  76  77
ATOM     77  S   UNL A   1      33.866  34.793  28.453  1.00  0.00     0.124 S 
ATOM     78  O   UNL A   1      33.891  36.201  28.838  1.00  0.00    -0.237 OA
ATOM     79  O   UNL A   1      34.383  34.492  27.122  1.00  0.00    -0.237 OA
ATOM     80  O   UNL A   1      32.664  34.059  28.836  1.00  0.00    -0.744 OA
ENDBRANCH  76  77
ENDBRANCH  55  69
BRANCH  56  81
ATOM     81  C   UNL A   1      44.312  28.527  36.511  1.00  0.00     0.058 A 
ATOM     82  C   UNL A   1      45.630  28.998  36.425  1.00  0.00     0.135 A 
ATOM     83  C   UNL A   1      44.063  27.443  37.367  1.00  0.00     0.135 A 
ATOM     84  F   UNL A   1      45.925  30.020  35.606  1.00  0.00    -0.206 F 
ATOM     85  C   UNL A   1      46.663  28.417  37.154  1.00  0.00     0.059 A 
ATOM     86  C   UNL A   1      45.073  26.862  38.129  1.00  0.00     0.059 A 
ATOM     87  F   UNL A   1      42.820  26.952  37.488  1.00  0.00    -0.206 F 
ATOM     88  C   UNL A   1      46.373  27.354  38.011  1.00  0.00     0.060 A 
BRANCH  88  89
ATOM     89  S   UNL A   1      47.712  26.653  39.001  1.00  0.00     0.124 S 
ATOM     90  O   UNL A   1      48.231  27.838  39.675  1.00  0.00    -0.237 OA
ATOM     91  O   UNL A   1      46.998  25.699  39.845  1.00  0.00    -0.237 OA
ATOM     92  O   UNL A   1      48.593  26.059  38.001  1.00  0.00    -0.744 OA
ENDBRANCH  88  89
ENDBRANCH  56  81
BRANCH  68  93
ATOM     93  C   UNL A   1      40.270  34.140  37.555  1.00  0.00     0.058 A 
ATOM     94  C   UNL A   1      40.981  35.348  37.602  1.00  0.00     0.135 A 
ATOM     95  C   UNL A   1      39.339  33.890  38.578  1.00  0.00     0.135 A 
ATOM     96  F   UNL A   1      41.889  35.636  36.655  1.00  0.00    -0.206 F 
ATOM     97  C   UNL A   1      40.782  36.270  38.627  1.00  0.00     0.059 A 
ATOM     98  C   UNL A   1      39.101  34.809  39.594  1.00  0.00     0.059 A 
ATOM     99  F   UNL A   1      38.624  32.754  38.577  1.00  0.00    -0.206 F 
ATOM    100  C   UNL A   1      39.833  35.995  39.614  1.00  0.00     0.060 A 
BRANCH 100 101
ATOM    101  S   UNL A   1      39.541  37.227  40.902  1.00  0.00     0.124 S 
ATOM    102  O   UNL A   1      40.892  37.721  41.150  1.00  0.00    -0.237 OA
ATOM    103  O   UNL A   1      38.636  38.160  40.241  1.00  0.00    -0.237 OA
ATOM    104  O   UNL A   1      38.949  36.450  41.988  1.00  0.00    -0.744 OA
ENDBRANCH 100 101
ENDBRANCH  68  93
ENDBRANCH  42  43
ENDBRANCH  35  37
ENDBRANCH  34  35
ENDBRANCH  33  34
ENDBRANCH  32  33
ENDBRANCH  31  32
ENDBRANCH  30  31
ENDBRANCH   1  30
TORSDOF 26
ENDMDL
MODEL 3
REMARK VINA RESULT:      -9.4      6.163     10.717
REMARK SMILES CC(=O)N[C@@H](Cc1c(OCC(C)C)ccc2ccccc12)C(=O)OCCOCCOCCOC(=O)c1ccc(-c2c3nc(c(-c4c(F)cc(S(=O)(=O)[O-])cc4F)c4ccc([nH]4)c(-c4c(F)cc(S(=O)(=O)[O-])cc4F)c4nc(c(-c5c(F)cc(S(=O)(=O)[O-])cc5F)c5ccc2[nH]5)C=C4)C=C3)cc1
REMARK SMILES IDX 28 1 27 2 26 3 25 4 24 5 22 6 23 7 5 8 4 9 1 10 2 11 3 12
REMARK SMILES IDX 6 14 7 15 8 16 21 17 14 18 16 19 20 20 15 21 17 22 19 23
REMARK SMILES IDX 18 24 9 25 10 26 11 27 12 28 13 29 29 30 30 31 31 32 32 33
REMARK SMILES IDX 33 34 34 35 35 36 36 37 37 38 101 39 38 40 100 41 39 42
REMARK SMILES IDX 40 43 41 44 94 45 42 46 99 47 93 48 95 49 43 50 98 51 92 52
REMARK SMILES IDX 91 53 44 55 78 56 57 57 77 58 58 59 61 60 76 61 96 62 59 63
REMARK SMILES IDX 60 64 75 66 97 67 62 68 45 69 46 70 55 71 47 72 48 73 54 74
REMARK SMILES IDX 56 75 49 76 50 77 51 78 52 79 53 80 79 81 80 82 89 83 81 84
REMARK SMILES IDX 82 85 88 86 90 87 83 88 84 89 85 90 86 91 87 92 63 93 64 94
REMARK SMILES IDX 73 95 65 96 66 97 72 98 74 99 67 100 68 101 69 102 70 103
REMARK SMILES IDX 71 104
REMARK H PARENT 4 13 95 54 61 65
REMARK Flexibility Score: inf
ROOT
ATOM      1  C   UNL A   1      35.656  21.604  25.958  1.00  0.00     0.188 C 
ENDROOT
BRANCH   1   2
ATOM      2  O   UNL A   1      36.114  22.950  25.979  1.00  0.00    -0.376 OA
BRANCH   2   3
ATOM      3  C   UNL A   1      36.134  23.701  24.771  1.00  0.00     0.202 C 
BRANCH   3   4
ATOM      4  C   UNL A   1      34.855  23.802  23.924  1.00  0.00     0.261 C 
BRANCH   4   5
ATOM      5  O   UNL A   1      34.029  24.959  24.172  1.00  0.00    -0.462 OA
BRANCH   5   6
ATOM      6  C   UNL A   1      33.511  25.585  23.080  1.00  0.00     0.329 C 
ATOM      7  O   UNL A   1      34.047  25.601  21.975  1.00  0.00    -0.250 OA
BRANCH   6   8
ATOM      8  C   UNL A   1      32.231  26.396  23.370  1.00  0.00     0.196 C 
BRANCH   8   9
ATOM      9  N   UNL A   1      31.648  26.318  24.711  1.00  0.00    -0.343 N 
ATOM     10  C   UNL A   1      30.682  24.057  24.523  1.00  0.00     0.114 C 
ATOM     11  C   UNL A   1      30.870  25.349  25.268  1.00  0.00     0.217 C 
ATOM     12  O   UNL A   1      30.362  25.536  26.372  1.00  0.00    -0.275 OA
ATOM     13  H   UNL A   1      31.848  27.082  25.298  1.00  0.00     0.164 HD
ENDBRANCH   8   9
BRANCH   8  14
ATOM     14  C   UNL A   1      32.467  27.874  23.014  1.00  0.00     0.077 C 
BRANCH  14  15
ATOM     15  C   UNL A   1      32.066  28.896  24.081  1.00  0.00     0.005 A 
ATOM     16  C   UNL A   1      30.823  29.570  23.983  1.00  0.00     0.123 A 
ATOM     17  C   UNL A   1      32.929  29.168  25.195  1.00  0.00    -0.011 A 
ATOM     18  C   UNL A   1      30.556  30.644  24.824  1.00  0.00     0.047 A 
ATOM     19  C   UNL A   1      32.535  30.154  26.132  1.00  0.00    -0.018 A 
ATOM     20  C   UNL A   1      34.145  28.492  25.467  1.00  0.00     0.009 A 
ATOM     21  C   UNL A   1      31.390  30.917  25.901  1.00  0.00     0.012 A 
ATOM     22  C   UNL A   1      33.282  30.374  27.300  1.00  0.00     0.009 A 
ATOM     23  C   UNL A   1      34.873  28.707  26.639  1.00  0.00     0.001 A 
ATOM     24  C   UNL A   1      34.432  29.639  27.565  1.00  0.00     0.001 A 
BRANCH  16  25
ATOM     25  O   UNL A   1      29.911  29.077  23.092  1.00  0.00    -0.493 OA
BRANCH  25  26
ATOM     26  C   UNL A   1      29.512  29.825  21.935  1.00  0.00     0.232 C 
BRANCH  26  27
ATOM     27  C   UNL A   1      28.232  30.690  22.076  1.00  0.00     0.020 C 
ATOM     28  C   UNL A   1      27.288  30.288  23.210  1.00  0.00     0.011 C 
ATOM     29  C   UNL A   1      28.636  32.155  22.285  1.00  0.00     0.011 C 
ENDBRANCH  26  27
ENDBRANCH  25  26
ENDBRANCH  16  25
ENDBRANCH  14  15
ENDBRANCH   8  14
ENDBRANCH   6   8
ENDBRANCH   5   6
ENDBRANCH   4   5
ENDBRANCH   3   4
ENDBRANCH   2   3
ENDBRANCH   1   2
BRANCH   1  30
ATOM     30  C   UNL A   1      36.300  20.605  24.980  1.00  0.00     0.188 C 
BRANCH  30  31
ATOM     31  O   UNL A   1      37.688  20.742  24.820  1.00  0.00    -0.376 OA
BRANCH  31  32
ATOM     32  C   UNL A   1      38.530  19.712  25.292  1.00  0.00     0.202 C 
BRANCH  32  33
ATOM     33  C   UNL A   1      39.818  19.998  26.086  1.00  0.00     0.261 C 
BRANCH  33  34
ATOM     34  O   UNL A   1      41.078  19.810  25.426  1.00  0.00    -0.460 OA
BRANCH  34  35
ATOM     35  C   UNL A   1      42.185  19.738  26.204  1.00  0.00     0.338 C 
ATOM     36  O   UNL A   1      42.853  18.741  26.437  1.00  0.00    -0.246 OA
BRANCH  35  37
ATOM     37  C   UNL A   1      42.574  21.119  26.570  1.00  0.00     0.060 A 
ATOM     38  C   UNL A   1      42.784  22.079  25.565  1.00  0.00     0.016 A 
ATOM     39  C   UNL A   1      42.724  21.463  27.912  1.00  0.00     0.016 A 
ATOM     40  C   UNL A   1      43.160  23.384  25.903  1.00  0.00     0.010 A 
ATOM     41  C   UNL A   1      43.132  22.757  28.246  1.00  0.00     0.010 A 
ATOM     42  C   UNL A   1      43.379  23.716  27.246  1.00  0.00    -0.014 A 
BRANCH  42  43
ATOM     43  C   UNL A   1      44.078  24.968  27.628  1.00  0.00     0.031 A 
ATOM     44  C   UNL A   1      43.242  26.098  28.165  1.00  0.00     0.074 A 
ATOM     45  C   UNL A   1      45.401  25.135  27.448  1.00  0.00     0.049 A 
ATOM     46  N   UNL A   1      43.552  27.353  28.348  1.00  0.00    -0.248 NA
ATOM     47  C   UNL A   1      41.855  25.758  28.528  1.00  0.00     0.031 C 
ATOM     48  C   UNL A   1      46.335  24.103  27.008  1.00  0.00     0.029 A 
ATOM     49  N   UNL A   1      46.180  26.259  27.590  1.00  0.00    -0.354 N 
ATOM     50  C   UNL A   1      42.394  27.961  28.819  1.00  0.00     0.074 A 
ATOM     51  C   UNL A   1      41.371  26.940  28.874  1.00  0.00     0.031 C 
ATOM     52  C   UNL A   1      47.559  24.649  26.885  1.00  0.00     0.029 A 
ATOM     53  C   UNL A   1      47.482  26.079  27.183  1.00  0.00     0.049 A 
ATOM     54  H   UNL A   1      45.839  27.111  27.946  1.00  0.00     0.167 HD
ATOM     55  C   UNL A   1      42.199  29.255  29.168  1.00  0.00     0.037 A 
ATOM     56  C   UNL A   1      48.479  26.975  27.029  1.00  0.00     0.037 A 
ATOM     57  C   UNL A   1      43.223  30.264  29.099  1.00  0.00     0.049 A 
ATOM     58  C   UNL A   1      48.220  28.433  27.329  1.00  0.00     0.074 A 
ATOM     59  C   UNL A   1      43.133  31.606  29.423  1.00  0.00     0.029 A 
ATOM     60  N   UNL A   1      44.525  30.045  28.669  1.00  0.00    -0.354 N 
ATOM     61  N   UNL A   1      47.119  29.007  27.754  1.00  0.00    -0.248 NA
ATOM     62  C   UNL A   1      49.337  29.366  27.123  1.00  0.00     0.031 C 
ATOM     63  C   UNL A   1      44.361  32.209  29.137  1.00  0.00     0.029 A 
ATOM     64  C   UNL A   1      45.240  31.229  28.701  1.00  0.00     0.049 A 
ATOM     65  H   UNL A   1      44.885  29.174  28.383  1.00  0.00     0.167 HD
ATOM     66  C   UNL A   1      47.425  30.357  27.909  1.00  0.00     0.074 A 
ATOM     67  C   UNL A   1      48.811  30.515  27.526  1.00  0.00     0.031 C 
ATOM     68  C   UNL A   1      46.631  31.369  28.341  1.00  0.00     0.037 A 
BRANCH  55  69
ATOM     69  C   UNL A   1      40.817  29.655  29.607  1.00  0.00     0.058 A 
ATOM     70  C   UNL A   1      40.504  29.893  30.956  1.00  0.00     0.135 A 
ATOM     71  C   UNL A   1      39.788  29.804  28.662  1.00  0.00     0.135 A 
ATOM     72  F   UNL A   1      41.444  29.746  31.903  1.00  0.00    -0.206 F 
ATOM     73  C   UNL A   1      39.214  30.223  31.356  1.00  0.00     0.059 A 
ATOM     74  C   UNL A   1      38.498  30.168  29.036  1.00  0.00     0.059 A 
ATOM     75  F   UNL A   1      40.029  29.587  27.359  1.00  0.00    -0.206 F 
ATOM     76  C   UNL A   1      38.216  30.356  30.388  1.00  0.00     0.060 A 
BRANCH  76  77
ATOM     77  S   UNL A   1      36.544  30.770  30.924  1.00  0.00     0.124 S 
ATOM     78  O   UNL A   1      35.936  29.447  31.031  1.00  0.00    -0.237 OA
ATOM     79  O   UNL A   1      36.784  31.459  32.188  1.00  0.00    -0.237 OA
ATOM     80  O   UNL A   1      36.036  31.608  29.843  1.00  0.00    -0.744 OA
ENDBRANCH  76  77
ENDBRANCH  55  69
BRANCH  56  81
ATOM     81  C   UNL A   1      49.817  26.527  26.550  1.00  0.00     0.058 A 
ATOM     82  C   UNL A   1      50.817  26.152  27.460  1.00  0.00     0.135 A 
ATOM     83  C   UNL A   1      50.123  26.460  25.182  1.00  0.00     0.135 A 
ATOM     84  F   UNL A   1      50.581  26.215  28.780  1.00  0.00    -0.206 F 
ATOM     85  C   UNL A   1      52.073  25.732  27.033  1.00  0.00     0.059 A 
ATOM     86  C   UNL A   1      51.362  26.017  24.729  1.00  0.00     0.059 A 
ATOM     87  F   UNL A   1      49.203  26.807  24.269  1.00  0.00    -0.206 F 
ATOM     88  C   UNL A   1      52.333  25.659  25.663  1.00  0.00     0.060 A 
BRANCH  88  89
ATOM     89  S   UNL A   1      53.946  25.049  25.123  1.00  0.00     0.124 S 
ATOM     90  O   UNL A   1      54.180  25.853  23.928  1.00  0.00    -0.237 OA
ATOM     91  O   UNL A   1      54.788  25.356  26.275  1.00  0.00    -0.237 OA
ATOM     92  O   UNL A   1      53.706  23.628  24.891  1.00  0.00    -0.744 OA
ENDBRANCH  88  89
ENDBRANCH  56  81
BRANCH  68  93
ATOM     93  C   UNL A   1      47.248  32.734  28.501  1.00  0.00     0.058 A 
ATOM     94  C   UNL A   1      47.196  33.703  27.487  1.00  0.00     0.135 A 
ATOM     95  C   UNL A   1      47.823  33.103  29.729  1.00  0.00     0.135 A 
ATOM     96  F   UNL A   1      46.665  33.404  26.291  1.00  0.00    -0.206 F 
ATOM     97  C   UNL A   1      47.702  34.986  27.682  1.00  0.00     0.059 A 
ATOM     98  C   UNL A   1      48.306  34.388  29.956  1.00  0.00     0.059 A 
ATOM     99  F   UNL A   1      47.889  32.219  30.736  1.00  0.00    -0.206 F 
ATOM    100  C   UNL A   1      48.247  35.322  28.924  1.00  0.00     0.060 A 
BRANCH 100 101
ATOM    101  S   UNL A   1      48.843  37.007  29.182  1.00  0.00     0.124 S 
ATOM    102  O   UNL A   1      50.127  36.975  28.491  1.00  0.00    -0.237 OA
ATOM    103  O   UNL A   1      47.800  37.806  28.547  1.00  0.00    -0.237 OA
ATOM    104  O   UNL A   1      48.917  37.123  30.635  1.00  0.00    -0.744 OA
ENDBRANCH 100 101
ENDBRANCH  68  93
ENDBRANCH  42  43
ENDBRANCH  35  37
ENDBRANCH  34  35
ENDBRANCH  33  34
ENDBRANCH  32  33
ENDBRANCH  31  32
ENDBRANCH  30  31
ENDBRANCH   1  30
TORSDOF 26
ENDMDL
