MODEL 1
REMARK VINA RESULT:     -11.6      0.000      0.000
REMARK SMILES O=C(OCCOCCOCCOC(=O)c1nn(Cc2ccc(F)cc2)c2c1CN(C(=O)[C@H]1CC1(F)F)CC2)c1ccc(-c2c3nc(c(-c4c(F)cc(S(=O)(=O)[O-])cc4F)c4ccc([nH]4)c(-c4c(F)cc(S(=O)(=O)[O-])cc4F)c4nc(c(-c5c(F)cc(S(=O)(=O)[O-])cc5F)c5ccc2[nH]5)C=C4)C=C3)cc1
REMARK SMILES IDX 7 1 6 2 5 3 4 4 3 5 2 6 1 7 39 8 40 9 104 10 41 11 103 12
REMARK SMILES IDX 42 13 43 14 44 15 97 16 45 17 102 18 96 19 98 20 46 21
REMARK SMILES IDX 101 22 95 23 94 24 47 26 81 27 60 28 80 29 61 30 64 31 79 32
REMARK SMILES IDX 99 33 62 34 63 35 78 37 100 38 65 39 48 40 49 41 58 42 50 43
REMARK SMILES IDX 51 44 57 45 59 46 52 47 53 48 54 49 55 50 56 51 82 52 83 53
REMARK SMILES IDX 92 54 84 55 85 56 91 57 93 58 86 59 87 60 88 61 89 62 90 63
REMARK SMILES IDX 66 64 67 65 76 66 68 67 69 68 75 69 77 70 70 71 71 72 72 73
REMARK SMILES IDX 73 74 74 75 8 76 9 77 10 78 11 79 12 80 13 81 14 82 15 83
REMARK SMILES IDX 16 84 27 85 17 86 26 87 28 88 38 89 29 90 37 91 18 92 19 93
REMARK SMILES IDX 20 94 25 95 21 96 24 97 22 98 23 99 30 100 31 101 32 102
REMARK SMILES IDX 33 103 34 104 35 105 36 106
REMARK H PARENT 98 25 64 36
REMARK Flexibility Score: inf
ROOT
ATOM      1  C   UNL A   1      32.242  28.787  24.152  1.00  0.00     0.188 C 
ENDROOT
BRANCH   1   2
ATOM      2  O   UNL A   1      32.637  29.470  25.334  1.00  0.00    -0.376 OA
BRANCH   2   3
ATOM      3  C   UNL A   1      31.793  30.512  25.780  1.00  0.00     0.202 C 
BRANCH   3   4
ATOM      4  C   UNL A   1      32.174  31.087  27.148  1.00  0.00     0.261 C 
BRANCH   4   5
ATOM      5  O   UNL A   1      33.480  30.710  27.619  1.00  0.00    -0.460 OA
BRANCH   5   6
ATOM      6  C   UNL A   1      34.464  31.400  28.223  1.00  0.00     0.338 C 
ATOM      7  O   UNL A   1      34.195  32.500  28.703  1.00  0.00    -0.246 OA
BRANCH   6   8
ATOM      8  C   UNL A   1      35.893  30.984  28.202  1.00  0.00     0.060 A 
ATOM      9  C   UNL A   1      36.425  29.937  27.449  1.00  0.00     0.016 A 
ATOM     10  C   UNL A   1      36.748  31.691  29.072  1.00  0.00     0.016 A 
ATOM     11  C   UNL A   1      37.740  29.530  27.647  1.00  0.00     0.010 A 
ATOM     12  C   UNL A   1      38.063  31.288  29.273  1.00  0.00     0.010 A 
ATOM     13  C   UNL A   1      38.532  30.160  28.608  1.00  0.00    -0.014 A 
BRANCH  13  14
ATOM     14  C   UNL A   1      39.795  29.518  28.954  1.00  0.00     0.031 A 
ATOM     15  C   UNL A   1      40.177  29.459  30.389  1.00  0.00     0.074 A 
ATOM     16  C   UNL A   1      40.587  28.958  28.017  1.00  0.00     0.049 A 
ATOM     17  N   UNL A   1      41.193  30.004  30.977  1.00  0.00    -0.248 NA
ATOM     18  C   UNL A   1      39.280  28.727  31.293  1.00  0.00     0.031 C 
ATOM     19  C   UNL A   1      40.261  28.669  26.618  1.00  0.00     0.029 A 
ATOM     20  N   UNL A   1      41.838  28.436  28.163  1.00  0.00    -0.354 N 
ATOM     21  C   UNL A   1      41.174  29.541  32.292  1.00  0.00     0.074 A 
ATOM     22  C   UNL A   1      39.918  28.848  32.458  1.00  0.00     0.031 C 
ATOM     23  C   UNL A   1      41.195  27.837  26.111  1.00  0.00     0.029 A 
ATOM     24  C   UNL A   1      42.244  27.650  27.097  1.00  0.00     0.049 A 
ATOM     25  H   UNL A   1      42.401  28.603  28.953  1.00  0.00     0.167 HD
ATOM     26  C   UNL A   1      42.254  29.608  33.118  1.00  0.00     0.037 A 
ATOM     27  C   UNL A   1      43.328  26.838  27.062  1.00  0.00     0.037 A 
ATOM     28  C   UNL A   1      43.263  30.509  32.636  1.00  0.00     0.049 A 
ATOM     29  C   UNL A   1      44.283  27.311  28.095  1.00  0.00     0.074 A 
ATOM     30  C   UNL A   1      43.318  31.864  32.380  1.00  0.00     0.029 A 
ATOM     31  N   UNL A   1      44.386  29.975  32.056  1.00  0.00    -0.354 N 
ATOM     32  N   UNL A   1      44.932  28.442  28.039  1.00  0.00    -0.248 NA
ATOM     33  C   UNL A   1      44.259  26.675  29.404  1.00  0.00     0.031 C 
ATOM     34  C   UNL A   1      44.212  32.003  31.278  1.00  0.00     0.029 A 
ATOM     35  C   UNL A   1      44.657  30.725  30.939  1.00  0.00     0.049 A 
ATOM     36  H   UNL A   1      44.900  29.200  32.380  1.00  0.00     0.167 HD
ATOM     37  C   UNL A   1      45.051  28.853  29.357  1.00  0.00     0.074 A 
ATOM     38  C   UNL A   1      44.731  27.675  30.151  1.00  0.00     0.031 C 
ATOM     39  C   UNL A   1      45.131  30.177  29.686  1.00  0.00     0.037 A 
BRANCH  26  40
ATOM     40  C   UNL A   1      42.514  28.648  34.248  1.00  0.00     0.058 A 
ATOM     41  C   UNL A   1      42.991  27.337  34.033  1.00  0.00     0.135 A 
ATOM     42  C   UNL A   1      42.532  29.099  35.583  1.00  0.00     0.135 A 
ATOM     43  F   UNL A   1      43.132  26.835  32.799  1.00  0.00    -0.206 F 
ATOM     44  C   UNL A   1      43.426  26.518  35.068  1.00  0.00     0.059 A 
ATOM     45  C   UNL A   1      43.012  28.311  36.633  1.00  0.00     0.059 A 
ATOM     46  F   UNL A   1      42.132  30.344  35.887  1.00  0.00    -0.206 F 
ATOM     47  C   UNL A   1      43.455  27.020  36.362  1.00  0.00     0.060 A 
BRANCH  47  48
ATOM     48  S   UNL A   1      44.183  25.987  37.649  1.00  0.00     0.124 S 
ATOM     49  O   UNL A   1      43.526  24.708  37.397  1.00  0.00    -0.237 OA
ATOM     50  O   UNL A   1      45.603  26.049  37.320  1.00  0.00    -0.237 OA
ATOM     51  O   UNL A   1      43.796  26.665  38.882  1.00  0.00    -0.744 OA
ENDBRANCH  47  48
ENDBRANCH  26  40
BRANCH  27  52
ATOM     52  C   UNL A   1      43.419  25.496  26.431  1.00  0.00     0.058 A 
ATOM     53  C   UNL A   1      42.985  24.333  27.102  1.00  0.00     0.135 A 
ATOM     54  C   UNL A   1      44.187  25.295  25.271  1.00  0.00     0.135 A 
ATOM     55  F   UNL A   1      42.302  24.405  28.253  1.00  0.00    -0.206 F 
ATOM     56  C   UNL A   1      43.323  23.054  26.674  1.00  0.00     0.059 A 
ATOM     57  C   UNL A   1      44.553  24.019  24.831  1.00  0.00     0.059 A 
ATOM     58  F   UNL A   1      44.660  26.347  24.585  1.00  0.00    -0.206 F 
ATOM     59  C   UNL A   1      44.138  22.906  25.558  1.00  0.00     0.060 A 
BRANCH  59  60
ATOM     60  S   UNL A   1      44.723  21.245  25.161  1.00  0.00     0.124 S 
ATOM     61  O   UNL A   1      43.700  20.414  25.787  1.00  0.00    -0.237 OA
ATOM     62  O   UNL A   1      44.717  21.263  23.702  1.00  0.00    -0.237 OA
ATOM     63  O   UNL A   1      46.042  21.190  25.782  1.00  0.00    -0.744 OA
ENDBRANCH  59  60
ENDBRANCH  27  52
BRANCH  39  64
ATOM     64  C   UNL A   1      45.445  31.169  28.596  1.00  0.00     0.058 A 
ATOM     65  C   UNL A   1      46.720  31.756  28.574  1.00  0.00     0.135 A 
ATOM     66  C   UNL A   1      44.488  31.676  27.699  1.00  0.00     0.135 A 
ATOM     67  F   UNL A   1      47.662  31.355  29.444  1.00  0.00    -0.206 F 
ATOM     68  C   UNL A   1      47.033  32.804  27.713  1.00  0.00     0.059 A 
ATOM     69  C   UNL A   1      44.790  32.704  26.803  1.00  0.00     0.059 A 
ATOM     70  F   UNL A   1      43.220  31.240  27.727  1.00  0.00    -0.206 F 
ATOM     71  C   UNL A   1      46.059  33.276  26.833  1.00  0.00     0.060 A 
BRANCH  71  72
ATOM     72  S   UNL A   1      46.470  34.675  25.768  1.00  0.00     0.124 S 
ATOM     73  O   UNL A   1      46.244  35.807  26.662  1.00  0.00    -0.237 OA
ATOM     74  O   UNL A   1      47.865  34.412  25.427  1.00  0.00    -0.237 OA
ATOM     75  O   UNL A   1      45.525  34.558  24.662  1.00  0.00    -0.744 OA
ENDBRANCH  71  72
ENDBRANCH  39  64
ENDBRANCH  13  14
ENDBRANCH   6   8
ENDBRANCH   5   6
ENDBRANCH   4   5
ENDBRANCH   3   4
ENDBRANCH   2   3
ENDBRANCH   1   2
BRANCH   1  76
ATOM     76  C   UNL A   1      30.907  28.034  24.326  1.00  0.00     0.188 C 
BRANCH  76  77
ATOM     77  O   UNL A   1      30.578  26.926  23.493  1.00  0.00    -0.376 OA
BRANCH  77  78
ATOM     78  C   UNL A   1      29.975  25.773  24.044  1.00  0.00     0.202 C 
BRANCH  78  79
ATOM     79  C   UNL A   1      30.428  25.380  25.450  1.00  0.00     0.261 C 
BRANCH  79  80
ATOM     80  O   UNL A   1      30.539  23.971  25.686  1.00  0.00    -0.458 OA
BRANCH  80  81
ATOM     81  C   UNL A   1      31.585  23.566  26.473  1.00  0.00     0.359 C 
ATOM     82  O   UNL A   1      31.822  23.986  27.596  1.00  0.00    -0.244 OA
BRANCH  81  83
ATOM     83  C   UNL A   1      32.384  22.520  25.823  1.00  0.00     0.175 A 
ATOM     84  N   UNL A   1      31.786  21.553  25.098  1.00  0.00    -0.165 NA
ATOM     85  C   UNL A   1      33.801  22.365  25.804  1.00  0.00     0.028 A 
ATOM     86  N   UNL A   1      32.799  20.796  24.622  1.00  0.00    -0.264 N 
ATOM     87  C   UNL A   1      34.015  21.218  25.066  1.00  0.00     0.046 A 
ATOM     88  C   UNL A   1      34.902  23.159  26.432  1.00  0.00     0.159 C 
ATOM     89  C   UNL A   1      35.348  20.621  24.791  1.00  0.00     0.078 C 
ATOM     90  N   UNL A   1      36.209  22.644  25.969  1.00  0.00    -0.337 N 
ATOM     91  C   UNL A   1      36.341  21.178  25.830  1.00  0.00     0.126 C 
BRANCH  86  92
ATOM     92  C   UNL A   1      32.521  19.773  23.621  1.00  0.00     0.180 C 
BRANCH  92  93
ATOM     93  C   UNL A   1      32.843  18.382  24.106  1.00  0.00    -0.026 A 
ATOM     94  C   UNL A   1      32.356  17.935  25.346  1.00  0.00     0.008 A 
ATOM     95  C   UNL A   1      33.610  17.508  23.319  1.00  0.00     0.008 A 
ATOM     96  C   UNL A   1      32.620  16.639  25.787  1.00  0.00     0.039 A 
ATOM     97  C   UNL A   1      33.871  16.210  23.762  1.00  0.00     0.039 A 
ATOM     98  C   UNL A   1      33.372  15.787  24.989  1.00  0.00     0.123 A 
ATOM     99  F   UNL A   1      33.614  14.537  25.407  1.00  0.00    -0.207 F 
ENDBRANCH  92  93
ENDBRANCH  86  92
BRANCH  90 100
ATOM    100  C   UNL A   1      37.248  23.549  25.799  1.00  0.00     0.232 C 
ATOM    101  O   UNL A   1      37.506  24.078  24.727  1.00  0.00    -0.274 OA
BRANCH 100 102
ATOM    102  C   UNL A   1      38.047  23.897  26.994  1.00  0.00     0.154 C 
ATOM    103  C   UNL A   1      39.420  23.275  27.205  1.00  0.00     0.097 C 
ATOM    104  C   UNL A   1      39.281  24.708  26.851  1.00  0.00     0.260 C 
ATOM    105  F   UNL A   1      39.775  25.137  25.643  1.00  0.00    -0.206 F 
ATOM    106  F   UNL A   1      39.619  25.655  27.791  1.00  0.00    -0.206 F 
ENDBRANCH 100 102
ENDBRANCH  90 100
ENDBRANCH  81  83
ENDBRANCH  80  81
ENDBRANCH  79  80
ENDBRANCH  78  79
ENDBRANCH  77  78
ENDBRANCH  76  77
ENDBRANCH   1  76
TORSDOF 24
ENDMDL
MODEL 2
REMARK VINA RESULT:      -9.8      1.522      4.383
REMARK SMILES O=C(OCCOCCOCCOC(=O)c1nn(Cc2ccc(F)cc2)c2c1CN(C(=O)[C@H]1CC1(F)F)CC2)c1ccc(-c2c3nc(c(-c4c(F)cc(S(=O)(=O)[O-])cc4F)c4ccc([nH]4)c(-c4c(F)cc(S(=O)(=O)[O-])cc4F)c4nc(c(-c5c(F)cc(S(=O)(=O)[O-])cc5F)c5ccc2[nH]5)C=C4)C=C3)cc1
REMARK SMILES IDX 7 1 6 2 5 3 4 4 3 5 2 6 1 7 39 8 40 9 104 10 41 11 103 12
REMARK SMILES IDX 42 13 43 14 44 15 97 16 45 17 102 18 96 19 98 20 46 21
REMARK SMILES IDX 101 22 95 23 94 24 47 26 81 27 60 28 80 29 61 30 64 31 79 32
REMARK SMILES IDX 99 33 62 34 63 35 78 37 100 38 65 39 48 40 49 41 58 42 50 43
REMARK SMILES IDX 51 44 57 45 59 46 52 47 53 48 54 49 55 50 56 51 82 52 83 53
REMARK SMILES IDX 92 54 84 55 85 56 91 57 93 58 86 59 87 60 88 61 89 62 90 63
REMARK SMILES IDX 66 64 67 65 76 66 68 67 69 68 75 69 77 70 70 71 71 72 72 73
REMARK SMILES IDX 73 74 74 75 8 76 9 77 10 78 11 79 12 80 13 81 14 82 15 83
REMARK SMILES IDX 16 84 27 85 17 86 26 87 28 88 38 89 29 90 37 91 18 92 19 93
REMARK SMILES IDX 20 94 25 95 21 96 24 97 22 98 23 99 30 100 31 101 32 102
REMARK SMILES IDX 33 103 34 104 35 105 36 106
REMARK H PARENT 98 25 64 36
REMARK Flexibility Score: inf
ROOT
ATOM      1  C   UNL A   1      32.804  27.958  25.026  1.00  0.00     0.188 C 
ENDROOT
BRANCH   1   2
ATOM      2  O   UNL A   1      33.800  27.754  26.019  1.00  0.00    -0.376 OA
BRANCH   2   3
ATOM      3  C   UNL A   1      33.681  28.513  27.206  1.00  0.00     0.202 C 
BRANCH   3   4
ATOM      4  C   UNL A   1      33.761  30.028  26.993  1.00  0.00     0.261 C 
BRANCH   4   5
ATOM      5  O   UNL A   1      35.095  30.564  26.964  1.00  0.00    -0.460 OA
BRANCH   5   6
ATOM      6  C   UNL A   1      35.845  31.191  27.888  1.00  0.00     0.338 C 
ATOM      7  O   UNL A   1      35.608  32.375  28.125  1.00  0.00    -0.246 OA
BRANCH   6   8
ATOM      8  C   UNL A   1      37.047  30.584  28.522  1.00  0.00     0.060 A 
ATOM      9  C   UNL A   1      37.782  31.137  29.570  1.00  0.00     0.016 A 
ATOM     10  C   UNL A   1      37.492  29.373  27.952  1.00  0.00     0.016 A 
ATOM     11  C   UNL A   1      38.989  30.565  29.958  1.00  0.00     0.010 A 
ATOM     12  C   UNL A   1      38.697  28.797  28.337  1.00  0.00     0.010 A 
ATOM     13  C   UNL A   1      39.476  29.439  29.294  1.00  0.00    -0.014 A 
BRANCH  13  14
ATOM     14  C   UNL A   1      40.857  29.053  29.562  1.00  0.00     0.031 A 
ATOM     15  C   UNL A   1      41.350  29.154  30.960  1.00  0.00     0.074 A 
ATOM     16  C   UNL A   1      41.665  28.583  28.590  1.00  0.00     0.049 A 
ATOM     17  N   UNL A   1      42.292  29.907  31.431  1.00  0.00    -0.248 NA
ATOM     18  C   UNL A   1      40.671  28.335  31.973  1.00  0.00     0.031 C 
ATOM     19  C   UNL A   1      41.291  28.153  27.239  1.00  0.00     0.029 A 
ATOM     20  N   UNL A   1      42.996  28.301  28.653  1.00  0.00    -0.354 N 
ATOM     21  C   UNL A   1      42.456  29.532  32.764  1.00  0.00     0.074 A 
ATOM     22  C   UNL A   1      41.363  28.641  33.071  1.00  0.00     0.031 C 
ATOM     23  C   UNL A   1      42.320  27.467  26.696  1.00  0.00     0.029 A 
ATOM     24  C   UNL A   1      43.457  27.532  27.596  1.00  0.00     0.049 A 
ATOM     25  H   UNL A   1      43.577  28.615  29.382  1.00  0.00     0.167 HD
ATOM     26  C   UNL A   1      43.566  29.842  33.491  1.00  0.00     0.037 A 
ATOM     27  C   UNL A   1      44.664  26.923  27.509  1.00  0.00     0.037 A 
ATOM     28  C   UNL A   1      44.356  30.874  32.880  1.00  0.00     0.049 A 
ATOM     29  C   UNL A   1      45.593  27.623  28.431  1.00  0.00     0.074 A 
ATOM     30  C   UNL A   1      44.145  32.198  32.554  1.00  0.00     0.029 A 
ATOM     31  N   UNL A   1      45.510  30.511  32.233  1.00  0.00    -0.354 N 
ATOM     32  N   UNL A   1      46.020  28.845  28.264  1.00  0.00    -0.248 NA
ATOM     33  C   UNL A   1      45.782  27.078  29.767  1.00  0.00     0.031 C 
ATOM     34  C   UNL A   1      44.913  32.422  31.374  1.00  0.00     0.029 A 
ATOM     35  C   UNL A   1      45.556  31.224  31.061  1.00  0.00     0.049 A 
ATOM     36  H   UNL A   1      46.179  29.861  32.549  1.00  0.00     0.167 HD
ATOM     37  C   UNL A   1      46.162  29.354  29.546  1.00  0.00     0.074 A 
ATOM     38  C   UNL A   1      46.121  28.191  30.422  1.00  0.00     0.031 C 
ATOM     39  C   UNL A   1      46.025  30.689  29.801  1.00  0.00     0.037 A 
BRANCH  26  40
ATOM     40  C   UNL A   1      44.080  29.017  34.640  1.00  0.00     0.058 A 
ATOM     41  C   UNL A   1      44.022  29.463  35.978  1.00  0.00     0.135 A 
ATOM     42  C   UNL A   1      44.408  27.658  34.458  1.00  0.00     0.135 A 
ATOM     43  F   UNL A   1      43.610  30.700  36.289  1.00  0.00    -0.206 F 
ATOM     44  C   UNL A   1      44.302  28.634  37.057  1.00  0.00     0.059 A 
ATOM     45  C   UNL A   1      44.644  26.795  35.530  1.00  0.00     0.059 A 
ATOM     46  F   UNL A   1      44.453  27.128  33.225  1.00  0.00    -0.206 F 
ATOM     47  C   UNL A   1      44.589  27.295  36.827  1.00  0.00     0.060 A 
BRANCH  47  48
ATOM     48  S   UNL A   1      44.780  26.217  38.260  1.00  0.00     0.124 S 
ATOM     49  O   UNL A   1      45.213  24.974  37.630  1.00  0.00    -0.237 OA
ATOM     50  O   UNL A   1      45.794  26.923  39.037  1.00  0.00    -0.237 OA
ATOM     51  O   UNL A   1      43.444  26.198  38.846  1.00  0.00    -0.744 OA
ENDBRANCH  47  48
ENDBRANCH  26  40
BRANCH  27  52
ATOM     52  C   UNL A   1      44.948  25.581  26.939  1.00  0.00     0.058 A 
ATOM     53  C   UNL A   1      45.526  25.429  25.661  1.00  0.00     0.135 A 
ATOM     54  C   UNL A   1      44.406  24.421  27.519  1.00  0.00     0.135 A 
ATOM     55  F   UNL A   1      46.015  26.479  24.986  1.00  0.00    -0.206 F 
ATOM     56  C   UNL A   1      45.530  24.215  24.983  1.00  0.00     0.059 A 
ATOM     57  C   UNL A   1      44.385  23.193  26.850  1.00  0.00     0.059 A 
ATOM     58  F   UNL A   1      43.816  24.482  28.722  1.00  0.00    -0.206 F 
ATOM     59  C   UNL A   1      44.926  23.109  25.569  1.00  0.00     0.060 A 
BRANCH  59  60
ATOM     60  S   UNL A   1      44.769  21.613  24.573  1.00  0.00     0.124 S 
ATOM     61  O   UNL A   1      44.332  22.156  23.291  1.00  0.00    -0.237 OA
ATOM     62  O   UNL A   1      46.130  21.084  24.604  1.00  0.00    -0.237 OA
ATOM     63  O   UNL A   1      43.774  20.825  25.293  1.00  0.00    -0.744 OA
ENDBRANCH  59  60
ENDBRANCH  27  52
BRANCH  39  64
ATOM     64  C   UNL A   1      46.071  31.649  28.640  1.00  0.00     0.058 A 
ATOM     65  C   UNL A   1      47.289  32.283  28.345  1.00  0.00     0.135 A 
ATOM     66  C   UNL A   1      44.933  32.085  27.939  1.00  0.00     0.135 A 
ATOM     67  F   UNL A   1      48.402  31.951  29.020  1.00  0.00    -0.206 F 
ATOM     68  C   UNL A   1      47.377  33.307  27.408  1.00  0.00     0.059 A 
ATOM     69  C   UNL A   1      45.004  33.088  26.970  1.00  0.00     0.059 A 
ATOM     70  F   UNL A   1      43.717  31.603  28.234  1.00  0.00    -0.206 F 
ATOM     71  C   UNL A   1      46.228  33.708  26.727  1.00  0.00     0.060 A 
BRANCH  71  72
ATOM     72  S   UNL A   1      46.355  35.079  25.559  1.00  0.00     0.124 S 
ATOM     73  O   UNL A   1      47.801  35.201  25.399  1.00  0.00    -0.237 OA
ATOM     74  O   UNL A   1      45.634  34.570  24.397  1.00  0.00    -0.237 OA
ATOM     75  O   UNL A   1      45.711  36.189  26.254  1.00  0.00    -0.744 OA
ENDBRANCH  71  72
ENDBRANCH  39  64
ENDBRANCH  13  14
ENDBRANCH   6   8
ENDBRANCH   5   6
ENDBRANCH   4   5
ENDBRANCH   3   4
ENDBRANCH   2   3
ENDBRANCH   1   2
BRANCH   1  76
ATOM     76  C   UNL A   1      32.046  26.660  24.679  1.00  0.00     0.188 C 
BRANCH  76  77
ATOM     77  O   UNL A   1      31.836  26.276  23.323  1.00  0.00    -0.376 OA
BRANCH  77  78
ATOM     78  C   UNL A   1      32.905  25.765  22.552  1.00  0.00     0.202 C 
BRANCH  78  79
ATOM     79  C   UNL A   1      33.252  24.294  22.770  1.00  0.00     0.261 C 
BRANCH  79  80
ATOM     80  O   UNL A   1      34.632  24.025  23.048  1.00  0.00    -0.458 OA
BRANCH  80  81
ATOM     81  C   UNL A   1      34.977  23.907  24.369  1.00  0.00     0.359 C 
ATOM     82  O   UNL A   1      34.620  24.667  25.257  1.00  0.00    -0.244 OA
BRANCH  81  83
ATOM     83  C   UNL A   1      35.807  22.722  24.613  1.00  0.00     0.175 A 
ATOM     84  N   UNL A   1      37.122  22.851  24.884  1.00  0.00    -0.165 NA
ATOM     85  C   UNL A   1      35.416  21.352  24.644  1.00  0.00     0.028 A 
ATOM     86  N   UNL A   1      37.563  21.590  25.088  1.00  0.00    -0.264 N 
ATOM     87  C   UNL A   1      36.584  20.662  24.901  1.00  0.00     0.046 A 
ATOM     88  C   UNL A   1      34.096  20.683  24.424  1.00  0.00     0.159 C 
ATOM     89  C   UNL A   1      36.694  19.183  24.998  1.00  0.00     0.078 C 
ATOM     90  N   UNL A   1      34.216  19.240  24.723  1.00  0.00    -0.337 N 
ATOM     91  C   UNL A   1      35.463  18.569  24.300  1.00  0.00     0.126 C 
BRANCH  86  92
ATOM     92  C   UNL A   1      38.907  21.376  25.609  1.00  0.00     0.180 C 
BRANCH  92  93
ATOM     93  C   UNL A   1      39.382  22.514  26.478  1.00  0.00    -0.026 A 
ATOM     94  C   UNL A   1      38.700  23.743  26.470  1.00  0.00     0.008 A 
ATOM     95  C   UNL A   1      40.492  22.356  27.323  1.00  0.00     0.008 A 
ATOM     96  C   UNL A   1      39.111  24.788  27.295  1.00  0.00     0.039 A 
ATOM     97  C   UNL A   1      40.900  23.403  28.151  1.00  0.00     0.039 A 
ATOM     98  C   UNL A   1      40.206  24.608  28.131  1.00  0.00     0.123 A 
ATOM     99  F   UNL A   1      40.592  25.608  28.934  1.00  0.00    -0.207 F 
ENDBRANCH  92  93
ENDBRANCH  86  92
BRANCH  90 100
ATOM    100  C   UNL A   1      33.121  18.592  25.277  1.00  0.00     0.232 C 
ATOM    101  O   UNL A   1      31.996  19.075  25.297  1.00  0.00    -0.274 OA
BRANCH 100 102
ATOM    102  C   UNL A   1      33.343  17.241  25.836  1.00  0.00     0.154 C 
ATOM    103  C   UNL A   1      32.274  16.168  25.695  1.00  0.00     0.097 C 
ATOM    104  C   UNL A   1      33.539  16.084  24.929  1.00  0.00     0.260 C 
ATOM    105  F   UNL A   1      33.485  16.174  23.558  1.00  0.00    -0.206 F 
ATOM    106  F   UNL A   1      34.433  15.084  25.238  1.00  0.00    -0.206 F 
ENDBRANCH 100 102
ENDBRANCH  90 100
ENDBRANCH  81  83
ENDBRANCH  80  81
ENDBRANCH  79  80
ENDBRANCH  78  79
ENDBRANCH  77  78
ENDBRANCH  76  77
ENDBRANCH   1  76
TORSDOF 24
ENDMDL
MODEL 3
REMARK VINA RESULT:      -9.5      3.224      7.606
REMARK SMILES O=C(OCCOCCOCCOC(=O)c1nn(Cc2ccc(F)cc2)c2c1CN(C(=O)[C@H]1CC1(F)F)CC2)c1ccc(-c2c3nc(c(-c4c(F)cc(S(=O)(=O)[O-])cc4F)c4ccc([nH]4)c(-c4c(F)cc(S(=O)(=O)[O-])cc4F)c4nc(c(-c5c(F)cc(S(=O)(=O)[O-])cc5F)c5ccc2[nH]5)C=C4)C=C3)cc1
REMARK SMILES IDX 7 1 6 2 5 3 4 4 3 5 2 6 1 7 39 8 40 9 104 10 41 11 103 12
REMARK SMILES IDX 42 13 43 14 44 15 97 16 45 17 102 18 96 19 98 20 46 21
REMARK SMILES IDX 101 22 95 23 94 24 47 26 81 27 60 28 80 29 61 30 64 31 79 32
REMARK SMILES IDX 99 33 62 34 63 35 78 37 100 38 65 39 48 40 49 41 58 42 50 43
REMARK SMILES IDX 51 44 57 45 59 46 52 47 53 48 54 49 55 50 56 51 82 52 83 53
REMARK SMILES IDX 92 54 84 55 85 56 91 57 93 58 86 59 87 60 88 61 89 62 90 63
REMARK SMILES IDX 66 64 67 65 76 66 68 67 69 68 75 69 77 70 70 71 71 72 72 73
REMARK SMILES IDX 73 74 74 75 8 76 9 77 10 78 11 79 12 80 13 81 14 82 15 83
REMARK SMILES IDX 16 84 27 85 17 86 26 87 28 88 38 89 29 90 37 91 18 92 19 93
REMARK SMILES IDX 20 94 25 95 21 96 24 97 22 98 23 99 30 100 31 101 32 102
REMARK SMILES IDX 33 103 34 104 35 105 36 106
REMARK H PARENT 98 25 64 36
REMARK Flexibility Score: inf
ROOT
ATOM      1  C   UNL A   1      31.425  27.561  25.848  1.00  0.00     0.188 C 
ENDROOT
BRANCH   1   2
ATOM      2  O   UNL A   1      32.722  27.109  26.214  1.00  0.00    -0.376 OA
BRANCH   2   3
ATOM      3  C   UNL A   1      33.671  28.101  26.551  1.00  0.00     0.202 C 
BRANCH   3   4
ATOM      4  C   UNL A   1      33.170  29.537  26.366  1.00  0.00     0.261 C 
BRANCH   4   5
ATOM      5  O   UNL A   1      33.166  30.335  27.562  1.00  0.00    -0.460 OA
BRANCH   5   6
ATOM      6  C   UNL A   1      33.960  31.330  27.995  1.00  0.00     0.338 C 
ATOM      7  O   UNL A   1      33.608  32.490  27.785  1.00  0.00    -0.246 OA
BRANCH   6   8
ATOM      8  C   UNL A   1      35.316  31.111  28.568  1.00  0.00     0.060 A 
ATOM      9  C   UNL A   1      35.717  31.441  29.862  1.00  0.00     0.016 A 
ATOM     10  C   UNL A   1      36.273  30.573  27.683  1.00  0.00     0.016 A 
ATOM     11  C   UNL A   1      37.057  31.352  30.225  1.00  0.00     0.010 A 
ATOM     12  C   UNL A   1      37.613  30.480  28.041  1.00  0.00     0.010 A 
ATOM     13  C   UNL A   1      38.010  30.940  29.293  1.00  0.00    -0.014 A 
BRANCH  13  14
ATOM     14  C   UNL A   1      39.412  31.125  29.648  1.00  0.00     0.031 A 
ATOM     15  C   UNL A   1      40.300  29.934  29.627  1.00  0.00     0.074 A 
ATOM     16  C   UNL A   1      39.912  32.340  29.952  1.00  0.00     0.049 A 
ATOM     17  N   UNL A   1      40.934  29.383  30.612  1.00  0.00    -0.248 NA
ATOM     18  C   UNL A   1      40.467  29.242  28.343  1.00  0.00     0.031 C 
ATOM     19  C   UNL A   1      39.281  33.648  29.758  1.00  0.00     0.029 A 
ATOM     20  N   UNL A   1      41.154  32.656  30.417  1.00  0.00    -0.354 N 
ATOM     21  C   UNL A   1      41.728  28.384  30.051  1.00  0.00     0.074 A 
ATOM     22  C   UNL A   1      41.320  28.271  28.671  1.00  0.00     0.031 C 
ATOM     23  C   UNL A   1      40.216  34.613  29.896  1.00  0.00     0.029 A 
ATOM     24  C   UNL A   1      41.463  34.003  30.319  1.00  0.00     0.049 A 
ATOM     25  H   UNL A   1      41.773  31.988  30.790  1.00  0.00     0.167 HD
ATOM     26  C   UNL A   1      42.784  27.822  30.702  1.00  0.00     0.037 A 
ATOM     27  C   UNL A   1      42.683  34.564  30.494  1.00  0.00     0.037 A 
ATOM     28  C   UNL A   1      42.769  28.089  32.113  1.00  0.00     0.049 A 
ATOM     29  C   UNL A   1      43.499  33.631  31.312  1.00  0.00     0.074 A 
ATOM     30  C   UNL A   1      41.911  27.790  33.152  1.00  0.00     0.029 A 
ATOM     31  N   UNL A   1      43.632  29.037  32.604  1.00  0.00    -0.354 N 
ATOM     32  N   UNL A   1      43.271  33.356  32.567  1.00  0.00    -0.248 NA
ATOM     33  C   UNL A   1      44.387  32.705  30.626  1.00  0.00     0.031 C 
ATOM     34  C   UNL A   1      42.008  28.894  34.049  1.00  0.00     0.029 A 
ATOM     35  C   UNL A   1      42.928  29.792  33.507  1.00  0.00     0.049 A 
ATOM     36  H   UNL A   1      44.577  29.153  32.354  1.00  0.00     0.167 HD
ATOM     37  C   UNL A   1      43.652  32.032  32.719  1.00  0.00     0.074 A 
ATOM     38  C   UNL A   1      44.440  31.727  31.532  1.00  0.00     0.031 C 
ATOM     39  C   UNL A   1      43.069  31.226  33.655  1.00  0.00     0.037 A 
BRANCH  26  40
ATOM     40  C   UNL A   1      43.989  27.240  30.012  1.00  0.00     0.058 A 
ATOM     41  C   UNL A   1      44.114  25.860  29.742  1.00  0.00     0.135 A 
ATOM     42  C   UNL A   1      44.928  28.079  29.379  1.00  0.00     0.135 A 
ATOM     43  F   UNL A   1      43.215  24.973  30.191  1.00  0.00    -0.206 F 
ATOM     44  C   UNL A   1      45.116  25.342  28.931  1.00  0.00     0.059 A 
ATOM     45  C   UNL A   1      45.913  27.585  28.520  1.00  0.00     0.059 A 
ATOM     46  F   UNL A   1      44.871  29.410  29.543  1.00  0.00    -0.206 F 
ATOM     47  C   UNL A   1      45.998  26.213  28.304  1.00  0.00     0.060 A 
BRANCH  47  48
ATOM     48  S   UNL A   1      47.175  25.516  27.129  1.00  0.00     0.124 S 
ATOM     49  O   UNL A   1      47.139  24.102  27.489  1.00  0.00    -0.237 OA
ATOM     50  O   UNL A   1      46.566  25.863  25.849  1.00  0.00    -0.237 OA
ATOM     51  O   UNL A   1      48.415  26.217  27.442  1.00  0.00    -0.744 OA
ENDBRANCH  47  48
ENDBRANCH  26  40
BRANCH  27  52
ATOM     52  C   UNL A   1      43.273  35.682  29.713  1.00  0.00     0.058 A 
ATOM     53  C   UNL A   1      43.628  36.903  30.324  1.00  0.00     0.135 A 
ATOM     54  C   UNL A   1      43.242  35.675  28.308  1.00  0.00     0.135 A 
ATOM     55  F   UNL A   1      43.628  37.043  31.657  1.00  0.00    -0.206 F 
ATOM     56  C   UNL A   1      43.898  38.054  29.592  1.00  0.00     0.059 A 
ATOM     57  C   UNL A   1      43.493  36.824  27.551  1.00  0.00     0.059 A 
ATOM     58  F   UNL A   1      42.891  34.562  27.646  1.00  0.00    -0.206 F 
ATOM     59  C   UNL A   1      43.793  38.016  28.207  1.00  0.00     0.060 A 
BRANCH  59  60
ATOM     60  S   UNL A   1      43.945  39.576  27.312  1.00  0.00     0.124 S 
ATOM     61  O   UNL A   1      45.275  39.451  26.725  1.00  0.00    -0.237 OA
ATOM     62  O   UNL A   1      42.829  39.496  26.373  1.00  0.00    -0.237 OA
ATOM     63  O   UNL A   1      43.812  40.585  28.358  1.00  0.00    -0.744 OA
ENDBRANCH  59  60
ENDBRANCH  27  52
BRANCH  39  64
ATOM     64  C   UNL A   1      42.265  31.869  34.755  1.00  0.00     0.058 A 
ATOM     65  C   UNL A   1      42.816  31.917  36.045  1.00  0.00     0.135 A 
ATOM     66  C   UNL A   1      40.925  32.271  34.613  1.00  0.00     0.135 A 
ATOM     67  F   UNL A   1      44.073  31.493  36.257  1.00  0.00    -0.206 F 
ATOM     68  C   UNL A   1      42.075  32.332  37.147  1.00  0.00     0.059 A 
ATOM     69  C   UNL A   1      40.173  32.724  35.699  1.00  0.00     0.059 A 
ATOM     70  F   UNL A   1      40.294  32.160  33.435  1.00  0.00    -0.206 F 
ATOM     71  C   UNL A   1      40.751  32.731  36.966  1.00  0.00     0.060 A 
BRANCH  71  72
ATOM     72  S   UNL A   1      39.791  33.210  38.419  1.00  0.00     0.124 S 
ATOM     73  O   UNL A   1      40.804  33.175  39.470  1.00  0.00    -0.237 OA
ATOM     74  O   UNL A   1      39.309  34.538  38.053  1.00  0.00    -0.237 OA
ATOM     75  O   UNL A   1      38.763  32.178  38.512  1.00  0.00    -0.744 OA
ENDBRANCH  71  72
ENDBRANCH  39  64
ENDBRANCH  13  14
ENDBRANCH   6   8
ENDBRANCH   5   6
ENDBRANCH   4   5
ENDBRANCH   3   4
ENDBRANCH   2   3
ENDBRANCH   1   2
BRANCH   1  76
ATOM     76  C   UNL A   1      31.099  27.274  24.368  1.00  0.00     0.188 C 
BRANCH  76  77
ATOM     77  O   UNL A   1      31.720  28.019  23.324  1.00  0.00    -0.376 OA
BRANCH  77  78
ATOM     78  C   UNL A   1      33.048  27.731  22.935  1.00  0.00     0.202 C 
BRANCH  78  79
ATOM     79  C   UNL A   1      33.235  26.536  22.003  1.00  0.00     0.261 C 
BRANCH  79  80
ATOM     80  O   UNL A   1      32.482  25.367  22.346  1.00  0.00    -0.458 OA
BRANCH  80  81
ATOM     81  C   UNL A   1      33.076  24.160  22.087  1.00  0.00     0.359 C 
ATOM     82  O   UNL A   1      33.575  23.839  21.019  1.00  0.00    -0.244 OA
BRANCH  81  83
ATOM     83  C   UNL A   1      33.083  23.290  23.269  1.00  0.00     0.175 A 
ATOM     84  N   UNL A   1      32.189  22.287  23.387  1.00  0.00    -0.165 NA
ATOM     85  C   UNL A   1      33.969  23.311  24.385  1.00  0.00     0.028 A 
ATOM     86  N   UNL A   1      32.497  21.678  24.552  1.00  0.00    -0.264 N 
ATOM     87  C   UNL A   1      33.522  22.293  25.204  1.00  0.00     0.046 A 
ATOM     88  C   UNL A   1      35.121  24.200  24.730  1.00  0.00     0.159 C 
ATOM     89  C   UNL A   1      34.114  21.940  26.521  1.00  0.00     0.078 C 
ATOM     90  N   UNL A   1      35.795  23.689  25.943  1.00  0.00    -0.337 N 
ATOM     91  C   UNL A   1      34.931  23.151  27.015  1.00  0.00     0.126 C 
BRANCH  86  92
ATOM     92  C   UNL A   1      31.854  20.415  24.893  1.00  0.00     0.180 C 
BRANCH  92  93
ATOM     93  C   UNL A   1      32.561  19.223  24.297  1.00  0.00    -0.026 A 
ATOM     94  C   UNL A   1      32.120  18.675  23.080  1.00  0.00     0.008 A 
ATOM     95  C   UNL A   1      33.678  18.660  24.933  1.00  0.00     0.008 A 
ATOM     96  C   UNL A   1      32.787  17.595  22.505  1.00  0.00     0.039 A 
ATOM     97  C   UNL A   1      34.347  17.580  24.353  1.00  0.00     0.039 A 
ATOM     98  C   UNL A   1      33.897  17.060  23.145  1.00  0.00     0.123 A 
ATOM     99  F   UNL A   1      34.546  16.031  22.585  1.00  0.00    -0.207 F 
ENDBRANCH  92  93
ENDBRANCH  86  92
BRANCH  90 100
ATOM    100  C   UNL A   1      37.171  23.842  26.043  1.00  0.00     0.232 C 
ATOM    101  O   UNL A   1      37.701  24.679  26.762  1.00  0.00    -0.274 OA
BRANCH 100 102
ATOM    102  C   UNL A   1      38.017  22.918  25.257  1.00  0.00     0.154 C 
ATOM    103  C   UNL A   1      38.942  21.938  25.963  1.00  0.00     0.097 C 
ATOM    104  C   UNL A   1      37.727  21.463  25.260  1.00  0.00     0.260 C 
ATOM    105  F   UNL A   1      36.723  20.888  26.000  1.00  0.00    -0.206 F 
ATOM    106  F   UNL A   1      37.878  20.708  24.118  1.00  0.00    -0.206 F 
ENDBRANCH 100 102
ENDBRANCH  90 100
ENDBRANCH  81  83
ENDBRANCH  80  81
ENDBRANCH  79  80
ENDBRANCH  78  79
ENDBRANCH  77  78
ENDBRANCH  76  77
ENDBRANCH   1  76
TORSDOF 24
ENDMDL
