MODEL 1
REMARK VINA RESULT:     -10.5      0.000      0.000
REMARK SMILES CS(=O)(=O)c1ccc(/C=C(/C(=O)OCCOCCOCCOC(=O)c2ccc(-c3c4nc(c(-c5c(F)cc(S(=O)(=O)[O-])cc5F)c5ccc([nH]5)c(-c5c(F)cc(S(=O)(=O)[O-])cc5F)c5nc(c(-c6c(F)cc(S(=O)(=O)[O-])cc6F)c6ccc3[nH]6)C=C5)C=C4)cc2)c2cccc(Br)c2)cc1
REMARK SMILES IDX 18 1 17 2 16 3 15 4 14 5 13 6 11 7 12 8 10 9 9 10 8 11 5 12
REMARK SMILES IDX 6 13 99 14 7 15 98 16 2 17 1 18 3 19 4 20 91 21 92 22 97 23
REMARK SMILES IDX 93 24 95 25 94 26 96 27 19 28 20 29 21 30 22 31 23 32 24 33
REMARK SMILES IDX 25 34 26 35 90 36 27 37 89 38 28 39 29 40 30 41 83 42 31 43
REMARK SMILES IDX 88 44 82 45 84 46 32 47 87 48 81 49 80 50 33 52 67 53 46 54
REMARK SMILES IDX 66 55 47 56 50 57 65 58 85 59 48 60 49 61 64 63 86 64 51 65
REMARK SMILES IDX 34 66 35 67 44 68 36 69 37 70 43 71 45 72 38 73 39 74 40 75
REMARK SMILES IDX 41 76 42 77 68 78 69 79 78 80 70 81 71 82 77 83 79 84 72 85
REMARK SMILES IDX 73 86 74 87 75 88 76 89 52 90 53 91 62 92 54 93 55 94 61 95
REMARK SMILES IDX 63 96 56 97 57 98 58 99 59 100 60 101
REMARK H PARENT 84 51 50 62
REMARK Flexibility Score: inf
ROOT
ATOM      1  C   UNL A   1      33.611  28.335  27.080  1.00  0.00     0.188 C 
ENDROOT
BRANCH   1   2
ATOM      2  C   UNL A   1      32.212  27.809  26.697  1.00  0.00     0.188 C 
BRANCH   2   3
ATOM      3  O   UNL A   1      32.247  26.739  25.769  1.00  0.00    -0.376 OA
BRANCH   3   4
ATOM      4  C   UNL A   1      32.386  27.121  24.408  1.00  0.00     0.202 C 
BRANCH   4   5
ATOM      5  C   UNL A   1      31.372  26.531  23.410  1.00  0.00     0.261 C 
BRANCH   5   6
ATOM      6  O   UNL A   1      31.402  25.102  23.235  1.00  0.00    -0.460 OA
BRANCH   6   7
ATOM      7  C   UNL A   1      32.532  24.543  22.732  1.00  0.00     0.338 C 
ATOM      8  O   UNL A   1      33.268  25.079  21.918  1.00  0.00    -0.246 OA
BRANCH   7   9
ATOM      9  C   UNL A   1      32.828  23.222  23.398  1.00  0.00     0.067 C 
ATOM     10  C   UNL A   1      32.094  22.124  23.082  1.00  0.00     0.024 C 
BRANCH  10  11
ATOM     11  C   UNL A   1      32.284  20.715  23.524  1.00  0.00    -0.025 A 
ATOM     12  C   UNL A   1      33.035  18.075  24.159  1.00  0.00     0.067 A 
ATOM     13  C   UNL A   1      32.922  19.023  25.171  1.00  0.00     0.021 A 
ATOM     14  C   UNL A   1      32.662  18.399  22.853  1.00  0.00     0.021 A 
ATOM     15  C   UNL A   1      32.511  20.323  24.853  1.00  0.00     0.009 A 
ATOM     16  C   UNL A   1      32.286  19.712  22.543  1.00  0.00     0.009 A 
BRANCH  12  17
ATOM     17  S   UNL A   1      33.708  16.465  24.500  1.00  0.00     0.175 S 
ATOM     18  C   UNL A   1      32.406  15.549  25.285  1.00  0.00     0.163 C 
ATOM     19  O   UNL A   1      34.754  16.644  25.494  1.00  0.00    -0.224 OA
ATOM     20  O   UNL A   1      33.999  15.851  23.221  1.00  0.00    -0.224 OA
ENDBRANCH  12  17
ENDBRANCH  10  11
BRANCH   9  21
ATOM     21  C   UNL A   1      33.920  23.173  24.395  1.00  0.00    -0.010 A 
ATOM     22  C   UNL A   1      33.715  23.716  25.676  1.00  0.00     0.009 A 
ATOM     23  C   UNL A   1      35.093  22.451  24.145  1.00  0.00     0.024 A 
ATOM     24  C   UNL A   1      34.645  23.506  26.696  1.00  0.00     0.002 A 
ATOM     25  C   UNL A   1      36.004  22.224  25.178  1.00  0.00     0.018 A 
ATOM     26  C   UNL A   1      35.785  22.748  26.450  1.00  0.00     0.016 A 
ATOM     27  Br  UNL A   1      37.499  21.108  24.870  1.00  0.00    -0.051 Br
ENDBRANCH   9  21
ENDBRANCH   7   9
ENDBRANCH   6   7
ENDBRANCH   5   6
ENDBRANCH   4   5
ENDBRANCH   3   4
ENDBRANCH   2   3
ENDBRANCH   1   2
BRANCH   1  28
ATOM     28  O   UNL A   1      34.045  29.612  26.639  1.00  0.00    -0.376 OA
BRANCH  28  29
ATOM     29  C   UNL A   1      33.279  30.757  26.979  1.00  0.00     0.202 C 
BRANCH  29  30
ATOM     30  C   UNL A   1      33.943  31.983  27.636  1.00  0.00     0.261 C 
BRANCH  30  31
ATOM     31  O   UNL A   1      33.075  33.048  28.060  1.00  0.00    -0.460 OA
BRANCH  31  32
ATOM     32  C   UNL A   1      33.689  34.194  28.445  1.00  0.00     0.338 C 
ATOM     33  O   UNL A   1      33.340  35.337  28.180  1.00  0.00    -0.246 OA
BRANCH  32  34
ATOM     34  C   UNL A   1      34.761  33.886  29.417  1.00  0.00     0.060 A 
ATOM     35  C   UNL A   1      36.090  34.165  29.062  1.00  0.00     0.016 A 
ATOM     36  C   UNL A   1      34.476  33.290  30.647  1.00  0.00     0.016 A 
ATOM     37  C   UNL A   1      37.135  33.838  29.926  1.00  0.00     0.010 A 
ATOM     38  C   UNL A   1      35.531  32.934  31.500  1.00  0.00     0.010 A 
ATOM     39  C   UNL A   1      36.866  33.184  31.135  1.00  0.00    -0.014 A 
BRANCH  39  40
ATOM     40  C   UNL A   1      37.987  32.605  31.919  1.00  0.00     0.031 A 
ATOM     41  C   UNL A   1      38.757  31.452  31.331  1.00  0.00     0.074 A 
ATOM     42  C   UNL A   1      38.339  33.105  33.118  1.00  0.00     0.049 A 
ATOM     43  N   UNL A   1      39.753  30.774  31.838  1.00  0.00    -0.248 NA
ATOM     44  C   UNL A   1      38.344  31.006  29.990  1.00  0.00     0.031 C 
ATOM     45  C   UNL A   1      37.698  34.236  33.783  1.00  0.00     0.029 A 
ATOM     46  N   UNL A   1      39.326  32.717  33.992  1.00  0.00    -0.354 N 
ATOM     47  C   UNL A   1      40.083  29.817  30.885  1.00  0.00     0.074 A 
ATOM     48  C   UNL A   1      39.165  29.988  29.780  1.00  0.00     0.031 C 
ATOM     49  C   UNL A   1      38.308  34.450  34.963  1.00  0.00     0.029 A 
ATOM     50  C   UNL A   1      39.352  33.444  35.158  1.00  0.00     0.049 A 
ATOM     51  H   UNL A   1      39.956  31.985  33.800  1.00  0.00     0.167 HD
ATOM     52  C   UNL A   1      41.064  28.884  30.924  1.00  0.00     0.037 A 
ATOM     53  C   UNL A   1      40.110  33.299  36.265  1.00  0.00     0.037 A 
ATOM     54  C   UNL A   1      41.966  28.704  32.032  1.00  0.00     0.049 A 
ATOM     55  C   UNL A   1      41.144  32.198  36.318  1.00  0.00     0.074 A 
ATOM     56  C   UNL A   1      42.997  27.789  32.159  1.00  0.00     0.029 A 
ATOM     57  N   UNL A   1      41.938  29.438  33.208  1.00  0.00    -0.354 N 
ATOM     58  N   UNL A   1      41.465  31.320  35.398  1.00  0.00    -0.248 NA
ATOM     59  C   UNL A   1      41.920  32.071  37.561  1.00  0.00     0.031 C 
ATOM     60  C   UNL A   1      43.552  27.929  33.435  1.00  0.00     0.029 A 
ATOM     61  C   UNL A   1      42.915  28.978  34.077  1.00  0.00     0.049 A 
ATOM     62  H   UNL A   1      41.316  30.177  33.397  1.00  0.00     0.167 HD
ATOM     63  C   UNL A   1      42.499  30.559  35.939  1.00  0.00     0.074 A 
ATOM     64  C   UNL A   1      42.758  31.088  37.262  1.00  0.00     0.031 C 
ATOM     65  C   UNL A   1      43.175  29.519  35.389  1.00  0.00     0.037 A 
BRANCH  52  66
ATOM     66  C   UNL A   1      41.188  27.957  29.745  1.00  0.00     0.058 A 
ATOM     67  C   UNL A   1      42.260  28.046  28.842  1.00  0.00     0.135 A 
ATOM     68  C   UNL A   1      40.239  26.944  29.535  1.00  0.00     0.135 A 
ATOM     69  F   UNL A   1      43.187  29.008  28.985  1.00  0.00    -0.206 F 
ATOM     70  C   UNL A   1      42.371  27.183  27.757  1.00  0.00     0.059 A 
ATOM     71  C   UNL A   1      40.346  26.049  28.475  1.00  0.00     0.059 A 
ATOM     72  F   UNL A   1      39.193  26.815  30.365  1.00  0.00    -0.206 F 
ATOM     73  C   UNL A   1      41.409  26.186  27.583  1.00  0.00     0.060 A 
BRANCH  73  74
ATOM     74  S   UNL A   1      41.569  25.072  26.172  1.00  0.00     0.124 S 
ATOM     75  O   UNL A   1      41.100  25.917  25.079  1.00  0.00    -0.237 OA
ATOM     76  O   UNL A   1      42.997  24.772  26.175  1.00  0.00    -0.237 OA
ATOM     77  O   UNL A   1      40.696  23.955  26.519  1.00  0.00    -0.744 OA
ENDBRANCH  73  74
ENDBRANCH  52  66
BRANCH  53  78
ATOM     78  C   UNL A   1      39.912  34.202  37.433  1.00  0.00     0.058 A 
ATOM     79  C   UNL A   1      40.598  35.421  37.534  1.00  0.00     0.135 A 
ATOM     80  C   UNL A   1      39.048  33.852  38.483  1.00  0.00     0.135 A 
ATOM     81  F   UNL A   1      41.447  35.795  36.564  1.00  0.00    -0.206 F 
ATOM     82  C   UNL A   1      40.450  36.253  38.640  1.00  0.00     0.059 A 
ATOM     83  C   UNL A   1      38.859  34.681  39.584  1.00  0.00     0.059 A 
ATOM     84  F   UNL A   1      38.364  32.698  38.436  1.00  0.00    -0.206 F 
ATOM     85  C   UNL A   1      39.575  35.876  39.659  1.00  0.00     0.060 A 
BRANCH  85  86
ATOM     86  S   UNL A   1      39.356  36.985  41.067  1.00  0.00     0.124 S 
ATOM     87  O   UNL A   1      38.641  36.129  42.007  1.00  0.00    -0.237 OA
ATOM     88  O   UNL A   1      40.736  37.306  41.417  1.00  0.00    -0.237 OA
ATOM     89  O   UNL A   1      38.584  38.090  40.507  1.00  0.00    -0.744 OA
ENDBRANCH  85  86
ENDBRANCH  53  78
BRANCH  65  90
ATOM     90  C   UNL A   1      44.299  28.907  36.186  1.00  0.00     0.058 A 
ATOM     91  C   UNL A   1      45.596  29.444  36.181  1.00  0.00     0.135 A 
ATOM     92  C   UNL A   1      44.055  27.800  37.018  1.00  0.00     0.135 A 
ATOM     93  F   UNL A   1      45.889  30.498  35.404  1.00  0.00    -0.206 F 
ATOM     94  C   UNL A   1      46.615  28.892  36.954  1.00  0.00     0.059 A 
ATOM     95  C   UNL A   1      45.050  27.253  37.823  1.00  0.00     0.059 A 
ATOM     96  F   UNL A   1      42.830  27.252  37.071  1.00  0.00    -0.206 F 
ATOM     97  C   UNL A   1      46.331  27.798  37.774  1.00  0.00     0.060 A 
BRANCH  97  98
ATOM     98  S   UNL A   1      47.653  27.114  38.797  1.00  0.00     0.124 S 
ATOM     99  O   UNL A   1      48.755  27.039  37.843  1.00  0.00    -0.237 OA
ATOM    100  O   UNL A   1      47.789  28.123  39.844  1.00  0.00    -0.237 OA
ATOM    101  O   UNL A   1      47.115  25.831  39.236  1.00  0.00    -0.744 OA
ENDBRANCH  97  98
ENDBRANCH  65  90
ENDBRANCH  39  40
ENDBRANCH  32  34
ENDBRANCH  31  32
ENDBRANCH  30  31
ENDBRANCH  29  30
ENDBRANCH  28  29
ENDBRANCH   1  28
TORSDOF 23
ENDMDL
MODEL 2
REMARK VINA RESULT:     -10.3      5.498     10.979
REMARK SMILES CS(=O)(=O)c1ccc(/C=C(/C(=O)OCCOCCOCCOC(=O)c2ccc(-c3c4nc(c(-c5c(F)cc(S(=O)(=O)[O-])cc5F)c5ccc([nH]5)c(-c5c(F)cc(S(=O)(=O)[O-])cc5F)c5nc(c(-c6c(F)cc(S(=O)(=O)[O-])cc6F)c6ccc3[nH]6)C=C5)C=C4)cc2)c2cccc(Br)c2)cc1
REMARK SMILES IDX 18 1 17 2 16 3 15 4 14 5 13 6 11 7 12 8 10 9 9 10 8 11 5 12
REMARK SMILES IDX 6 13 99 14 7 15 98 16 2 17 1 18 3 19 4 20 91 21 92 22 97 23
REMARK SMILES IDX 93 24 95 25 94 26 96 27 19 28 20 29 21 30 22 31 23 32 24 33
REMARK SMILES IDX 25 34 26 35 90 36 27 37 89 38 28 39 29 40 30 41 83 42 31 43
REMARK SMILES IDX 88 44 82 45 84 46 32 47 87 48 81 49 80 50 33 52 67 53 46 54
REMARK SMILES IDX 66 55 47 56 50 57 65 58 85 59 48 60 49 61 64 63 86 64 51 65
REMARK SMILES IDX 34 66 35 67 44 68 36 69 37 70 43 71 45 72 38 73 39 74 40 75
REMARK SMILES IDX 41 76 42 77 68 78 69 79 78 80 70 81 71 82 77 83 79 84 72 85
REMARK SMILES IDX 73 86 74 87 75 88 76 89 52 90 53 91 62 92 54 93 55 94 61 95
REMARK SMILES IDX 63 96 56 97 57 98 58 99 59 100 60 101
REMARK H PARENT 84 51 50 62
REMARK Flexibility Score: inf
ROOT
ATOM      1  C   UNL A   1      33.693  36.292  32.652  1.00  0.00     0.188 C 
ENDROOT
BRANCH   1   2
ATOM      2  C   UNL A   1      33.410  37.382  31.596  1.00  0.00     0.188 C 
BRANCH   2   3
ATOM      3  O   UNL A   1      32.936  36.863  30.366  1.00  0.00    -0.376 OA
BRANCH   3   4
ATOM      4  C   UNL A   1      32.996  35.449  30.239  1.00  0.00     0.202 C 
BRANCH   4   5
ATOM      5  C   UNL A   1      33.722  34.888  29.002  1.00  0.00     0.261 C 
BRANCH   5   6
ATOM      6  O   UNL A   1      33.997  33.474  29.008  1.00  0.00    -0.460 OA
BRANCH   6   7
ATOM      7  C   UNL A   1      34.840  32.983  28.065  1.00  0.00     0.338 C 
ATOM      8  O   UNL A   1      35.637  33.654  27.429  1.00  0.00    -0.246 OA
BRANCH   7   9
ATOM      9  C   UNL A   1      34.749  31.479  27.986  1.00  0.00     0.067 C 
ATOM     10  C   UNL A   1      33.635  30.892  27.476  1.00  0.00     0.024 C 
BRANCH  10  11
ATOM     11  C   UNL A   1      33.382  29.451  27.201  1.00  0.00    -0.025 A 
ATOM     12  C   UNL A   1      32.638  26.867  26.360  1.00  0.00     0.067 A 
ATOM     13  C   UNL A   1      33.946  27.305  26.173  1.00  0.00     0.021 A 
ATOM     14  C   UNL A   1      31.732  27.658  27.068  1.00  0.00     0.021 A 
ATOM     15  C   UNL A   1      34.318  28.575  26.629  1.00  0.00     0.009 A 
ATOM     16  C   UNL A   1      32.107  28.940  27.488  1.00  0.00     0.009 A 
BRANCH  12  17
ATOM     17  S   UNL A   1      32.089  25.331  25.653  1.00  0.00     0.175 S 
ATOM     18  C   UNL A   1      33.331  24.132  26.069  1.00  0.00     0.163 C 
ATOM     19  O   UNL A   1      32.129  25.491  24.208  1.00  0.00    -0.224 OA
ATOM     20  O   UNL A   1      30.857  24.974  26.325  1.00  0.00    -0.224 OA
ENDBRANCH  12  17
ENDBRANCH  10  11
BRANCH   9  21
ATOM     21  C   UNL A   1      35.893  30.684  28.486  1.00  0.00    -0.010 A 
ATOM     22  C   UNL A   1      35.785  30.009  29.714  1.00  0.00     0.009 A 
ATOM     23  C   UNL A   1      37.018  30.456  27.683  1.00  0.00     0.024 A 
ATOM     24  C   UNL A   1      36.761  29.094  30.113  1.00  0.00     0.002 A 
ATOM     25  C   UNL A   1      37.975  29.520  28.078  1.00  0.00     0.018 A 
ATOM     26  C   UNL A   1      37.852  28.839  29.288  1.00  0.00     0.016 A 
ATOM     27  Br  UNL A   1      39.400  29.100  26.909  1.00  0.00    -0.051 Br
ENDBRANCH   9  21
ENDBRANCH   7   9
ENDBRANCH   6   7
ENDBRANCH   5   6
ENDBRANCH   4   5
ENDBRANCH   3   4
ENDBRANCH   2   3
ENDBRANCH   1   2
BRANCH   1  28
ATOM     28  O   UNL A   1      35.015  36.068  33.119  1.00  0.00    -0.376 OA
BRANCH  28  29
ATOM     29  C   UNL A   1      35.230  35.116  34.148  1.00  0.00     0.202 C 
BRANCH  29  30
ATOM     30  C   UNL A   1      35.391  33.619  33.816  1.00  0.00     0.261 C 
BRANCH  30  31
ATOM     31  O   UNL A   1      36.498  33.251  32.976  1.00  0.00    -0.460 OA
BRANCH  31  32
ATOM     32  C   UNL A   1      36.635  31.925  32.727  1.00  0.00     0.338 C 
ATOM     33  O   UNL A   1      35.739  31.092  32.673  1.00  0.00    -0.246 OA
BRANCH  32  34
ATOM     34  C   UNL A   1      38.029  31.632  32.324  1.00  0.00     0.060 A 
ATOM     35  C   UNL A   1      38.466  32.058  31.060  1.00  0.00     0.016 A 
ATOM     36  C   UNL A   1      38.887  30.909  33.154  1.00  0.00     0.016 A 
ATOM     37  C   UNL A   1      39.754  31.752  30.619  1.00  0.00     0.010 A 
ATOM     38  C   UNL A   1      40.170  30.577  32.697  1.00  0.00     0.010 A 
ATOM     39  C   UNL A   1      40.602  30.976  31.419  1.00  0.00    -0.014 A 
BRANCH  39  40
ATOM     40  C   UNL A   1      41.859  30.433  30.841  1.00  0.00     0.031 A 
ATOM     41  C   UNL A   1      43.097  31.289  30.877  1.00  0.00     0.074 A 
ATOM     42  C   UNL A   1      41.915  29.194  30.318  1.00  0.00     0.049 A 
ATOM     43  N   UNL A   1      44.294  31.037  30.415  1.00  0.00    -0.248 NA
ATOM     44  C   UNL A   1      42.962  32.607  31.519  1.00  0.00     0.031 C 
ATOM     45  C   UNL A   1      40.799  28.254  30.251  1.00  0.00     0.029 A 
ATOM     46  N   UNL A   1      42.960  28.516  29.738  1.00  0.00    -0.354 N 
ATOM     47  C   UNL A   1      45.055  32.164  30.704  1.00  0.00     0.074 A 
ATOM     48  C   UNL A   1      44.177  33.110  31.359  1.00  0.00     0.031 C 
ATOM     49  C   UNL A   1      41.218  27.120  29.661  1.00  0.00     0.029 A 
ATOM     50  C   UNL A   1      42.619  27.269  29.268  1.00  0.00     0.049 A 
ATOM     51  H   UNL A   1      43.868  28.889  29.666  1.00  0.00     0.167 HD
ATOM     52  C   UNL A   1      46.367  32.390  30.451  1.00  0.00     0.037 A 
ATOM     53  C   UNL A   1      43.345  26.366  28.577  1.00  0.00     0.037 A 
ATOM     54  C   UNL A   1      47.235  31.455  29.784  1.00  0.00     0.049 A 
ATOM     55  C   UNL A   1      44.785  26.674  28.235  1.00  0.00     0.074 A 
ATOM     56  C   UNL A   1      48.581  31.592  29.490  1.00  0.00     0.029 A 
ATOM     57  N   UNL A   1      46.844  30.218  29.294  1.00  0.00    -0.354 N 
ATOM     58  N   UNL A   1      45.500  27.731  28.540  1.00  0.00    -0.248 NA
ATOM     59  C   UNL A   1      45.516  25.663  27.455  1.00  0.00     0.031 C 
ATOM     60  C   UNL A   1      48.988  30.467  28.768  1.00  0.00     0.029 A 
ATOM     61  C   UNL A   1      47.916  29.595  28.674  1.00  0.00     0.049 A 
ATOM     62  H   UNL A   1      45.940  29.839  29.374  1.00  0.00     0.167 HD
ATOM     63  C   UNL A   1      46.770  27.497  28.018  1.00  0.00     0.074 A 
ATOM     64  C   UNL A   1      46.729  26.195  27.388  1.00  0.00     0.031 C 
ATOM     65  C   UNL A   1      47.871  28.290  28.060  1.00  0.00     0.037 A 
BRANCH  52  66
ATOM     66  C   UNL A   1      46.935  33.720  30.866  1.00  0.00     0.058 A 
ATOM     67  C   UNL A   1      46.918  34.832  30.009  1.00  0.00     0.135 A 
ATOM     68  C   UNL A   1      47.473  33.893  32.151  1.00  0.00     0.135 A 
ATOM     69  F   UNL A   1      46.432  34.718  28.762  1.00  0.00    -0.206 F 
ATOM     70  C   UNL A   1      47.441  36.060  30.400  1.00  0.00     0.059 A 
ATOM     71  C   UNL A   1      47.973  35.120  32.576  1.00  0.00     0.059 A 
ATOM     72  F   UNL A   1      47.517  32.863  33.010  1.00  0.00    -0.206 F 
ATOM     73  C   UNL A   1      47.965  36.195  31.687  1.00  0.00     0.060 A 
BRANCH  73  74
ATOM     74  S   UNL A   1      48.636  37.795  32.181  1.00  0.00     0.124 S 
ATOM     75  O   UNL A   1      49.681  37.994  31.182  1.00  0.00    -0.237 OA
ATOM     76  O   UNL A   1      47.473  38.668  32.064  1.00  0.00    -0.237 OA
ATOM     77  O   UNL A   1      49.107  37.562  33.543  1.00  0.00    -0.744 OA
ENDBRANCH  73  74
ENDBRANCH  52  66
BRANCH  53  78
ATOM     78  C   UNL A   1      42.725  25.086  28.135  1.00  0.00     0.058 A 
ATOM     79  C   UNL A   1      42.833  23.920  28.907  1.00  0.00     0.135 A 
ATOM     80  C   UNL A   1      42.029  24.998  26.919  1.00  0.00     0.135 A 
ATOM     81  F   UNL A   1      43.502  23.947  30.071  1.00  0.00    -0.206 F 
ATOM     82  C   UNL A   1      42.291  22.710  28.484  1.00  0.00     0.059 A 
ATOM     83  C   UNL A   1      41.450  23.808  26.489  1.00  0.00     0.059 A 
ATOM     84  F   UNL A   1      41.891  26.085  26.142  1.00  0.00    -0.206 F 
ATOM     85  C   UNL A   1      41.597  22.665  27.274  1.00  0.00     0.060 A 
BRANCH  85  86
ATOM     86  S   UNL A   1      40.858  21.101  26.757  1.00  0.00     0.124 S 
ATOM     87  O   UNL A   1      40.784  20.378  28.021  1.00  0.00    -0.237 OA
ATOM     88  O   UNL A   1      39.584  21.539  26.195  1.00  0.00    -0.237 OA
ATOM     89  O   UNL A   1      41.818  20.581  25.787  1.00  0.00    -0.744 OA
ENDBRANCH  85  86
ENDBRANCH  53  78
BRANCH  65  90
ATOM     90  C   UNL A   1      49.146  27.759  27.455  1.00  0.00     0.058 A 
ATOM     91  C   UNL A   1      49.426  27.871  26.084  1.00  0.00     0.135 A 
ATOM     92  C   UNL A   1      50.132  27.182  28.276  1.00  0.00     0.135 A 
ATOM     93  F   UNL A   1      48.521  28.410  25.252  1.00  0.00    -0.206 F 
ATOM     94  C   UNL A   1      50.625  27.412  25.545  1.00  0.00     0.059 A 
ATOM     95  C   UNL A   1      51.350  26.746  27.764  1.00  0.00     0.059 A 
ATOM     96  F   UNL A   1      49.923  27.059  29.597  1.00  0.00    -0.206 F 
ATOM     97  C   UNL A   1      51.583  26.853  26.395  1.00  0.00     0.060 A 
BRANCH  97  98
ATOM     98  S   UNL A   1      53.147  26.294  25.688  1.00  0.00     0.124 S 
ATOM     99  O   UNL A   1      52.765  26.014  24.308  1.00  0.00    -0.237 OA
ATOM    100  O   UNL A   1      54.011  27.455  25.884  1.00  0.00    -0.237 OA
ATOM    101  O   UNL A   1      53.486  25.125  26.493  1.00  0.00    -0.744 OA
ENDBRANCH  97  98
ENDBRANCH  65  90
ENDBRANCH  39  40
ENDBRANCH  32  34
ENDBRANCH  31  32
ENDBRANCH  30  31
ENDBRANCH  29  30
ENDBRANCH  28  29
ENDBRANCH   1  28
TORSDOF 23
ENDMDL
MODEL 3
REMARK VINA RESULT:     -10.0      6.261     11.039
REMARK SMILES CS(=O)(=O)c1ccc(/C=C(/C(=O)OCCOCCOCCOC(=O)c2ccc(-c3c4nc(c(-c5c(F)cc(S(=O)(=O)[O-])cc5F)c5ccc([nH]5)c(-c5c(F)cc(S(=O)(=O)[O-])cc5F)c5nc(c(-c6c(F)cc(S(=O)(=O)[O-])cc6F)c6ccc3[nH]6)C=C5)C=C4)cc2)c2cccc(Br)c2)cc1
REMARK SMILES IDX 18 1 17 2 16 3 15 4 14 5 13 6 11 7 12 8 10 9 9 10 8 11 5 12
REMARK SMILES IDX 6 13 99 14 7 15 98 16 2 17 1 18 3 19 4 20 91 21 92 22 97 23
REMARK SMILES IDX 93 24 95 25 94 26 96 27 19 28 20 29 21 30 22 31 23 32 24 33
REMARK SMILES IDX 25 34 26 35 90 36 27 37 89 38 28 39 29 40 30 41 83 42 31 43
REMARK SMILES IDX 88 44 82 45 84 46 32 47 87 48 81 49 80 50 33 52 67 53 46 54
REMARK SMILES IDX 66 55 47 56 50 57 65 58 85 59 48 60 49 61 64 63 86 64 51 65
REMARK SMILES IDX 34 66 35 67 44 68 36 69 37 70 43 71 45 72 38 73 39 74 40 75
REMARK SMILES IDX 41 76 42 77 68 78 69 79 78 80 70 81 71 82 77 83 79 84 72 85
REMARK SMILES IDX 73 86 74 87 75 88 76 89 52 90 53 91 62 92 54 93 55 94 61 95
REMARK SMILES IDX 63 96 56 97 57 98 58 99 59 100 60 101
REMARK H PARENT 84 51 50 62
REMARK Flexibility Score: inf
ROOT
ATOM      1  C   UNL A   1      33.345  31.885  27.340  1.00  0.00     0.188 C 
ENDROOT
BRANCH   1   2
ATOM      2  C   UNL A   1      32.524  30.600  27.103  1.00  0.00     0.188 C 
BRANCH   2   3
ATOM      3  O   UNL A   1      33.322  29.435  26.997  1.00  0.00    -0.376 OA
BRANCH   3   4
ATOM      4  C   UNL A   1      32.736  28.362  26.274  1.00  0.00     0.202 C 
BRANCH   4   5
ATOM      5  C   UNL A   1      33.697  27.337  25.643  1.00  0.00     0.261 C 
BRANCH   5   6
ATOM      6  O   UNL A   1      33.351  25.948  25.808  1.00  0.00    -0.460 OA
BRANCH   6   7
ATOM      7  C   UNL A   1      32.830  25.288  24.743  1.00  0.00     0.338 C 
ATOM      8  O   UNL A   1      32.205  25.816  23.836  1.00  0.00    -0.246 OA
BRANCH   7   9
ATOM      9  C   UNL A   1      33.226  23.832  24.760  1.00  0.00     0.067 C 
ATOM     10  C   UNL A   1      32.277  22.873  24.916  1.00  0.00     0.024 C 
BRANCH  10  11
ATOM     11  C   UNL A   1      32.426  21.393  24.849  1.00  0.00    -0.025 A 
ATOM     12  C   UNL A   1      33.073  18.675  24.489  1.00  0.00     0.067 A 
ATOM     13  C   UNL A   1      33.135  19.238  25.761  1.00  0.00     0.021 A 
ATOM     14  C   UNL A   1      32.577  19.420  23.419  1.00  0.00     0.021 A 
ATOM     15  C   UNL A   1      32.775  20.579  25.937  1.00  0.00     0.009 A 
ATOM     16  C   UNL A   1      32.253  20.771  23.603  1.00  0.00     0.009 A 
BRANCH  12  17
ATOM     17  S   UNL A   1      33.676  17.028  24.200  1.00  0.00     0.175 S 
ATOM     18  C   UNL A   1      32.782  15.978  25.320  1.00  0.00     0.163 C 
ATOM     19  O   UNL A   1      35.066  17.004  24.623  1.00  0.00    -0.224 OA
ATOM     20  O   UNL A   1      33.307  16.676  22.844  1.00  0.00    -0.224 OA
ENDBRANCH  12  17
ENDBRANCH  10  11
BRANCH   9  21
ATOM     21  C   UNL A   1      34.661  23.498  24.612  1.00  0.00    -0.010 A 
ATOM     22  C   UNL A   1      35.145  23.052  23.369  1.00  0.00     0.009 A 
ATOM     23  C   UNL A   1      35.575  23.774  25.636  1.00  0.00     0.024 A 
ATOM     24  C   UNL A   1      36.516  22.925  23.143  1.00  0.00     0.002 A 
ATOM     25  C   UNL A   1      36.945  23.669  25.392  1.00  0.00     0.018 A 
ATOM     26  C   UNL A   1      37.419  23.245  24.152  1.00  0.00     0.016 A 
ATOM     27  Br  UNL A   1      38.170  24.204  26.729  1.00  0.00    -0.051 Br
ENDBRANCH   9  21
ENDBRANCH   7   9
ENDBRANCH   6   7
ENDBRANCH   5   6
ENDBRANCH   4   5
ENDBRANCH   3   4
ENDBRANCH   2   3
ENDBRANCH   1   2
BRANCH   1  28
ATOM     28  O   UNL A   1      34.342  31.927  28.350  1.00  0.00    -0.376 OA
BRANCH  28  29
ATOM     29  C   UNL A   1      35.511  32.701  28.134  1.00  0.00     0.202 C 
BRANCH  29  30
ATOM     30  C   UNL A   1      36.899  32.160  28.533  1.00  0.00     0.261 C 
BRANCH  30  31
ATOM     31  O   UNL A   1      36.934  31.109  29.513  1.00  0.00    -0.460 OA
BRANCH  31  32
ATOM     32  C   UNL A   1      36.850  29.846  29.029  1.00  0.00     0.338 C 
ATOM     33  O   UNL A   1      35.827  29.231  28.757  1.00  0.00    -0.246 OA
BRANCH  32  34
ATOM     34  C   UNL A   1      38.201  29.352  28.679  1.00  0.00     0.060 A 
ATOM     35  C   UNL A   1      39.040  28.902  29.711  1.00  0.00     0.016 A 
ATOM     36  C   UNL A   1      38.661  29.370  27.362  1.00  0.00     0.016 A 
ATOM     37  C   UNL A   1      40.340  28.482  29.431  1.00  0.00     0.010 A 
ATOM     38  C   UNL A   1      39.979  28.977  27.087  1.00  0.00     0.010 A 
ATOM     39  C   UNL A   1      40.832  28.553  28.122  1.00  0.00    -0.014 A 
BRANCH  39  40
ATOM     40  C   UNL A   1      42.285  28.361  27.874  1.00  0.00     0.031 A 
ATOM     41  C   UNL A   1      43.217  29.518  28.123  1.00  0.00     0.074 A 
ATOM     42  C   UNL A   1      42.778  27.178  27.465  1.00  0.00     0.049 A 
ATOM     43  N   UNL A   1      44.511  29.591  27.956  1.00  0.00    -0.248 NA
ATOM     44  C   UNL A   1      42.602  30.757  28.627  1.00  0.00     0.031 C 
ATOM     45  C   UNL A   1      41.990  25.974  27.218  1.00  0.00     0.029 A 
ATOM     46  N   UNL A   1      44.068  26.800  27.178  1.00  0.00    -0.354 N 
ATOM     47  C   UNL A   1      44.867  30.883  28.326  1.00  0.00     0.074 A 
ATOM     48  C   UNL A   1      43.648  31.565  28.704  1.00  0.00     0.031 C 
ATOM     49  C   UNL A   1      42.813  24.988  26.816  1.00  0.00     0.029 A 
ATOM     50  C   UNL A   1      44.179  25.504  26.732  1.00  0.00     0.049 A 
ATOM     51  H   UNL A   1      44.840  27.401  27.282  1.00  0.00     0.167 HD
ATOM     52  C   UNL A   1      46.098  31.449  28.354  1.00  0.00     0.037 A 
ATOM     53  C   UNL A   1      45.253  24.822  26.282  1.00  0.00     0.037 A 
ATOM     54  C   UNL A   1      47.308  30.775  27.962  1.00  0.00     0.049 A 
ATOM     55  C   UNL A   1      46.603  25.500  26.246  1.00  0.00     0.074 A 
ATOM     56  C   UNL A   1      48.603  31.265  27.963  1.00  0.00     0.029 A 
ATOM     57  N   UNL A   1      47.375  29.474  27.484  1.00  0.00    -0.354 N 
ATOM     58  N   UNL A   1      46.930  26.712  26.627  1.00  0.00    -0.248 NA
ATOM     59  C   UNL A   1      47.730  24.716  25.719  1.00  0.00     0.031 C 
ATOM     60  C   UNL A   1      49.443  30.283  27.429  1.00  0.00     0.029 A 
ATOM     61  C   UNL A   1      48.684  29.156  27.161  1.00  0.00     0.049 A 
ATOM     62  H   UNL A   1      46.605  28.868  27.389  1.00  0.00     0.167 HD
ATOM     63  C   UNL A   1      48.303  26.823  26.416  1.00  0.00     0.074 A 
ATOM     64  C   UNL A   1      48.746  25.551  25.884  1.00  0.00     0.031 C 
ATOM     65  C   UNL A   1      49.121  27.881  26.644  1.00  0.00     0.037 A 
BRANCH  52  66
ATOM     66  C   UNL A   1      46.191  32.886  28.790  1.00  0.00     0.058 A 
ATOM     67  C   UNL A   1      46.353  33.243  30.138  1.00  0.00     0.135 A 
ATOM     68  C   UNL A   1      46.153  33.920  27.840  1.00  0.00     0.135 A 
ATOM     69  F   UNL A   1      46.377  32.296  31.090  1.00  0.00    -0.206 F 
ATOM     70  C   UNL A   1      46.443  34.573  30.533  1.00  0.00     0.059 A 
ATOM     71  C   UNL A   1      46.273  35.256  28.208  1.00  0.00     0.059 A 
ATOM     72  F   UNL A   1      45.998  33.637  26.538  1.00  0.00    -0.206 F 
ATOM     73  C   UNL A   1      46.404  35.574  29.560  1.00  0.00     0.060 A 
BRANCH  73  74
ATOM     74  S   UNL A   1      46.526  37.295  30.088  1.00  0.00     0.124 S 
ATOM     75  O   UNL A   1      47.972  37.470  30.178  1.00  0.00    -0.237 OA
ATOM     76  O   UNL A   1      45.869  38.002  28.994  1.00  0.00    -0.237 OA
ATOM     77  O   UNL A   1      45.812  37.312  31.361  1.00  0.00    -0.744 OA
ENDBRANCH  73  74
ENDBRANCH  52  66
BRANCH  53  78
ATOM     78  C   UNL A   1      45.104  23.419  25.805  1.00  0.00     0.058 A 
ATOM     79  C   UNL A   1      45.216  23.097  24.444  1.00  0.00     0.135 A 
ATOM     80  C   UNL A   1      44.826  22.373  26.699  1.00  0.00     0.135 A 
ATOM     81  F   UNL A   1      45.466  24.064  23.546  1.00  0.00    -0.206 F 
ATOM     82  C   UNL A   1      45.040  21.796  23.983  1.00  0.00     0.059 A 
ATOM     83  C   UNL A   1      44.677  21.059  26.268  1.00  0.00     0.059 A 
ATOM     84  F   UNL A   1      44.713  22.623  28.014  1.00  0.00    -0.206 F 
ATOM     85  C   UNL A   1      44.774  20.782  24.905  1.00  0.00     0.060 A 
BRANCH  85  86
ATOM     86  S   UNL A   1      44.593  19.090  24.301  1.00  0.00     0.124 S 
ATOM     87  O   UNL A   1      44.405  19.305  22.872  1.00  0.00    -0.237 OA
ATOM     88  O   UNL A   1      45.864  18.489  24.696  1.00  0.00    -0.237 OA
ATOM     89  O   UNL A   1      43.424  18.599  25.025  1.00  0.00    -0.744 OA
ENDBRANCH  85  86
ENDBRANCH  53  78
BRANCH  65  90
ATOM     90  C   UNL A   1      50.594  27.705  26.374  1.00  0.00     0.058 A 
ATOM     91  C   UNL A   1      51.492  27.294  27.370  1.00  0.00     0.135 A 
ATOM     92  C   UNL A   1      51.101  27.892  25.075  1.00  0.00     0.135 A 
ATOM     93  F   UNL A   1      51.065  27.103  28.628  1.00  0.00    -0.206 F 
ATOM     94  C   UNL A   1      52.844  27.097  27.097  1.00  0.00     0.059 A 
ATOM     95  C   UNL A   1      52.441  27.670  24.772  1.00  0.00     0.059 A 
ATOM     96  F   UNL A   1      50.286  28.275  24.080  1.00  0.00    -0.206 F 
ATOM     97  C   UNL A   1      53.308  27.284  25.793  1.00  0.00     0.060 A 
BRANCH  97  98
ATOM     98  S   UNL A   1      55.055  26.991  25.444  1.00  0.00     0.124 S 
ATOM     99  O   UNL A   1      55.340  28.035  24.466  1.00  0.00    -0.237 OA
ATOM    100  O   UNL A   1      55.668  27.169  26.758  1.00  0.00    -0.237 OA
ATOM    101  O   UNL A   1      55.076  25.626  24.928  1.00  0.00    -0.744 OA
ENDBRANCH  97  98
ENDBRANCH  65  90
ENDBRANCH  39  40
ENDBRANCH  32  34
ENDBRANCH  31  32
ENDBRANCH  30  31
ENDBRANCH  29  30
ENDBRANCH  28  29
ENDBRANCH   1  28
TORSDOF 23
ENDMDL
