MODEL 1
REMARK VINA RESULT:     -11.2      0.000      0.000
REMARK SMILES Cc1[nH]c2ccccc2c1[C@H](C(=O)OCCOCCOCCOC(=O)c1ccc(-c2c3nc(c(-c4c(F)cc(S(=O)(=O)[O-])cc4F)c4ccc([nH]4)c(-c4c(F)cc(S(=O)(=O)[O-])cc4F)c4nc(c(-c5c(F)cc(S(=O)(=O)[O-])cc5F)c5ccc2[nH]5)C=C4)C=C3)cc1)[NH+]1CCN(C(=O)c2ccco2)CC1
REMARK SMILES IDX 19 1 18 2 17 3 16 4 15 5 14 6 12 7 13 8 11 9 10 10 1 11 2 12
REMARK SMILES IDX 3 13 4 14 9 16 5 17 8 18 6 19 7 20 92 21 93 22 104 23 94 25
REMARK SMILES IDX 103 26 95 27 96 28 97 29 98 30 99 31 102 32 100 33 101 34
REMARK SMILES IDX 20 35 21 36 22 37 23 38 24 39 25 40 26 41 27 42 91 43 28 44
REMARK SMILES IDX 90 45 29 46 30 47 31 48 84 49 32 50 89 51 83 52 85 53 33 54
REMARK SMILES IDX 88 55 82 56 81 57 34 59 68 60 47 61 67 62 48 63 51 64 66 65
REMARK SMILES IDX 86 66 49 67 50 68 65 70 87 71 52 72 35 73 36 74 45 75 37 76
REMARK SMILES IDX 38 77 44 78 46 79 39 80 40 81 41 82 42 83 43 84 69 85 70 86
REMARK SMILES IDX 79 87 71 88 72 89 78 90 80 91 73 92 74 93 75 94 76 95 77 96
REMARK SMILES IDX 53 97 54 98 63 99 55 100 56 101 62 102 64 103 57 104 58 105
REMARK SMILES IDX 59 106 60 107 61 108
REMARK H PARENT 3 15 92 24 85 58 51 69
REMARK Flexibility Score: inf
ROOT
ATOM      1  C   UNL A   1      38.605  22.355  25.786  1.00  0.00     0.188 C 
ENDROOT
BRANCH   1   2
ATOM      2  C   UNL A   1      37.215  22.321  25.124  1.00  0.00     0.188 C 
BRANCH   2   3
ATOM      3  O   UNL A   1      36.527  23.524  24.820  1.00  0.00    -0.376 OA
BRANCH   3   4
ATOM      4  C   UNL A   1      35.238  23.782  25.352  1.00  0.00     0.202 C 
BRANCH   4   5
ATOM      5  C   UNL A   1      34.650  25.164  25.092  1.00  0.00     0.261 C 
BRANCH   5   6
ATOM      6  O   UNL A   1      34.184  25.310  23.734  1.00  0.00    -0.459 OA
BRANCH   6   7
ATOM      7  C   UNL A   1      33.198  26.210  23.513  1.00  0.00     0.370 C 
ATOM      8  O   UNL A   1      33.045  26.799  22.446  1.00  0.00    -0.245 OA
BRANCH   7   9
ATOM      9  C   UNL A   1      32.369  26.565  24.744  1.00  0.00     0.328 C 
BRANCH   9  10
ATOM     10  C   UNL A   1      32.170  28.049  25.153  1.00  0.00     0.049 A 
ATOM     11  C   UNL A   1      30.113  29.106  23.801  1.00  0.00     0.065 C 
ATOM     12  C   UNL A   1      31.279  29.039  24.711  1.00  0.00     0.022 A 
ATOM     13  N   UNL A   1      31.639  30.235  25.271  1.00  0.00    -0.358 N 
ATOM     14  C   UNL A   1      32.690  30.094  26.120  1.00  0.00     0.046 A 
ATOM     15  H   UNL A   1      31.192  31.092  25.082  1.00  0.00     0.166 HD
ATOM     16  C   UNL A   1      33.071  28.755  26.068  1.00  0.00     0.009 A 
ATOM     17  C   UNL A   1      33.323  31.065  26.901  1.00  0.00     0.027 A 
ATOM     18  C   UNL A   1      34.190  28.382  26.845  1.00  0.00     0.011 A 
ATOM     19  C   UNL A   1      34.401  30.658  27.681  1.00  0.00     0.002 A 
ATOM     20  C   UNL A   1      34.834  29.335  27.651  1.00  0.00     0.001 A 
ENDBRANCH   9  10
BRANCH   9  21
ATOM     21  N   UNL A   1      31.094  25.784  24.777  1.00  0.00    -0.316 N 
ATOM     22  C   UNL A   1      30.578  25.330  23.486  1.00  0.00     0.285 C 
ATOM     23  C   UNL A   1      31.092  24.654  25.726  1.00  0.00     0.285 C 
ATOM     24  H   UNL A   1      30.450  26.499  25.115  1.00  0.00     0.349 HD
ATOM     25  C   UNL A   1      31.193  24.050  22.895  1.00  0.00     0.181 C 
ATOM     26  C   UNL A   1      31.618  23.270  25.263  1.00  0.00     0.181 C 
ATOM     27  N   UNL A   1      31.557  22.983  23.826  1.00  0.00    -0.325 N 
ATOM     28  C   UNL A   1      32.192  21.858  23.245  1.00  0.00     0.289 C 
ATOM     29  O   UNL A   1      32.477  21.888  22.043  1.00  0.00    -0.265 OA
BRANCH  28  30
ATOM     30  C   UNL A   1      32.484  20.682  24.055  1.00  0.00     0.191 A 
ATOM     31  C   UNL A   1      32.924  20.492  25.354  1.00  0.00     0.056 A 
ATOM     32  O   UNL A   1      32.186  19.452  23.514  1.00  0.00    -0.459 OA
ATOM     33  C   UNL A   1      32.921  19.097  25.601  1.00  0.00     0.043 A 
ATOM     34  C   UNL A   1      32.467  18.509  24.448  1.00  0.00     0.196 A 
ENDBRANCH  28  30
ENDBRANCH   9  21
ENDBRANCH   7   9
ENDBRANCH   6   7
ENDBRANCH   5   6
ENDBRANCH   4   5
ENDBRANCH   3   4
ENDBRANCH   2   3
ENDBRANCH   1   2
BRANCH   1  35
ATOM     35  O   UNL A   1      39.430  21.195  25.839  1.00  0.00    -0.376 OA
BRANCH  35  36
ATOM     36  C   UNL A   1      40.611  21.200  26.623  1.00  0.00     0.202 C 
BRANCH  36  37
ATOM     37  C   UNL A   1      41.804  22.000  26.103  1.00  0.00     0.261 C 
BRANCH  37  38
ATOM     38  O   UNL A   1      42.121  23.129  26.920  1.00  0.00    -0.460 OA
BRANCH  38  39
ATOM     39  C   UNL A   1      42.259  24.293  26.239  1.00  0.00     0.338 C 
ATOM     40  O   UNL A   1      42.643  24.433  25.093  1.00  0.00    -0.246 OA
BRANCH  39  41
ATOM     41  C   UNL A   1      41.711  25.399  27.047  1.00  0.00     0.060 A 
ATOM     42  C   UNL A   1      42.379  26.630  27.010  1.00  0.00     0.016 A 
ATOM     43  C   UNL A   1      40.598  25.213  27.872  1.00  0.00     0.016 A 
ATOM     44  C   UNL A   1      41.991  27.654  27.863  1.00  0.00     0.010 A 
ATOM     45  C   UNL A   1      40.217  26.237  28.738  1.00  0.00     0.010 A 
ATOM     46  C   UNL A   1      40.954  27.432  28.776  1.00  0.00    -0.014 A 
BRANCH  46  47
ATOM     47  C   UNL A   1      40.811  28.348  29.927  1.00  0.00     0.031 A 
ATOM     48  C   UNL A   1      41.756  28.176  31.084  1.00  0.00     0.074 A 
ATOM     49  C   UNL A   1      39.897  29.331  29.913  1.00  0.00     0.049 A 
ATOM     50  N   UNL A   1      41.814  28.827  32.215  1.00  0.00    -0.248 NA
ATOM     51  C   UNL A   1      42.776  27.119  30.949  1.00  0.00     0.031 C 
ATOM     52  C   UNL A   1      38.970  29.607  28.817  1.00  0.00     0.029 A 
ATOM     53  N   UNL A   1      39.600  30.278  30.857  1.00  0.00    -0.354 N 
ATOM     54  C   UNL A   1      42.863  28.255  32.927  1.00  0.00     0.074 A 
ATOM     55  C   UNL A   1      43.392  27.181  32.119  1.00  0.00     0.031 C 
ATOM     56  C   UNL A   1      38.196  30.652  29.157  1.00  0.00     0.029 A 
ATOM     57  C   UNL A   1      38.552  31.092  30.504  1.00  0.00     0.049 A 
ATOM     58  H   UNL A   1      40.090  30.367  31.707  1.00  0.00     0.167 HD
ATOM     59  C   UNL A   1      43.344  28.605  34.143  1.00  0.00     0.037 A 
ATOM     60  C   UNL A   1      37.942  32.068  31.205  1.00  0.00     0.037 A 
ATOM     61  C   UNL A   1      42.800  29.679  34.932  1.00  0.00     0.049 A 
ATOM     62  C   UNL A   1      38.457  32.399  32.581  1.00  0.00     0.074 A 
ATOM     63  C   UNL A   1      43.208  30.129  36.173  1.00  0.00     0.029 A 
ATOM     64  N   UNL A   1      41.721  30.468  34.554  1.00  0.00    -0.354 N 
ATOM     65  N   UNL A   1      39.455  31.861  33.244  1.00  0.00    -0.248 NA
ATOM     66  C   UNL A   1      37.771  33.478  33.302  1.00  0.00     0.031 C 
ATOM     67  C   UNL A   1      42.342  31.152  36.572  1.00  0.00     0.029 A 
ATOM     68  C   UNL A   1      41.435  31.387  35.549  1.00  0.00     0.049 A 
ATOM     69  H   UNL A   1      41.233  30.386  33.703  1.00  0.00     0.167 HD
ATOM     70  C   UNL A   1      39.536  32.555  34.447  1.00  0.00     0.074 A 
ATOM     71  C   UNL A   1      38.494  33.563  34.410  1.00  0.00     0.031 C 
ATOM     72  C   UNL A   1      40.391  32.381  35.487  1.00  0.00     0.037 A 
BRANCH  59  73
ATOM     73  C   UNL A   1      44.487  27.800  34.701  1.00  0.00     0.058 A 
ATOM     74  C   UNL A   1      45.828  28.171  34.503  1.00  0.00     0.135 A 
ATOM     75  C   UNL A   1      44.237  26.649  35.466  1.00  0.00     0.135 A 
ATOM     76  F   UNL A   1      46.129  29.249  33.760  1.00  0.00    -0.206 F 
ATOM     77  C   UNL A   1      46.877  27.418  35.022  1.00  0.00     0.059 A 
ATOM     78  C   UNL A   1      45.270  25.898  36.021  1.00  0.00     0.059 A 
ATOM     79  F   UNL A   1      42.977  26.241  35.682  1.00  0.00    -0.206 F 
ATOM     80  C   UNL A   1      46.588  26.285  35.782  1.00  0.00     0.060 A 
BRANCH  80  81
ATOM     81  S   UNL A   1      47.960  25.327  36.461  1.00  0.00     0.124 S 
ATOM     82  O   UNL A   1      48.459  26.225  37.498  1.00  0.00    -0.237 OA
ATOM     83  O   UNL A   1      47.291  24.120  36.936  1.00  0.00    -0.237 OA
ATOM     84  O   UNL A   1      48.845  25.140  35.316  1.00  0.00    -0.744 OA
ENDBRANCH  80  81
ENDBRANCH  59  73
BRANCH  60  85
ATOM     85  C   UNL A   1      36.782  32.790  30.619  1.00  0.00     0.058 A 
ATOM     86  C   UNL A   1      35.468  32.497  31.012  1.00  0.00     0.135 A 
ATOM     87  C   UNL A   1      36.966  33.799  29.659  1.00  0.00     0.135 A 
ATOM     88  F   UNL A   1      35.238  31.536  31.919  1.00  0.00    -0.206 F 
ATOM     89  C   UNL A   1      34.377  33.166  30.467  1.00  0.00     0.059 A 
ATOM     90  C   UNL A   1      35.893  34.503  29.122  1.00  0.00     0.059 A 
ATOM     91  F   UNL A   1      38.202  34.128  29.256  1.00  0.00    -0.206 F 
ATOM     92  C   UNL A   1      34.601  34.173  29.525  1.00  0.00     0.060 A 
BRANCH  92  93
ATOM     93  S   UNL A   1      33.181  35.076  28.871  1.00  0.00     0.124 S 
ATOM     94  O   UNL A   1      32.444  35.390  30.088  1.00  0.00    -0.237 OA
ATOM     95  O   UNL A   1      33.819  36.203  28.198  1.00  0.00    -0.237 OA
ATOM     96  O   UNL A   1      32.548  34.106  27.981  1.00  0.00    -0.744 OA
ENDBRANCH  92  93
ENDBRANCH  60  85
BRANCH  72  97
ATOM     97  C   UNL A   1      40.261  33.330  36.648  1.00  0.00     0.058 A 
ATOM     98  C   UNL A   1      41.038  34.494  36.747  1.00  0.00     0.135 A 
ATOM     99  C   UNL A   1      39.325  33.078  37.666  1.00  0.00     0.135 A 
ATOM    100  F   UNL A   1      41.948  34.783  35.802  1.00  0.00    -0.206 F 
ATOM    101  C   UNL A   1      40.927  35.351  37.837  1.00  0.00     0.059 A 
ATOM    102  C   UNL A   1      39.173  33.940  38.746  1.00  0.00     0.059 A 
ATOM    103  F   UNL A   1      38.544  31.988  37.613  1.00  0.00    -0.206 F 
ATOM    104  C   UNL A   1      39.994  35.063  38.834  1.00  0.00     0.060 A 
BRANCH 104 105
ATOM    105  S   UNL A   1      39.863  36.179  40.246  1.00  0.00     0.124 S 
ATOM    106  O   UNL A   1      39.809  37.480  39.586  1.00  0.00    -0.237 OA
ATOM    107  O   UNL A   1      38.624  35.736  40.879  1.00  0.00    -0.237 OA
ATOM    108  O   UNL A   1      41.079  35.911  41.006  1.00  0.00    -0.744 OA
ENDBRANCH 104 105
ENDBRANCH  72  97
ENDBRANCH  46  47
ENDBRANCH  39  41
ENDBRANCH  38  39
ENDBRANCH  37  38
ENDBRANCH  36  37
ENDBRANCH  35  36
ENDBRANCH   1  35
TORSDOF 23
ENDMDL
MODEL 2
REMARK VINA RESULT:     -10.7      0.818      7.826
REMARK SMILES Cc1[nH]c2ccccc2c1[C@H](C(=O)OCCOCCOCCOC(=O)c1ccc(-c2c3nc(c(-c4c(F)cc(S(=O)(=O)[O-])cc4F)c4ccc([nH]4)c(-c4c(F)cc(S(=O)(=O)[O-])cc4F)c4nc(c(-c5c(F)cc(S(=O)(=O)[O-])cc5F)c5ccc2[nH]5)C=C4)C=C3)cc1)[NH+]1CCN(C(=O)c2ccco2)CC1
REMARK SMILES IDX 19 1 18 2 17 3 16 4 15 5 14 6 12 7 13 8 11 9 10 10 1 11 2 12
REMARK SMILES IDX 3 13 4 14 9 16 5 17 8 18 6 19 7 20 92 21 93 22 104 23 94 25
REMARK SMILES IDX 103 26 95 27 96 28 97 29 98 30 99 31 102 32 100 33 101 34
REMARK SMILES IDX 20 35 21 36 22 37 23 38 24 39 25 40 26 41 27 42 91 43 28 44
REMARK SMILES IDX 90 45 29 46 30 47 31 48 84 49 32 50 89 51 83 52 85 53 33 54
REMARK SMILES IDX 88 55 82 56 81 57 34 59 68 60 47 61 67 62 48 63 51 64 66 65
REMARK SMILES IDX 86 66 49 67 50 68 65 70 87 71 52 72 35 73 36 74 45 75 37 76
REMARK SMILES IDX 38 77 44 78 46 79 39 80 40 81 41 82 42 83 43 84 69 85 70 86
REMARK SMILES IDX 79 87 71 88 72 89 78 90 80 91 73 92 74 93 75 94 76 95 77 96
REMARK SMILES IDX 53 97 54 98 63 99 55 100 56 101 62 102 64 103 57 104 58 105
REMARK SMILES IDX 59 106 60 107 61 108
REMARK H PARENT 3 15 92 24 85 58 51 69
REMARK Flexibility Score: inf
ROOT
ATOM      1  C   UNL A   1      38.917  22.833  26.489  1.00  0.00     0.188 C 
ENDROOT
BRANCH   1   2
ATOM      2  C   UNL A   1      37.766  22.794  25.466  1.00  0.00     0.188 C 
BRANCH   2   3
ATOM      3  O   UNL A   1      36.953  23.936  25.247  1.00  0.00    -0.376 OA
BRANCH   3   4
ATOM      4  C   UNL A   1      35.545  23.872  25.411  1.00  0.00     0.202 C 
BRANCH   4   5
ATOM      5  C   UNL A   1      34.758  25.141  25.103  1.00  0.00     0.261 C 
BRANCH   5   6
ATOM      6  O   UNL A   1      34.117  25.082  23.812  1.00  0.00    -0.459 OA
BRANCH   6   7
ATOM      7  C   UNL A   1      33.082  25.928  23.597  1.00  0.00     0.370 C 
ATOM      8  O   UNL A   1      32.827  26.423  22.502  1.00  0.00    -0.245 OA
BRANCH   7   9
ATOM      9  C   UNL A   1      32.333  26.354  24.857  1.00  0.00     0.328 C 
BRANCH   9  10
ATOM     10  C   UNL A   1      32.035  27.855  25.120  1.00  0.00     0.049 A 
ATOM     11  C   UNL A   1      30.049  28.689  23.526  1.00  0.00     0.065 C 
ATOM     12  C   UNL A   1      31.139  28.757  24.527  1.00  0.00     0.022 A 
ATOM     13  N   UNL A   1      31.398  30.013  25.008  1.00  0.00    -0.358 N 
ATOM     14  C   UNL A   1      32.381  29.996  25.946  1.00  0.00     0.046 A 
ATOM     15  H   UNL A   1      30.929  30.827  24.712  1.00  0.00     0.166 HD
ATOM     16  C   UNL A   1      32.825  28.680  26.038  1.00  0.00     0.009 A 
ATOM     17  C   UNL A   1      32.903  31.060  26.687  1.00  0.00     0.027 A 
ATOM     18  C   UNL A   1      33.892  28.431  26.929  1.00  0.00     0.011 A 
ATOM     19  C   UNL A   1      33.931  30.775  27.580  1.00  0.00     0.002 A 
ATOM     20  C   UNL A   1      34.424  29.479  27.698  1.00  0.00     0.001 A 
ENDBRANCH   9  10
BRANCH   9  21
ATOM     21  N   UNL A   1      31.144  25.482  25.098  1.00  0.00    -0.316 N 
ATOM     22  C   UNL A   1      30.460  24.975  23.908  1.00  0.00     0.285 C 
ATOM     23  C   UNL A   1      31.383  24.365  26.033  1.00  0.00     0.285 C 
ATOM     24  H   UNL A   1      30.512  26.150  25.537  1.00  0.00     0.349 HD
ATOM     25  C   UNL A   1      31.064  23.739  23.223  1.00  0.00     0.181 C 
ATOM     26  C   UNL A   1      31.929  23.019  25.487  1.00  0.00     0.181 C 
ATOM     27  N   UNL A   1      31.655  22.712  24.079  1.00  0.00    -0.325 N 
ATOM     28  C   UNL A   1      32.270  21.632  23.401  1.00  0.00     0.289 C 
ATOM     29  O   UNL A   1      32.352  21.669  22.168  1.00  0.00    -0.265 OA
BRANCH  28  30
ATOM     30  C   UNL A   1      32.778  20.490  24.150  1.00  0.00     0.191 A 
ATOM     31  C   UNL A   1      34.028  20.129  24.626  1.00  0.00     0.056 A 
ATOM     32  O   UNL A   1      31.858  19.575  24.610  1.00  0.00    -0.459 OA
ATOM     33  C   UNL A   1      33.866  18.937  25.376  1.00  0.00     0.043 A 
ATOM     34  C   UNL A   1      32.526  18.641  25.332  1.00  0.00     0.196 A 
ENDBRANCH  28  30
ENDBRANCH   9  21
ENDBRANCH   7   9
ENDBRANCH   6   7
ENDBRANCH   5   6
ENDBRANCH   4   5
ENDBRANCH   3   4
ENDBRANCH   2   3
ENDBRANCH   1   2
BRANCH   1  35
ATOM     35  O   UNL A   1      39.785  21.718  26.671  1.00  0.00    -0.376 OA
BRANCH  35  36
ATOM     36  C   UNL A   1      40.996  21.873  27.391  1.00  0.00     0.202 C 
BRANCH  36  37
ATOM     37  C   UNL A   1      42.140  22.617  26.703  1.00  0.00     0.261 C 
BRANCH  37  38
ATOM     38  O   UNL A   1      42.466  23.854  27.340  1.00  0.00    -0.460 OA
BRANCH  38  39
ATOM     39  C   UNL A   1      42.142  24.957  26.620  1.00  0.00     0.338 C 
ATOM     40  O   UNL A   1      42.127  25.067  25.410  1.00  0.00    -0.246 OA
BRANCH  39  41
ATOM     41  C   UNL A   1      41.635  26.001  27.532  1.00  0.00     0.060 A 
ATOM     42  C   UNL A   1      42.320  27.222  27.572  1.00  0.00     0.016 A 
ATOM     43  C   UNL A   1      40.545  25.764  28.373  1.00  0.00     0.016 A 
ATOM     44  C   UNL A   1      41.975  28.180  28.516  1.00  0.00     0.010 A 
ATOM     45  C   UNL A   1      40.206  26.720  29.330  1.00  0.00     0.010 A 
ATOM     46  C   UNL A   1      40.962  27.898  29.440  1.00  0.00    -0.014 A 
BRANCH  46  47
ATOM     47  C   UNL A   1      40.868  28.721  30.665  1.00  0.00     0.031 A 
ATOM     48  C   UNL A   1      39.812  29.791  30.713  1.00  0.00     0.074 A 
ATOM     49  C   UNL A   1      41.670  28.485  31.715  1.00  0.00     0.049 A 
ATOM     50  N   UNL A   1      39.550  30.659  31.653  1.00  0.00    -0.248 NA
ATOM     51  C   UNL A   1      38.932  29.900  29.535  1.00  0.00     0.031 C 
ATOM     52  C   UNL A   1      42.690  27.439  31.779  1.00  0.00     0.029 A 
ATOM     53  N   UNL A   1      41.751  29.115  32.928  1.00  0.00    -0.354 N 
ATOM     54  C   UNL A   1      38.487  31.420  31.179  1.00  0.00     0.074 A 
ATOM     55  C   UNL A   1      38.175  30.938  29.853  1.00  0.00     0.031 C 
ATOM     56  C   UNL A   1      43.304  27.507  32.973  1.00  0.00     0.029 A 
ATOM     57  C   UNL A   1      42.743  28.619  33.737  1.00  0.00     0.049 A 
ATOM     58  H   UNL A   1      41.154  29.851  33.195  1.00  0.00     0.167 HD
ATOM     59  C   UNL A   1      37.828  32.426  31.801  1.00  0.00     0.037 A 
ATOM     60  C   UNL A   1      43.159  29.037  34.949  1.00  0.00     0.037 A 
ATOM     61  C   UNL A   1      38.158  32.890  33.123  1.00  0.00     0.049 A 
ATOM     62  C   UNL A   1      42.449  30.196  35.597  1.00  0.00     0.074 A 
ATOM     63  C   UNL A   1      37.557  33.895  33.859  1.00  0.00     0.029 A 
ATOM     64  N   UNL A   1      39.187  32.382  33.906  1.00  0.00    -0.354 N 
ATOM     65  N   UNL A   1      41.438  30.905  35.146  1.00  0.00    -0.248 NA
ATOM     66  C   UNL A   1      42.926  30.607  36.922  1.00  0.00     0.031 C 
ATOM     67  C   UNL A   1      38.258  34.033  35.061  1.00  0.00     0.029 A 
ATOM     68  C   UNL A   1      39.253  33.068  35.106  1.00  0.00     0.049 A 
ATOM     69  H   UNL A   1      39.781  31.642  33.644  1.00  0.00     0.167 HD
ATOM     70  C   UNL A   1      41.141  31.826  36.145  1.00  0.00     0.074 A 
ATOM     71  C   UNL A   1      42.069  31.570  37.230  1.00  0.00     0.031 C 
ATOM     72  C   UNL A   1      40.188  32.793  36.170  1.00  0.00     0.037 A 
BRANCH  59  73
ATOM     73  C   UNL A   1      36.716  33.104  31.049  1.00  0.00     0.058 A 
ATOM     74  C   UNL A   1      36.964  33.975  29.974  1.00  0.00     0.135 A 
ATOM     75  C   UNL A   1      35.376  32.862  31.393  1.00  0.00     0.135 A 
ATOM     76  F   UNL A   1      38.226  34.263  29.614  1.00  0.00    -0.206 F 
ATOM     77  C   UNL A   1      35.928  34.599  29.286  1.00  0.00     0.059 A 
ATOM     78  C   UNL A   1      34.322  33.451  30.699  1.00  0.00     0.059 A 
ATOM     79  F   UNL A   1      35.077  32.047  32.416  1.00  0.00    -0.206 F 
ATOM     80  C   UNL A   1      34.609  34.328  29.654  1.00  0.00     0.060 A 
BRANCH  80  81
ATOM     81  S   UNL A   1      33.275  35.134  28.742  1.00  0.00     0.124 S 
ATOM     82  O   UNL A   1      32.304  35.383  29.803  1.00  0.00    -0.237 OA
ATOM     83  O   UNL A   1      33.939  36.315  28.201  1.00  0.00    -0.237 OA
ATOM     84  O   UNL A   1      32.883  34.132  27.756  1.00  0.00    -0.744 OA
ENDBRANCH  80  81
ENDBRANCH  59  73
BRANCH  60  85
ATOM     85  C   UNL A   1      44.300  28.358  35.618  1.00  0.00     0.058 A 
ATOM     86  C   UNL A   1      45.606  28.859  35.515  1.00  0.00     0.135 A 
ATOM     87  C   UNL A   1      44.105  27.198  36.384  1.00  0.00     0.135 A 
ATOM     88  F   UNL A   1      45.847  29.959  34.786  1.00  0.00    -0.206 F 
ATOM     89  C   UNL A   1      46.680  28.228  36.135  1.00  0.00     0.059 A 
ATOM     90  C   UNL A   1      45.158  26.566  37.040  1.00  0.00     0.059 A 
ATOM     91  F   UNL A   1      42.875  26.683  36.526  1.00  0.00    -0.206 F 
ATOM     92  C   UNL A   1      46.445  27.084  36.901  1.00  0.00     0.060 A 
BRANCH  92  93
ATOM     93  S   UNL A   1      47.837  26.311  37.751  1.00  0.00     0.124 S 
ATOM     94  O   UNL A   1      47.291  26.106  39.087  1.00  0.00    -0.237 OA
ATOM     95  O   UNL A   1      48.050  25.107  36.954  1.00  0.00    -0.237 OA
ATOM     96  O   UNL A   1      48.893  27.313  37.647  1.00  0.00    -0.744 OA
ENDBRANCH  92  93
ENDBRANCH  60  85
BRANCH  72  97
ATOM     97  C   UNL A   1      40.077  33.614  37.426  1.00  0.00     0.058 A 
ATOM     98  C   UNL A   1      39.173  33.289  38.449  1.00  0.00     0.135 A 
ATOM     99  C   UNL A   1      40.906  34.733  37.616  1.00  0.00     0.135 A 
ATOM    100  F   UNL A   1      38.356  32.230  38.319  1.00  0.00    -0.206 F 
ATOM    101  C   UNL A   1      39.061  34.069  39.595  1.00  0.00     0.059 A 
ATOM    102  C   UNL A   1      40.836  35.506  38.770  1.00  0.00     0.059 A 
ATOM    103  F   UNL A   1      41.800  35.080  36.677  1.00  0.00    -0.206 F 
ATOM    104  C   UNL A   1      39.895  35.178  39.744  1.00  0.00     0.060 A 
BRANCH 104 105
ATOM    105  S   UNL A   1      39.737  36.187  41.233  1.00  0.00     0.124 S 
ATOM    106  O   UNL A   1      38.746  37.173  40.814  1.00  0.00    -0.237 OA
ATOM    107  O   UNL A   1      39.286  35.213  42.222  1.00  0.00    -0.237 OA
ATOM    108  O   UNL A   1      41.087  36.702  41.440  1.00  0.00    -0.744 OA
ENDBRANCH 104 105
ENDBRANCH  72  97
ENDBRANCH  46  47
ENDBRANCH  39  41
ENDBRANCH  38  39
ENDBRANCH  37  38
ENDBRANCH  36  37
ENDBRANCH  35  36
ENDBRANCH   1  35
TORSDOF 23
ENDMDL
MODEL 3
REMARK VINA RESULT:      -9.9      5.808     11.029
REMARK SMILES Cc1[nH]c2ccccc2c1[C@H](C(=O)OCCOCCOCCOC(=O)c1ccc(-c2c3nc(c(-c4c(F)cc(S(=O)(=O)[O-])cc4F)c4ccc([nH]4)c(-c4c(F)cc(S(=O)(=O)[O-])cc4F)c4nc(c(-c5c(F)cc(S(=O)(=O)[O-])cc5F)c5ccc2[nH]5)C=C4)C=C3)cc1)[NH+]1CCN(C(=O)c2ccco2)CC1
REMARK SMILES IDX 19 1 18 2 17 3 16 4 15 5 14 6 12 7 13 8 11 9 10 10 1 11 2 12
REMARK SMILES IDX 3 13 4 14 9 16 5 17 8 18 6 19 7 20 92 21 93 22 104 23 94 25
REMARK SMILES IDX 103 26 95 27 96 28 97 29 98 30 99 31 102 32 100 33 101 34
REMARK SMILES IDX 20 35 21 36 22 37 23 38 24 39 25 40 26 41 27 42 91 43 28 44
REMARK SMILES IDX 90 45 29 46 30 47 31 48 84 49 32 50 89 51 83 52 85 53 33 54
REMARK SMILES IDX 88 55 82 56 81 57 34 59 68 60 47 61 67 62 48 63 51 64 66 65
REMARK SMILES IDX 86 66 49 67 50 68 65 70 87 71 52 72 35 73 36 74 45 75 37 76
REMARK SMILES IDX 38 77 44 78 46 79 39 80 40 81 41 82 42 83 43 84 69 85 70 86
REMARK SMILES IDX 79 87 71 88 72 89 78 90 80 91 73 92 74 93 75 94 76 95 77 96
REMARK SMILES IDX 53 97 54 98 63 99 55 100 56 101 62 102 64 103 57 104 58 105
REMARK SMILES IDX 59 106 60 107 61 108
REMARK H PARENT 3 15 92 24 85 58 51 69
REMARK Flexibility Score: inf
ROOT
ATOM      1  C   UNL A   1      35.058  33.214  28.186  1.00  0.00     0.188 C 
ENDROOT
BRANCH   1   2
ATOM      2  C   UNL A   1      34.030  32.102  27.909  1.00  0.00     0.188 C 
BRANCH   2   3
ATOM      3  O   UNL A   1      34.372  30.737  28.085  1.00  0.00    -0.376 OA
BRANCH   3   4
ATOM      4  C   UNL A   1      34.807  29.946  26.991  1.00  0.00     0.202 C 
BRANCH   4   5
ATOM      5  C   UNL A   1      34.505  28.453  27.058  1.00  0.00     0.261 C 
BRANCH   5   6
ATOM      6  O   UNL A   1      33.108  28.191  27.309  1.00  0.00    -0.459 OA
BRANCH   6   7
ATOM      7  C   UNL A   1      32.493  27.296  26.503  1.00  0.00     0.370 C 
ATOM      8  O   UNL A   1      31.278  27.116  26.492  1.00  0.00    -0.245 OA
BRANCH   7   9
ATOM      9  C   UNL A   1      33.436  26.401  25.704  1.00  0.00     0.328 C 
BRANCH   9  10
ATOM     10  C   UNL A   1      33.380  24.859  25.870  1.00  0.00     0.049 A 
ATOM     11  C   UNL A   1      30.895  24.095  26.519  1.00  0.00     0.065 C 
ATOM     12  C   UNL A   1      32.346  23.987  26.243  1.00  0.00     0.022 A 
ATOM     13  N   UNL A   1      32.868  22.732  26.409  1.00  0.00    -0.358 N 
ATOM     14  C   UNL A   1      34.192  22.697  26.105  1.00  0.00     0.046 A 
ATOM     15  H   UNL A   1      32.350  21.951  26.711  1.00  0.00     0.166 HD
ATOM     16  C   UNL A   1      34.564  23.999  25.783  1.00  0.00     0.009 A 
ATOM     17  C   UNL A   1      35.066  21.606  26.118  1.00  0.00     0.027 A 
ATOM     18  C   UNL A   1      35.926  24.213  25.475  1.00  0.00     0.011 A 
ATOM     19  C   UNL A   1      36.394  21.845  25.777  1.00  0.00     0.002 A 
ATOM     20  C   UNL A   1      36.822  23.131  25.465  1.00  0.00     0.001 A 
ENDBRANCH   9  10
BRANCH   9  21
ATOM     21  N   UNL A   1      33.495  26.823  24.271  1.00  0.00    -0.316 N 
ATOM     22  C   UNL A   1      32.673  26.054  23.335  1.00  0.00     0.285 C 
ATOM     23  C   UNL A   1      33.267  28.264  24.047  1.00  0.00     0.285 C 
ATOM     24  H   UNL A   1      34.467  26.605  24.055  1.00  0.00     0.349 HD
ATOM     25  C   UNL A   1      31.182  26.419  23.246  1.00  0.00     0.181 C 
ATOM     26  C   UNL A   1      31.818  28.787  23.867  1.00  0.00     0.181 C 
ATOM     27  N   UNL A   1      30.823  27.831  23.368  1.00  0.00    -0.325 N 
ATOM     28  C   UNL A   1      29.435  28.110  23.360  1.00  0.00     0.289 C 
ATOM     29  O   UNL A   1      28.636  27.167  23.348  1.00  0.00    -0.265 OA
BRANCH  28  30
ATOM     30  C   UNL A   1      28.964  29.489  23.347  1.00  0.00     0.191 A 
ATOM     31  C   UNL A   1      29.553  30.710  23.630  1.00  0.00     0.056 A 
ATOM     32  O   UNL A   1      27.697  29.720  22.862  1.00  0.00    -0.459 OA
ATOM     33  C   UNL A   1      28.600  31.717  23.334  1.00  0.00     0.043 A 
ATOM     34  C   UNL A   1      27.487  31.061  22.873  1.00  0.00     0.196 A 
ENDBRANCH  28  30
ENDBRANCH   9  21
ENDBRANCH   7   9
ENDBRANCH   6   7
ENDBRANCH   5   6
ENDBRANCH   4   5
ENDBRANCH   3   4
ENDBRANCH   2   3
ENDBRANCH   1   2
BRANCH   1  35
ATOM     35  O   UNL A   1      34.886  34.132  29.262  1.00  0.00    -0.376 OA
BRANCH  35  36
ATOM     36  C   UNL A   1      35.763  34.093  30.375  1.00  0.00     0.202 C 
BRANCH  36  37
ATOM     37  C   UNL A   1      35.861  32.784  31.156  1.00  0.00     0.261 C 
BRANCH  37  38
ATOM     38  O   UNL A   1      37.023  32.020  30.826  1.00  0.00    -0.460 OA
BRANCH  38  39
ATOM     39  C   UNL A   1      36.891  30.685  31.028  1.00  0.00     0.338 C 
ATOM     40  O   UNL A   1      35.931  30.104  31.496  1.00  0.00    -0.246 OA
BRANCH  39  41
ATOM     41  C   UNL A   1      38.048  29.987  30.435  1.00  0.00     0.060 A 
ATOM     42  C   UNL A   1      38.998  29.440  31.308  1.00  0.00     0.016 A 
ATOM     43  C   UNL A   1      38.227  29.924  29.051  1.00  0.00     0.016 A 
ATOM     44  C   UNL A   1      40.175  28.904  30.802  1.00  0.00     0.010 A 
ATOM     45  C   UNL A   1      39.415  29.398  28.544  1.00  0.00     0.010 A 
ATOM     46  C   UNL A   1      40.413  28.948  29.424  1.00  0.00    -0.014 A 
BRANCH  46  47
ATOM     47  C   UNL A   1      41.794  28.756  28.934  1.00  0.00     0.031 A 
ATOM     48  C   UNL A   1      42.177  27.392  28.428  1.00  0.00     0.074 A 
ATOM     49  C   UNL A   1      42.660  29.781  28.900  1.00  0.00     0.049 A 
ATOM     50  N   UNL A   1      43.327  26.965  27.979  1.00  0.00    -0.248 NA
ATOM     51  C   UNL A   1      41.117  26.367  28.432  1.00  0.00     0.031 C 
ATOM     52  C   UNL A   1      42.365  31.149  29.324  1.00  0.00     0.029 A 
ATOM     53  N   UNL A   1      43.965  29.825  28.490  1.00  0.00    -0.354 N 
ATOM     54  C   UNL A   1      43.133  25.625  27.659  1.00  0.00     0.074 A 
ATOM     55  C   UNL A   1      41.767  25.299  27.998  1.00  0.00     0.031 C 
ATOM     56  C   UNL A   1      43.468  31.900  29.160  1.00  0.00     0.029 A 
ATOM     57  C   UNL A   1      44.549  31.057  28.655  1.00  0.00     0.049 A 
ATOM     58  H   UNL A   1      44.440  29.049  28.114  1.00  0.00     0.167 HD
ATOM     59  C   UNL A   1      44.016  24.751  27.122  1.00  0.00     0.037 A 
ATOM     60  C   UNL A   1      45.821  31.446  28.438  1.00  0.00     0.037 A 
ATOM     61  C   UNL A   1      45.374  25.099  26.794  1.00  0.00     0.049 A 
ATOM     62  C   UNL A   1      46.803  30.440  27.896  1.00  0.00     0.074 A 
ATOM     63  C   UNL A   1      46.358  24.301  26.239  1.00  0.00     0.029 A 
ATOM     64  N   UNL A   1      45.940  26.351  26.997  1.00  0.00    -0.354 N 
ATOM     65  N   UNL A   1      46.610  29.178  27.588  1.00  0.00    -0.248 NA
ATOM     66  C   UNL A   1      48.172  30.912  27.663  1.00  0.00     0.031 C 
ATOM     67  C   UNL A   1      47.534  25.053  26.160  1.00  0.00     0.029 A 
ATOM     68  C   UNL A   1      47.267  26.340  26.601  1.00  0.00     0.049 A 
ATOM     69  H   UNL A   1      45.467  27.130  27.367  1.00  0.00     0.167 HD
ATOM     70  C   UNL A   1      47.825  28.714  27.095  1.00  0.00     0.074 A 
ATOM     71  C   UNL A   1      48.740  29.838  27.133  1.00  0.00     0.031 C 
ATOM     72  C   UNL A   1      48.157  27.475  26.650  1.00  0.00     0.037 A 
BRANCH  59  73
ATOM     73  C   UNL A   1      43.551  23.339  26.891  1.00  0.00     0.058 A 
ATOM     74  C   UNL A   1      43.204  22.866  25.614  1.00  0.00     0.135 A 
ATOM     75  C   UNL A   1      43.472  22.434  27.963  1.00  0.00     0.135 A 
ATOM     76  F   UNL A   1      43.237  23.693  24.555  1.00  0.00    -0.206 F 
ATOM     77  C   UNL A   1      42.773  21.559  25.413  1.00  0.00     0.059 A 
ATOM     78  C   UNL A   1      43.073  21.113  27.779  1.00  0.00     0.059 A 
ATOM     79  F   UNL A   1      43.783  22.830  29.207  1.00  0.00    -0.206 F 
ATOM     80  C   UNL A   1      42.714  20.688  26.501  1.00  0.00     0.060 A 
BRANCH  80  81
ATOM     81  S   UNL A   1      42.167  18.990  26.220  1.00  0.00     0.124 S 
ATOM     82  O   UNL A   1      42.374  18.395  27.537  1.00  0.00    -0.237 OA
ATOM     83  O   UNL A   1      40.777  19.175  25.819  1.00  0.00    -0.237 OA
ATOM     84  O   UNL A   1      43.062  18.513  25.170  1.00  0.00    -0.744 OA
ENDBRANCH  80  81
ENDBRANCH  59  73
BRANCH  60  85
ATOM     85  C   UNL A   1      46.232  32.843  28.738  1.00  0.00     0.058 A 
ATOM     86  C   UNL A   1      46.175  33.845  27.757  1.00  0.00     0.135 A 
ATOM     87  C   UNL A   1      46.681  33.209  30.017  1.00  0.00     0.135 A 
ATOM     88  F   UNL A   1      45.762  33.545  26.516  1.00  0.00    -0.206 F 
ATOM     89  C   UNL A   1      46.560  35.154  28.028  1.00  0.00     0.059 A 
ATOM     90  C   UNL A   1      47.043  34.518  30.321  1.00  0.00     0.059 A 
ATOM     91  F   UNL A   1      46.745  32.293  30.996  1.00  0.00    -0.206 F 
ATOM     92  C   UNL A   1      46.987  35.482  29.316  1.00  0.00     0.060 A 
BRANCH  92  93
ATOM     93  S   UNL A   1      47.426  37.197  29.672  1.00  0.00     0.124 S 
ATOM     94  O   UNL A   1      47.246  37.254  31.117  1.00  0.00    -0.237 OA
ATOM     95  O   UNL A   1      48.803  37.265  29.194  1.00  0.00    -0.237 OA
ATOM     96  O   UNL A   1      46.462  37.960  28.884  1.00  0.00    -0.744 OA
ENDBRANCH  92  93
ENDBRANCH  60  85
BRANCH  72  97
ATOM     97  C   UNL A   1      49.557  27.286  26.129  1.00  0.00     0.058 A 
ATOM     98  C   UNL A   1      49.873  27.453  24.771  1.00  0.00     0.135 A 
ATOM     99  C   UNL A   1      50.601  26.956  27.009  1.00  0.00     0.135 A 
ATOM    100  F   UNL A   1      48.912  27.767  23.886  1.00  0.00    -0.206 F 
ATOM    101  C   UNL A   1      51.164  27.251  24.296  1.00  0.00     0.059 A 
ATOM    102  C   UNL A   1      51.906  26.786  26.561  1.00  0.00     0.059 A 
ATOM    103  F   UNL A   1      50.358  26.802  28.320  1.00  0.00    -0.206 F 
ATOM    104  C   UNL A   1      52.174  26.914  25.199  1.00  0.00     0.060 A 
BRANCH 104 105
ATOM    105  S   UNL A   1      53.845  26.651  24.571  1.00  0.00     0.124 S 
ATOM    106  O   UNL A   1      54.479  25.977  25.699  1.00  0.00    -0.237 OA
ATOM    107  O   UNL A   1      53.608  25.826  23.390  1.00  0.00    -0.237 OA
ATOM    108  O   UNL A   1      54.323  28.002  24.297  1.00  0.00    -0.744 OA
ENDBRANCH 104 105
ENDBRANCH  72  97
ENDBRANCH  46  47
ENDBRANCH  39  41
ENDBRANCH  38  39
ENDBRANCH  37  38
ENDBRANCH  36  37
ENDBRANCH  35  36
ENDBRANCH   1  35
TORSDOF 23
ENDMDL
