MODEL 1
REMARK VINA RESULT:     -12.0      0.000      0.000
REMARK SMILES O=C1CCCC2=C1[C@H](c1ccc([N+](=O)[O-])cc1)CC(=O)N2c1ccccc1C(=O)OCCOCCOCCOC(=O)c1ccc(-c2c3nc(c(-c4c(F)cc(S(=O)(=O)[O-])cc4F)c4ccc([nH]4)c(-c4c(F)cc(S(=O)(=O)[O-])cc4F)c4nc(c(-c5c(F)cc(S(=O)(=O)[O-])cc5F)c5ccc2[nH]5)C=C4)C=C3)cc1
REMARK SMILES IDX 34 1 33 2 32 3 31 4 30 5 28 6 29 7 27 8 22 9 23 10 24 11
REMARK SMILES IDX 26 12 25 13 21 14 1 15 2 16 3 17 7 18 4 19 6 20 8 21 5 22
REMARK SMILES IDX 18 23 19 24 20 25 9 26 10 27 17 28 11 29 16 30 12 31 13 32
REMARK SMILES IDX 14 33 15 34 35 35 36 36 37 37 38 38 39 39 40 40 41 41 42 42
REMARK SMILES IDX 43 43 107 44 44 45 106 46 45 47 46 48 47 49 100 50 48 51
REMARK SMILES IDX 105 52 99 53 101 54 49 55 104 56 98 57 97 58 50 60 84 61
REMARK SMILES IDX 63 62 83 63 64 64 67 65 82 66 102 67 65 68 66 69 81 71
REMARK SMILES IDX 103 72 68 73 51 74 52 75 61 76 53 77 54 78 60 79 62 80 55 81
REMARK SMILES IDX 56 82 57 83 58 84 59 85 85 86 86 87 95 88 87 89 88 90 94 91
REMARK SMILES IDX 96 92 89 93 90 94 91 95 92 96 93 97 69 98 70 99 79 100
REMARK SMILES IDX 71 101 72 102 78 103 80 104 73 105 74 106 75 107 76 108
REMARK SMILES IDX 77 109
REMARK H PARENT 101 59 67 70
REMARK Flexibility Score: inf
ROOT
ATOM      1  C   UNL A   1      39.810  20.563  26.125  1.00  0.00     0.188 C 
ENDROOT
BRANCH   1   2
ATOM      2  O   UNL A   1      39.375  21.913  26.234  1.00  0.00    -0.376 OA
BRANCH   2   3
ATOM      3  C   UNL A   1      38.127  22.207  25.623  1.00  0.00     0.202 C 
BRANCH   3   4
ATOM      4  C   UNL A   1      37.488  23.478  26.174  1.00  0.00     0.261 C 
BRANCH   4   5
ATOM      5  O   UNL A   1      36.086  23.347  26.436  1.00  0.00    -0.460 OA
BRANCH   5   6
ATOM      6  C   UNL A   1      35.241  23.668  25.436  1.00  0.00     0.340 C 
ATOM      7  O   UNL A   1      35.318  24.668  24.739  1.00  0.00    -0.246 OA
BRANCH   6   8
ATOM      8  C   UNL A   1      34.202  22.618  25.266  1.00  0.00     0.084 A 
ATOM      9  C   UNL A   1      32.817  22.847  25.083  1.00  0.00     0.063 A 
ATOM     10  C   UNL A   1      31.975  21.711  25.037  1.00  0.00     0.027 A 
ATOM     11  C   UNL A   1      32.471  20.412  25.172  1.00  0.00     0.002 A 
ATOM     12  C   UNL A   1      34.691  21.299  25.390  1.00  0.00     0.018 A 
ATOM     13  C   UNL A   1      33.831  20.205  25.350  1.00  0.00     0.001 A 
BRANCH   9  14
ATOM     14  N   UNL A   1      32.179  24.152  24.967  1.00  0.00    -0.284 N 
ATOM     15  O   UNL A   1      31.127  28.005  22.424  1.00  0.00    -0.294 OA
ATOM     16  C   UNL A   1      31.877  27.052  22.612  1.00  0.00     0.161 C 
ATOM     17  C   UNL A   1      32.907  26.637  21.602  1.00  0.00     0.081 C 
ATOM     18  C   UNL A   1      31.816  26.248  23.867  1.00  0.00     0.023 C 
ATOM     19  C   UNL A   1      32.590  25.205  21.241  1.00  0.00     0.015 C 
ATOM     20  C   UNL A   1      32.213  24.955  23.804  1.00  0.00     0.033 C 
ATOM     21  C   UNL A   1      31.176  26.892  25.076  1.00  0.00     0.064 C 
ATOM     22  C   UNL A   1      32.623  24.305  22.480  1.00  0.00     0.055 C 
ATOM     23  C   UNL A   1      30.561  25.774  25.913  1.00  0.00     0.114 C 
ATOM     24  C   UNL A   1      31.508  24.616  26.131  1.00  0.00     0.232 C 
ATOM     25  O   UNL A   1      31.549  24.080  27.240  1.00  0.00    -0.274 OA
BRANCH  21  26
ATOM     26  C   UNL A   1      32.034  27.931  25.821  1.00  0.00    -0.039 A 
ATOM     27  C   UNL A   1      31.806  29.315  25.733  1.00  0.00     0.011 A 
ATOM     28  C   UNL A   1      33.192  27.517  26.514  1.00  0.00     0.011 A 
ATOM     29  C   UNL A   1      32.696  30.240  26.302  1.00  0.00     0.086 A 
ATOM     30  C   UNL A   1      34.058  28.428  27.130  1.00  0.00     0.086 A 
ATOM     31  C   UNL A   1      33.804  29.792  27.024  1.00  0.00     0.269 A 
BRANCH  31  32
ATOM     32  N   UNL A   1      34.698  30.754  27.678  1.00  0.00     0.062 N 
ATOM     33  O   UNL A   1      34.649  31.935  27.306  1.00  0.00    -0.258 OA
ATOM     34  O   UNL A   1      35.449  30.330  28.571  1.00  0.00    -0.258 OA
ENDBRANCH  31  32
ENDBRANCH  21  26
ENDBRANCH   9  14
ENDBRANCH   6   8
ENDBRANCH   5   6
ENDBRANCH   4   5
ENDBRANCH   3   4
ENDBRANCH   2   3
ENDBRANCH   1   2
BRANCH   1  35
ATOM     35  C   UNL A   1      41.317  20.346  26.379  1.00  0.00     0.188 C 
BRANCH  35  36
ATOM     36  O   UNL A   1      42.294  20.994  25.573  1.00  0.00    -0.376 OA
BRANCH  36  37
ATOM     37  C   UNL A   1      43.019  22.089  26.103  1.00  0.00     0.202 C 
BRANCH  37  38
ATOM     38  C   UNL A   1      42.668  23.499  25.634  1.00  0.00     0.261 C 
BRANCH  38  39
ATOM     39  O   UNL A   1      41.743  24.179  26.484  1.00  0.00    -0.460 OA
BRANCH  39  40
ATOM     40  C   UNL A   1      41.526  25.481  26.173  1.00  0.00     0.338 C 
ATOM     41  O   UNL A   1      41.244  25.946  25.083  1.00  0.00    -0.246 OA
BRANCH  40  42
ATOM     42  C   UNL A   1      41.498  26.260  27.425  1.00  0.00     0.060 A 
ATOM     43  C   UNL A   1      40.409  26.083  28.290  1.00  0.00     0.016 A 
ATOM     44  C   UNL A   1      42.528  27.148  27.747  1.00  0.00     0.016 A 
ATOM     45  C   UNL A   1      40.331  26.818  29.469  1.00  0.00     0.010 A 
ATOM     46  C   UNL A   1      42.436  27.904  28.916  1.00  0.00     0.010 A 
ATOM     47  C   UNL A   1      41.322  27.763  29.761  1.00  0.00    -0.014 A 
BRANCH  47  48
ATOM     48  C   UNL A   1      41.081  28.765  30.821  1.00  0.00     0.031 A 
ATOM     49  C   UNL A   1      41.935  28.697  32.055  1.00  0.00     0.074 A 
ATOM     50  C   UNL A   1      40.129  29.705  30.691  1.00  0.00     0.049 A 
ATOM     51  N   UNL A   1      41.889  29.425  33.138  1.00  0.00    -0.248 NA
ATOM     52  C   UNL A   1      42.983  27.660  32.069  1.00  0.00     0.031 C 
ATOM     53  C   UNL A   1      39.269  29.886  29.523  1.00  0.00     0.029 A 
ATOM     54  N   UNL A   1      39.722  30.681  31.564  1.00  0.00    -0.354 N 
ATOM     55  C   UNL A   1      42.892  28.932  33.964  1.00  0.00     0.074 A 
ATOM     56  C   UNL A   1      43.517  27.830  33.268  1.00  0.00     0.031 C 
ATOM     57  C   UNL A   1      38.426  30.908  29.758  1.00  0.00     0.029 A 
ATOM     58  C   UNL A   1      38.668  31.431  31.102  1.00  0.00     0.049 A 
ATOM     59  H   UNL A   1      40.147  30.830  32.440  1.00  0.00     0.167 HD
ATOM     60  C   UNL A   1      43.259  29.362  35.193  1.00  0.00     0.037 A 
ATOM     61  C   UNL A   1      37.973  32.413  31.708  1.00  0.00     0.037 A 
ATOM     62  C   UNL A   1      42.625  30.452  35.882  1.00  0.00     0.049 A 
ATOM     63  C   UNL A   1      38.355  32.827  33.107  1.00  0.00     0.074 A 
ATOM     64  C   UNL A   1      42.933  30.984  37.121  1.00  0.00     0.029 A 
ATOM     65  N   UNL A   1      41.540  31.166  35.395  1.00  0.00    -0.354 N 
ATOM     66  N   UNL A   1      39.327  32.378  33.865  1.00  0.00    -0.248 NA
ATOM     67  C   UNL A   1      37.542  33.880  33.733  1.00  0.00     0.031 C 
ATOM     68  C   UNL A   1      42.005  31.992  37.403  1.00  0.00     0.029 A 
ATOM     69  C   UNL A   1      41.149  32.119  36.320  1.00  0.00     0.049 A 
ATOM     70  H   UNL A   1      41.112  31.018  34.521  1.00  0.00     0.167 HD
ATOM     71  C   UNL A   1      39.264  33.114  35.044  1.00  0.00     0.074 A 
ATOM     72  C   UNL A   1      38.159  34.039  34.897  1.00  0.00     0.031 C 
ATOM     73  C   UNL A   1      40.050  33.036  36.147  1.00  0.00     0.037 A 
BRANCH  60  74
ATOM     74  C   UNL A   1      44.371  28.620  35.877  1.00  0.00     0.058 A 
ATOM     75  C   UNL A   1      44.119  27.539  36.737  1.00  0.00     0.135 A 
ATOM     76  C   UNL A   1      45.707  28.997  35.670  1.00  0.00     0.135 A 
ATOM     77  F   UNL A   1      42.857  27.155  36.989  1.00  0.00    -0.206 F 
ATOM     78  C   UNL A   1      45.152  26.877  37.391  1.00  0.00     0.059 A 
ATOM     79  C   UNL A   1      46.758  28.332  36.294  1.00  0.00     0.059 A 
ATOM     80  F   UNL A   1      46.001  30.029  34.862  1.00  0.00    -0.206 F 
ATOM     81  C   UNL A   1      46.469  27.283  37.166  1.00  0.00     0.060 A 
BRANCH  81  82
ATOM     82  S   UNL A   1      47.800  26.421  38.026  1.00  0.00     0.124 S 
ATOM     83  O   UNL A   1      48.961  26.812  37.232  1.00  0.00    -0.237 OA
ATOM     84  O   UNL A   1      47.729  26.992  39.367  1.00  0.00    -0.237 OA
ATOM     85  O   UNL A   1      47.415  25.017  37.926  1.00  0.00    -0.744 OA
ENDBRANCH  81  82
ENDBRANCH  60  74
BRANCH  61  86
ATOM     86  C   UNL A   1      36.844  33.074  31.002  1.00  0.00     0.058 A 
ATOM     87  C   UNL A   1      35.517  32.703  31.260  1.00  0.00     0.135 A 
ATOM     88  C   UNL A   1      37.068  34.084  30.053  1.00  0.00     0.135 A 
ATOM     89  F   UNL A   1      35.253  31.734  32.150  1.00  0.00    -0.206 F 
ATOM     90  C   UNL A   1      34.450  33.302  30.597  1.00  0.00     0.059 A 
ATOM     91  C   UNL A   1      36.017  34.713  29.393  1.00  0.00     0.059 A 
ATOM     92  F   UNL A   1      38.320  34.481  29.775  1.00  0.00    -0.206 F 
ATOM     93  C   UNL A   1      34.711  34.309  29.665  1.00  0.00     0.060 A 
BRANCH  93  94
ATOM     94  S   UNL A   1      33.316  35.115  28.850  1.00  0.00     0.124 S 
ATOM     95  O   UNL A   1      32.555  35.612  29.991  1.00  0.00    -0.237 OA
ATOM     96  O   UNL A   1      33.981  36.128  28.035  1.00  0.00    -0.237 OA
ATOM     97  O   UNL A   1      32.694  34.030  28.098  1.00  0.00    -0.744 OA
ENDBRANCH  93  94
ENDBRANCH  61  86
BRANCH  73  98
ATOM     98  C   UNL A   1      39.773  34.001  37.266  1.00  0.00     0.058 A 
ATOM     99  C   UNL A   1      38.972  33.648  38.362  1.00  0.00     0.135 A 
ATOM    100  C   UNL A   1      40.369  35.272  37.269  1.00  0.00     0.135 A 
ATOM    101  F   UNL A   1      38.374  32.446  38.405  1.00  0.00    -0.206 F 
ATOM    102  C   UNL A   1      38.757  34.530  39.416  1.00  0.00     0.059 A 
ATOM    103  C   UNL A   1      40.188  36.160  38.323  1.00  0.00     0.059 A 
ATOM    104  F   UNL A   1      41.154  35.653  36.248  1.00  0.00    -0.206 F 
ATOM    105  C   UNL A   1      39.371  35.785  39.389  1.00  0.00     0.060 A 
BRANCH 105 106
ATOM    106  S   UNL A   1      39.115  36.907  40.779  1.00  0.00     0.124 S 
ATOM    107  O   UNL A   1      38.331  37.969  40.158  1.00  0.00    -0.237 OA
ATOM    108  O   UNL A   1      38.401  36.066  41.734  1.00  0.00    -0.237 OA
ATOM    109  O   UNL A   1      40.473  37.275  41.171  1.00  0.00    -0.744 OA
ENDBRANCH 105 106
ENDBRANCH  73  98
ENDBRANCH  47  48
ENDBRANCH  40  42
ENDBRANCH  39  40
ENDBRANCH  38  39
ENDBRANCH  37  38
ENDBRANCH  36  37
ENDBRANCH  35  36
ENDBRANCH   1  35
TORSDOF 23
ENDMDL
MODEL 2
REMARK VINA RESULT:     -11.8      5.755     11.858
REMARK SMILES O=C1CCCC2=C1[C@H](c1ccc([N+](=O)[O-])cc1)CC(=O)N2c1ccccc1C(=O)OCCOCCOCCOC(=O)c1ccc(-c2c3nc(c(-c4c(F)cc(S(=O)(=O)[O-])cc4F)c4ccc([nH]4)c(-c4c(F)cc(S(=O)(=O)[O-])cc4F)c4nc(c(-c5c(F)cc(S(=O)(=O)[O-])cc5F)c5ccc2[nH]5)C=C4)C=C3)cc1
REMARK SMILES IDX 34 1 33 2 32 3 31 4 30 5 28 6 29 7 27 8 22 9 23 10 24 11
REMARK SMILES IDX 26 12 25 13 21 14 1 15 2 16 3 17 7 18 4 19 6 20 8 21 5 22
REMARK SMILES IDX 18 23 19 24 20 25 9 26 10 27 17 28 11 29 16 30 12 31 13 32
REMARK SMILES IDX 14 33 15 34 35 35 36 36 37 37 38 38 39 39 40 40 41 41 42 42
REMARK SMILES IDX 43 43 107 44 44 45 106 46 45 47 46 48 47 49 100 50 48 51
REMARK SMILES IDX 105 52 99 53 101 54 49 55 104 56 98 57 97 58 50 60 84 61
REMARK SMILES IDX 63 62 83 63 64 64 67 65 82 66 102 67 65 68 66 69 81 71
REMARK SMILES IDX 103 72 68 73 51 74 52 75 61 76 53 77 54 78 60 79 62 80 55 81
REMARK SMILES IDX 56 82 57 83 58 84 59 85 85 86 86 87 95 88 87 89 88 90 94 91
REMARK SMILES IDX 96 92 89 93 90 94 91 95 92 96 93 97 69 98 70 99 79 100
REMARK SMILES IDX 71 101 72 102 78 103 80 104 73 105 74 106 75 107 76 108
REMARK SMILES IDX 77 109
REMARK H PARENT 101 59 67 70
REMARK Flexibility Score: inf
ROOT
ATOM      1  C   UNL A   1      34.006  31.512  27.837  1.00  0.00     0.188 C 
ENDROOT
BRANCH   1   2
ATOM      2  O   UNL A   1      35.253  30.888  27.553  1.00  0.00    -0.376 OA
BRANCH   2   3
ATOM      3  C   UNL A   1      35.238  29.467  27.540  1.00  0.00     0.202 C 
BRANCH   3   4
ATOM      4  C   UNL A   1      33.911  28.898  27.045  1.00  0.00     0.261 C 
BRANCH   4   5
ATOM      5  O   UNL A   1      33.856  28.732  25.623  1.00  0.00    -0.460 OA
BRANCH   5   6
ATOM      6  C   UNL A   1      33.458  27.529  25.160  1.00  0.00     0.340 C 
ATOM      7  O   UNL A   1      33.932  26.453  25.488  1.00  0.00    -0.246 OA
BRANCH   6   8
ATOM      8  C   UNL A   1      32.327  27.680  24.207  1.00  0.00     0.084 A 
ATOM      9  C   UNL A   1      31.766  26.647  23.418  1.00  0.00     0.063 A 
ATOM     10  C   UNL A   1      30.757  27.012  22.497  1.00  0.00     0.027 A 
ATOM     11  C   UNL A   1      30.324  28.333  22.353  1.00  0.00     0.002 A 
ATOM     12  C   UNL A   1      31.873  29.009  24.058  1.00  0.00     0.018 A 
ATOM     13  C   UNL A   1      30.883  29.333  23.134  1.00  0.00     0.001 A 
BRANCH   9  14
ATOM     14  N   UNL A   1      32.159  25.244  23.451  1.00  0.00    -0.284 N 
ATOM     15  O   UNL A   1      31.913  20.950  25.432  1.00  0.00    -0.294 OA
ATOM     16  C   UNL A   1      31.804  22.166  25.559  1.00  0.00     0.161 C 
ATOM     17  C   UNL A   1      31.160  22.785  26.765  1.00  0.00     0.081 C 
ATOM     18  C   UNL A   1      32.316  23.108  24.523  1.00  0.00     0.023 C 
ATOM     19  C   UNL A   1      30.002  23.607  26.249  1.00  0.00     0.015 C 
ATOM     20  C   UNL A   1      31.709  24.314  24.415  1.00  0.00     0.033 C 
ATOM     21  C   UNL A   1      33.371  22.590  23.571  1.00  0.00     0.064 C 
ATOM     22  C   UNL A   1      30.482  24.672  25.259  1.00  0.00     0.055 C 
ATOM     23  C   UNL A   1      33.201  23.340  22.254  1.00  0.00     0.114 C 
ATOM     24  C   UNL A   1      33.072  24.835  22.442  1.00  0.00     0.232 C 
ATOM     25  O   UNL A   1      33.651  25.587  21.656  1.00  0.00    -0.274 OA
BRANCH  21  26
ATOM     26  C   UNL A   1      34.798  22.489  24.138  1.00  0.00    -0.039 A 
ATOM     27  C   UNL A   1      35.315  21.309  24.703  1.00  0.00     0.011 A 
ATOM     28  C   UNL A   1      35.598  23.647  24.238  1.00  0.00     0.011 A 
ATOM     29  C   UNL A   1      36.564  21.293  25.345  1.00  0.00     0.086 A 
ATOM     30  C   UNL A   1      36.867  23.631  24.829  1.00  0.00     0.086 A 
ATOM     31  C   UNL A   1      37.348  22.446  25.380  1.00  0.00     0.269 A 
BRANCH  31  32
ATOM     32  N   UNL A   1      38.683  22.415  25.989  1.00  0.00     0.062 N 
ATOM     33  O   UNL A   1      39.080  23.438  26.564  1.00  0.00    -0.258 OA
ATOM     34  O   UNL A   1      39.335  21.363  25.898  1.00  0.00    -0.258 OA
ENDBRANCH  31  32
ENDBRANCH  21  26
ENDBRANCH   9  14
ENDBRANCH   6   8
ENDBRANCH   5   6
ENDBRANCH   4   5
ENDBRANCH   3   4
ENDBRANCH   2   3
ENDBRANCH   1   2
BRANCH   1  35
ATOM     35  C   UNL A   1      34.090  33.029  28.110  1.00  0.00     0.188 C 
BRANCH  35  36
ATOM     36  O   UNL A   1      33.843  33.552  29.410  1.00  0.00    -0.376 OA
BRANCH  36  37
ATOM     37  C   UNL A   1      34.904  33.621  30.346  1.00  0.00     0.202 C 
BRANCH  37  38
ATOM     38  C   UNL A   1      35.225  32.387  31.185  1.00  0.00     0.261 C 
BRANCH  38  39
ATOM     39  O   UNL A   1      36.218  31.537  30.610  1.00  0.00    -0.460 OA
BRANCH  39  40
ATOM     40  C   UNL A   1      36.778  30.645  31.464  1.00  0.00     0.338 C 
ATOM     41  O   UNL A   1      36.347  30.283  32.544  1.00  0.00    -0.246 OA
BRANCH  40  42
ATOM     42  C   UNL A   1      37.929  30.015  30.792  1.00  0.00     0.060 A 
ATOM     43  C   UNL A   1      38.770  29.191  31.552  1.00  0.00     0.016 A 
ATOM     44  C   UNL A   1      38.175  30.226  29.432  1.00  0.00     0.016 A 
ATOM     45  C   UNL A   1      39.882  28.598  30.962  1.00  0.00     0.010 A 
ATOM     46  C   UNL A   1      39.305  29.652  28.847  1.00  0.00     0.010 A 
ATOM     47  C   UNL A   1      40.176  28.865  29.619  1.00  0.00    -0.014 A 
BRANCH  47  48
ATOM     48  C   UNL A   1      41.510  28.517  29.084  1.00  0.00     0.031 A 
ATOM     49  C   UNL A   1      42.533  29.613  28.988  1.00  0.00     0.074 A 
ATOM     50  C   UNL A   1      41.801  27.266  28.692  1.00  0.00     0.049 A 
ATOM     51  N   UNL A   1      43.749  29.575  28.513  1.00  0.00    -0.248 NA
ATOM     52  C   UNL A   1      42.124  30.936  29.495  1.00  0.00     0.031 C 
ATOM     53  C   UNL A   1      40.898  26.119  28.775  1.00  0.00     0.029 A 
ATOM     54  N   UNL A   1      42.944  26.755  28.133  1.00  0.00    -0.354 N 
ATOM     55  C   UNL A   1      44.247  30.865  28.655  1.00  0.00     0.074 A 
ATOM     56  C   UNL A   1      43.198  31.667  29.242  1.00  0.00     0.031 C 
ATOM     57  C   UNL A   1      41.520  25.038  28.272  1.00  0.00     0.029 A 
ATOM     58  C   UNL A   1      42.852  25.423  27.807  1.00  0.00     0.049 A 
ATOM     59  H   UNL A   1      43.755  27.292  27.981  1.00  0.00     0.167 HD
ATOM     60  C   UNL A   1      45.472  31.336  28.328  1.00  0.00     0.037 A 
ATOM     61  C   UNL A   1      43.739  24.620  27.188  1.00  0.00     0.037 A 
ATOM     62  C   UNL A   1      46.507  30.533  27.735  1.00  0.00     0.049 A 
ATOM     63  C   UNL A   1      45.072  25.186  26.767  1.00  0.00     0.074 A 
ATOM     64  C   UNL A   1      47.791  30.904  27.385  1.00  0.00     0.029 A 
ATOM     65  N   UNL A   1      46.365  29.196  27.391  1.00  0.00    -0.354 N 
ATOM     66  N   UNL A   1      45.546  26.397  26.939  1.00  0.00    -0.248 NA
ATOM     67  C   UNL A   1      45.989  24.275  26.067  1.00  0.00     0.031 C 
ATOM     68  C   UNL A   1      48.414  29.803  26.787  1.00  0.00     0.029 A 
ATOM     69  C   UNL A   1      47.532  28.733  26.808  1.00  0.00     0.049 A 
ATOM     70  H   UNL A   1      45.555  28.657  27.541  1.00  0.00     0.167 HD
ATOM     71  C   UNL A   1      46.828  26.387  26.396  1.00  0.00     0.074 A 
ATOM     72  C   UNL A   1      47.054  25.047  25.893  1.00  0.00     0.031 C 
ATOM     73  C   UNL A   1      47.737  27.391  26.323  1.00  0.00     0.037 A 
BRANCH  60  74
ATOM     74  C   UNL A   1      45.735  32.794  28.570  1.00  0.00     0.058 A 
ATOM     75  C   UNL A   1      45.514  33.760  27.574  1.00  0.00     0.135 A 
ATOM     76  C   UNL A   1      46.217  33.231  29.813  1.00  0.00     0.135 A 
ATOM     77  F   UNL A   1      45.078  33.391  26.359  1.00  0.00    -0.206 F 
ATOM     78  C   UNL A   1      45.789  35.105  27.795  1.00  0.00     0.059 A 
ATOM     79  C   UNL A   1      46.475  34.575  30.064  1.00  0.00     0.059 A 
ATOM     80  F   UNL A   1      46.452  32.347  30.795  1.00  0.00    -0.206 F 
ATOM     81  C   UNL A   1      46.274  35.503  29.043  1.00  0.00     0.060 A 
BRANCH  81  82
ATOM     82  S   UNL A   1      46.634  37.250  29.315  1.00  0.00     0.124 S 
ATOM     83  O   UNL A   1      45.338  37.746  29.772  1.00  0.00    -0.237 OA
ATOM     84  O   UNL A   1      47.685  37.200  30.326  1.00  0.00    -0.237 OA
ATOM     85  O   UNL A   1      47.057  37.718  27.999  1.00  0.00    -0.744 OA
ENDBRANCH  81  82
ENDBRANCH  60  74
BRANCH  61  86
ATOM     86  C   UNL A   1      43.401  23.197  26.925  1.00  0.00     0.058 A 
ATOM     87  C   UNL A   1      43.137  22.748  25.623  1.00  0.00     0.135 A 
ATOM     88  C   UNL A   1      43.331  22.259  27.966  1.00  0.00     0.135 A 
ATOM     89  F   UNL A   1      43.181  23.610  24.595  1.00  0.00    -0.206 F 
ATOM     90  C   UNL A   1      42.806  21.422  25.362  1.00  0.00     0.059 A 
ATOM     91  C   UNL A   1      43.022  20.923  27.729  1.00  0.00     0.059 A 
ATOM     92  F   UNL A   1      43.582  22.636  29.230  1.00  0.00    -0.206 F 
ATOM     93  C   UNL A   1      42.753  20.515  26.422  1.00  0.00     0.060 A 
BRANCH  93  94
ATOM     94  S   UNL A   1      42.372  18.787  26.066  1.00  0.00     0.124 S 
ATOM     95  O   UNL A   1      43.337  18.485  25.014  1.00  0.00    -0.237 OA
ATOM     96  O   UNL A   1      42.613  18.147  27.356  1.00  0.00    -0.237 OA
ATOM     97  O   UNL A   1      40.974  18.830  25.649  1.00  0.00    -0.744 OA
ENDBRANCH  93  94
ENDBRANCH  61  86
BRANCH  73  98
ATOM     98  C   UNL A   1      49.075  27.073  25.715  1.00  0.00     0.058 A 
ATOM     99  C   UNL A   1      49.326  27.259  24.348  1.00  0.00     0.135 A 
ATOM    100  C   UNL A   1      50.135  26.636  26.525  1.00  0.00     0.135 A 
ATOM    101  F   UNL A   1      48.344  27.670  23.529  1.00  0.00    -0.206 F 
ATOM    102  C   UNL A   1      50.580  27.006  23.800  1.00  0.00     0.059 A 
ATOM    103  C   UNL A   1      51.403  26.401  26.005  1.00  0.00     0.059 A 
ATOM    104  F   UNL A   1      49.948  26.454  27.842  1.00  0.00    -0.206 F 
ATOM    105  C   UNL A   1      51.613  26.579  24.638  1.00  0.00     0.060 A 
BRANCH 105 106
ATOM    106  S   UNL A   1      53.245  26.289  23.924  1.00  0.00     0.124 S 
ATOM    107  O   UNL A   1      53.569  24.970  24.457  1.00  0.00    -0.237 OA
ATOM    108  O   UNL A   1      52.976  26.346  22.491  1.00  0.00    -0.237 OA
ATOM    109  O   UNL A   1      54.044  27.393  24.448  1.00  0.00    -0.744 OA
ENDBRANCH 105 106
ENDBRANCH  73  98
ENDBRANCH  47  48
ENDBRANCH  40  42
ENDBRANCH  39  40
ENDBRANCH  38  39
ENDBRANCH  37  38
ENDBRANCH  36  37
ENDBRANCH  35  36
ENDBRANCH   1  35
TORSDOF 23
ENDMDL
MODEL 3
REMARK VINA RESULT:     -11.7      0.533      7.699
REMARK SMILES O=C1CCCC2=C1[C@H](c1ccc([N+](=O)[O-])cc1)CC(=O)N2c1ccccc1C(=O)OCCOCCOCCOC(=O)c1ccc(-c2c3nc(c(-c4c(F)cc(S(=O)(=O)[O-])cc4F)c4ccc([nH]4)c(-c4c(F)cc(S(=O)(=O)[O-])cc4F)c4nc(c(-c5c(F)cc(S(=O)(=O)[O-])cc5F)c5ccc2[nH]5)C=C4)C=C3)cc1
REMARK SMILES IDX 34 1 33 2 32 3 31 4 30 5 28 6 29 7 27 8 22 9 23 10 24 11
REMARK SMILES IDX 26 12 25 13 21 14 1 15 2 16 3 17 7 18 4 19 6 20 8 21 5 22
REMARK SMILES IDX 18 23 19 24 20 25 9 26 10 27 17 28 11 29 16 30 12 31 13 32
REMARK SMILES IDX 14 33 15 34 35 35 36 36 37 37 38 38 39 39 40 40 41 41 42 42
REMARK SMILES IDX 43 43 107 44 44 45 106 46 45 47 46 48 47 49 100 50 48 51
REMARK SMILES IDX 105 52 99 53 101 54 49 55 104 56 98 57 97 58 50 60 84 61
REMARK SMILES IDX 63 62 83 63 64 64 67 65 82 66 102 67 65 68 66 69 81 71
REMARK SMILES IDX 103 72 68 73 51 74 52 75 61 76 53 77 54 78 60 79 62 80 55 81
REMARK SMILES IDX 56 82 57 83 58 84 59 85 85 86 86 87 95 88 87 89 88 90 94 91
REMARK SMILES IDX 96 92 89 93 90 94 91 95 92 96 93 97 69 98 70 99 79 100
REMARK SMILES IDX 71 101 72 102 78 103 80 104 73 105 74 106 75 107 76 108
REMARK SMILES IDX 77 109
REMARK H PARENT 101 59 67 70
REMARK Flexibility Score: inf
ROOT
ATOM      1  C   UNL A   1      40.347  21.217  26.830  1.00  0.00     0.188 C 
ENDROOT
BRANCH   1   2
ATOM      2  O   UNL A   1      39.725  22.253  26.078  1.00  0.00    -0.376 OA
BRANCH   2   3
ATOM      3  C   UNL A   1      38.363  22.030  25.737  1.00  0.00     0.202 C 
BRANCH   3   4
ATOM      4  C   UNL A   1      37.542  23.315  25.734  1.00  0.00     0.261 C 
BRANCH   4   5
ATOM      5  O   UNL A   1      36.229  23.156  26.286  1.00  0.00    -0.460 OA
BRANCH   5   6
ATOM      6  C   UNL A   1      35.206  23.718  25.610  1.00  0.00     0.340 C 
ATOM      7  O   UNL A   1      35.146  24.887  25.264  1.00  0.00    -0.246 OA
BRANCH   6   8
ATOM      8  C   UNL A   1      34.155  22.710  25.309  1.00  0.00     0.084 A 
ATOM      9  C   UNL A   1      32.786  22.986  25.077  1.00  0.00     0.063 A 
ATOM     10  C   UNL A   1      31.924  21.878  24.903  1.00  0.00     0.027 A 
ATOM     11  C   UNL A   1      32.386  20.560  24.962  1.00  0.00     0.002 A 
ATOM     12  C   UNL A   1      34.610  21.374  25.356  1.00  0.00     0.018 A 
ATOM     13  C   UNL A   1      33.730  20.307  25.190  1.00  0.00     0.001 A 
BRANCH   9  14
ATOM     14  N   UNL A   1      32.182  24.311  25.031  1.00  0.00    -0.284 N 
ATOM     15  O   UNL A   1      31.204  28.306  22.684  1.00  0.00    -0.294 OA
ATOM     16  C   UNL A   1      31.930  27.325  22.818  1.00  0.00     0.161 C 
ATOM     17  C   UNL A   1      32.937  26.931  21.776  1.00  0.00     0.081 C 
ATOM     18  C   UNL A   1      31.863  26.465  24.035  1.00  0.00     0.023 C 
ATOM     19  C   UNL A   1      32.577  25.527  21.353  1.00  0.00     0.015 C 
ATOM     20  C   UNL A   1      32.224  25.166  23.906  1.00  0.00     0.033 C 
ATOM     21  C   UNL A   1      31.255  27.068  25.280  1.00  0.00     0.064 C 
ATOM     22  C   UNL A   1      32.601  24.569  22.548  1.00  0.00     0.055 C 
ATOM     23  C   UNL A   1      30.620  25.929  26.072  1.00  0.00     0.114 C 
ATOM     24  C   UNL A   1      31.538  24.738  26.223  1.00  0.00     0.232 C 
ATOM     25  O   UNL A   1      31.578  24.149  27.306  1.00  0.00    -0.274 OA
BRANCH  21  26
ATOM     26  C   UNL A   1      32.149  28.048  26.061  1.00  0.00    -0.039 A 
ATOM     27  C   UNL A   1      31.708  29.314  26.485  1.00  0.00     0.011 A 
ATOM     28  C   UNL A   1      33.516  27.752  26.251  1.00  0.00     0.011 A 
ATOM     29  C   UNL A   1      32.592  30.240  27.061  1.00  0.00     0.086 A 
ATOM     30  C   UNL A   1      34.395  28.647  26.872  1.00  0.00     0.086 A 
ATOM     31  C   UNL A   1      33.926  29.893  27.279  1.00  0.00     0.269 A 
BRANCH  31  32
ATOM     32  N   UNL A   1      34.836  30.833  27.944  1.00  0.00     0.062 N 
ATOM     33  O   UNL A   1      35.319  30.497  29.034  1.00  0.00    -0.258 OA
ATOM     34  O   UNL A   1      35.074  31.908  27.372  1.00  0.00    -0.258 OA
ENDBRANCH  31  32
ENDBRANCH  21  26
ENDBRANCH   9  14
ENDBRANCH   6   8
ENDBRANCH   5   6
ENDBRANCH   4   5
ENDBRANCH   3   4
ENDBRANCH   2   3
ENDBRANCH   1   2
BRANCH   1  35
ATOM     35  C   UNL A   1      41.602  20.604  26.171  1.00  0.00     0.188 C 
BRANCH  35  36
ATOM     36  O   UNL A   1      42.505  21.413  25.428  1.00  0.00    -0.376 OA
BRANCH  36  37
ATOM     37  C   UNL A   1      43.584  22.045  26.094  1.00  0.00     0.202 C 
BRANCH  37  38
ATOM     38  C   UNL A   1      43.641  23.570  26.117  1.00  0.00     0.261 C 
BRANCH  38  39
ATOM     39  O   UNL A   1      42.516  24.182  26.748  1.00  0.00    -0.460 OA
BRANCH  39  40
ATOM     40  C   UNL A   1      42.112  25.353  26.195  1.00  0.00     0.338 C 
ATOM     41  O   UNL A   1      41.938  25.593  25.014  1.00  0.00    -0.246 OA
BRANCH  40  42
ATOM     42  C   UNL A   1      41.719  26.271  27.281  1.00  0.00     0.060 A 
ATOM     43  C   UNL A   1      42.403  27.488  27.398  1.00  0.00     0.016 A 
ATOM     44  C   UNL A   1      40.690  25.942  28.167  1.00  0.00     0.016 A 
ATOM     45  C   UNL A   1      42.081  28.371  28.424  1.00  0.00     0.010 A 
ATOM     46  C   UNL A   1      40.385  26.815  29.212  1.00  0.00     0.010 A 
ATOM     47  C   UNL A   1      41.103  28.014  29.361  1.00  0.00    -0.014 A 
BRANCH  47  48
ATOM     48  C   UNL A   1      40.989  28.779  30.621  1.00  0.00     0.031 A 
ATOM     49  C   UNL A   1      39.933  29.845  30.699  1.00  0.00     0.074 A 
ATOM     50  C   UNL A   1      41.803  28.536  31.662  1.00  0.00     0.049 A 
ATOM     51  N   UNL A   1      39.665  30.679  31.668  1.00  0.00    -0.248 NA
ATOM     52  C   UNL A   1      39.062  29.991  29.519  1.00  0.00     0.031 C 
ATOM     53  C   UNL A   1      42.836  27.503  31.708  1.00  0.00     0.029 A 
ATOM     54  N   UNL A   1      41.890  29.155  32.882  1.00  0.00    -0.354 N 
ATOM     55  C   UNL A   1      38.603  31.452  31.213  1.00  0.00     0.074 A 
ATOM     56  C   UNL A   1      38.288  31.004  29.875  1.00  0.00     0.031 C 
ATOM     57  C   UNL A   1      43.463  27.568  32.896  1.00  0.00     0.029 A 
ATOM     58  C   UNL A   1      42.895  28.664  33.680  1.00  0.00     0.049 A 
ATOM     59  H   UNL A   1      41.288  29.884  33.160  1.00  0.00     0.167 HD
ATOM     60  C   UNL A   1      37.949  32.447  31.856  1.00  0.00     0.037 A 
ATOM     61  C   UNL A   1      43.312  29.070  34.895  1.00  0.00     0.037 A 
ATOM     62  C   UNL A   1      38.276  32.893  33.182  1.00  0.00     0.049 A 
ATOM     63  C   UNL A   1      42.613  30.228  35.562  1.00  0.00     0.074 A 
ATOM     64  C   UNL A   1      37.663  33.877  33.936  1.00  0.00     0.029 A 
ATOM     65  N   UNL A   1      39.320  32.392  33.946  1.00  0.00    -0.354 N 
ATOM     66  N   UNL A   1      41.588  30.929  35.138  1.00  0.00    -0.248 NA
ATOM     67  C   UNL A   1      43.130  30.650  36.871  1.00  0.00     0.031 C 
ATOM     68  C   UNL A   1      38.364  34.002  35.140  1.00  0.00     0.029 A 
ATOM     69  C   UNL A   1      39.386  33.064  35.154  1.00  0.00     0.049 A 
ATOM     70  H   UNL A   1      39.924  31.666  33.671  1.00  0.00     0.167 HD
ATOM     71  C   UNL A   1      41.317  31.855  36.142  1.00  0.00     0.074 A 
ATOM     72  C   UNL A   1      42.286  31.621  37.194  1.00  0.00     0.031 C 
ATOM     73  C   UNL A   1      40.353  32.808  36.192  1.00  0.00     0.037 A 
BRANCH  60  74
ATOM     74  C   UNL A   1      36.845  33.137  31.110  1.00  0.00     0.058 A 
ATOM     75  C   UNL A   1      37.109  34.096  30.117  1.00  0.00     0.135 A 
ATOM     76  C   UNL A   1      35.503  32.839  31.392  1.00  0.00     0.135 A 
ATOM     77  F   UNL A   1      38.376  34.435  29.826  1.00  0.00    -0.206 F 
ATOM     78  C   UNL A   1      36.081  34.754  29.452  1.00  0.00     0.059 A 
ATOM     79  C   UNL A   1      34.459  33.467  30.721  1.00  0.00     0.059 A 
ATOM     80  F   UNL A   1      35.196  31.937  32.338  1.00  0.00    -0.206 F 
ATOM     81  C   UNL A   1      34.758  34.435  29.764  1.00  0.00     0.060 A 
BRANCH  81  82
ATOM     82  S   UNL A   1      33.433  35.302  28.898  1.00  0.00     0.124 S 
ATOM     83  O   UNL A   1      32.799  36.032  29.994  1.00  0.00    -0.237 OA
ATOM     84  O   UNL A   1      34.167  36.117  27.936  1.00  0.00    -0.237 OA
ATOM     85  O   UNL A   1      32.639  34.221  28.322  1.00  0.00    -0.744 OA
ENDBRANCH  81  82
ENDBRANCH  60  74
BRANCH  61  86
ATOM     86  C   UNL A   1      44.448  28.382  35.562  1.00  0.00     0.058 A 
ATOM     87  C   UNL A   1      44.230  27.285  36.408  1.00  0.00     0.135 A 
ATOM     88  C   UNL A   1      45.772  28.807  35.373  1.00  0.00     0.135 A 
ATOM     89  F   UNL A   1      42.980  26.848  36.629  1.00  0.00    -0.206 F 
ATOM     90  C   UNL A   1      45.280  26.639  37.051  1.00  0.00     0.059 A 
ATOM     91  C   UNL A   1      46.842  28.165  35.989  1.00  0.00     0.059 A 
ATOM     92  F   UNL A   1      46.036  29.849  34.568  1.00  0.00    -0.206 F 
ATOM     93  C   UNL A   1      46.585  27.086  36.834  1.00  0.00     0.060 A 
BRANCH  93  94
ATOM     94  S   UNL A   1      47.946  26.207  37.633  1.00  0.00     0.124 S 
ATOM     95  O   UNL A   1      48.958  27.254  37.724  1.00  0.00    -0.237 OA
ATOM     96  O   UNL A   1      47.342  25.790  38.895  1.00  0.00    -0.237 OA
ATOM     97  O   UNL A   1      48.238  25.124  36.700  1.00  0.00    -0.744 OA
ENDBRANCH  93  94
ENDBRANCH  61  86
BRANCH  73  98
ATOM     98  C   UNL A   1      40.269  33.645  37.438  1.00  0.00     0.058 A 
ATOM     99  C   UNL A   1      41.041  34.804  37.600  1.00  0.00     0.135 A 
ATOM    100  C   UNL A   1      39.357  33.314  38.453  1.00  0.00     0.135 A 
ATOM    101  F   UNL A   1      41.932  35.162  36.661  1.00  0.00    -0.206 F 
ATOM    102  C   UNL A   1      40.925  35.599  38.736  1.00  0.00     0.059 A 
ATOM    103  C   UNL A   1      39.206  34.106  39.585  1.00  0.00     0.059 A 
ATOM    104  F   UNL A   1      38.588  32.219  38.339  1.00  0.00    -0.206 F 
ATOM    105  C   UNL A   1      40.003  35.242  39.724  1.00  0.00     0.060 A 
BRANCH 105 106
ATOM    106  S   UNL A   1      39.833  36.300  41.176  1.00  0.00     0.124 S 
ATOM    107  O   UNL A   1      40.735  37.398  40.847  1.00  0.00    -0.237 OA
ATOM    108  O   UNL A   1      38.409  36.624  41.164  1.00  0.00    -0.237 OA
ATOM    109  O   UNL A   1      40.263  35.439  42.274  1.00  0.00    -0.744 OA
ENDBRANCH 105 106
ENDBRANCH  73  98
ENDBRANCH  47  48
ENDBRANCH  40  42
ENDBRANCH  39  40
ENDBRANCH  38  39
ENDBRANCH  37  38
ENDBRANCH  36  37
ENDBRANCH  35  36
ENDBRANCH   1  35
TORSDOF 23
ENDMDL
