MODEL 1
REMARK VINA RESULT:      -9.5      0.000      0.000
REMARK SMILES CCOc1cc(OCC)cc(-c2ccc([C@@H](C)C(=O)OCCOCCOCCOC(=O)c3ccc(-c4c5nc(c(-c6c(F)cc(S(=O)(=O)[O-])cc6F)c6ccc([nH]6)c(-c6c(F)cc(S(=O)(=O)[O-])cc6F)c6nc(c(-c7c(F)cc(S(=O)(=O)[O-])cc7F)c7ccc4[nH]7)C=C6)C=C5)cc3)cc2)c1
REMARK SMILES IDX 24 1 23 2 22 3 21 4 20 5 18 6 19 7 16 8 17 9 15 10 12 11
REMARK SMILES IDX 13 12 99 13 14 14 98 15 11 16 4 17 5 18 100 19 6 20 10 21
REMARK SMILES IDX 3 22 2 23 1 24 7 25 8 26 9 27 25 28 26 29 27 30 28 31 29 32
REMARK SMILES IDX 30 33 31 34 32 35 33 36 97 37 34 38 96 39 35 40 36 41 37 42
REMARK SMILES IDX 90 43 38 44 95 45 89 46 91 47 39 48 94 49 88 50 87 51 40 53
REMARK SMILES IDX 74 54 53 55 73 56 54 57 57 58 72 59 92 60 55 61 56 62 71 64
REMARK SMILES IDX 93 65 58 66 41 67 42 68 51 69 43 70 44 71 50 72 52 73 45 74
REMARK SMILES IDX 46 75 47 76 48 77 49 78 75 79 76 80 85 81 77 82 78 83 84 84
REMARK SMILES IDX 86 85 79 86 80 87 81 88 82 89 83 90 59 91 60 92 69 93 61 94
REMARK SMILES IDX 62 95 68 96 70 97 63 98 64 99 65 100 66 101 67 102
REMARK H PARENT 91 52 57 63
REMARK Flexibility Score: inf
ROOT
ATOM      1  C   UNL A   1      38.468  21.660  25.478  1.00  0.00     0.188 C 
ENDROOT
BRANCH   1   2
ATOM      2  O   UNL A   1      37.679  22.827  25.677  1.00  0.00    -0.376 OA
BRANCH   2   3
ATOM      3  C   UNL A   1      36.290  22.783  25.377  1.00  0.00     0.202 C 
BRANCH   3   4
ATOM      4  C   UNL A   1      35.521  21.473  25.620  1.00  0.00     0.261 C 
BRANCH   4   5
ATOM      5  O   UNL A   1      34.609  21.074  24.569  1.00  0.00    -0.463 OA
BRANCH   5   6
ATOM      6  C   UNL A   1      33.399  20.603  24.965  1.00  0.00     0.313 C 
ATOM      7  O   UNL A   1      33.262  19.827  25.910  1.00  0.00    -0.252 OA
BRANCH   6   8
ATOM      8  C   UNL A   1      32.179  21.096  24.179  1.00  0.00     0.126 C 
ATOM      9  C   UNL A   1      32.250  20.521  22.766  1.00  0.00     0.025 C 
BRANCH   8  10
ATOM     10  C   UNL A   1      31.806  22.577  24.124  1.00  0.00    -0.034 A 
ATOM     11  C   UNL A   1      31.153  25.355  23.904  1.00  0.00    -0.018 A 
ATOM     12  C   UNL A   1      30.717  24.577  24.993  1.00  0.00     0.009 A 
ATOM     13  C   UNL A   1      31.930  24.720  22.928  1.00  0.00     0.009 A 
ATOM     14  C   UNL A   1      31.048  23.216  25.113  1.00  0.00     0.005 A 
ATOM     15  C   UNL A   1      32.256  23.359  23.041  1.00  0.00     0.005 A 
BRANCH  11  16
ATOM     16  C   UNL A   1      30.876  26.804  23.843  1.00  0.00    -0.011 A 
ATOM     17  C   UNL A   1      30.043  28.805  22.729  1.00  0.00     0.123 A 
ATOM     18  C   UNL A   1      30.427  29.586  23.818  1.00  0.00     0.092 A 
ATOM     19  C   UNL A   1      30.276  27.423  22.735  1.00  0.00     0.055 A 
ATOM     20  C   UNL A   1      31.052  28.999  24.917  1.00  0.00     0.123 A 
ATOM     21  C   UNL A   1      31.270  27.620  24.918  1.00  0.00     0.055 A 
BRANCH  17  22
ATOM     22  O   UNL A   1      29.620  29.470  21.609  1.00  0.00    -0.494 OA
BRANCH  22  23
ATOM     23  C   UNL A   1      29.230  30.831  21.817  1.00  0.00     0.226 C 
ATOM     24  C   UNL A   1      28.129  31.249  20.867  1.00  0.00     0.049 C 
ENDBRANCH  22  23
ENDBRANCH  17  22
BRANCH  20  25
ATOM     25  O   UNL A   1      31.402  29.853  25.928  1.00  0.00    -0.494 OA
BRANCH  25  26
ATOM     26  C   UNL A   1      32.444  29.434  26.813  1.00  0.00     0.226 C 
ATOM     27  C   UNL A   1      33.621  30.396  26.773  1.00  0.00     0.049 C 
ENDBRANCH  25  26
ENDBRANCH  20  25
ENDBRANCH  11  16
ENDBRANCH   8  10
ENDBRANCH   6   8
ENDBRANCH   5   6
ENDBRANCH   4   5
ENDBRANCH   3   4
ENDBRANCH   2   3
ENDBRANCH   1   2
BRANCH   1  28
ATOM     28  C   UNL A   1      39.735  21.462  26.324  1.00  0.00     0.188 C 
BRANCH  28  29
ATOM     29  O   UNL A   1      40.093  20.116  26.551  1.00  0.00    -0.376 OA
BRANCH  29  30
ATOM     30  C   UNL A   1      41.448  19.872  26.870  1.00  0.00     0.202 C 
BRANCH  30  31
ATOM     31  C   UNL A   1      42.492  20.503  25.933  1.00  0.00     0.261 C 
BRANCH  31  32
ATOM     32  O   UNL A   1      43.054  19.641  24.923  1.00  0.00    -0.460 OA
BRANCH  32  33
ATOM     33  C   UNL A   1      44.358  19.832  24.631  1.00  0.00     0.338 C 
ATOM     34  O   UNL A   1      45.072  19.057  24.012  1.00  0.00    -0.246 OA
BRANCH  33  35
ATOM     35  C   UNL A   1      44.757  21.211  24.980  1.00  0.00     0.060 A 
ATOM     36  C   UNL A   1      45.039  21.524  26.319  1.00  0.00     0.016 A 
ATOM     37  C   UNL A   1      44.825  22.199  23.998  1.00  0.00     0.016 A 
ATOM     38  C   UNL A   1      45.380  22.830  26.678  1.00  0.00     0.010 A 
ATOM     39  C   UNL A   1      45.148  23.511  24.364  1.00  0.00     0.010 A 
ATOM     40  C   UNL A   1      45.407  23.840  25.707  1.00  0.00    -0.014 A 
BRANCH  40  41
ATOM     41  C   UNL A   1      45.586  25.259  26.109  1.00  0.00     0.031 A 
ATOM     42  C   UNL A   1      46.965  25.863  26.068  1.00  0.00     0.074 A 
ATOM     43  C   UNL A   1      44.537  26.005  26.500  1.00  0.00     0.049 A 
ATOM     44  N   UNL A   1      47.359  27.059  26.423  1.00  0.00    -0.248 NA
ATOM     45  C   UNL A   1      48.044  25.000  25.562  1.00  0.00     0.031 C 
ATOM     46  C   UNL A   1      43.150  25.547  26.558  1.00  0.00     0.029 A 
ATOM     47  N   UNL A   1      44.479  27.306  26.938  1.00  0.00    -0.354 N 
ATOM     48  C   UNL A   1      48.730  27.091  26.194  1.00  0.00     0.074 A 
ATOM     49  C   UNL A   1      49.103  25.783  25.698  1.00  0.00     0.031 C 
ATOM     50  C   UNL A   1      42.378  26.548  27.016  1.00  0.00     0.029 A 
ATOM     51  C   UNL A   1      43.219  27.705  27.319  1.00  0.00     0.049 A 
ATOM     52  H   UNL A   1      45.266  27.897  26.975  1.00  0.00     0.167 HD
ATOM     53  C   UNL A   1      49.596  28.117  26.374  1.00  0.00     0.037 A 
ATOM     54  C   UNL A   1      42.798  28.861  27.870  1.00  0.00     0.037 A 
ATOM     55  C   UNL A   1      49.220  29.416  26.874  1.00  0.00     0.049 A 
ATOM     56  C   UNL A   1      43.792  29.968  28.119  1.00  0.00     0.074 A 
ATOM     57  C   UNL A   1      50.021  30.528  27.069  1.00  0.00     0.029 A 
ATOM     58  N   UNL A   1      47.939  29.776  27.270  1.00  0.00    -0.354 N 
ATOM     59  N   UNL A   1      45.080  29.995  27.870  1.00  0.00    -0.248 NA
ATOM     60  C   UNL A   1      43.271  31.205  28.719  1.00  0.00     0.031 C 
ATOM     61  C   UNL A   1      49.239  31.538  27.640  1.00  0.00     0.029 A 
ATOM     62  C   UNL A   1      47.935  31.081  27.737  1.00  0.00     0.049 A 
ATOM     63  H   UNL A   1      47.150  29.188  27.227  1.00  0.00     0.167 HD
ATOM     64  C   UNL A   1      45.517  31.259  28.258  1.00  0.00     0.074 A 
ATOM     65  C   UNL A   1      44.352  31.972  28.737  1.00  0.00     0.031 C 
ATOM     66  C   UNL A   1      46.770  31.781  28.222  1.00  0.00     0.037 A 
BRANCH  53  67
ATOM     67  C   UNL A   1      51.048  27.870  26.056  1.00  0.00     0.058 A 
ATOM     68  C   UNL A   1      51.954  27.411  27.026  1.00  0.00     0.135 A 
ATOM     69  C   UNL A   1      51.531  28.061  24.750  1.00  0.00     0.135 A 
ATOM     70  F   UNL A   1      51.553  27.228  28.293  1.00  0.00    -0.206 F 
ATOM     71  C   UNL A   1      53.292  27.174  26.718  1.00  0.00     0.059 A 
ATOM     72  C   UNL A   1      52.856  27.802  24.414  1.00  0.00     0.059 A 
ATOM     73  F   UNL A   1      50.711  28.502  23.783  1.00  0.00    -0.206 F 
ATOM     74  C   UNL A   1      53.732  27.372  25.409  1.00  0.00     0.060 A 
BRANCH  74  75
ATOM     75  S   UNL A   1      55.468  27.053  25.027  1.00  0.00     0.124 S 
ATOM     76  O   UNL A   1      55.916  28.370  24.584  1.00  0.00    -0.237 OA
ATOM     77  O   UNL A   1      55.992  26.604  26.313  1.00  0.00    -0.237 OA
ATOM     78  O   UNL A   1      55.407  26.031  23.986  1.00  0.00    -0.744 OA
ENDBRANCH  74  75
ENDBRANCH  53  67
BRANCH  54  79
ATOM     79  C   UNL A   1      41.365  29.033  28.237  1.00  0.00     0.058 A 
ATOM     80  C   UNL A   1      40.387  29.274  27.261  1.00  0.00     0.135 A 
ATOM     81  C   UNL A   1      40.945  28.967  29.576  1.00  0.00     0.135 A 
ATOM     82  F   UNL A   1      40.739  29.362  25.969  1.00  0.00    -0.206 F 
ATOM     83  C   UNL A   1      39.050  29.459  27.596  1.00  0.00     0.059 A 
ATOM     84  C   UNL A   1      39.609  29.117  29.934  1.00  0.00     0.059 A 
ATOM     85  F   UNL A   1      41.838  28.733  30.550  1.00  0.00    -0.206 F 
ATOM     86  C   UNL A   1      38.670  29.373  28.937  1.00  0.00     0.060 A 
BRANCH  86  87
ATOM     87  S   UNL A   1      36.923  29.564  29.353  1.00  0.00     0.124 S 
ATOM     88  O   UNL A   1      36.773  31.013  29.342  1.00  0.00    -0.237 OA
ATOM     89  O   UNL A   1      36.270  28.845  28.263  1.00  0.00    -0.237 OA
ATOM     90  O   UNL A   1      36.818  28.928  30.663  1.00  0.00    -0.744 OA
ENDBRANCH  86  87
ENDBRANCH  54  79
BRANCH  66  91
ATOM     91  C   UNL A   1      46.939  33.206  28.685  1.00  0.00     0.058 A 
ATOM     92  C   UNL A   1      47.377  33.519  29.982  1.00  0.00     0.135 A 
ATOM     93  C   UNL A   1      46.670  34.276  27.815  1.00  0.00     0.135 A 
ATOM     94  F   UNL A   1      47.649  32.538  30.859  1.00  0.00    -0.206 F 
ATOM     95  C   UNL A   1      47.495  34.837  30.414  1.00  0.00     0.059 A 
ATOM     96  C   UNL A   1      46.816  35.602  28.214  1.00  0.00     0.059 A 
ATOM     97  F   UNL A   1      46.263  34.039  26.557  1.00  0.00    -0.206 F 
ATOM     98  C   UNL A   1      47.207  35.871  29.524  1.00  0.00     0.060 A 
BRANCH  98  99
ATOM     99  S   UNL A   1      47.354  37.576  30.099  1.00  0.00     0.124 S 
ATOM    100  O   UNL A   1      46.406  38.264  29.229  1.00  0.00    -0.237 OA
ATOM    101  O   UNL A   1      46.963  37.468  31.502  1.00  0.00    -0.237 OA
ATOM    102  O   UNL A   1      48.760  37.893  29.870  1.00  0.00    -0.744 OA
ENDBRANCH  98  99
ENDBRANCH  66  91
ENDBRANCH  40  41
ENDBRANCH  33  35
ENDBRANCH  32  33
ENDBRANCH  31  32
ENDBRANCH  30  31
ENDBRANCH  29  30
ENDBRANCH  28  29
ENDBRANCH   1  28
TORSDOF 26
ENDMDL
MODEL 2
REMARK VINA RESULT:      -9.3      5.752      8.913
REMARK SMILES CCOc1cc(OCC)cc(-c2ccc([C@@H](C)C(=O)OCCOCCOCCOC(=O)c3ccc(-c4c5nc(c(-c6c(F)cc(S(=O)(=O)[O-])cc6F)c6ccc([nH]6)c(-c6c(F)cc(S(=O)(=O)[O-])cc6F)c6nc(c(-c7c(F)cc(S(=O)(=O)[O-])cc7F)c7ccc4[nH]7)C=C6)C=C5)cc3)cc2)c1
REMARK SMILES IDX 24 1 23 2 22 3 21 4 20 5 18 6 19 7 16 8 17 9 15 10 12 11
REMARK SMILES IDX 13 12 99 13 14 14 98 15 11 16 4 17 5 18 100 19 6 20 10 21
REMARK SMILES IDX 3 22 2 23 1 24 7 25 8 26 9 27 25 28 26 29 27 30 28 31 29 32
REMARK SMILES IDX 30 33 31 34 32 35 33 36 97 37 34 38 96 39 35 40 36 41 37 42
REMARK SMILES IDX 90 43 38 44 95 45 89 46 91 47 39 48 94 49 88 50 87 51 40 53
REMARK SMILES IDX 74 54 53 55 73 56 54 57 57 58 72 59 92 60 55 61 56 62 71 64
REMARK SMILES IDX 93 65 58 66 41 67 42 68 51 69 43 70 44 71 50 72 52 73 45 74
REMARK SMILES IDX 46 75 47 76 48 77 49 78 75 79 76 80 85 81 77 82 78 83 84 84
REMARK SMILES IDX 86 85 79 86 80 87 81 88 82 89 83 90 59 91 60 92 69 93 61 94
REMARK SMILES IDX 62 95 68 96 70 97 63 98 64 99 65 100 66 101 67 102
REMARK H PARENT 91 52 57 63
REMARK Flexibility Score: inf
ROOT
ATOM      1  C   UNL A   1      44.202  18.943  24.817  1.00  0.00     0.188 C 
ENDROOT
BRANCH   1   2
ATOM      2  O   UNL A   1      43.210  18.097  25.386  1.00  0.00    -0.376 OA
BRANCH   2   3
ATOM      3  C   UNL A   1      42.889  18.236  26.763  1.00  0.00     0.202 C 
BRANCH   3   4
ATOM      4  C   UNL A   1      42.271  19.558  27.251  1.00  0.00     0.261 C 
BRANCH   4   5
ATOM      5  O   UNL A   1      41.272  20.144  26.383  1.00  0.00    -0.463 OA
BRANCH   5   6
ATOM      6  C   UNL A   1      41.480  21.432  26.005  1.00  0.00     0.313 C 
ATOM      7  O   UNL A   1      42.478  21.792  25.384  1.00  0.00    -0.252 OA
BRANCH   6   8
ATOM      8  C   UNL A   1      40.391  22.442  26.382  1.00  0.00     0.126 C 
ATOM      9  C   UNL A   1      40.462  22.690  27.888  1.00  0.00     0.025 C 
BRANCH   8  10
ATOM     10  C   UNL A   1      38.937  22.252  25.951  1.00  0.00    -0.034 A 
ATOM     11  C   UNL A   1      36.240  21.772  25.124  1.00  0.00    -0.018 A 
ATOM     12  C   UNL A   1      36.634  23.002  25.684  1.00  0.00     0.009 A 
ATOM     13  C   UNL A   1      37.222  20.787  24.977  1.00  0.00     0.009 A 
ATOM     14  C   UNL A   1      37.961  23.248  26.077  1.00  0.00     0.005 A 
ATOM     15  C   UNL A   1      38.546  21.025  25.376  1.00  0.00     0.005 A 
BRANCH  11  16
ATOM     16  C   UNL A   1      34.864  21.567  24.629  1.00  0.00    -0.011 A 
ATOM     17  C   UNL A   1      32.812  22.328  23.558  1.00  0.00     0.123 A 
ATOM     18  C   UNL A   1      32.229  21.077  23.756  1.00  0.00     0.092 A 
ATOM     19  C   UNL A   1      34.117  22.577  24.002  1.00  0.00     0.055 A 
ATOM     20  C   UNL A   1      32.939  20.068  24.404  1.00  0.00     0.123 A 
ATOM     21  C   UNL A   1      34.243  20.322  24.833  1.00  0.00     0.055 A 
BRANCH  17  22
ATOM     22  O   UNL A   1      31.993  23.326  23.099  1.00  0.00    -0.494 OA
BRANCH  22  23
ATOM     23  C   UNL A   1      30.953  23.726  23.996  1.00  0.00     0.226 C 
ATOM     24  C   UNL A   1      31.489  24.571  25.132  1.00  0.00     0.049 C 
ENDBRANCH  22  23
ENDBRANCH  17  22
BRANCH  20  25
ATOM     25  O   UNL A   1      32.275  18.881  24.562  1.00  0.00    -0.494 OA
BRANCH  25  26
ATOM     26  C   UNL A   1      32.276  17.974  23.456  1.00  0.00     0.226 C 
ATOM     27  C   UNL A   1      33.599  17.231  23.354  1.00  0.00     0.049 C 
ENDBRANCH  25  26
ENDBRANCH  20  25
ENDBRANCH  11  16
ENDBRANCH   8  10
ENDBRANCH   6   8
ENDBRANCH   5   6
ENDBRANCH   4   5
ENDBRANCH   3   4
ENDBRANCH   2   3
ENDBRANCH   1   2
BRANCH   1  28
ATOM     28  C   UNL A   1      45.621  18.933  25.408  1.00  0.00     0.188 C 
BRANCH  28  29
ATOM     29  O   UNL A   1      46.313  20.158  25.310  1.00  0.00    -0.376 OA
BRANCH  29  30
ATOM     30  C   UNL A   1      45.608  21.232  24.721  1.00  0.00     0.202 C 
BRANCH  30  31
ATOM     31  C   UNL A   1      46.435  22.485  24.384  1.00  0.00     0.261 C 
BRANCH  31  32
ATOM     32  O   UNL A   1      46.743  23.367  25.483  1.00  0.00    -0.460 OA
BRANCH  32  33
ATOM     33  C   UNL A   1      47.079  24.633  25.157  1.00  0.00     0.338 C 
ATOM     34  O   UNL A   1      47.484  25.006  24.066  1.00  0.00    -0.246 OA
BRANCH  33  35
ATOM     35  C   UNL A   1      46.687  25.555  26.243  1.00  0.00     0.060 A 
ATOM     36  C   UNL A   1      47.681  26.280  26.917  1.00  0.00     0.016 A 
ATOM     37  C   UNL A   1      45.349  25.683  26.616  1.00  0.00     0.016 A 
ATOM     38  C   UNL A   1      47.338  27.128  27.973  1.00  0.00     0.010 A 
ATOM     39  C   UNL A   1      45.010  26.518  27.687  1.00  0.00     0.010 A 
ATOM     40  C   UNL A   1      46.003  27.230  28.386  1.00  0.00    -0.014 A 
BRANCH  40  41
ATOM     41  C   UNL A   1      45.656  27.982  29.619  1.00  0.00     0.031 A 
ATOM     42  C   UNL A   1      45.648  27.259  30.940  1.00  0.00     0.074 A 
ATOM     43  C   UNL A   1      45.356  29.292  29.568  1.00  0.00     0.049 A 
ATOM     44  N   UNL A   1      45.326  27.702  32.128  1.00  0.00    -0.248 NA
ATOM     45  C   UNL A   1      46.056  25.845  30.916  1.00  0.00     0.031 C 
ATOM     46  C   UNL A   1      45.354  30.112  28.358  1.00  0.00     0.029 A 
ATOM     47  N   UNL A   1      44.982  30.163  30.563  1.00  0.00    -0.354 N 
ATOM     48  C   UNL A   1      45.482  26.624  32.991  1.00  0.00     0.074 A 
ATOM     49  C   UNL A   1      45.898  25.497  32.184  1.00  0.00     0.031 C 
ATOM     50  C   UNL A   1      44.984  31.364  28.678  1.00  0.00     0.029 A 
ATOM     51  C   UNL A   1      44.688  31.428  30.109  1.00  0.00     0.049 A 
ATOM     52  H   UNL A   1      44.927  29.905  31.512  1.00  0.00     0.167 HD
ATOM     53  C   UNL A   1      45.301  26.579  34.333  1.00  0.00     0.037 A 
ATOM     54  C   UNL A   1      44.213  32.504  30.767  1.00  0.00     0.037 A 
ATOM     55  C   UNL A   1      44.881  27.703  35.132  1.00  0.00     0.049 A 
ATOM     56  C   UNL A   1      43.960  32.412  32.251  1.00  0.00     0.074 A 
ATOM     57  C   UNL A   1      44.693  27.764  36.502  1.00  0.00     0.029 A 
ATOM     58  N   UNL A   1      44.572  28.961  34.634  1.00  0.00    -0.354 N 
ATOM     59  N   UNL A   1      44.139  31.394  33.060  1.00  0.00    -0.248 NA
ATOM     60  C   UNL A   1      43.445  33.620  32.912  1.00  0.00     0.031 C 
ATOM     61  C   UNL A   1      44.211  29.037  36.824  1.00  0.00     0.029 A 
ATOM     62  C   UNL A   1      44.164  29.794  35.665  1.00  0.00     0.049 A 
ATOM     63  H   UNL A   1      44.632  29.223  33.686  1.00  0.00     0.167 HD
ATOM     64  C   UNL A   1      43.785  31.848  34.328  1.00  0.00     0.074 A 
ATOM     65  C   UNL A   1      43.403  33.236  34.181  1.00  0.00     0.031 C 
ATOM     66  C   UNL A   1      43.776  31.175  35.508  1.00  0.00     0.037 A 
BRANCH  53  67
ATOM     67  C   UNL A   1      45.528  25.260  35.025  1.00  0.00     0.058 A 
ATOM     68  C   UNL A   1      44.524  24.281  35.109  1.00  0.00     0.135 A 
ATOM     69  C   UNL A   1      46.782  24.957  35.580  1.00  0.00     0.135 A 
ATOM     70  F   UNL A   1      43.301  24.523  34.611  1.00  0.00    -0.206 F 
ATOM     71  C   UNL A   1      44.748  23.060  35.740  1.00  0.00     0.059 A 
ATOM     72  C   UNL A   1      47.038  23.731  36.189  1.00  0.00     0.059 A 
ATOM     73  F   UNL A   1      47.779  25.855  35.532  1.00  0.00    -0.206 F 
ATOM     74  C   UNL A   1      46.009  22.795  36.276  1.00  0.00     0.060 A 
BRANCH  74  75
ATOM     75  S   UNL A   1      46.283  21.204  37.085  1.00  0.00     0.124 S 
ATOM     76  O   UNL A   1      45.803  21.476  38.435  1.00  0.00    -0.237 OA
ATOM     77  O   UNL A   1      45.457  20.303  36.287  1.00  0.00    -0.237 OA
ATOM     78  O   UNL A   1      47.724  21.002  36.962  1.00  0.00    -0.744 OA
ENDBRANCH  74  75
ENDBRANCH  53  67
BRANCH  54  79
ATOM     79  C   UNL A   1      43.932  33.766  30.027  1.00  0.00     0.058 A 
ATOM     80  C   UNL A   1      42.650  34.051  29.537  1.00  0.00     0.135 A 
ATOM     81  C   UNL A   1      44.945  34.709  29.788  1.00  0.00     0.135 A 
ATOM     82  F   UNL A   1      41.651  33.175  29.725  1.00  0.00    -0.206 F 
ATOM     83  C   UNL A   1      42.381  35.216  28.825  1.00  0.00     0.059 A 
ATOM     84  C   UNL A   1      44.696  35.896  29.106  1.00  0.00     0.059 A 
ATOM     85  F   UNL A   1      46.190  34.489  30.239  1.00  0.00    -0.206 F 
ATOM     86  C   UNL A   1      43.412  36.135  28.619  1.00  0.00     0.060 A 
BRANCH  86  87
ATOM     87  S   UNL A   1      43.039  37.667  27.738  1.00  0.00     0.124 S 
ATOM     88  O   UNL A   1      42.029  38.266  28.602  1.00  0.00    -0.237 OA
ATOM     89  O   UNL A   1      44.339  38.331  27.719  1.00  0.00    -0.237 OA
ATOM     90  O   UNL A   1      42.563  37.201  26.439  1.00  0.00    -0.744 OA
ENDBRANCH  86  87
ENDBRANCH  54  79
BRANCH  66  91
ATOM     91  C   UNL A   1      43.369  31.943  36.739  1.00  0.00     0.058 A 
ATOM     92  C   UNL A   1      42.041  31.965  37.196  1.00  0.00     0.135 A 
ATOM     93  C   UNL A   1      44.323  32.660  37.481  1.00  0.00     0.135 A 
ATOM     94  F   UNL A   1      41.085  31.300  36.528  1.00  0.00    -0.206 F 
ATOM     95  C   UNL A   1      41.666  32.707  38.313  1.00  0.00     0.059 A 
ATOM     96  C   UNL A   1      43.977  33.380  38.621  1.00  0.00     0.059 A 
ATOM     97  F   UNL A   1      45.612  32.664  37.103  1.00  0.00    -0.206 F 
ATOM     98  C   UNL A   1      42.641  33.415  39.016  1.00  0.00     0.060 A 
BRANCH  98  99
ATOM     99  S   UNL A   1      42.141  34.382  40.456  1.00  0.00     0.124 S 
ATOM    100  O   UNL A   1      41.205  33.473  41.110  1.00  0.00    -0.237 OA
ATOM    101  O   UNL A   1      43.409  34.592  41.148  1.00  0.00    -0.237 OA
ATOM    102  O   UNL A   1      41.547  35.581  39.873  1.00  0.00    -0.744 OA
ENDBRANCH  98  99
ENDBRANCH  66  91
ENDBRANCH  40  41
ENDBRANCH  33  35
ENDBRANCH  32  33
ENDBRANCH  31  32
ENDBRANCH  30  31
ENDBRANCH  29  30
ENDBRANCH  28  29
ENDBRANCH   1  28
TORSDOF 26
ENDMDL
MODEL 3
REMARK VINA RESULT:      -9.0      6.786      8.770
REMARK SMILES CCOc1cc(OCC)cc(-c2ccc([C@@H](C)C(=O)OCCOCCOCCOC(=O)c3ccc(-c4c5nc(c(-c6c(F)cc(S(=O)(=O)[O-])cc6F)c6ccc([nH]6)c(-c6c(F)cc(S(=O)(=O)[O-])cc6F)c6nc(c(-c7c(F)cc(S(=O)(=O)[O-])cc7F)c7ccc4[nH]7)C=C6)C=C5)cc3)cc2)c1
REMARK SMILES IDX 24 1 23 2 22 3 21 4 20 5 18 6 19 7 16 8 17 9 15 10 12 11
REMARK SMILES IDX 13 12 99 13 14 14 98 15 11 16 4 17 5 18 100 19 6 20 10 21
REMARK SMILES IDX 3 22 2 23 1 24 7 25 8 26 9 27 25 28 26 29 27 30 28 31 29 32
REMARK SMILES IDX 30 33 31 34 32 35 33 36 97 37 34 38 96 39 35 40 36 41 37 42
REMARK SMILES IDX 90 43 38 44 95 45 89 46 91 47 39 48 94 49 88 50 87 51 40 53
REMARK SMILES IDX 74 54 53 55 73 56 54 57 57 58 72 59 92 60 55 61 56 62 71 64
REMARK SMILES IDX 93 65 58 66 41 67 42 68 51 69 43 70 44 71 50 72 52 73 45 74
REMARK SMILES IDX 46 75 47 76 48 77 49 78 75 79 76 80 85 81 77 82 78 83 84 84
REMARK SMILES IDX 86 85 79 86 80 87 81 88 82 89 83 90 59 91 60 92 69 93 61 94
REMARK SMILES IDX 62 95 68 96 70 97 63 98 64 99 65 100 66 101 67 102
REMARK H PARENT 91 52 57 63
REMARK Flexibility Score: inf
ROOT
ATOM      1  C   UNL A   1      44.170  18.899  24.775  1.00  0.00     0.188 C 
ENDROOT
BRANCH   1   2
ATOM      2  O   UNL A   1      43.178  18.076  25.378  1.00  0.00    -0.376 OA
BRANCH   2   3
ATOM      3  C   UNL A   1      42.851  18.278  26.747  1.00  0.00     0.202 C 
BRANCH   3   4
ATOM      4  C   UNL A   1      42.619  19.713  27.251  1.00  0.00     0.261 C 
BRANCH   4   5
ATOM      5  O   UNL A   1      41.369  20.325  26.853  1.00  0.00    -0.463 OA
BRANCH   5   6
ATOM      6  C   UNL A   1      41.461  21.485  26.153  1.00  0.00     0.313 C 
ATOM      7  O   UNL A   1      42.383  21.725  25.376  1.00  0.00    -0.252 OA
BRANCH   6   8
ATOM      8  C   UNL A   1      40.336  22.505  26.365  1.00  0.00     0.126 C 
ATOM      9  C   UNL A   1      40.330  22.920  27.835  1.00  0.00     0.025 C 
BRANCH   8  10
ATOM     10  C   UNL A   1      38.909  22.234  25.891  1.00  0.00    -0.034 A 
ATOM     11  C   UNL A   1      36.211  21.850  25.014  1.00  0.00    -0.018 A 
ATOM     12  C   UNL A   1      37.167  20.819  24.939  1.00  0.00     0.009 A 
ATOM     13  C   UNL A   1      36.626  23.076  25.544  1.00  0.00     0.009 A 
ATOM     14  C   UNL A   1      38.489  20.998  25.382  1.00  0.00     0.005 A 
ATOM     15  C   UNL A   1      37.948  23.262  25.980  1.00  0.00     0.005 A 
BRANCH  11  16
ATOM     16  C   UNL A   1      34.805  21.613  24.633  1.00  0.00    -0.011 A 
ATOM     17  C   UNL A   1      32.690  22.290  23.628  1.00  0.00     0.123 A 
ATOM     18  C   UNL A   1      32.115  21.071  23.985  1.00  0.00     0.092 A 
ATOM     19  C   UNL A   1      34.024  22.566  23.959  1.00  0.00     0.055 A 
ATOM     20  C   UNL A   1      32.862  20.122  24.683  1.00  0.00     0.123 A 
ATOM     21  C   UNL A   1      34.192  20.402  24.998  1.00  0.00     0.055 A 
BRANCH  17  22
ATOM     22  O   UNL A   1      31.849  23.247  23.126  1.00  0.00    -0.494 OA
BRANCH  22  23
ATOM     23  C   UNL A   1      32.242  24.600  23.378  1.00  0.00     0.226 C 
ATOM     24  C   UNL A   1      31.404  25.582  22.589  1.00  0.00     0.049 C 
ENDBRANCH  22  23
ENDBRANCH  17  22
BRANCH  20  25
ATOM     25  O   UNL A   1      32.203  18.964  24.999  1.00  0.00    -0.494 OA
BRANCH  25  26
ATOM     26  C   UNL A   1      32.959  17.750  24.981  1.00  0.00     0.226 C 
ATOM     27  C   UNL A   1      33.157  17.246  23.560  1.00  0.00     0.049 C 
ENDBRANCH  25  26
ENDBRANCH  20  25
ENDBRANCH  11  16
ENDBRANCH   8  10
ENDBRANCH   6   8
ENDBRANCH   5   6
ENDBRANCH   4   5
ENDBRANCH   3   4
ENDBRANCH   2   3
ENDBRANCH   1   2
BRANCH   1  28
ATOM     28  C   UNL A   1      45.588  18.915  25.368  1.00  0.00     0.188 C 
BRANCH  28  29
ATOM     29  O   UNL A   1      46.216  20.178  25.367  1.00  0.00    -0.376 OA
BRANCH  29  30
ATOM     30  C   UNL A   1      45.599  21.186  24.591  1.00  0.00     0.202 C 
BRANCH  30  31
ATOM     31  C   UNL A   1      46.388  22.497  24.428  1.00  0.00     0.261 C 
BRANCH  31  32
ATOM     32  O   UNL A   1      46.778  23.167  25.644  1.00  0.00    -0.460 OA
BRANCH  32  33
ATOM     33  C   UNL A   1      46.782  24.517  25.608  1.00  0.00     0.338 C 
ATOM     34  O   UNL A   1      46.783  25.204  24.597  1.00  0.00    -0.246 OA
BRANCH  33  35
ATOM     35  C   UNL A   1      46.571  25.059  26.966  1.00  0.00     0.060 A 
ATOM     36  C   UNL A   1      47.199  26.260  27.329  1.00  0.00     0.016 A 
ATOM     37  C   UNL A   1      45.779  24.374  27.887  1.00  0.00     0.016 A 
ATOM     38  C   UNL A   1      47.044  26.771  28.619  1.00  0.00     0.010 A 
ATOM     39  C   UNL A   1      45.643  24.878  29.186  1.00  0.00     0.010 A 
ATOM     40  C   UNL A   1      46.290  26.067  29.567  1.00  0.00    -0.014 A 
BRANCH  40  41
ATOM     41  C   UNL A   1      46.273  26.506  30.986  1.00  0.00     0.031 A 
ATOM     42  C   UNL A   1      47.362  26.033  31.912  1.00  0.00     0.074 A 
ATOM     43  C   UNL A   1      45.306  27.320  31.447  1.00  0.00     0.049 A 
ATOM     44  N   UNL A   1      47.515  26.247  33.194  1.00  0.00    -0.248 NA
ATOM     45  C   UNL A   1      48.419  25.203  31.311  1.00  0.00     0.031 C 
ATOM     46  C   UNL A   1      44.212  27.869  30.647  1.00  0.00     0.029 A 
ATOM     47  N   UNL A   1      45.081  27.817  32.708  1.00  0.00    -0.354 N 
ATOM     48  C   UNL A   1      48.675  25.574  33.557  1.00  0.00     0.074 A 
ATOM     49  C   UNL A   1      49.170  24.919  32.365  1.00  0.00     0.031 C 
ATOM     50  C   UNL A   1      43.425  28.618  31.439  1.00  0.00     0.029 A 
ATOM     51  C   UNL A   1      43.936  28.573  32.808  1.00  0.00     0.049 A 
ATOM     52  H   UNL A   1      45.683  27.647  33.469  1.00  0.00     0.167 HD
ATOM     53  C   UNL A   1      49.277  25.513  34.769  1.00  0.00     0.037 A 
ATOM     54  C   UNL A   1      43.356  29.142  33.883  1.00  0.00     0.037 A 
ATOM     55  C   UNL A   1      48.777  26.163  35.955  1.00  0.00     0.049 A 
ATOM     56  C   UNL A   1      44.011  29.008  35.235  1.00  0.00     0.074 A 
ATOM     57  C   UNL A   1      49.327  26.180  37.225  1.00  0.00     0.029 A 
ATOM     58  N   UNL A   1      47.603  26.901  36.022  1.00  0.00    -0.354 N 
ATOM     59  N   UNL A   1      45.124  28.393  35.559  1.00  0.00    -0.248 NA
ATOM     60  C   UNL A   1      43.332  29.653  36.369  1.00  0.00     0.031 C 
ATOM     61  C   UNL A   1      48.457  26.874  38.072  1.00  0.00     0.029 A 
ATOM     62  C   UNL A   1      47.397  27.350  37.317  1.00  0.00     0.049 A 
ATOM     63  H   UNL A   1      47.004  27.078  35.261  1.00  0.00     0.167 HD
ATOM     64  C   UNL A   1      45.292  28.600  36.926  1.00  0.00     0.074 A 
ATOM     65  C   UNL A   1      44.178  29.415  37.361  1.00  0.00     0.031 C 
ATOM     66  C   UNL A   1      46.279  28.155  37.746  1.00  0.00     0.037 A 
BRANCH  53  67
ATOM     67  C   UNL A   1      50.533  24.689  34.886  1.00  0.00     0.058 A 
ATOM     68  C   UNL A   1      51.803  25.228  34.622  1.00  0.00     0.135 A 
ATOM     69  C   UNL A   1      50.467  23.350  35.303  1.00  0.00     0.135 A 
ATOM     70  F   UNL A   1      51.925  26.497  34.203  1.00  0.00    -0.206 F 
ATOM     71  C   UNL A   1      52.959  24.461  34.744  1.00  0.00     0.059 A 
ATOM     72  C   UNL A   1      51.611  22.574  35.461  1.00  0.00     0.059 A 
ATOM     73  F   UNL A   1      49.280  22.781  35.567  1.00  0.00    -0.206 F 
ATOM     74  C   UNL A   1      52.852  23.135  35.166  1.00  0.00     0.060 A 
BRANCH  74  75
ATOM     75  S   UNL A   1      54.362  22.158  35.325  1.00  0.00     0.124 S 
ATOM     76  O   UNL A   1      53.822  20.814  35.505  1.00  0.00    -0.237 OA
ATOM     77  O   UNL A   1      55.030  22.408  34.052  1.00  0.00    -0.237 OA
ATOM     78  O   UNL A   1      55.018  22.731  36.497  1.00  0.00    -0.744 OA
ENDBRANCH  74  75
ENDBRANCH  53  67
BRANCH  54  79
ATOM     79  C   UNL A   1      42.074  29.884  33.733  1.00  0.00     0.058 A 
ATOM     80  C   UNL A   1      42.055  31.277  33.562  1.00  0.00     0.135 A 
ATOM     81  C   UNL A   1      40.839  29.217  33.766  1.00  0.00     0.135 A 
ATOM     82  F   UNL A   1      43.208  31.964  33.539  1.00  0.00    -0.206 F 
ATOM     83  C   UNL A   1      40.863  31.983  33.444  1.00  0.00     0.059 A 
ATOM     84  C   UNL A   1      39.633  29.896  33.619  1.00  0.00     0.059 A 
ATOM     85  F   UNL A   1      40.799  27.884  33.923  1.00  0.00    -0.206 F 
ATOM     86  C   UNL A   1      39.656  31.281  33.468  1.00  0.00     0.060 A 
BRANCH  86  87
ATOM     87  S   UNL A   1      38.116  32.203  33.262  1.00  0.00     0.124 S 
ATOM     88  O   UNL A   1      37.121  31.201  33.620  1.00  0.00    -0.237 OA
ATOM     89  O   UNL A   1      38.289  33.300  34.209  1.00  0.00    -0.237 OA
ATOM     90  O   UNL A   1      38.144  32.591  31.854  1.00  0.00    -0.744 OA
ENDBRANCH  86  87
ENDBRANCH  54  79
BRANCH  66  91
ATOM     91  C   UNL A   1      46.213  28.568  39.194  1.00  0.00     0.058 A 
ATOM     92  C   UNL A   1      45.614  27.757  40.172  1.00  0.00     0.135 A 
ATOM     93  C   UNL A   1      46.768  29.789  39.613  1.00  0.00     0.135 A 
ATOM     94  F   UNL A   1      45.066  26.579  39.830  1.00  0.00    -0.206 F 
ATOM     95  C   UNL A   1      45.524  28.162  41.500  1.00  0.00     0.059 A 
ATOM     96  C   UNL A   1      46.722  30.197  40.944  1.00  0.00     0.059 A 
ATOM     97  F   UNL A   1      47.369  30.599  38.727  1.00  0.00    -0.206 F 
ATOM     98  C   UNL A   1      46.077  29.387  41.875  1.00  0.00     0.060 A 
BRANCH  98  99
ATOM     99  S   UNL A   1      45.946  29.905  43.600  1.00  0.00     0.124 S 
ATOM    100  O   UNL A   1      44.790  30.795  43.553  1.00  0.00    -0.237 OA
ATOM    101  O   UNL A   1      45.742  28.637  44.294  1.00  0.00    -0.237 OA
ATOM    102  O   UNL A   1      47.227  30.555  43.859  1.00  0.00    -0.744 OA
ENDBRANCH  98  99
ENDBRANCH  66  91
ENDBRANCH  40  41
ENDBRANCH  33  35
ENDBRANCH  32  33
ENDBRANCH  31  32
ENDBRANCH  30  31
ENDBRANCH  29  30
ENDBRANCH  28  29
ENDBRANCH   1  28
TORSDOF 26
ENDMDL
