MODEL 1
REMARK VINA RESULT:     -10.8      0.000      0.000
REMARK SMILES Cc1ccc(NC(=O)c2ccccc2NC(=O)[C@H]2CCCC[C@H]2C(=O)OCCOCCOCCOC(=O)c2ccc(-c3c4nc(c(-c5c(F)cc(S(=O)(=O)[O-])cc5F)c5ccc([nH]5)c(-c5c(F)cc(S(=O)(=O)[O-])cc5F)c5nc(c(-c6c(F)cc(S(=O)(=O)[O-])cc6F)c6ccc3[nH]6)C=C5)C=C4)cc2)cc1
REMARK SMILES IDX 30 1 29 2 28 3 27 4 26 5 24 6 25 7 23 8 18 9 19 10 20 11
REMARK SMILES IDX 22 12 21 13 16 14 15 15 17 17 14 18 9 19 10 20 11 21 13 22
REMARK SMILES IDX 12 23 7 24 6 25 8 27 5 28 1 29 2 30 3 31 105 32 4 33 104 34
REMARK SMILES IDX 31 35 32 36 33 37 34 38 35 39 36 40 37 41 38 42 39 43 103 44
REMARK SMILES IDX 40 45 102 46 41 47 42 48 43 49 96 50 44 51 101 52 95 53
REMARK SMILES IDX 97 54 45 55 100 56 94 57 93 58 46 60 80 61 59 62 79 63 60 64
REMARK SMILES IDX 63 65 78 66 98 67 61 68 62 69 77 71 99 72 64 73 47 74 48 75
REMARK SMILES IDX 57 76 49 77 50 78 56 79 58 80 51 81 52 82 53 83 54 84 55 85
REMARK SMILES IDX 81 86 82 87 91 88 83 89 84 90 90 91 92 92 85 93 86 94 87 95
REMARK SMILES IDX 88 96 89 97 65 98 66 99 75 100 67 101 68 102 74 103 76 104
REMARK SMILES IDX 69 105 70 106 71 107 72 108 73 109
REMARK H PARENT 15 16 6 26 97 59 63 70
REMARK Flexibility Score: inf
ROOT
ATOM      1  C   UNL A   1      36.103  31.278  29.747  1.00  0.00     0.188 C 
ENDROOT
BRANCH   1   2
ATOM      2  O   UNL A   1      35.138  31.003  28.774  1.00  0.00    -0.376 OA
BRANCH   2   3
ATOM      3  C   UNL A   1      35.285  29.796  28.015  1.00  0.00     0.202 C 
BRANCH   3   4
ATOM      4  C   UNL A   1      34.086  29.145  27.207  1.00  0.00     0.261 C 
BRANCH   4   5
ATOM      5  O   UNL A   1      34.105  27.886  26.059  1.00  0.00    -0.463 OA
BRANCH   5   6
ATOM      6  C   UNL A   1      33.692  26.702  25.412  1.00  0.00     0.309 C 
ATOM      7  O   UNL A   1      33.957  25.676  26.062  1.00  0.00    -0.252 OA
BRANCH   6   8
ATOM      8  C   UNL A   1      33.064  26.297  23.880  1.00  0.00     0.111 C 
ATOM      9  C   UNL A   1      33.650  25.607  22.490  1.00  0.00     0.093 C 
ATOM     10  C   UNL A   1      32.931  26.286  21.265  1.00  0.00     0.014 C 
ATOM     11  C   UNL A   1      31.396  26.316  21.345  1.00  0.00     0.001 C 
ATOM     12  C   UNL A   1      31.505  26.325  23.871  1.00  0.00     0.016 C 
ATOM     13  C   UNL A   1      30.913  26.989  22.620  1.00  0.00     0.001 C 
BRANCH   9  14
ATOM     14  C   UNL A   1      33.467  24.066  22.182  1.00  0.00     0.228 C 
ATOM     15  N   UNL A   1      33.932  22.967  22.877  1.00  0.00    -0.325 N 
ATOM     16  H   UNL A   1      33.516  22.144  22.531  1.00  0.00     0.169 HD
ATOM     17  O   UNL A   1      32.820  23.750  21.173  1.00  0.00    -0.274 OA
BRANCH  15  18
ATOM     18  C   UNL A   1      34.829  22.655  23.941  1.00  0.00     0.054 A 
ATOM     19  C   UNL A   1      34.421  22.093  25.217  1.00  0.00     0.063 A 
ATOM     20  C   UNL A   1      35.399  21.979  26.239  1.00  0.00     0.016 A 
ATOM     21  C   UNL A   1      36.707  22.417  26.063  1.00  0.00     0.001 A 
ATOM     22  C   UNL A   1      36.184  22.986  23.777  1.00  0.00     0.027 A 
ATOM     23  C   UNL A   1      37.097  22.916  24.834  1.00  0.00     0.002 A 
BRANCH  19  24
ATOM     24  C   UNL A   1      33.037  21.849  25.834  1.00  0.00     0.257 C 
ATOM     25  N   UNL A   1      32.158  20.857  25.486  1.00  0.00    -0.322 N 
ATOM     26  H   UNL A   1      31.208  21.061  25.645  1.00  0.00     0.170 HD
ATOM     27  O   UNL A   1      32.590  22.665  26.654  1.00  0.00    -0.269 OA
BRANCH  25  28
ATOM     28  C   UNL A   1      32.412  19.613  24.943  1.00  0.00     0.041 A 
ATOM     29  C   UNL A   1      34.391  16.362  23.100  1.00  0.00     0.044 C 
ATOM     30  C   UNL A   1      33.519  17.398  23.739  1.00  0.00    -0.051 A 
ATOM     31  C   UNL A   1      33.477  17.484  25.134  1.00  0.00     0.005 A 
ATOM     32  C   UNL A   1      32.871  18.363  22.957  1.00  0.00     0.005 A 
ATOM     33  C   UNL A   1      32.899  18.586  25.739  1.00  0.00     0.026 A 
ATOM     34  C   UNL A   1      32.287  19.468  23.562  1.00  0.00     0.026 A 
ENDBRANCH  25  28
ENDBRANCH  19  24
ENDBRANCH  15  18
ENDBRANCH   9  14
ENDBRANCH   6   8
ENDBRANCH   5   6
ENDBRANCH   4   5
ENDBRANCH   3   4
ENDBRANCH   2   3
ENDBRANCH   1   2
BRANCH   1  35
ATOM     35  C   UNL A   1      36.001  32.753  30.106  1.00  0.00     0.188 C 
BRANCH  35  36
ATOM     36  O   UNL A   1      34.866  33.160  30.833  1.00  0.00    -0.376 OA
BRANCH  36  37
ATOM     37  C   UNL A   1      34.736  32.495  32.074  1.00  0.00     0.202 C 
BRANCH  37  38
ATOM     38  C   UNL A   1      35.794  32.553  33.206  1.00  0.00     0.261 C 
BRANCH  38  39
ATOM     39  O   UNL A   1      37.056  31.793  33.331  1.00  0.00    -0.460 OA
BRANCH  39  40
ATOM     40  C   UNL A   1      38.148  31.052  33.289  1.00  0.00     0.338 C 
ATOM     41  O   UNL A   1      38.229  30.150  34.134  1.00  0.00    -0.246 OA
BRANCH  40  42
ATOM     42  C   UNL A   1      39.383  31.359  32.481  1.00  0.00     0.060 A 
ATOM     43  C   UNL A   1      39.150  31.671  31.176  1.00  0.00     0.016 A 
ATOM     44  C   UNL A   1      40.747  31.380  32.843  1.00  0.00     0.016 A 
ATOM     45  C   UNL A   1      40.237  31.730  30.279  1.00  0.00     0.010 A 
ATOM     46  C   UNL A   1      41.829  31.372  31.895  1.00  0.00     0.010 A 
ATOM     47  C   UNL A   1      41.600  31.401  30.524  1.00  0.00    -0.014 A 
BRANCH  47  48
ATOM     48  C   UNL A   1      42.694  30.736  29.571  1.00  0.00     0.031 A 
ATOM     49  C   UNL A   1      42.822  29.249  29.509  1.00  0.00     0.074 A 
ATOM     50  C   UNL A   1      43.505  31.303  28.593  1.00  0.00     0.049 A 
ATOM     51  N   UNL A   1      43.845  28.620  29.011  1.00  0.00    -0.248 NA
ATOM     52  C   UNL A   1      41.885  28.359  30.171  1.00  0.00     0.031 C 
ATOM     53  C   UNL A   1      43.715  30.824  27.209  1.00  0.00     0.029 A 
ATOM     54  N   UNL A   1      44.266  32.460  28.546  1.00  0.00    -0.354 N 
ATOM     55  C   UNL A   1      43.537  27.280  29.012  1.00  0.00     0.074 A 
ATOM     56  C   UNL A   1      42.461  27.175  29.961  1.00  0.00     0.031 C 
ATOM     57  C   UNL A   1      44.470  31.704  26.502  1.00  0.00     0.029 A 
ATOM     58  C   UNL A   1      44.920  32.785  27.378  1.00  0.00     0.049 A 
ATOM     59  H   UNL A   1      44.338  33.042  29.337  1.00  0.00     0.167 HD
ATOM     60  C   UNL A   1      44.042  26.452  28.048  1.00  0.00     0.037 A 
ATOM     61  C   UNL A   1      46.036  33.585  27.354  1.00  0.00     0.037 A 
ATOM     62  C   UNL A   1      44.965  27.180  27.159  1.00  0.00     0.049 A 
ATOM     63  C   UNL A   1      47.150  32.597  27.168  1.00  0.00     0.074 A 
ATOM     64  C   UNL A   1      44.805  27.706  25.886  1.00  0.00     0.029 A 
ATOM     65  N   UNL A   1      46.151  27.736  27.651  1.00  0.00    -0.354 N 
ATOM     66  N   UNL A   1      46.921  31.316  27.241  1.00  0.00    -0.248 NA
ATOM     67  C   UNL A   1      48.539  32.896  26.850  1.00  0.00     0.031 C 
ATOM     68  C   UNL A   1      45.868  28.612  25.635  1.00  0.00     0.029 A 
ATOM     69  C   UNL A   1      46.710  28.619  26.736  1.00  0.00     0.049 A 
ATOM     70  H   UNL A   1      46.538  27.529  28.532  1.00  0.00     0.167 HD
ATOM     71  C   UNL A   1      48.038  30.621  26.959  1.00  0.00     0.074 A 
ATOM     72  C   UNL A   1      49.041  31.650  26.734  1.00  0.00     0.031 C 
ATOM     73  C   UNL A   1      48.010  29.260  26.960  1.00  0.00     0.037 A 
BRANCH  60  74
ATOM     74  C   UNL A   1      43.380  25.107  27.703  1.00  0.00     0.058 A 
ATOM     75  C   UNL A   1      43.551  23.962  28.516  1.00  0.00     0.135 A 
ATOM     76  C   UNL A   1      42.598  24.865  26.551  1.00  0.00     0.135 A 
ATOM     77  F   UNL A   1      44.179  24.030  29.697  1.00  0.00    -0.206 F 
ATOM     78  C   UNL A   1      43.075  22.687  28.165  1.00  0.00     0.059 A 
ATOM     79  C   UNL A   1      42.176  23.595  26.141  1.00  0.00     0.059 A 
ATOM     80  F   UNL A   1      42.129  25.866  25.797  1.00  0.00    -0.206 F 
ATOM     81  C   UNL A   1      42.410  22.506  26.960  1.00  0.00     0.060 A 
BRANCH  81  82
ATOM     82  S   UNL A   1      41.780  20.875  26.516  1.00  0.00     0.124 S 
ATOM     83  O   UNL A   1      41.886  20.147  27.776  1.00  0.00    -0.237 OA
ATOM     84  O   UNL A   1      40.426  21.184  26.071  1.00  0.00    -0.237 OA
ATOM     85  O   UNL A   1      42.694  20.430  25.466  1.00  0.00    -0.744 OA
ENDBRANCH  81  82
ENDBRANCH  60  74
BRANCH  61  86
ATOM     86  C   UNL A   1      46.060  34.846  28.224  1.00  0.00     0.058 A 
ATOM     87  C   UNL A   1      46.813  34.831  29.416  1.00  0.00     0.135 A 
ATOM     88  C   UNL A   1      45.701  36.128  27.801  1.00  0.00     0.135 A 
ATOM     89  F   UNL A   1      47.098  33.653  29.998  1.00  0.00    -0.206 F 
ATOM     90  C   UNL A   1      47.487  35.970  29.914  1.00  0.00     0.059 A 
ATOM     91  C   UNL A   1      46.356  37.293  28.279  1.00  0.00     0.059 A 
ATOM     92  F   UNL A   1      44.770  36.272  26.848  1.00  0.00    -0.206 F 
ATOM     93  C   UNL A   1      47.337  37.185  29.261  1.00  0.00     0.060 A 
BRANCH  93  94
ATOM     94  S   UNL A   1      48.585  38.499  29.498  1.00  0.00     0.124 S 
ATOM     95  O   UNL A   1      49.099  38.681  28.148  1.00  0.00    -0.237 OA
ATOM     96  O   UNL A   1      47.790  39.609  30.026  1.00  0.00    -0.237 OA
ATOM     97  O   UNL A   1      49.514  37.918  30.466  1.00  0.00    -0.744 OA
ENDBRANCH  93  94
ENDBRANCH  61  86
BRANCH  73  98
ATOM     98  C   UNL A   1      49.251  28.440  27.026  1.00  0.00     0.058 A 
ATOM     99  C   UNL A   1      49.702  27.657  25.952  1.00  0.00     0.135 A 
ATOM    100  C   UNL A   1      50.103  28.527  28.145  1.00  0.00     0.135 A 
ATOM    101  F   UNL A   1      49.042  27.616  24.783  1.00  0.00    -0.206 F 
ATOM    102  C   UNL A   1      50.867  26.910  26.025  1.00  0.00     0.059 A 
ATOM    103  C   UNL A   1      51.307  27.845  28.211  1.00  0.00     0.059 A 
ATOM    104  F   UNL A   1      49.797  29.284  29.210  1.00  0.00    -0.206 F 
ATOM    105  C   UNL A   1      51.656  27.003  27.166  1.00  0.00     0.060 A 
BRANCH 105 106
ATOM    106  S   UNL A   1      53.158  26.027  27.270  1.00  0.00     0.124 S 
ATOM    107  O   UNL A   1      52.780  24.846  26.500  1.00  0.00    -0.237 OA
ATOM    108  O   UNL A   1      54.151  26.897  26.647  1.00  0.00    -0.237 OA
ATOM    109  O   UNL A   1      53.324  25.824  28.705  1.00  0.00    -0.744 OA
ENDBRANCH 105 106
ENDBRANCH  73  98
ENDBRANCH  47  48
ENDBRANCH  40  42
ENDBRANCH  39  40
ENDBRANCH  38  39
ENDBRANCH  37  38
ENDBRANCH  36  37
ENDBRANCH  35  36
ENDBRANCH   1  35
TORSDOF 24
ENDMDL
MODEL 2
REMARK VINA RESULT:     -10.7      6.169     13.548
REMARK SMILES Cc1ccc(NC(=O)c2ccccc2NC(=O)[C@H]2CCCC[C@H]2C(=O)OCCOCCOCCOC(=O)c2ccc(-c3c4nc(c(-c5c(F)cc(S(=O)(=O)[O-])cc5F)c5ccc([nH]5)c(-c5c(F)cc(S(=O)(=O)[O-])cc5F)c5nc(c(-c6c(F)cc(S(=O)(=O)[O-])cc6F)c6ccc3[nH]6)C=C5)C=C4)cc2)cc1
REMARK SMILES IDX 30 1 29 2 28 3 27 4 26 5 24 6 25 7 23 8 18 9 19 10 20 11
REMARK SMILES IDX 22 12 21 13 16 14 15 15 17 17 14 18 9 19 10 20 11 21 13 22
REMARK SMILES IDX 12 23 7 24 6 25 8 27 5 28 1 29 2 30 3 31 105 32 4 33 104 34
REMARK SMILES IDX 31 35 32 36 33 37 34 38 35 39 36 40 37 41 38 42 39 43 103 44
REMARK SMILES IDX 40 45 102 46 41 47 42 48 43 49 96 50 44 51 101 52 95 53
REMARK SMILES IDX 97 54 45 55 100 56 94 57 93 58 46 60 80 61 59 62 79 63 60 64
REMARK SMILES IDX 63 65 78 66 98 67 61 68 62 69 77 71 99 72 64 73 47 74 48 75
REMARK SMILES IDX 57 76 49 77 50 78 56 79 58 80 51 81 52 82 53 83 54 84 55 85
REMARK SMILES IDX 81 86 82 87 91 88 83 89 84 90 90 91 92 92 85 93 86 94 87 95
REMARK SMILES IDX 88 96 89 97 65 98 66 99 75 100 67 101 68 102 74 103 76 104
REMARK SMILES IDX 69 105 70 106 71 107 72 108 73 109
REMARK H PARENT 15 16 6 26 97 59 63 70
REMARK Flexibility Score: inf
ROOT
ATOM      1  C   UNL A   1      39.582  21.101  25.755  1.00  0.00     0.188 C 
ENDROOT
BRANCH   1   2
ATOM      2  O   UNL A   1      40.237  20.053  26.408  1.00  0.00    -0.376 OA
BRANCH   2   3
ATOM      3  C   UNL A   1      41.535  19.679  25.928  1.00  0.00     0.202 C 
BRANCH   3   4
ATOM      4  C   UNL A   1      42.868  20.364  26.448  1.00  0.00     0.261 C 
BRANCH   4   5
ATOM      5  O   UNL A   1      43.753  21.662  25.787  1.00  0.00    -0.463 OA
BRANCH   5   6
ATOM      6  C   UNL A   1      43.974  22.902  25.153  1.00  0.00     0.309 C 
ATOM      7  O   UNL A   1      43.439  22.977  24.034  1.00  0.00    -0.252 OA
BRANCH   6   8
ATOM      8  C   UNL A   1      44.931  24.280  25.456  1.00  0.00     0.111 C 
ATOM      9  C   UNL A   1      44.746  25.922  25.305  1.00  0.00     0.093 C 
ATOM     10  C   UNL A   1      46.137  26.536  24.898  1.00  0.00     0.014 C 
ATOM     11  C   UNL A   1      47.319  26.121  25.790  1.00  0.00     0.001 C 
ATOM     12  C   UNL A   1      46.167  23.940  26.342  1.00  0.00     0.016 C 
ATOM     13  C   UNL A   1      47.463  24.610  25.865  1.00  0.00     0.001 C 
BRANCH   9  14
ATOM     14  C   UNL A   1      44.318  26.829  26.529  1.00  0.00     0.228 C 
ATOM     15  N   UNL A   1      43.984  26.469  27.819  1.00  0.00    -0.325 N 
ATOM     16  H   UNL A   1      43.926  27.268  28.392  1.00  0.00     0.169 HD
ATOM     17  O   UNL A   1      44.255  28.054  26.347  1.00  0.00    -0.274 OA
BRANCH  15  18
ATOM     18  C   UNL A   1      43.698  25.296  28.579  1.00  0.00     0.054 A 
ATOM     19  C   UNL A   1      44.484  24.846  29.716  1.00  0.00     0.063 A 
ATOM     20  C   UNL A   1      44.175  23.581  30.279  1.00  0.00     0.016 A 
ATOM     21  C   UNL A   1      43.181  22.761  29.758  1.00  0.00     0.001 A 
ATOM     22  C   UNL A   1      42.637  24.481  28.155  1.00  0.00     0.027 A 
ATOM     23  C   UNL A   1      42.413  23.213  28.701  1.00  0.00     0.002 A 
BRANCH  19  24
ATOM     24  C   UNL A   1      45.824  25.325  30.290  1.00  0.00     0.257 C 
ATOM     25  N   UNL A   1      46.041  25.789  31.561  1.00  0.00    -0.322 N 
ATOM     26  H   UNL A   1      46.792  26.419  31.657  1.00  0.00     0.170 HD
ATOM     27  O   UNL A   1      46.804  25.416  29.537  1.00  0.00    -0.269 OA
BRANCH  25  28
ATOM     28  C   UNL A   1      45.358  25.502  32.727  1.00  0.00     0.041 A 
ATOM     29  C   UNL A   1      42.422  24.077  35.415  1.00  0.00     0.044 C 
ATOM     30  C   UNL A   1      43.548  24.670  34.628  1.00  0.00    -0.051 A 
ATOM     31  C   UNL A   1      44.663  23.880  34.336  1.00  0.00     0.005 A 
ATOM     32  C   UNL A   1      43.427  25.948  34.065  1.00  0.00     0.005 A 
ATOM     33  C   UNL A   1      45.585  24.309  33.398  1.00  0.00     0.026 A 
ATOM     34  C   UNL A   1      44.353  26.382  33.125  1.00  0.00     0.026 A 
ENDBRANCH  25  28
ENDBRANCH  19  24
ENDBRANCH  15  18
ENDBRANCH   9  14
ENDBRANCH   6   8
ENDBRANCH   5   6
ENDBRANCH   4   5
ENDBRANCH   3   4
ENDBRANCH   2   3
ENDBRANCH   1   2
BRANCH   1  35
ATOM     35  C   UNL A   1      39.539  22.291  26.702  1.00  0.00     0.188 C 
BRANCH  35  36
ATOM     36  O   UNL A   1      39.592  23.574  26.124  1.00  0.00    -0.376 OA
BRANCH  36  37
ATOM     37  C   UNL A   1      38.832  24.532  26.834  1.00  0.00     0.202 C 
BRANCH  37  38
ATOM     38  C   UNL A   1      39.401  25.426  27.966  1.00  0.00     0.261 C 
BRANCH  38  39
ATOM     39  O   UNL A   1      40.195  26.668  27.852  1.00  0.00    -0.460 OA
BRANCH  39  40
ATOM     40  C   UNL A   1      40.767  27.857  27.806  1.00  0.00     0.338 C 
ATOM     41  O   UNL A   1      40.974  28.320  26.676  1.00  0.00    -0.246 OA
BRANCH  40  42
ATOM     42  C   UNL A   1      41.394  28.572  28.975  1.00  0.00     0.060 A 
ATOM     43  C   UNL A   1      41.507  27.827  30.109  1.00  0.00     0.016 A 
ATOM     44  C   UNL A   1      41.889  29.888  29.100  1.00  0.00     0.016 A 
ATOM     45  C   UNL A   1      41.846  28.465  31.320  1.00  0.00     0.010 A 
ATOM     46  C   UNL A   1      42.159  30.527  30.360  1.00  0.00     0.010 A 
ATOM     47  C   UNL A   1      42.002  29.857  31.569  1.00  0.00    -0.014 A 
BRANCH  47  48
ATOM     48  C   UNL A   1      41.657  30.726  32.863  1.00  0.00     0.031 A 
ATOM     49  C   UNL A   1      42.423  30.514  34.127  1.00  0.00     0.074 A 
ATOM     50  C   UNL A   1      40.831  31.835  33.012  1.00  0.00     0.049 A 
ATOM     51  N   UNL A   1      42.044  30.940  35.296  1.00  0.00    -0.248 NA
ATOM     52  C   UNL A   1      43.585  29.647  34.197  1.00  0.00     0.031 C 
ATOM     53  C   UNL A   1      41.154  33.115  33.682  1.00  0.00     0.029 A 
ATOM     54  N   UNL A   1      39.560  32.140  32.552  1.00  0.00    -0.354 N 
ATOM     55  C   UNL A   1      43.065  30.671  36.176  1.00  0.00     0.074 A 
ATOM     56  C   UNL A   1      43.841  29.662  35.506  1.00  0.00     0.031 C 
ATOM     57  C   UNL A   1      40.150  34.014  33.517  1.00  0.00     0.029 A 
ATOM     58  C   UNL A   1      39.029  33.383  32.822  1.00  0.00     0.049 A 
ATOM     59  H   UNL A   1      39.044  31.478  32.038  1.00  0.00     0.167 HD
ATOM     60  C   UNL A   1      43.288  31.488  37.250  1.00  0.00     0.037 A 
ATOM     61  C   UNL A   1      37.676  33.616  32.855  1.00  0.00     0.037 A 
ATOM     62  C   UNL A   1      42.265  32.547  37.328  1.00  0.00     0.049 A 
ATOM     63  C   UNL A   1      37.383  33.674  34.325  1.00  0.00     0.074 A 
ATOM     64  C   UNL A   1      42.287  33.885  36.966  1.00  0.00     0.029 A 
ATOM     65  N   UNL A   1      40.917  32.233  37.533  1.00  0.00    -0.354 N 
ATOM     66  N   UNL A   1      38.295  33.349  35.197  1.00  0.00    -0.248 NA
ATOM     67  C   UNL A   1      36.147  34.118  34.953  1.00  0.00     0.031 C 
ATOM     68  C   UNL A   1      40.951  34.360  36.910  1.00  0.00     0.029 A 
ATOM     69  C   UNL A   1      40.101  33.326  37.274  1.00  0.00     0.049 A 
ATOM     70  H   UNL A   1      40.589  31.351  37.823  1.00  0.00     0.167 HD
ATOM     71  C   UNL A   1      37.846  33.555  36.448  1.00  0.00     0.074 A 
ATOM     72  C   UNL A   1      36.482  34.025  36.255  1.00  0.00     0.031 C 
ATOM     73  C   UNL A   1      38.654  33.298  37.512  1.00  0.00     0.037 A 
BRANCH  60  74
ATOM     74  C   UNL A   1      44.649  31.537  37.964  1.00  0.00     0.058 A 
ATOM     75  C   UNL A   1      45.838  31.875  37.278  1.00  0.00     0.135 A 
ATOM     76  C   UNL A   1      44.859  31.212  39.324  1.00  0.00     0.135 A 
ATOM     77  F   UNL A   1      45.816  32.306  36.010  1.00  0.00    -0.206 F 
ATOM     78  C   UNL A   1      47.115  31.801  37.860  1.00  0.00     0.059 A 
ATOM     79  C   UNL A   1      46.121  31.060  39.908  1.00  0.00     0.059 A 
ATOM     80  F   UNL A   1      43.842  31.104  40.185  1.00  0.00    -0.206 F 
ATOM     81  C   UNL A   1      47.251  31.365  39.172  1.00  0.00     0.060 A 
BRANCH  81  82
ATOM     82  S   UNL A   1      48.886  31.289  39.929  1.00  0.00     0.124 S 
ATOM     83  O   UNL A   1      49.529  30.218  39.175  1.00  0.00    -0.237 OA
ATOM     84  O   UNL A   1      49.396  32.634  39.686  1.00  0.00    -0.237 OA
ATOM     85  O   UNL A   1      48.600  30.976  41.328  1.00  0.00    -0.744 OA
ENDBRANCH  81  82
ENDBRANCH  60  74
BRANCH  61  86
ATOM     86  C   UNL A   1      36.794  33.002  31.763  1.00  0.00     0.058 A 
ATOM     87  C   UNL A   1      37.032  33.359  30.421  1.00  0.00     0.135 A 
ATOM     88  C   UNL A   1      35.999  31.862  31.910  1.00  0.00     0.135 A 
ATOM     89  F   UNL A   1      37.664  34.515  30.150  1.00  0.00    -0.206 F 
ATOM     90  C   UNL A   1      36.852  32.461  29.343  1.00  0.00     0.059 A 
ATOM     91  C   UNL A   1      35.798  30.940  30.851  1.00  0.00     0.059 A 
ATOM     92  F   UNL A   1      35.478  31.572  33.110  1.00  0.00    -0.206 F 
ATOM     93  C   UNL A   1      36.334  31.198  29.592  1.00  0.00     0.060 A 
BRANCH  93  94
ATOM     94  S   UNL A   1      36.614  29.852  28.389  1.00  0.00     0.124 S 
ATOM     95  O   UNL A   1      35.270  29.321  28.206  1.00  0.00    -0.237 OA
ATOM     96  O   UNL A   1      37.176  30.559  27.237  1.00  0.00    -0.237 OA
ATOM     97  O   UNL A   1      37.563  28.975  29.072  1.00  0.00    -0.744 OA
ENDBRANCH  93  94
ENDBRANCH  61  86
BRANCH  73  98
ATOM     98  C   UNL A   1      38.123  33.146  38.895  1.00  0.00     0.058 A 
ATOM     99  C   UNL A   1      38.200  34.169  39.854  1.00  0.00     0.135 A 
ATOM    100  C   UNL A   1      37.392  31.996  39.255  1.00  0.00     0.135 A 
ATOM    101  F   UNL A   1      38.746  35.362  39.571  1.00  0.00    -0.206 F 
ATOM    102  C   UNL A   1      37.688  34.016  41.133  1.00  0.00     0.059 A 
ATOM    103  C   UNL A   1      36.812  31.851  40.505  1.00  0.00     0.059 A 
ATOM    104  F   UNL A   1      37.214  30.976  38.402  1.00  0.00    -0.206 F 
ATOM    105  C   UNL A   1      37.005  32.847  41.451  1.00  0.00     0.060 A 
BRANCH 105 106
ATOM    106  S   UNL A   1      36.354  32.640  43.109  1.00  0.00     0.124 S 
ATOM    107  O   UNL A   1      35.173  33.495  43.057  1.00  0.00    -0.237 OA
ATOM    108  O   UNL A   1      36.092  31.204  43.174  1.00  0.00    -0.237 OA
ATOM    109  O   UNL A   1      37.443  33.110  43.957  1.00  0.00    -0.744 OA
ENDBRANCH 105 106
ENDBRANCH  73  98
ENDBRANCH  47  48
ENDBRANCH  40  42
ENDBRANCH  39  40
ENDBRANCH  38  39
ENDBRANCH  37  38
ENDBRANCH  36  37
ENDBRANCH  35  36
ENDBRANCH   1  35
TORSDOF 24
ENDMDL
MODEL 3
REMARK VINA RESULT:     -10.6      6.336     12.206
REMARK SMILES Cc1ccc(NC(=O)c2ccccc2NC(=O)[C@H]2CCCC[C@H]2C(=O)OCCOCCOCCOC(=O)c2ccc(-c3c4nc(c(-c5c(F)cc(S(=O)(=O)[O-])cc5F)c5ccc([nH]5)c(-c5c(F)cc(S(=O)(=O)[O-])cc5F)c5nc(c(-c6c(F)cc(S(=O)(=O)[O-])cc6F)c6ccc3[nH]6)C=C5)C=C4)cc2)cc1
REMARK SMILES IDX 30 1 29 2 28 3 27 4 26 5 24 6 25 7 23 8 18 9 19 10 20 11
REMARK SMILES IDX 22 12 21 13 16 14 15 15 17 17 14 18 9 19 10 20 11 21 13 22
REMARK SMILES IDX 12 23 7 24 6 25 8 27 5 28 1 29 2 30 3 31 105 32 4 33 104 34
REMARK SMILES IDX 31 35 32 36 33 37 34 38 35 39 36 40 37 41 38 42 39 43 103 44
REMARK SMILES IDX 40 45 102 46 41 47 42 48 43 49 96 50 44 51 101 52 95 53
REMARK SMILES IDX 97 54 45 55 100 56 94 57 93 58 46 60 80 61 59 62 79 63 60 64
REMARK SMILES IDX 63 65 78 66 98 67 61 68 62 69 77 71 99 72 64 73 47 74 48 75
REMARK SMILES IDX 57 76 49 77 50 78 56 79 58 80 51 81 52 82 53 83 54 84 55 85
REMARK SMILES IDX 81 86 82 87 91 88 83 89 84 90 90 91 92 92 85 93 86 94 87 95
REMARK SMILES IDX 88 96 89 97 65 98 66 99 75 100 67 101 68 102 74 103 76 104
REMARK SMILES IDX 69 105 70 106 71 107 72 108 73 109
REMARK H PARENT 15 16 6 26 97 59 63 70
REMARK Flexibility Score: inf
ROOT
ATOM      1  C   UNL A   1      47.637  26.513  24.567  1.00  0.00     0.188 C 
ENDROOT
BRANCH   1   2
ATOM      2  O   UNL A   1      46.969  27.713  24.823  1.00  0.00    -0.376 OA
BRANCH   2   3
ATOM      3  C   UNL A   1      47.155  28.317  26.110  1.00  0.00     0.202 C 
BRANCH   3   4
ATOM      4  C   UNL A   1      46.040  28.286  27.237  1.00  0.00     0.261 C 
BRANCH   4   5
ATOM      5  O   UNL A   1      44.574  29.149  27.342  1.00  0.00    -0.463 OA
BRANCH   5   6
ATOM      6  C   UNL A   1      43.262  29.538  27.004  1.00  0.00     0.309 C 
ATOM      7  O   UNL A   1      43.225  30.374  26.085  1.00  0.00    -0.252 OA
BRANCH   6   8
ATOM      8  C   UNL A   1      41.703  29.280  27.643  1.00  0.00     0.111 C 
ATOM      9  C   UNL A   1      40.352  28.427  27.197  1.00  0.00     0.093 C 
ATOM     10  C   UNL A   1      39.085  29.244  27.649  1.00  0.00     0.014 C 
ATOM     11  C   UNL A   1      39.085  29.684  29.123  1.00  0.00     0.001 C 
ATOM     12  C   UNL A   1      41.612  29.722  29.135  1.00  0.00     0.016 C 
ATOM     13  C   UNL A   1      40.326  30.491  29.468  1.00  0.00     0.001 C 
BRANCH   9  14
ATOM     14  C   UNL A   1      40.049  26.984  27.770  1.00  0.00     0.228 C 
ATOM     15  N   UNL A   1      40.922  26.008  28.207  1.00  0.00    -0.325 N 
ATOM     16  H   UNL A   1      40.428  25.286  28.660  1.00  0.00     0.169 HD
ATOM     17  O   UNL A   1      38.863  26.631  27.854  1.00  0.00    -0.274 OA
BRANCH  15  18
ATOM     18  C   UNL A   1      42.320  25.722  28.205  1.00  0.00     0.054 A 
ATOM     19  C   UNL A   1      43.079  25.360  27.020  1.00  0.00     0.063 A 
ATOM     20  C   UNL A   1      44.427  24.952  27.192  1.00  0.00     0.016 A 
ATOM     21  C   UNL A   1      45.018  24.858  28.447  1.00  0.00     0.001 A 
ATOM     22  C   UNL A   1      42.990  25.711  29.439  1.00  0.00     0.027 A 
ATOM     23  C   UNL A   1      44.300  25.240  29.565  1.00  0.00     0.002 A 
BRANCH  19  24
ATOM     24  C   UNL A   1      42.645  25.027  25.586  1.00  0.00     0.257 C 
ATOM     25  N   UNL A   1      42.796  23.822  24.953  1.00  0.00    -0.322 N 
ATOM     26  H   UNL A   1      42.863  23.867  23.971  1.00  0.00     0.170 HD
ATOM     27  O   UNL A   1      42.210  25.935  24.863  1.00  0.00    -0.269 OA
BRANCH  25  28
ATOM     28  C   UNL A   1      42.868  22.552  25.492  1.00  0.00     0.041 A 
ATOM     29  C   UNL A   1      42.539  18.363  25.961  1.00  0.00     0.044 C 
ATOM     30  C   UNL A   1      42.716  19.849  25.992  1.00  0.00    -0.051 A 
ATOM     31  C   UNL A   1      43.906  20.402  25.512  1.00  0.00     0.005 A 
ATOM     32  C   UNL A   1      41.651  20.684  26.357  1.00  0.00     0.005 A 
ATOM     33  C   UNL A   1      43.990  21.763  25.283  1.00  0.00     0.026 A 
ATOM     34  C   UNL A   1      41.735  22.052  26.132  1.00  0.00     0.026 A 
ENDBRANCH  25  28
ENDBRANCH  19  24
ENDBRANCH  15  18
ENDBRANCH   9  14
ENDBRANCH   6   8
ENDBRANCH   5   6
ENDBRANCH   4   5
ENDBRANCH   3   4
ENDBRANCH   2   3
ENDBRANCH   1   2
BRANCH   1  35
ATOM     35  C   UNL A   1      48.682  26.777  23.494  1.00  0.00     0.188 C 
BRANCH  35  36
ATOM     36  O   UNL A   1      49.570  27.848  23.712  1.00  0.00    -0.376 OA
BRANCH  36  37
ATOM     37  C   UNL A   1      50.910  27.429  23.883  1.00  0.00     0.202 C 
BRANCH  37  38
ATOM     38  C   UNL A   1      51.407  26.574  25.077  1.00  0.00     0.261 C 
BRANCH  38  39
ATOM     39  O   UNL A   1      51.305  26.859  26.524  1.00  0.00    -0.460 OA
BRANCH  39  40
ATOM     40  C   UNL A   1      51.109  26.980  27.824  1.00  0.00     0.338 C 
ATOM     41  O   UNL A   1      52.116  26.881  28.540  1.00  0.00    -0.246 OA
BRANCH  40  42
ATOM     42  C   UNL A   1      49.767  26.985  28.510  1.00  0.00     0.060 A 
ATOM     43  C   UNL A   1      49.417  28.173  29.076  1.00  0.00     0.016 A 
ATOM     44  C   UNL A   1      48.803  25.966  28.668  1.00  0.00     0.016 A 
ATOM     45  C   UNL A   1      48.309  28.220  29.946  1.00  0.00     0.010 A 
ATOM     46  C   UNL A   1      47.724  26.023  29.618  1.00  0.00     0.010 A 
ATOM     47  C   UNL A   1      47.518  27.137  30.425  1.00  0.00    -0.014 A 
BRANCH  47  48
ATOM     48  C   UNL A   1      46.811  26.913  31.838  1.00  0.00     0.031 A 
ATOM     49  C   UNL A   1      45.685  27.800  32.256  1.00  0.00     0.074 A 
ATOM     50  C   UNL A   1      46.939  25.877  32.758  1.00  0.00     0.049 A 
ATOM     51  N   UNL A   1      45.242  27.901  33.474  1.00  0.00    -0.248 NA
ATOM     52  C   UNL A   1      45.092  28.779  31.362  1.00  0.00     0.031 C 
ATOM     53  C   UNL A   1      45.853  25.117  33.415  1.00  0.00     0.029 A 
ATOM     54  N   UNL A   1      48.030  25.195  33.271  1.00  0.00    -0.354 N 
ATOM     55  C   UNL A   1      44.126  28.704  33.435  1.00  0.00     0.074 A 
ATOM     56  C   UNL A   1      44.251  29.406  32.185  1.00  0.00     0.031 C 
ATOM     57  C   UNL A   1      46.356  24.093  34.151  1.00  0.00     0.029 A 
ATOM     58  C   UNL A   1      47.817  24.146  34.139  1.00  0.00     0.049 A 
ATOM     59  H   UNL A   1      48.945  25.455  33.019  1.00  0.00     0.167 HD
ATOM     60  C   UNL A   1      43.106  28.516  34.325  1.00  0.00     0.037 A 
ATOM     61  C   UNL A   1      48.760  23.737  35.050  1.00  0.00     0.037 A 
ATOM     62  C   UNL A   1      43.442  27.460  35.298  1.00  0.00     0.049 A 
ATOM     63  C   UNL A   1      48.250  24.311  36.339  1.00  0.00     0.074 A 
ATOM     64  C   UNL A   1      43.067  26.127  35.385  1.00  0.00     0.029 A 
ATOM     65  N   UNL A   1      44.515  27.610  36.183  1.00  0.00    -0.354 N 
ATOM     66  N   UNL A   1      47.246  25.142  36.344  1.00  0.00    -0.248 NA
ATOM     67  C   UNL A   1      48.729  24.010  37.680  1.00  0.00     0.031 C 
ATOM     68  C   UNL A   1      43.945  25.471  36.286  1.00  0.00     0.029 A 
ATOM     69  C   UNL A   1      44.840  26.403  36.788  1.00  0.00     0.049 A 
ATOM     70  H   UNL A   1      44.980  28.461  36.353  1.00  0.00     0.167 HD
ATOM     71  C   UNL A   1      46.905  25.460  37.606  1.00  0.00     0.074 A 
ATOM     72  C   UNL A   1      47.872  24.741  38.421  1.00  0.00     0.031 C 
ATOM     73  C   UNL A   1      45.861  26.303  37.836  1.00  0.00     0.037 A 
BRANCH  60  74
ATOM     74  C   UNL A   1      41.680  29.020  34.044  1.00  0.00     0.058 A 
ATOM     75  C   UNL A   1      40.958  28.612  32.898  1.00  0.00     0.135 A 
ATOM     76  C   UNL A   1      40.981  29.952  34.845  1.00  0.00     0.135 A 
ATOM     77  F   UNL A   1      41.425  27.659  32.080  1.00  0.00    -0.206 F 
ATOM     78  C   UNL A   1      39.712  29.150  32.537  1.00  0.00     0.059 A 
ATOM     79  C   UNL A   1      39.776  30.557  34.472  1.00  0.00     0.059 A 
ATOM     80  F   UNL A   1      41.392  30.266  36.078  1.00  0.00    -0.206 F 
ATOM     81  C   UNL A   1      39.138  30.146  33.317  1.00  0.00     0.060 A 
BRANCH  81  82
ATOM     82  S   UNL A   1      37.528  30.824  32.868  1.00  0.00     0.124 S 
ATOM     83  O   UNL A   1      37.844  31.619  31.686  1.00  0.00    -0.237 OA
ATOM     84  O   UNL A   1      36.745  29.616  32.633  1.00  0.00    -0.237 OA
ATOM     85  O   UNL A   1      37.142  31.596  34.047  1.00  0.00    -0.744 OA
ENDBRANCH  81  82
ENDBRANCH  60  74
BRANCH  61  86
ATOM     86  C   UNL A   1      50.222  23.633  34.604  1.00  0.00     0.058 A 
ATOM     87  C   UNL A   1      51.142  24.593  35.071  1.00  0.00     0.135 A 
ATOM     88  C   UNL A   1      50.824  22.495  34.060  1.00  0.00     0.135 A 
ATOM     89  F   UNL A   1      50.688  25.789  35.487  1.00  0.00    -0.206 F 
ATOM     90  C   UNL A   1      52.495  24.291  35.349  1.00  0.00     0.059 A 
ATOM     91  C   UNL A   1      52.179  22.160  34.318  1.00  0.00     0.059 A 
ATOM     92  F   UNL A   1      50.085  21.636  33.344  1.00  0.00    -0.206 F 
ATOM     93  C   UNL A   1      52.976  23.020  35.069  1.00  0.00     0.060 A 
BRANCH  93  94
ATOM     94  S   UNL A   1      54.485  22.419  35.907  1.00  0.00     0.124 S 
ATOM     95  O   UNL A   1      54.358  20.975  35.767  1.00  0.00    -0.237 OA
ATOM     96  O   UNL A   1      55.557  23.038  35.126  1.00  0.00    -0.237 OA
ATOM     97  O   UNL A   1      54.355  22.946  37.264  1.00  0.00    -0.744 OA
ENDBRANCH  93  94
ENDBRANCH  61  86
BRANCH  73  98
ATOM     98  C   UNL A   1      45.662  26.981  39.146  1.00  0.00     0.058 A 
ATOM     99  C   UNL A   1      45.081  26.341  40.253  1.00  0.00     0.135 A 
ATOM    100  C   UNL A   1      46.180  28.274  39.366  1.00  0.00     0.135 A 
ATOM    101  F   UNL A   1      44.684  25.060  40.198  1.00  0.00    -0.206 F 
ATOM    102  C   UNL A   1      44.915  26.983  41.470  1.00  0.00     0.059 A 
ATOM    103  C   UNL A   1      46.088  28.908  40.594  1.00  0.00     0.059 A 
ATOM    104  F   UNL A   1      46.798  28.961  38.393  1.00  0.00    -0.206 F 
ATOM    105  C   UNL A   1      45.413  28.272  41.625  1.00  0.00     0.060 A 
BRANCH 105 106
ATOM    106  S   UNL A   1      45.188  29.112  43.194  1.00  0.00     0.124 S 
ATOM    107  O   UNL A   1      45.015  27.979  44.098  1.00  0.00    -0.237 OA
ATOM    108  O   UNL A   1      46.437  29.854  43.343  1.00  0.00    -0.237 OA
ATOM    109  O   UNL A   1      44.003  29.931  42.967  1.00  0.00    -0.744 OA
ENDBRANCH 105 106
ENDBRANCH  73  98
ENDBRANCH  47  48
ENDBRANCH  40  42
ENDBRANCH  39  40
ENDBRANCH  38  39
ENDBRANCH  37  38
ENDBRANCH  36  37
ENDBRANCH  35  36
ENDBRANCH   1  35
TORSDOF 24
ENDMDL
