MODEL 1
REMARK VINA RESULT:      -9.7      0.000      0.000
REMARK SMILES C[N@H+]1CC[C@@H](Cc2nccnc2C(=O)OCCOCCOCCOC(=O)c2ccc(-c3c4nc(c(-c5c(F)cc(S(=O)(=O)[O-])cc5F)c5ccc([nH]5)c(-c5c(F)cc(S(=O)(=O)[O-])cc5F)c5nc(c(-c6c(F)cc(S(=O)(=O)[O-])cc6F)c6ccc3[nH]6)C=C5)C=C4)cc2)C1
REMARK SMILES IDX 20 1 19 2 18 3 17 4 16 5 15 6 13 7 14 8 12 9 7 10 8 11 9 12
REMARK SMILES IDX 11 13 10 14 6 15 5 16 1 17 2 18 3 19 93 20 4 22 21 23 22 24
REMARK SMILES IDX 23 25 24 26 25 27 26 28 27 29 28 30 92 31 29 32 91 33 30 34
REMARK SMILES IDX 31 35 32 36 85 37 33 38 90 39 84 40 86 41 34 42 89 43 83 44
REMARK SMILES IDX 82 45 35 47 69 48 48 49 68 50 49 51 52 52 67 53 87 54 50 55
REMARK SMILES IDX 51 56 66 58 88 59 53 60 36 61 37 62 46 63 38 64 39 65 45 66
REMARK SMILES IDX 47 67 40 68 41 69 42 70 43 71 44 72 70 73 71 74 80 75 72 76
REMARK SMILES IDX 73 77 79 78 81 79 74 80 75 81 76 82 77 83 78 84 54 85 55 86
REMARK SMILES IDX 64 87 56 88 57 89 63 90 65 91 58 92 59 93 60 94 61 95 62 96
REMARK H PARENT 2 21 86 46 52 57
REMARK Flexibility Score: inf
ROOT
ATOM      1  C   UNL A   1      32.531  30.041  27.193  1.00  0.00     0.188 C 
ENDROOT
BRANCH   1   2
ATOM      2  C   UNL A   1      31.902  29.673  25.838  1.00  0.00     0.188 C 
BRANCH   2   3
ATOM      3  O   UNL A   1      32.176  28.387  25.291  1.00  0.00    -0.376 OA
BRANCH   3   4
ATOM      4  C   UNL A   1      33.476  28.130  24.765  1.00  0.00     0.202 C 
BRANCH   4   5
ATOM      5  C   UNL A   1      33.781  26.703  24.296  1.00  0.00     0.261 C 
BRANCH   5   6
ATOM      6  O   UNL A   1      33.987  25.839  25.424  1.00  0.00    -0.458 OA
BRANCH   6   7
ATOM      7  C   UNL A   1      32.918  25.092  25.792  1.00  0.00     0.358 C 
ATOM      8  O   UNL A   1      32.122  25.374  26.674  1.00  0.00    -0.244 OA
BRANCH   7   9
ATOM      9  C   UNL A   1      32.773  23.947  24.851  1.00  0.00     0.169 A 
ATOM     10  C   UNL A   1      33.651  22.857  24.811  1.00  0.00     0.074 A 
ATOM     11  N   UNL A   1      33.430  21.827  23.941  1.00  0.00    -0.257 NA
ATOM     12  C   UNL A   1      32.372  21.943  23.107  1.00  0.00     0.131 A 
ATOM     13  N   UNL A   1      31.712  24.059  23.998  1.00  0.00    -0.246 NA
ATOM     14  C   UNL A   1      31.537  23.042  23.128  1.00  0.00     0.132 A 
BRANCH  10  15
ATOM     15  C   UNL A   1      34.854  22.730  25.714  1.00  0.00     0.068 C 
BRANCH  15  16
ATOM     16  C   UNL A   1      36.213  23.089  25.077  1.00  0.00     0.056 C 
ATOM     17  C   UNL A   1      39.526  23.001  26.686  1.00  0.00     0.332 C 
ATOM     18  N   UNL A   1      38.511  22.971  25.641  1.00  0.00    -0.337 N 
ATOM     19  C   UNL A   1      38.131  21.614  25.262  1.00  0.00     0.262 C 
ATOM     20  C   UNL A   1      37.260  23.597  26.083  1.00  0.00     0.266 C 
ATOM     21  H   UNL A   1      38.940  23.469  24.860  1.00  0.00     0.347 HD
ATOM     22  C   UNL A   1      36.876  21.858  24.436  1.00  0.00     0.071 C 
ENDBRANCH  15  16
ENDBRANCH  10  15
ENDBRANCH   7   9
ENDBRANCH   6   7
ENDBRANCH   5   6
ENDBRANCH   4   5
ENDBRANCH   3   4
ENDBRANCH   2   3
ENDBRANCH   1   2
BRANCH   1  23
ATOM     23  O   UNL A   1      32.970  31.368  27.368  1.00  0.00    -0.376 OA
BRANCH  23  24
ATOM     24  C   UNL A   1      34.317  31.681  27.670  1.00  0.00     0.202 C 
BRANCH  24  25
ATOM     25  C   UNL A   1      35.054  31.424  28.996  1.00  0.00     0.261 C 
BRANCH  25  26
ATOM     26  O   UNL A   1      35.844  30.248  29.121  1.00  0.00    -0.460 OA
BRANCH  26  27
ATOM     27  C   UNL A   1      36.554  30.134  30.269  1.00  0.00     0.338 C 
ATOM     28  O   UNL A   1      36.113  30.051  31.402  1.00  0.00    -0.246 OA
BRANCH  27  29
ATOM     29  C   UNL A   1      37.967  29.935  29.896  1.00  0.00     0.060 A 
ATOM     30  C   UNL A   1      38.302  29.865  28.538  1.00  0.00     0.016 A 
ATOM     31  C   UNL A   1      38.951  29.828  30.882  1.00  0.00     0.016 A 
ATOM     32  C   UNL A   1      39.629  29.651  28.164  1.00  0.00     0.010 A 
ATOM     33  C   UNL A   1      40.275  29.599  30.506  1.00  0.00     0.010 A 
ATOM     34  C   UNL A   1      40.614  29.481  29.147  1.00  0.00    -0.014 A 
BRANCH  34  35
ATOM     35  C   UNL A   1      41.960  28.993  28.769  1.00  0.00     0.031 A 
ATOM     36  C   UNL A   1      43.094  29.981  28.745  1.00  0.00     0.074 A 
ATOM     37  C   UNL A   1      42.170  27.704  28.449  1.00  0.00     0.049 A 
ATOM     38  N   UNL A   1      44.343  29.800  28.405  1.00  0.00    -0.248 NA
ATOM     39  C   UNL A   1      42.772  31.358  29.156  1.00  0.00     0.031 C 
ATOM     40  C   UNL A   1      41.155  26.652  28.457  1.00  0.00     0.029 A 
ATOM     41  N   UNL A   1      43.315  27.066  28.044  1.00  0.00    -0.354 N 
ATOM     42  C   UNL A   1      44.957  31.038  28.559  1.00  0.00     0.074 A 
ATOM     43  C   UNL A   1      43.937  31.967  28.994  1.00  0.00     0.031 C 
ATOM     44  C   UNL A   1      41.720  25.499  28.058  1.00  0.00     0.029 A 
ATOM     45  C   UNL A   1      43.129  25.737  27.746  1.00  0.00     0.049 A 
ATOM     46  H   UNL A   1      44.187  27.516  27.975  1.00  0.00     0.167 HD
ATOM     47  C   UNL A   1      46.254  31.368  28.365  1.00  0.00     0.037 A 
ATOM     48  C   UNL A   1      43.994  24.827  27.257  1.00  0.00     0.037 A 
ATOM     49  C   UNL A   1      47.264  30.445  27.924  1.00  0.00     0.049 A 
ATOM     50  C   UNL A   1      45.423  25.231  26.991  1.00  0.00     0.074 A 
ATOM     51  C   UNL A   1      48.611  30.678  27.712  1.00  0.00     0.029 A 
ATOM     52  N   UNL A   1      47.034  29.111  27.618  1.00  0.00    -0.354 N 
ATOM     53  N   UNL A   1      45.998  26.397  27.174  1.00  0.00    -0.248 NA
ATOM     54  C   UNL A   1      46.320  24.198  26.455  1.00  0.00     0.031 C 
ATOM     55  C   UNL A   1      49.189  29.494  27.240  1.00  0.00     0.029 A 
ATOM     56  C   UNL A   1      48.211  28.513  27.200  1.00  0.00     0.049 A 
ATOM     57  H   UNL A   1      46.164  28.657  27.688  1.00  0.00     0.167 HD
ATOM     58  C   UNL A   1      47.329  26.228  26.802  1.00  0.00     0.074 A 
ATOM     59  C   UNL A   1      47.475  24.848  26.390  1.00  0.00     0.031 C 
ATOM     60  C   UNL A   1      48.340  27.133  26.804  1.00  0.00     0.037 A 
BRANCH  47  61
ATOM     61  C   UNL A   1      46.644  32.797  28.609  1.00  0.00     0.058 A 
ATOM     62  C   UNL A   1      46.583  33.760  27.590  1.00  0.00     0.135 A 
ATOM     63  C   UNL A   1      47.073  33.212  29.880  1.00  0.00     0.135 A 
ATOM     64  F   UNL A   1      46.200  33.409  26.351  1.00  0.00    -0.206 F 
ATOM     65  C   UNL A   1      46.958  35.080  27.814  1.00  0.00     0.059 A 
ATOM     66  C   UNL A   1      47.430  34.533  30.133  1.00  0.00     0.059 A 
ATOM     67  F   UNL A   1      47.156  32.329  30.887  1.00  0.00    -0.206 F 
ATOM     68  C   UNL A   1      47.383  35.456  29.089  1.00  0.00     0.060 A 
BRANCH  68  69
ATOM     69  S   UNL A   1      47.871  37.172  29.366  1.00  0.00     0.124 S 
ATOM     70  O   UNL A   1      46.574  37.817  29.544  1.00  0.00    -0.237 OA
ATOM     71  O   UNL A   1      48.698  37.073  30.564  1.00  0.00    -0.237 OA
ATOM     72  O   UNL A   1      48.584  37.523  28.142  1.00  0.00    -0.744 OA
ENDBRANCH  68  69
ENDBRANCH  47  61
BRANCH  48  73
ATOM     73  C   UNL A   1      43.539  23.440  26.978  1.00  0.00     0.058 A 
ATOM     74  C   UNL A   1      43.308  23.004  25.665  1.00  0.00     0.135 A 
ATOM     75  C   UNL A   1      43.317  22.526  28.020  1.00  0.00     0.135 A 
ATOM     76  F   UNL A   1      43.495  23.845  24.636  1.00  0.00    -0.206 F 
ATOM     77  C   UNL A   1      42.856  21.716  25.394  1.00  0.00     0.059 A 
ATOM     78  C   UNL A   1      42.887  21.225  27.773  1.00  0.00     0.059 A 
ATOM     79  F   UNL A   1      43.532  22.892  29.293  1.00  0.00    -0.206 F 
ATOM     80  C   UNL A   1      42.649  20.834  26.456  1.00  0.00     0.060 A 
BRANCH  80  81
ATOM     81  S   UNL A   1      42.100  19.152  26.092  1.00  0.00     0.124 S 
ATOM     82  O   UNL A   1      40.669  19.347  25.896  1.00  0.00    -0.237 OA
ATOM     83  O   UNL A   1      42.871  18.829  24.895  1.00  0.00    -0.237 OA
ATOM     84  O   UNL A   1      42.479  18.410  27.291  1.00  0.00    -0.744 OA
ENDBRANCH  80  81
ENDBRANCH  48  73
BRANCH  60  85
ATOM     85  C   UNL A   1      49.701  26.656  26.383  1.00  0.00     0.058 A 
ATOM     86  C   UNL A   1      50.167  26.819  25.071  1.00  0.00     0.135 A 
ATOM     87  C   UNL A   1      50.575  26.087  27.324  1.00  0.00     0.135 A 
ATOM     88  F   UNL A   1      49.370  27.353  24.131  1.00  0.00    -0.206 F 
ATOM     89  C   UNL A   1      51.447  26.418  24.700  1.00  0.00     0.059 A 
ATOM     90  C   UNL A   1      51.867  25.702  26.982  1.00  0.00     0.059 A 
ATOM     91  F   UNL A   1      50.182  25.920  28.597  1.00  0.00    -0.206 F 
ATOM     92  C   UNL A   1      52.291  25.862  25.664  1.00  0.00     0.060 A 
BRANCH  92  93
ATOM     93  S   UNL A   1      53.964  25.385  25.182  1.00  0.00     0.124 S 
ATOM     94  O   UNL A   1      53.904  23.933  25.310  1.00  0.00    -0.237 OA
ATOM     95  O   UNL A   1      54.058  25.897  23.818  1.00  0.00    -0.237 OA
ATOM     96  O   UNL A   1      54.807  26.068  26.159  1.00  0.00    -0.744 OA
ENDBRANCH  92  93
ENDBRANCH  60  85
ENDBRANCH  34  35
ENDBRANCH  27  29
ENDBRANCH  26  27
ENDBRANCH  25  26
ENDBRANCH  24  25
ENDBRANCH  23  24
ENDBRANCH   1  23
TORSDOF 22
ENDMDL
MODEL 2
REMARK VINA RESULT:      -9.4      1.484      2.217
REMARK SMILES C[N@H+]1CC[C@@H](Cc2nccnc2C(=O)OCCOCCOCCOC(=O)c2ccc(-c3c4nc(c(-c5c(F)cc(S(=O)(=O)[O-])cc5F)c5ccc([nH]5)c(-c5c(F)cc(S(=O)(=O)[O-])cc5F)c5nc(c(-c6c(F)cc(S(=O)(=O)[O-])cc6F)c6ccc3[nH]6)C=C5)C=C4)cc2)C1
REMARK SMILES IDX 20 1 19 2 18 3 17 4 16 5 15 6 13 7 14 8 12 9 7 10 8 11 9 12
REMARK SMILES IDX 11 13 10 14 6 15 5 16 1 17 2 18 3 19 93 20 4 22 21 23 22 24
REMARK SMILES IDX 23 25 24 26 25 27 26 28 27 29 28 30 92 31 29 32 91 33 30 34
REMARK SMILES IDX 31 35 32 36 85 37 33 38 90 39 84 40 86 41 34 42 89 43 83 44
REMARK SMILES IDX 82 45 35 47 69 48 48 49 68 50 49 51 52 52 67 53 87 54 50 55
REMARK SMILES IDX 51 56 66 58 88 59 53 60 36 61 37 62 46 63 38 64 39 65 45 66
REMARK SMILES IDX 47 67 40 68 41 69 42 70 43 71 44 72 70 73 71 74 80 75 72 76
REMARK SMILES IDX 73 77 79 78 81 79 74 80 75 81 76 82 77 83 78 84 54 85 55 86
REMARK SMILES IDX 64 87 56 88 57 89 63 90 65 91 58 92 59 93 60 94 61 95 62 96
REMARK H PARENT 2 21 86 46 52 57
REMARK Flexibility Score: inf
ROOT
ATOM      1  C   UNL A   1      34.060  32.630  28.019  1.00  0.00     0.188 C 
ENDROOT
BRANCH   1   2
ATOM      2  C   UNL A   1      34.071  31.114  27.753  1.00  0.00     0.188 C 
BRANCH   2   3
ATOM      3  O   UNL A   1      33.568  30.642  26.507  1.00  0.00    -0.376 OA
BRANCH   3   4
ATOM      4  C   UNL A   1      32.230  30.152  26.451  1.00  0.00     0.202 C 
BRANCH   4   5
ATOM      5  C   UNL A   1      31.892  28.919  27.295  1.00  0.00     0.261 C 
BRANCH   5   6
ATOM      6  O   UNL A   1      32.536  27.753  26.759  1.00  0.00    -0.458 OA
BRANCH   6   7
ATOM      7  C   UNL A   1      31.706  26.785  26.300  1.00  0.00     0.358 C 
ATOM      8  O   UNL A   1      30.695  26.389  26.859  1.00  0.00    -0.244 OA
BRANCH   7   9
ATOM      9  C   UNL A   1      32.133  26.383  24.932  1.00  0.00     0.169 A 
ATOM     10  C   UNL A   1      33.134  25.438  24.674  1.00  0.00     0.074 A 
ATOM     11  N   UNL A   1      33.445  25.096  23.389  1.00  0.00    -0.257 NA
ATOM     12  C   UNL A   1      32.783  25.745  22.404  1.00  0.00     0.131 A 
ATOM     13  N   UNL A   1      31.477  27.039  23.929  1.00  0.00    -0.246 NA
ATOM     14  C   UNL A   1      31.827  26.705  22.669  1.00  0.00     0.132 A 
BRANCH  10  15
ATOM     15  C   UNL A   1      33.902  24.730  25.764  1.00  0.00     0.068 C 
BRANCH  15  16
ATOM     16  C   UNL A   1      33.156  23.580  26.475  1.00  0.00     0.056 C 
ATOM     17  C   UNL A   1      32.510  20.195  25.171  1.00  0.00     0.332 C 
ATOM     18  N   UNL A   1      32.720  21.278  26.124  1.00  0.00    -0.337 N 
ATOM     19  C   UNL A   1      34.095  21.347  26.607  1.00  0.00     0.262 C 
ATOM     20  C   UNL A   1      32.475  22.591  25.515  1.00  0.00     0.266 C 
ATOM     21  H   UNL A   1      32.069  21.075  26.883  1.00  0.00     0.347 HD
ATOM     22  C   UNL A   1      34.120  22.705  27.293  1.00  0.00     0.071 C 
ENDBRANCH  15  16
ENDBRANCH  10  15
ENDBRANCH   7   9
ENDBRANCH   6   7
ENDBRANCH   5   6
ENDBRANCH   4   5
ENDBRANCH   3   4
ENDBRANCH   2   3
ENDBRANCH   1   2
BRANCH   1  23
ATOM     23  O   UNL A   1      35.304  33.284  28.108  1.00  0.00    -0.376 OA
BRANCH  23  24
ATOM     24  C   UNL A   1      35.696  34.003  29.262  1.00  0.00     0.202 C 
BRANCH  24  25
ATOM     25  C   UNL A   1      36.992  33.821  30.072  1.00  0.00     0.261 C 
BRANCH  25  26
ATOM     26  O   UNL A   1      36.978  32.954  31.198  1.00  0.00    -0.460 OA
BRANCH  26  27
ATOM     27  C   UNL A   1      36.627  31.670  30.948  1.00  0.00     0.338 C 
ATOM     28  O   UNL A   1      35.503  31.199  30.955  1.00  0.00    -0.246 OA
BRANCH  27  29
ATOM     29  C   UNL A   1      37.834  30.967  30.475  1.00  0.00     0.060 A 
ATOM     30  C   UNL A   1      38.803  30.587  31.411  1.00  0.00     0.016 A 
ATOM     31  C   UNL A   1      38.000  30.680  29.118  1.00  0.00     0.016 A 
ATOM     32  C   UNL A   1      39.964  29.943  30.982  1.00  0.00     0.010 A 
ATOM     33  C   UNL A   1      39.168  30.050  28.688  1.00  0.00     0.010 A 
ATOM     34  C   UNL A   1      40.167  29.707  29.614  1.00  0.00    -0.014 A 
BRANCH  34  35
ATOM     35  C   UNL A   1      41.497  29.273  29.129  1.00  0.00     0.031 A 
ATOM     36  C   UNL A   1      42.590  30.302  29.031  1.00  0.00     0.074 A 
ATOM     37  C   UNL A   1      41.730  27.996  28.780  1.00  0.00     0.049 A 
ATOM     38  N   UNL A   1      43.815  30.171  28.596  1.00  0.00    -0.248 NA
ATOM     39  C   UNL A   1      42.250  31.663  29.481  1.00  0.00     0.031 C 
ATOM     40  C   UNL A   1      40.757  26.907  28.853  1.00  0.00     0.029 A 
ATOM     41  N   UNL A   1      42.863  27.404  28.282  1.00  0.00    -0.354 N 
ATOM     42  C   UNL A   1      44.393  31.430  28.718  1.00  0.00     0.074 A 
ATOM     43  C   UNL A   1      43.376  32.317  29.239  1.00  0.00     0.031 C 
ATOM     44  C   UNL A   1      41.333  25.779  28.399  1.00  0.00     0.029 A 
ATOM     45  C   UNL A   1      42.704  26.072  27.983  1.00  0.00     0.049 A 
ATOM     46  H   UNL A   1      43.710  27.887  28.152  1.00  0.00     0.167 HD
ATOM     47  C   UNL A   1      45.659  31.810  28.429  1.00  0.00     0.037 A 
ATOM     48  C   UNL A   1      43.562  25.199  27.419  1.00  0.00     0.037 A 
ATOM     49  C   UNL A   1      46.665  30.929  27.902  1.00  0.00     0.049 A 
ATOM     50  C   UNL A   1      44.950  25.659  27.051  1.00  0.00     0.074 A 
ATOM     51  C   UNL A   1      47.983  31.214  27.591  1.00  0.00     0.029 A 
ATOM     52  N   UNL A   1      46.462  29.590  27.600  1.00  0.00    -0.354 N 
ATOM     53  N   UNL A   1      45.495  26.844  27.203  1.00  0.00    -0.248 NA
ATOM     54  C   UNL A   1      45.841  24.664  26.437  1.00  0.00     0.031 C 
ATOM     55  C   UNL A   1      48.566  30.056  27.064  1.00  0.00     0.029 A 
ATOM     56  C   UNL A   1      47.624  29.040  27.087  1.00  0.00     0.049 A 
ATOM     57  H   UNL A   1      45.616  29.104  27.730  1.00  0.00     0.167 HD
ATOM     58  C   UNL A   1      46.799  26.728  26.730  1.00  0.00     0.074 A 
ATOM     59  C   UNL A   1      46.963  25.358  26.292  1.00  0.00     0.031 C 
ATOM     60  C   UNL A   1      47.773  27.670  26.666  1.00  0.00     0.037 A 
BRANCH  47  61
ATOM     61  C   UNL A   1      46.014  33.250  28.660  1.00  0.00     0.058 A 
ATOM     62  C   UNL A   1      46.020  34.183  27.610  1.00  0.00     0.135 A 
ATOM     63  C   UNL A   1      46.341  33.708  29.946  1.00  0.00     0.135 A 
ATOM     64  F   UNL A   1      45.736  33.791  26.358  1.00  0.00    -0.206 F 
ATOM     65  C   UNL A   1      46.363  35.513  27.823  1.00  0.00     0.059 A 
ATOM     66  C   UNL A   1      46.663  35.039  30.186  1.00  0.00     0.059 A 
ATOM     67  F   UNL A   1      46.356  32.855  30.983  1.00  0.00    -0.206 F 
ATOM     68  C   UNL A   1      46.686  35.932  29.115  1.00  0.00     0.060 A 
BRANCH  68  69
ATOM     69  S   UNL A   1      47.133  37.661  29.377  1.00  0.00     0.124 S 
ATOM     70  O   UNL A   1      48.302  37.792  28.513  1.00  0.00    -0.237 OA
ATOM     71  O   UNL A   1      45.935  38.365  28.932  1.00  0.00    -0.237 OA
ATOM     72  O   UNL A   1      47.401  37.728  30.810  1.00  0.00    -0.744 OA
ENDBRANCH  68  69
ENDBRANCH  47  61
BRANCH  48  73
ATOM     73  C   UNL A   1      43.138  23.798  27.160  1.00  0.00     0.058 A 
ATOM     74  C   UNL A   1      42.777  23.378  25.871  1.00  0.00     0.135 A 
ATOM     75  C   UNL A   1      43.076  22.856  28.197  1.00  0.00     0.135 A 
ATOM     76  F   UNL A   1      42.809  24.247  24.849  1.00  0.00    -0.206 F 
ATOM     77  C   UNL A   1      42.353  22.077  25.621  1.00  0.00     0.059 A 
ATOM     78  C   UNL A   1      42.677  21.541  27.968  1.00  0.00     0.059 A 
ATOM     79  F   UNL A   1      43.419  23.206  29.446  1.00  0.00    -0.206 F 
ATOM     80  C   UNL A   1      42.306  21.166  26.678  1.00  0.00     0.060 A 
BRANCH  80  81
ATOM     81  S   UNL A   1      41.792  19.468  26.337  1.00  0.00     0.124 S 
ATOM     82  O   UNL A   1      42.214  18.785  27.553  1.00  0.00    -0.237 OA
ATOM     83  O   UNL A   1      40.351  19.614  26.153  1.00  0.00    -0.237 OA
ATOM     84  O   UNL A   1      42.539  19.129  25.128  1.00  0.00    -0.744 OA
ENDBRANCH  80  81
ENDBRANCH  48  73
BRANCH  60  85
ATOM     85  C   UNL A   1      49.116  27.247  26.138  1.00  0.00     0.058 A 
ATOM     86  C   UNL A   1      49.436  27.345  24.776  1.00  0.00     0.135 A 
ATOM     87  C   UNL A   1      50.115  26.801  27.018  1.00  0.00     0.135 A 
ATOM     88  F   UNL A   1      48.516  27.761  23.892  1.00  0.00    -0.206 F 
ATOM     89  C   UNL A   1      50.697  26.997  24.301  1.00  0.00     0.059 A 
ATOM     90  C   UNL A   1      51.390  26.472  26.569  1.00  0.00     0.059 A 
ATOM     91  F   UNL A   1      49.863  26.702  28.333  1.00  0.00    -0.206 F 
ATOM     92  C   UNL A   1      51.669  26.564  25.206  1.00  0.00     0.060 A 
BRANCH  92  93
ATOM     93  S   UNL A   1      53.314  26.156  24.585  1.00  0.00     0.124 S 
ATOM     94  O   UNL A   1      53.347  24.708  24.767  1.00  0.00    -0.237 OA
ATOM     95  O   UNL A   1      53.253  26.619  23.202  1.00  0.00    -0.237 OA
ATOM     96  O   UNL A   1      54.204  26.919  25.455  1.00  0.00    -0.744 OA
ENDBRANCH  92  93
ENDBRANCH  60  85
ENDBRANCH  34  35
ENDBRANCH  27  29
ENDBRANCH  26  27
ENDBRANCH  25  26
ENDBRANCH  24  25
ENDBRANCH  23  24
ENDBRANCH   1  23
TORSDOF 22
ENDMDL
MODEL 3
REMARK VINA RESULT:      -9.3      1.563      8.879
REMARK SMILES C[N@H+]1CC[C@@H](Cc2nccnc2C(=O)OCCOCCOCCOC(=O)c2ccc(-c3c4nc(c(-c5c(F)cc(S(=O)(=O)[O-])cc5F)c5ccc([nH]5)c(-c5c(F)cc(S(=O)(=O)[O-])cc5F)c5nc(c(-c6c(F)cc(S(=O)(=O)[O-])cc6F)c6ccc3[nH]6)C=C5)C=C4)cc2)C1
REMARK SMILES IDX 20 1 19 2 18 3 17 4 16 5 15 6 13 7 14 8 12 9 7 10 8 11 9 12
REMARK SMILES IDX 11 13 10 14 6 15 5 16 1 17 2 18 3 19 93 20 4 22 21 23 22 24
REMARK SMILES IDX 23 25 24 26 25 27 26 28 27 29 28 30 92 31 29 32 91 33 30 34
REMARK SMILES IDX 31 35 32 36 85 37 33 38 90 39 84 40 86 41 34 42 89 43 83 44
REMARK SMILES IDX 82 45 35 47 69 48 48 49 68 50 49 51 52 52 67 53 87 54 50 55
REMARK SMILES IDX 51 56 66 58 88 59 53 60 36 61 37 62 46 63 38 64 39 65 45 66
REMARK SMILES IDX 47 67 40 68 41 69 42 70 43 71 44 72 70 73 71 74 80 75 72 76
REMARK SMILES IDX 73 77 79 78 81 79 74 80 75 81 76 82 77 83 78 84 54 85 55 86
REMARK SMILES IDX 64 87 56 88 57 89 63 90 65 91 58 92 59 93 60 94 61 95 62 96
REMARK H PARENT 2 21 86 46 52 57
REMARK Flexibility Score: inf
ROOT
ATOM      1  C   UNL A   1      35.919  32.997  27.961  1.00  0.00     0.188 C 
ENDROOT
BRANCH   1   2
ATOM      2  C   UNL A   1      34.969  31.789  28.046  1.00  0.00     0.188 C 
BRANCH   2   3
ATOM      3  O   UNL A   1      33.572  32.013  27.888  1.00  0.00    -0.376 OA
BRANCH   3   4
ATOM      4  C   UNL A   1      32.790  31.020  27.229  1.00  0.00     0.202 C 
BRANCH   4   5
ATOM      5  C   UNL A   1      33.287  29.572  27.289  1.00  0.00     0.261 C 
BRANCH   5   6
ATOM      6  O   UNL A   1      32.611  28.768  26.310  1.00  0.00    -0.458 OA
BRANCH   6   7
ATOM      7  C   UNL A   1      32.176  27.561  26.743  1.00  0.00     0.358 C 
ATOM      8  O   UNL A   1      31.436  27.370  27.696  1.00  0.00    -0.244 OA
BRANCH   7   9
ATOM      9  C   UNL A   1      32.616  26.509  25.785  1.00  0.00     0.169 A 
ATOM     10  C   UNL A   1      31.790  25.962  24.796  1.00  0.00     0.074 A 
ATOM     11  N   UNL A   1      32.278  25.024  23.932  1.00  0.00    -0.257 NA
ATOM     12  C   UNL A   1      33.559  24.629  24.114  1.00  0.00     0.131 A 
ATOM     13  N   UNL A   1      33.906  26.096  25.967  1.00  0.00    -0.246 NA
ATOM     14  C   UNL A   1      34.352  25.146  25.119  1.00  0.00     0.132 A 
BRANCH  10  15
ATOM     15  C   UNL A   1      30.350  26.371  24.602  1.00  0.00     0.068 C 
BRANCH  15  16
ATOM     16  C   UNL A   1      30.044  27.165  23.314  1.00  0.00     0.056 C 
ATOM     17  C   UNL A   1      27.574  29.865  22.886  1.00  0.00     0.332 C 
ATOM     18  N   UNL A   1      28.759  29.046  22.664  1.00  0.00    -0.337 N 
ATOM     19  C   UNL A   1      29.950  29.590  23.308  1.00  0.00     0.262 C 
ATOM     20  C   UNL A   1      28.607  27.704  23.238  1.00  0.00     0.266 C 
ATOM     21  H   UNL A   1      28.863  29.024  21.649  1.00  0.00     0.347 HD
ATOM     22  C   UNL A   1      30.922  28.423  23.207  1.00  0.00     0.071 C 
ENDBRANCH  15  16
ENDBRANCH  10  15
ENDBRANCH   7   9
ENDBRANCH   6   7
ENDBRANCH   5   6
ENDBRANCH   4   5
ENDBRANCH   3   4
ENDBRANCH   2   3
ENDBRANCH   1   2
BRANCH   1  23
ATOM     23  O   UNL A   1      36.711  33.283  29.090  1.00  0.00    -0.376 OA
BRANCH  23  24
ATOM     24  C   UNL A   1      36.144  33.539  30.362  1.00  0.00     0.202 C 
BRANCH  24  25
ATOM     25  C   UNL A   1      36.121  32.591  31.574  1.00  0.00     0.261 C 
BRANCH  25  26
ATOM     26  O   UNL A   1      37.207  31.692  31.758  1.00  0.00    -0.460 OA
BRANCH  26  27
ATOM     27  C   UNL A   1      36.986  30.414  31.367  1.00  0.00     0.338 C 
ATOM     28  O   UNL A   1      35.930  29.806  31.400  1.00  0.00    -0.246 OA
BRANCH  27  29
ATOM     29  C   UNL A   1      38.216  29.934  30.710  1.00  0.00     0.060 A 
ATOM     30  C   UNL A   1      39.215  29.349  31.496  1.00  0.00     0.016 A 
ATOM     31  C   UNL A   1      38.373  30.057  29.327  1.00  0.00     0.016 A 
ATOM     32  C   UNL A   1      40.397  28.912  30.898  1.00  0.00     0.010 A 
ATOM     33  C   UNL A   1      39.563  29.633  28.733  1.00  0.00     0.010 A 
ATOM     34  C   UNL A   1      40.590  29.087  29.520  1.00  0.00    -0.014 A 
BRANCH  34  35
ATOM     35  C   UNL A   1      41.931  28.874  28.928  1.00  0.00     0.031 A 
ATOM     36  C   UNL A   1      42.279  27.499  28.429  1.00  0.00     0.074 A 
ATOM     37  C   UNL A   1      42.821  29.878  28.840  1.00  0.00     0.049 A 
ATOM     38  N   UNL A   1      43.398  27.063  27.915  1.00  0.00    -0.248 NA
ATOM     39  C   UNL A   1      41.220  26.480  28.527  1.00  0.00     0.031 C 
ATOM     40  C   UNL A   1      42.590  31.256  29.270  1.00  0.00     0.029 A 
ATOM     41  N   UNL A   1      44.109  29.883  28.365  1.00  0.00    -0.354 N 
ATOM     42  C   UNL A   1      43.182  25.719  27.629  1.00  0.00     0.074 A 
ATOM     43  C   UNL A   1      41.835  25.406  28.054  1.00  0.00     0.031 C 
ATOM     44  C   UNL A   1      43.708  31.972  29.053  1.00  0.00     0.029 A 
ATOM     45  C   UNL A   1      44.738  31.099  28.492  1.00  0.00     0.049 A 
ATOM     46  H   UNL A   1      44.540  29.092  27.970  1.00  0.00     0.167 HD
ATOM     47  C   UNL A   1      44.026  24.830  27.057  1.00  0.00     0.037 A 
ATOM     48  C   UNL A   1      46.005  31.455  28.206  1.00  0.00     0.037 A 
ATOM     49  C   UNL A   1      45.367  25.142  26.644  1.00  0.00     0.049 A 
ATOM     50  C   UNL A   1      46.948  30.432  27.623  1.00  0.00     0.074 A 
ATOM     51  C   UNL A   1      46.297  24.315  26.040  1.00  0.00     0.029 A 
ATOM     52  N   UNL A   1      45.974  26.380  26.802  1.00  0.00    -0.354 N 
ATOM     53  N   UNL A   1      46.720  29.174  27.326  1.00  0.00    -0.248 NA
ATOM     54  C   UNL A   1      48.319  30.877  27.334  1.00  0.00     0.031 C 
ATOM     55  C   UNL A   1      47.480  25.042  25.868  1.00  0.00     0.029 A 
ATOM     56  C   UNL A   1      47.273  26.334  26.325  1.00  0.00     0.049 A 
ATOM     57  H   UNL A   1      45.544  27.173  27.195  1.00  0.00     0.167 HD
ATOM     58  C   UNL A   1      47.909  28.687  26.790  1.00  0.00     0.074 A 
ATOM     59  C   UNL A   1      48.851  29.785  26.799  1.00  0.00     0.031 C 
ATOM     60  C   UNL A   1      48.194  27.442  26.331  1.00  0.00     0.037 A 
BRANCH  47  61
ATOM     61  C   UNL A   1      43.523  23.429  26.866  1.00  0.00     0.058 A 
ATOM     62  C   UNL A   1      43.152  22.947  25.600  1.00  0.00     0.135 A 
ATOM     63  C   UNL A   1      43.422  22.552  27.958  1.00  0.00     0.135 A 
ATOM     64  F   UNL A   1      43.210  23.753  24.528  1.00  0.00    -0.206 F 
ATOM     65  C   UNL A   1      42.675  21.653  25.427  1.00  0.00     0.059 A 
ATOM     66  C   UNL A   1      42.968  21.246  27.804  1.00  0.00     0.059 A 
ATOM     67  F   UNL A   1      43.757  22.966  29.190  1.00  0.00    -0.206 F 
ATOM     68  C   UNL A   1      42.583  20.810  26.536  1.00  0.00     0.060 A 
BRANCH  68  69
ATOM     69  S   UNL A   1      41.957  19.134  26.298  1.00  0.00     0.124 S 
ATOM     70  O   UNL A   1      40.599  19.396  25.832  1.00  0.00    -0.237 OA
ATOM     71  O   UNL A   1      42.875  18.595  25.301  1.00  0.00    -0.237 OA
ATOM     72  O   UNL A   1      42.060  18.542  27.628  1.00  0.00    -0.744 OA
ENDBRANCH  68  69
ENDBRANCH  47  61
BRANCH  48  73
ATOM     73  C   UNL A   1      46.467  32.843  28.469  1.00  0.00     0.058 A 
ATOM     74  C   UNL A   1      46.985  33.208  29.721  1.00  0.00     0.135 A 
ATOM     75  C   UNL A   1      46.392  33.833  27.478  1.00  0.00     0.135 A 
ATOM     76  F   UNL A   1      47.067  32.298  30.704  1.00  0.00    -0.206 F 
ATOM     77  C   UNL A   1      47.396  34.510  29.987  1.00  0.00     0.059 A 
ATOM     78  C   UNL A   1      46.818  35.137  27.713  1.00  0.00     0.059 A 
ATOM     79  F   UNL A   1      45.911  33.531  26.261  1.00  0.00    -0.206 F 
ATOM     80  C   UNL A   1      47.308  35.468  28.975  1.00  0.00     0.060 A 
BRANCH  80  81
ATOM     81  S   UNL A   1      47.880  37.147  29.318  1.00  0.00     0.124 S 
ATOM     82  O   UNL A   1      46.742  37.940  28.873  1.00  0.00    -0.237 OA
ATOM     83  O   UNL A   1      48.106  37.106  30.760  1.00  0.00    -0.237 OA
ATOM     84  O   UNL A   1      49.088  37.260  28.505  1.00  0.00    -0.744 OA
ENDBRANCH  80  81
ENDBRANCH  48  73
BRANCH  60  85
ATOM     85  C   UNL A   1      49.566  27.207  25.764  1.00  0.00     0.058 A 
ATOM     86  C   UNL A   1      50.636  26.794  26.571  1.00  0.00     0.135 A 
ATOM     87  C   UNL A   1      49.795  27.335  24.384  1.00  0.00     0.135 A 
ATOM     88  F   UNL A   1      50.472  26.661  27.897  1.00  0.00    -0.206 F 
ATOM     89  C   UNL A   1      51.892  26.532  26.032  1.00  0.00     0.059 A 
ATOM     90  C   UNL A   1      51.035  27.055  23.821  1.00  0.00     0.059 A 
ATOM     91  F   UNL A   1      48.800  27.716  23.567  1.00  0.00    -0.206 F 
ATOM     92  C   UNL A   1      52.082  26.663  24.655  1.00  0.00     0.060 A 
BRANCH  92  93
ATOM     93  S   UNL A   1      53.703  26.280  23.960  1.00  0.00     0.124 S 
ATOM     94  O   UNL A   1      54.466  27.471  24.320  1.00  0.00    -0.237 OA
ATOM     95  O   UNL A   1      54.068  25.056  24.667  1.00  0.00    -0.237 OA
ATOM     96  O   UNL A   1      53.432  26.115  22.535  1.00  0.00    -0.744 OA
ENDBRANCH  92  93
ENDBRANCH  60  85
ENDBRANCH  34  35
ENDBRANCH  27  29
ENDBRANCH  26  27
ENDBRANCH  25  26
ENDBRANCH  24  25
ENDBRANCH  23  24
ENDBRANCH   1  23
TORSDOF 22
ENDMDL
