MODEL 1
REMARK VINA RESULT:     -11.4      0.000      0.000
REMARK SMILES O=C(OCCOCCOCCOC(=O)[C@]1(NC(=O)C2CCN(C(=O)C3CC3)CC2)CCCc2ccccc21)c1ccc(-c2c3nc(c(-c4c(F)cc(S(=O)(=O)[O-])cc4F)c4ccc([nH]4)c(-c4c(F)cc(S(=O)(=O)[O-])cc4F)c4nc(c(-c5c(F)cc(S(=O)(=O)[O-])cc5F)c5ccc2[nH]5)C=C4)C=C3)cc1
REMARK SMILES IDX 7 1 6 2 5 3 4 4 3 5 2 6 1 7 39 8 40 9 104 10 41 11 103 12
REMARK SMILES IDX 42 13 43 14 44 15 97 16 45 17 102 18 96 19 98 20 46 21
REMARK SMILES IDX 101 22 95 23 94 24 47 26 81 27 60 28 80 29 61 30 64 31 79 32
REMARK SMILES IDX 99 33 62 34 63 35 78 37 100 38 65 39 48 40 49 41 58 42 50 43
REMARK SMILES IDX 51 44 57 45 59 46 52 47 53 48 54 49 55 50 56 51 82 52 83 53
REMARK SMILES IDX 92 54 84 55 85 56 91 57 93 58 86 59 87 60 88 61 89 62 90 63
REMARK SMILES IDX 66 64 67 65 76 66 68 67 69 68 75 69 77 70 70 71 71 72 72 73
REMARK SMILES IDX 73 74 74 75 8 76 9 77 10 78 11 79 12 80 13 81 14 82 15 83
REMARK SMILES IDX 30 84 38 85 31 86 33 87 37 88 32 89 34 90 36 91 35 92 16 93
REMARK SMILES IDX 17 94 18 96 19 97 20 98 29 99 21 100 28 101 22 102 23 103
REMARK SMILES IDX 24 104 25 105 26 106 27 107
REMARK H PARENT 98 25 64 36 16 95
REMARK Flexibility Score: inf
ROOT
ATOM      1  C   UNL A   1      40.556  21.077  26.406  1.00  0.00     0.188 C 
ENDROOT
BRANCH   1   2
ATOM      2  O   UNL A   1      41.687  21.311  25.585  1.00  0.00    -0.376 OA
BRANCH   2   3
ATOM      3  C   UNL A   1      42.647  22.204  26.155  1.00  0.00     0.202 C 
BRANCH   3   4
ATOM      4  C   UNL A   1      42.778  23.595  25.493  1.00  0.00     0.261 C 
BRANCH   4   5
ATOM      5  O   UNL A   1      41.819  24.537  25.999  1.00  0.00    -0.460 OA
BRANCH   5   6
ATOM      6  C   UNL A   1      41.969  25.850  25.669  1.00  0.00     0.338 C 
ATOM      7  O   UNL A   1      42.530  26.283  24.678  1.00  0.00    -0.246 OA
BRANCH   6   8
ATOM      8  C   UNL A   1      41.136  26.658  26.620  1.00  0.00     0.060 A 
ATOM      9  C   UNL A   1      41.337  28.023  26.688  1.00  0.00     0.016 A 
ATOM     10  C   UNL A   1      40.357  26.057  27.618  1.00  0.00     0.016 A 
ATOM     11  C   UNL A   1      41.035  28.683  27.876  1.00  0.00     0.010 A 
ATOM     12  C   UNL A   1      39.923  26.802  28.752  1.00  0.00     0.010 A 
ATOM     13  C   UNL A   1      40.343  28.126  28.951  1.00  0.00    -0.014 A 
BRANCH  13  14
ATOM     14  C   UNL A   1      40.287  28.920  30.250  1.00  0.00     0.031 A 
ATOM     15  C   UNL A   1      39.132  29.866  30.531  1.00  0.00     0.074 A 
ATOM     16  C   UNL A   1      41.117  28.674  31.301  1.00  0.00     0.049 A 
ATOM     17  N   UNL A   1      39.002  30.740  31.501  1.00  0.00    -0.248 NA
ATOM     18  C   UNL A   1      37.969  29.817  29.629  1.00  0.00     0.031 C 
ATOM     19  C   UNL A   1      42.189  27.673  31.330  1.00  0.00     0.029 A 
ATOM     20  N   UNL A   1      41.139  29.176  32.590  1.00  0.00    -0.354 N 
ATOM     21  C   UNL A   1      37.817  31.423  31.254  1.00  0.00     0.074 A 
ATOM     22  C   UNL A   1      37.219  30.813  30.086  1.00  0.00     0.031 C 
ATOM     23  C   UNL A   1      42.611  27.501  32.591  1.00  0.00     0.029 A 
ATOM     24  C   UNL A   1      42.048  28.552  33.424  1.00  0.00     0.049 A 
ATOM     25  H   UNL A   1      40.557  29.913  32.887  1.00  0.00     0.167 HD
ATOM     26  C   UNL A   1      37.303  32.490  31.912  1.00  0.00     0.037 A 
ATOM     27  C   UNL A   1      42.474  28.828  34.679  1.00  0.00     0.037 A 
ATOM     28  C   UNL A   1      37.843  33.043  33.129  1.00  0.00     0.049 A 
ATOM     29  C   UNL A   1      41.953  30.066  35.361  1.00  0.00     0.074 A 
ATOM     30  C   UNL A   1      37.441  34.182  33.810  1.00  0.00     0.029 A 
ATOM     31  N   UNL A   1      38.878  32.489  33.864  1.00  0.00    -0.354 N 
ATOM     32  N   UNL A   1      40.966  30.849  35.002  1.00  0.00    -0.248 NA
ATOM     33  C   UNL A   1      42.655  30.506  36.578  1.00  0.00     0.031 C 
ATOM     34  C   UNL A   1      38.274  34.350  34.922  1.00  0.00     0.029 A 
ATOM     35  C   UNL A   1      39.158  33.286  34.964  1.00  0.00     0.049 A 
ATOM     36  H   UNL A   1      39.346  31.653  33.639  1.00  0.00     0.167 HD
ATOM     37  C   UNL A   1      40.959  31.894  35.921  1.00  0.00     0.074 A 
ATOM     38  C   UNL A   1      41.989  31.607  36.895  1.00  0.00     0.031 C 
ATOM     39  C   UNL A   1      40.193  33.012  35.926  1.00  0.00     0.037 A 
BRANCH  26  40
ATOM     40  C   UNL A   1      36.182  33.244  31.254  1.00  0.00     0.058 A 
ATOM     41  C   UNL A   1      34.893  33.340  31.790  1.00  0.00     0.135 A 
ATOM     42  C   UNL A   1      36.462  33.964  30.077  1.00  0.00     0.135 A 
ATOM     43  F   UNL A   1      34.565  32.653  32.895  1.00  0.00    -0.206 F 
ATOM     44  C   UNL A   1      33.918  34.131  31.183  1.00  0.00     0.059 A 
ATOM     45  C   UNL A   1      35.513  34.775  29.469  1.00  0.00     0.059 A 
ATOM     46  F   UNL A   1      37.683  33.897  29.522  1.00  0.00    -0.206 F 
ATOM     47  C   UNL A   1      34.241  34.851  30.029  1.00  0.00     0.060 A 
BRANCH  47  48
ATOM     48  S   UNL A   1      32.987  35.911  29.279  1.00  0.00     0.124 S 
ATOM     49  O   UNL A   1      33.804  36.989  28.731  1.00  0.00    -0.237 OA
ATOM     50  O   UNL A   1      32.374  35.019  28.300  1.00  0.00    -0.237 OA
ATOM     51  O   UNL A   1      32.133  36.281  30.404  1.00  0.00    -0.744 OA
ENDBRANCH  47  48
ENDBRANCH  26  40
BRANCH  27  52
ATOM     52  C   UNL A   1      43.577  28.030  35.313  1.00  0.00     0.058 A 
ATOM     53  C   UNL A   1      44.926  28.407  35.200  1.00  0.00     0.135 A 
ATOM     54  C   UNL A   1      43.307  26.838  36.010  1.00  0.00     0.135 A 
ATOM     55  F   UNL A   1      45.262  29.507  34.510  1.00  0.00    -0.206 F 
ATOM     56  C   UNL A   1      45.953  27.641  35.753  1.00  0.00     0.059 A 
ATOM     57  C   UNL A   1      44.307  26.090  36.620  1.00  0.00     0.059 A 
ATOM     58  F   UNL A   1      42.046  26.392  36.126  1.00  0.00    -0.206 F 
ATOM     59  C   UNL A   1      45.631  26.488  36.472  1.00  0.00     0.060 A 
BRANCH  59  60
ATOM     60  S   UNL A   1      46.946  25.535  37.260  1.00  0.00     0.124 S 
ATOM     61  O   UNL A   1      47.838  26.591  37.725  1.00  0.00    -0.237 OA
ATOM     62  O   UNL A   1      46.224  24.805  38.298  1.00  0.00    -0.237 OA
ATOM     63  O   UNL A   1      47.457  24.707  36.171  1.00  0.00    -0.744 OA
ENDBRANCH  59  60
ENDBRANCH  27  52
BRANCH  39  64
ATOM     64  C   UNL A   1      40.465  34.032  36.995  1.00  0.00     0.058 A 
ATOM     65  C   UNL A   1      41.428  35.038  36.807  1.00  0.00     0.135 A 
ATOM     66  C   UNL A   1      39.741  34.036  38.197  1.00  0.00     0.135 A 
ATOM     67  F   UNL A   1      42.153  35.076  35.678  1.00  0.00    -0.206 F 
ATOM     68  C   UNL A   1      41.679  35.997  37.782  1.00  0.00     0.059 A 
ATOM     69  C   UNL A   1      39.958  35.002  39.176  1.00  0.00     0.059 A 
ATOM     70  F   UNL A   1      38.802  33.103  38.424  1.00  0.00    -0.206 F 
ATOM     71  C   UNL A   1      40.938  35.972  38.964  1.00  0.00     0.060 A 
BRANCH  71  72
ATOM     72  S   UNL A   1      41.260  37.237  40.211  1.00  0.00     0.124 S 
ATOM     73  O   UNL A   1      42.717  37.314  40.185  1.00  0.00    -0.237 OA
ATOM     74  O   UNL A   1      40.554  38.395  39.671  1.00  0.00    -0.237 OA
ATOM     75  O   UNL A   1      40.684  36.671  41.427  1.00  0.00    -0.744 OA
ENDBRANCH  71  72
ENDBRANCH  39  64
ENDBRANCH  13  14
ENDBRANCH   6   8
ENDBRANCH   5   6
ENDBRANCH   4   5
ENDBRANCH   3   4
ENDBRANCH   2   3
ENDBRANCH   1   2
BRANCH   1  76
ATOM     76  C   UNL A   1      39.282  21.792  25.928  1.00  0.00     0.188 C 
BRANCH  76  77
ATOM     77  O   UNL A   1      38.966  23.061  26.488  1.00  0.00    -0.376 OA
BRANCH  77  78
ATOM     78  C   UNL A   1      37.750  23.694  26.083  1.00  0.00     0.202 C 
BRANCH  78  79
ATOM     79  C   UNL A   1      36.885  23.020  25.012  1.00  0.00     0.261 C 
BRANCH  79  80
ATOM     80  O   UNL A   1      35.482  23.007  25.321  1.00  0.00    -0.461 OA
BRANCH  80  81
ATOM     81  C   UNL A   1      34.656  23.084  24.241  1.00  0.00     0.336 C 
ATOM     82  O   UNL A   1      35.060  23.257  23.094  1.00  0.00    -0.249 OA
BRANCH  81  83
ATOM     83  C   UNL A   1      33.163  22.830  24.603  1.00  0.00     0.164 C 
ATOM     84  C   UNL A   1      33.069  22.695  26.171  1.00  0.00     0.046 C 
ATOM     85  C   UNL A   1      32.751  21.475  23.996  1.00  0.00    -0.008 A 
ATOM     86  C   UNL A   1      33.791  21.489  26.762  1.00  0.00     0.008 C 
ATOM     87  C   UNL A   1      32.861  20.263  24.725  1.00  0.00    -0.042 A 
ATOM     88  C   UNL A   1      32.392  21.389  22.640  1.00  0.00     0.007 A 
ATOM     89  C   UNL A   1      33.275  20.186  26.175  1.00  0.00     0.036 C 
ATOM     90  C   UNL A   1      32.572  19.036  24.098  1.00  0.00     0.004 A 
ATOM     91  C   UNL A   1      32.096  20.167  22.036  1.00  0.00     0.000 A 
ATOM     92  C   UNL A   1      32.194  18.991  22.761  1.00  0.00     0.000 A 
BRANCH  83  93
ATOM     93  N   UNL A   1      32.195  23.968  24.303  1.00  0.00    -0.336 N 
ATOM     94  C   UNL A   1      32.357  25.322  24.142  1.00  0.00     0.224 C 
ATOM     95  H   UNL A   1      31.261  23.671  24.204  1.00  0.00     0.164 HD
ATOM     96  O   UNL A   1      32.675  25.727  23.025  1.00  0.00    -0.275 OA
BRANCH  94  97
ATOM     97  C   UNL A   1      31.961  26.331  25.243  1.00  0.00     0.082 C 
ATOM     98  C   UNL A   1      31.265  27.610  24.756  1.00  0.00     0.035 C 
ATOM     99  C   UNL A   1      33.158  26.689  26.179  1.00  0.00     0.035 C 
ATOM    100  C   UNL A   1      32.161  28.814  24.466  1.00  0.00     0.120 C 
ATOM    101  C   UNL A   1      33.960  27.937  25.765  1.00  0.00     0.120 C 
ATOM    102  N   UNL A   1      33.041  29.056  25.584  1.00  0.00    -0.342 N 
ATOM    103  C   UNL A   1      32.768  30.163  26.386  1.00  0.00     0.225 C 
ATOM    104  O   UNL A   1      31.789  30.877  26.155  1.00  0.00    -0.275 OA
BRANCH 103 105
ATOM    105  C   UNL A   1      33.591  30.591  27.552  1.00  0.00     0.079 C 
ATOM    106  C   UNL A   1      35.022  31.040  27.541  1.00  0.00     0.014 C 
ATOM    107  C   UNL A   1      33.924  32.027  27.850  1.00  0.00     0.014 C 
ENDBRANCH 103 105
ENDBRANCH  94  97
ENDBRANCH  83  93
ENDBRANCH  81  83
ENDBRANCH  80  81
ENDBRANCH  79  80
ENDBRANCH  78  79
ENDBRANCH  77  78
ENDBRANCH  76  77
ENDBRANCH   1  76
TORSDOF 23
ENDMDL
MODEL 2
REMARK VINA RESULT:     -11.4      1.424      2.026
REMARK SMILES O=C(OCCOCCOCCOC(=O)[C@]1(NC(=O)C2CCN(C(=O)C3CC3)CC2)CCCc2ccccc21)c1ccc(-c2c3nc(c(-c4c(F)cc(S(=O)(=O)[O-])cc4F)c4ccc([nH]4)c(-c4c(F)cc(S(=O)(=O)[O-])cc4F)c4nc(c(-c5c(F)cc(S(=O)(=O)[O-])cc5F)c5ccc2[nH]5)C=C4)C=C3)cc1
REMARK SMILES IDX 7 1 6 2 5 3 4 4 3 5 2 6 1 7 39 8 40 9 104 10 41 11 103 12
REMARK SMILES IDX 42 13 43 14 44 15 97 16 45 17 102 18 96 19 98 20 46 21
REMARK SMILES IDX 101 22 95 23 94 24 47 26 81 27 60 28 80 29 61 30 64 31 79 32
REMARK SMILES IDX 99 33 62 34 63 35 78 37 100 38 65 39 48 40 49 41 58 42 50 43
REMARK SMILES IDX 51 44 57 45 59 46 52 47 53 48 54 49 55 50 56 51 82 52 83 53
REMARK SMILES IDX 92 54 84 55 85 56 91 57 93 58 86 59 87 60 88 61 89 62 90 63
REMARK SMILES IDX 66 64 67 65 76 66 68 67 69 68 75 69 77 70 70 71 71 72 72 73
REMARK SMILES IDX 73 74 74 75 8 76 9 77 10 78 11 79 12 80 13 81 14 82 15 83
REMARK SMILES IDX 30 84 38 85 31 86 33 87 37 88 32 89 34 90 36 91 35 92 16 93
REMARK SMILES IDX 17 94 18 96 19 97 20 98 29 99 21 100 28 101 22 102 23 103
REMARK SMILES IDX 24 104 25 105 26 106 27 107
REMARK H PARENT 98 25 64 36 16 95
REMARK Flexibility Score: inf
ROOT
ATOM      1  C   UNL A   1      41.470  20.624  26.415  1.00  0.00     0.188 C 
ENDROOT
BRANCH   1   2
ATOM      2  O   UNL A   1      42.317  21.099  25.383  1.00  0.00    -0.376 OA
BRANCH   2   3
ATOM      3  C   UNL A   1      43.410  21.896  25.845  1.00  0.00     0.202 C 
BRANCH   3   4
ATOM      4  C   UNL A   1      43.575  23.288  25.194  1.00  0.00     0.261 C 
BRANCH   4   5
ATOM      5  O   UNL A   1      42.813  24.303  25.867  1.00  0.00    -0.460 OA
BRANCH   5   6
ATOM      6  C   UNL A   1      43.362  25.543  25.996  1.00  0.00     0.338 C 
ATOM      7  O   UNL A   1      44.343  25.960  25.406  1.00  0.00    -0.246 OA
BRANCH   6   8
ATOM      8  C   UNL A   1      42.426  26.373  26.823  1.00  0.00     0.060 A 
ATOM      9  C   UNL A   1      42.648  27.734  26.917  1.00  0.00     0.016 A 
ATOM     10  C   UNL A   1      41.503  25.794  27.705  1.00  0.00     0.016 A 
ATOM     11  C   UNL A   1      42.201  28.406  28.052  1.00  0.00     0.010 A 
ATOM     12  C   UNL A   1      40.935  26.554  28.768  1.00  0.00     0.010 A 
ATOM     13  C   UNL A   1      41.355  27.868  29.022  1.00  0.00    -0.014 A 
BRANCH  13  14
ATOM     14  C   UNL A   1      41.139  28.669  30.300  1.00  0.00     0.031 A 
ATOM     15  C   UNL A   1      39.901  29.532  30.476  1.00  0.00     0.074 A 
ATOM     16  C   UNL A   1      41.900  28.493  31.417  1.00  0.00     0.049 A 
ATOM     17  N   UNL A   1      39.633  30.403  31.419  1.00  0.00    -0.248 NA
ATOM     18  C   UNL A   1      38.820  29.390  29.487  1.00  0.00     0.031 C 
ATOM     19  C   UNL A   1      43.035  27.573  31.545  1.00  0.00     0.029 A 
ATOM     20  N   UNL A   1      41.783  29.008  32.696  1.00  0.00    -0.354 N 
ATOM     21  C   UNL A   1      38.426  30.996  31.070  1.00  0.00     0.074 A 
ATOM     22  C   UNL A   1      37.967  30.334  29.869  1.00  0.00     0.031 C 
ATOM     23  C   UNL A   1      43.366  27.444  32.837  1.00  0.00     0.029 A 
ATOM     24  C   UNL A   1      42.666  28.459  33.608  1.00  0.00     0.049 A 
ATOM     25  H   UNL A   1      41.129  29.704  32.935  1.00  0.00     0.167 HD
ATOM     26  C   UNL A   1      37.786  32.029  31.670  1.00  0.00     0.037 A 
ATOM     27  C   UNL A   1      42.970  28.777  34.888  1.00  0.00     0.037 A 
ATOM     28  C   UNL A   1      38.187  32.631  32.917  1.00  0.00     0.049 A 
ATOM     29  C   UNL A   1      42.310  29.980  35.508  1.00  0.00     0.074 A 
ATOM     30  C   UNL A   1      37.653  33.745  33.547  1.00  0.00     0.029 A 
ATOM     31  N   UNL A   1      39.198  32.161  33.739  1.00  0.00    -0.354 N 
ATOM     32  N   UNL A   1      41.301  30.687  35.061  1.00  0.00    -0.248 NA
ATOM     33  C   UNL A   1      42.880  30.482  36.769  1.00  0.00     0.031 C 
ATOM     34  C   UNL A   1      38.381  33.983  34.717  1.00  0.00     0.029 A 
ATOM     35  C   UNL A   1      39.333  32.987  34.845  1.00  0.00     0.049 A 
ATOM     36  H   UNL A   1      39.741  31.358  33.563  1.00  0.00     0.167 HD
ATOM     37  C   UNL A   1      41.147  31.737  35.960  1.00  0.00     0.074 A 
ATOM     38  C   UNL A   1      42.114  31.534  37.017  1.00  0.00     0.031 C 
ATOM     39  C   UNL A   1      40.305  32.797  35.889  1.00  0.00     0.037 A 
BRANCH  26  40
ATOM     40  C   UNL A   1      36.670  32.694  30.914  1.00  0.00     0.058 A 
ATOM     41  C   UNL A   1      35.315  32.497  31.202  1.00  0.00     0.135 A 
ATOM     42  C   UNL A   1      37.004  33.630  29.918  1.00  0.00     0.135 A 
ATOM     43  F   UNL A   1      34.941  31.596  32.124  1.00  0.00    -0.206 F 
ATOM     44  C   UNL A   1      34.324  33.213  30.530  1.00  0.00     0.059 A 
ATOM     45  C   UNL A   1      36.035  34.369  29.251  1.00  0.00     0.059 A 
ATOM     46  F   UNL A   1      38.291  33.848  29.601  1.00  0.00    -0.206 F 
ATOM     47  C   UNL A   1      34.696  34.152  29.563  1.00  0.00     0.060 A 
BRANCH  47  48
ATOM     48  S   UNL A   1      33.409  35.108  28.733  1.00  0.00     0.124 S 
ATOM     49  O   UNL A   1      34.204  36.048  27.948  1.00  0.00    -0.237 OA
ATOM     50  O   UNL A   1      32.705  34.083  27.970  1.00  0.00    -0.237 OA
ATOM     51  O   UNL A   1      32.653  35.695  29.835  1.00  0.00    -0.744 OA
ENDBRANCH  47  48
ENDBRANCH  26  40
BRANCH  27  52
ATOM     52  C   UNL A   1      44.074  28.067  35.618  1.00  0.00     0.058 A 
ATOM     53  C   UNL A   1      43.818  27.007  36.503  1.00  0.00     0.135 A 
ATOM     54  C   UNL A   1      45.415  28.469  35.480  1.00  0.00     0.135 A 
ATOM     55  F   UNL A   1      42.558  26.601  36.720  1.00  0.00    -0.206 F 
ATOM     56  C   UNL A   1      44.841  26.377  37.214  1.00  0.00     0.059 A 
ATOM     57  C   UNL A   1      46.458  27.819  36.131  1.00  0.00     0.059 A 
ATOM     58  F   UNL A   1      45.734  29.501  34.682  1.00  0.00    -0.206 F 
ATOM     59  C   UNL A   1      46.161  26.784  37.011  1.00  0.00     0.060 A 
BRANCH  59  60
ATOM     60  S   UNL A   1      47.499  25.921  37.862  1.00  0.00     0.124 S 
ATOM     61  O   UNL A   1      48.097  26.998  38.641  1.00  0.00    -0.237 OA
ATOM     62  O   UNL A   1      46.779  24.903  38.622  1.00  0.00    -0.237 OA
ATOM     63  O   UNL A   1      48.313  25.404  36.765  1.00  0.00    -0.744 OA
ENDBRANCH  59  60
ENDBRANCH  27  52
BRANCH  39  64
ATOM     64  C   UNL A   1      40.418  33.844  36.960  1.00  0.00     0.058 A 
ATOM     65  C   UNL A   1      41.275  34.947  36.806  1.00  0.00     0.135 A 
ATOM     66  C   UNL A   1      39.645  33.774  38.129  1.00  0.00     0.135 A 
ATOM     67  F   UNL A   1      42.041  35.059  35.710  1.00  0.00    -0.206 F 
ATOM     68  C   UNL A   1      41.377  35.931  37.784  1.00  0.00     0.059 A 
ATOM     69  C   UNL A   1      39.714  34.761  39.109  1.00  0.00     0.059 A 
ATOM     70  F   UNL A   1      38.803  32.746  38.323  1.00  0.00    -0.206 F 
ATOM     71  C   UNL A   1      40.592  35.830  38.932  1.00  0.00     0.060 A 
BRANCH  71  72
ATOM     72  S   UNL A   1      40.720  37.128  40.182  1.00  0.00     0.124 S 
ATOM     73  O   UNL A   1      41.314  36.403  41.300  1.00  0.00    -0.237 OA
ATOM     74  O   UNL A   1      41.585  38.105  39.529  1.00  0.00    -0.237 OA
ATOM     75  O   UNL A   1      39.337  37.553  40.374  1.00  0.00    -0.744 OA
ENDBRANCH  71  72
ENDBRANCH  39  64
ENDBRANCH  13  14
ENDBRANCH   6   8
ENDBRANCH   5   6
ENDBRANCH   4   5
ENDBRANCH   3   4
ENDBRANCH   2   3
ENDBRANCH   1   2
BRANCH   1  76
ATOM     76  C   UNL A   1      40.127  21.366  26.510  1.00  0.00     0.188 C 
BRANCH  76  77
ATOM     77  O   UNL A   1      40.143  22.785  26.603  1.00  0.00    -0.376 OA
BRANCH  77  78
ATOM     78  C   UNL A   1      38.892  23.477  26.578  1.00  0.00     0.202 C 
BRANCH  78  79
ATOM     79  C   UNL A   1      37.738  22.892  25.755  1.00  0.00     0.261 C 
BRANCH  79  80
ATOM     80  O   UNL A   1      36.550  23.700  25.765  1.00  0.00    -0.461 OA
BRANCH  80  81
ATOM     81  C   UNL A   1      35.818  23.659  24.617  1.00  0.00     0.336 C 
ATOM     82  O   UNL A   1      36.275  23.284  23.540  1.00  0.00    -0.249 OA
BRANCH  81  83
ATOM     83  C   UNL A   1      34.325  24.039  24.837  1.00  0.00     0.164 C 
ATOM     84  C   UNL A   1      33.989  23.787  26.356  1.00  0.00     0.046 C 
ATOM     85  C   UNL A   1      33.462  23.073  24.004  1.00  0.00    -0.008 A 
ATOM     86  C   UNL A   1      34.056  22.330  26.802  1.00  0.00     0.008 C 
ATOM     87  C   UNL A   1      32.960  21.861  24.545  1.00  0.00    -0.042 A 
ATOM     88  C   UNL A   1      33.271  23.301  22.630  1.00  0.00     0.007 A 
ATOM     89  C   UNL A   1      33.118  21.454  25.989  1.00  0.00     0.036 C 
ATOM     90  C   UNL A   1      32.262  20.959  23.719  1.00  0.00     0.004 A 
ATOM     91  C   UNL A   1      32.567  22.403  21.829  1.00  0.00     0.000 A 
ATOM     92  C   UNL A   1      32.070  21.229  22.370  1.00  0.00     0.000 A 
BRANCH  83  93
ATOM     93  N   UNL A   1      33.971  25.510  24.652  1.00  0.00    -0.336 N 
ATOM     94  C   UNL A   1      33.381  26.445  25.468  1.00  0.00     0.224 C 
ATOM     95  H   UNL A   1      34.217  25.863  23.767  1.00  0.00     0.164 HD
ATOM     96  O   UNL A   1      34.106  27.050  26.256  1.00  0.00    -0.275 OA
BRANCH  94  97
ATOM     97  C   UNL A   1      31.911  26.884  25.280  1.00  0.00     0.082 C 
ATOM     98  C   UNL A   1      31.330  26.679  23.874  1.00  0.00     0.035 C 
ATOM     99  C   UNL A   1      31.663  28.349  25.760  1.00  0.00     0.035 C 
ATOM    100  C   UNL A   1      31.437  27.856  22.905  1.00  0.00     0.120 C 
ATOM    101  C   UNL A   1      31.794  29.425  24.667  1.00  0.00     0.120 C 
ATOM    102  N   UNL A   1      30.950  29.059  23.534  1.00  0.00    -0.342 N 
ATOM    103  C   UNL A   1      29.716  29.550  23.109  1.00  0.00     0.225 C 
ATOM    104  O   UNL A   1      29.064  28.947  22.252  1.00  0.00    -0.275 OA
BRANCH 103 105
ATOM    105  C   UNL A   1      29.079  30.800  23.612  1.00  0.00     0.079 C 
ATOM    106  C   UNL A   1      28.753  32.035  22.828  1.00  0.00     0.014 C 
ATOM    107  C   UNL A   1      27.642  31.161  23.355  1.00  0.00     0.014 C 
ENDBRANCH 103 105
ENDBRANCH  94  97
ENDBRANCH  83  93
ENDBRANCH  81  83
ENDBRANCH  80  81
ENDBRANCH  79  80
ENDBRANCH  78  79
ENDBRANCH  77  78
ENDBRANCH  76  77
ENDBRANCH   1  76
TORSDOF 23
ENDMDL
MODEL 3
REMARK VINA RESULT:     -11.0      1.967      8.031
REMARK SMILES O=C(OCCOCCOCCOC(=O)[C@]1(NC(=O)C2CCN(C(=O)C3CC3)CC2)CCCc2ccccc21)c1ccc(-c2c3nc(c(-c4c(F)cc(S(=O)(=O)[O-])cc4F)c4ccc([nH]4)c(-c4c(F)cc(S(=O)(=O)[O-])cc4F)c4nc(c(-c5c(F)cc(S(=O)(=O)[O-])cc5F)c5ccc2[nH]5)C=C4)C=C3)cc1
REMARK SMILES IDX 7 1 6 2 5 3 4 4 3 5 2 6 1 7 39 8 40 9 104 10 41 11 103 12
REMARK SMILES IDX 42 13 43 14 44 15 97 16 45 17 102 18 96 19 98 20 46 21
REMARK SMILES IDX 101 22 95 23 94 24 47 26 81 27 60 28 80 29 61 30 64 31 79 32
REMARK SMILES IDX 99 33 62 34 63 35 78 37 100 38 65 39 48 40 49 41 58 42 50 43
REMARK SMILES IDX 51 44 57 45 59 46 52 47 53 48 54 49 55 50 56 51 82 52 83 53
REMARK SMILES IDX 92 54 84 55 85 56 91 57 93 58 86 59 87 60 88 61 89 62 90 63
REMARK SMILES IDX 66 64 67 65 76 66 68 67 69 68 75 69 77 70 70 71 71 72 72 73
REMARK SMILES IDX 73 74 74 75 8 76 9 77 10 78 11 79 12 80 13 81 14 82 15 83
REMARK SMILES IDX 30 84 38 85 31 86 33 87 37 88 32 89 34 90 36 91 35 92 16 93
REMARK SMILES IDX 17 94 18 96 19 97 20 98 29 99 21 100 28 101 22 102 23 103
REMARK SMILES IDX 24 104 25 105 26 106 27 107
REMARK H PARENT 98 25 64 36 16 95
REMARK Flexibility Score: inf
ROOT
ATOM      1  C   UNL A   1      41.443  21.438  27.740  1.00  0.00     0.188 C 
ENDROOT
BRANCH   1   2
ATOM      2  O   UNL A   1      42.684  21.956  27.291  1.00  0.00    -0.376 OA
BRANCH   2   3
ATOM      3  C   UNL A   1      42.906  21.801  25.887  1.00  0.00     0.202 C 
BRANCH   3   4
ATOM      4  C   UNL A   1      43.839  22.835  25.216  1.00  0.00     0.261 C 
BRANCH   4   5
ATOM      5  O   UNL A   1      43.220  24.123  25.074  1.00  0.00    -0.460 OA
BRANCH   5   6
ATOM      6  C   UNL A   1      43.843  25.202  25.626  1.00  0.00     0.338 C 
ATOM      7  O   UNL A   1      44.955  25.611  25.346  1.00  0.00    -0.246 OA
BRANCH   6   8
ATOM      8  C   UNL A   1      42.840  25.924  26.476  1.00  0.00     0.060 A 
ATOM      9  C   UNL A   1      42.772  27.302  26.403  1.00  0.00     0.016 A 
ATOM     10  C   UNL A   1      42.158  25.286  27.522  1.00  0.00     0.016 A 
ATOM     11  C   UNL A   1      42.310  28.006  27.512  1.00  0.00     0.010 A 
ATOM     12  C   UNL A   1      41.552  26.042  28.565  1.00  0.00     0.010 A 
ATOM     13  C   UNL A   1      41.703  27.435  28.630  1.00  0.00    -0.014 A 
BRANCH  13  14
ATOM     14  C   UNL A   1      41.452  28.330  29.837  1.00  0.00     0.031 A 
ATOM     15  C   UNL A   1      42.496  28.465  30.933  1.00  0.00     0.074 A 
ATOM     16  C   UNL A   1      40.413  29.209  29.901  1.00  0.00     0.049 A 
ATOM     17  N   UNL A   1      42.390  29.047  32.104  1.00  0.00    -0.248 NA
ATOM     18  C   UNL A   1      43.832  27.898  30.682  1.00  0.00     0.031 C 
ATOM     19  C   UNL A   1      39.382  29.392  28.874  1.00  0.00     0.029 A 
ATOM     20  N   UNL A   1      40.095  30.188  30.825  1.00  0.00    -0.354 N 
ATOM     21  C   UNL A   1      43.586  28.807  32.769  1.00  0.00     0.074 A 
ATOM     22  C   UNL A   1      44.440  28.093  31.846  1.00  0.00     0.031 C 
ATOM     23  C   UNL A   1      38.694  30.515  29.122  1.00  0.00     0.029 A 
ATOM     24  C   UNL A   1      39.035  30.994  30.453  1.00  0.00     0.049 A 
ATOM     25  H   UNL A   1      40.581  30.300  31.675  1.00  0.00     0.167 HD
ATOM     26  C   UNL A   1      43.919  29.111  34.046  1.00  0.00     0.037 A 
ATOM     27  C   UNL A   1      38.335  31.945  31.114  1.00  0.00     0.037 A 
ATOM     28  C   UNL A   1      43.110  29.903  34.941  1.00  0.00     0.049 A 
ATOM     29  C   UNL A   1      38.666  32.208  32.559  1.00  0.00     0.074 A 
ATOM     30  C   UNL A   1      43.327  30.178  36.282  1.00  0.00     0.029 A 
ATOM     31  N   UNL A   1      41.948  30.568  34.585  1.00  0.00    -0.354 N 
ATOM     32  N   UNL A   1      39.693  31.790  33.258  1.00  0.00    -0.248 NA
ATOM     33  C   UNL A   1      37.702  33.009  33.332  1.00  0.00     0.031 C 
ATOM     34  C   UNL A   1      42.264  30.958  36.751  1.00  0.00     0.029 A 
ATOM     35  C   UNL A   1      41.414  31.214  35.690  1.00  0.00     0.049 A 
ATOM     36  H   UNL A   1      41.559  30.579  33.681  1.00  0.00     0.167 HD
ATOM     37  C   UNL A   1      39.474  32.237  34.557  1.00  0.00     0.074 A 
ATOM     38  C   UNL A   1      38.259  33.022  34.535  1.00  0.00     0.031 C 
ATOM     39  C   UNL A   1      40.197  31.981  35.674  1.00  0.00     0.037 A 
BRANCH  26  40
ATOM     40  C   UNL A   1      45.143  28.458  34.625  1.00  0.00     0.058 A 
ATOM     41  C   UNL A   1      45.147  27.172  35.176  1.00  0.00     0.135 A 
ATOM     42  C   UNL A   1      46.370  29.141  34.534  1.00  0.00     0.135 A 
ATOM     43  F   UNL A   1      44.001  26.488  35.311  1.00  0.00    -0.206 F 
ATOM     44  C   UNL A   1      46.332  26.580  35.613  1.00  0.00     0.059 A 
ATOM     45  C   UNL A   1      47.564  28.563  34.943  1.00  0.00     0.059 A 
ATOM     46  F   UNL A   1      46.414  30.381  34.019  1.00  0.00    -0.206 F 
ATOM     47  C   UNL A   1      47.535  27.280  35.483  1.00  0.00     0.060 A 
BRANCH  47  48
ATOM     48  S   UNL A   1      49.070  26.487  36.007  1.00  0.00     0.124 S 
ATOM     49  O   UNL A   1      48.860  26.367  37.447  1.00  0.00    -0.237 OA
ATOM     50  O   UNL A   1      49.044  25.236  35.256  1.00  0.00    -0.237 OA
ATOM     51  O   UNL A   1      50.102  27.436  35.601  1.00  0.00    -0.744 OA
ENDBRANCH  47  48
ENDBRANCH  26  40
BRANCH  27  52
ATOM     52  C   UNL A   1      37.135  32.595  30.489  1.00  0.00     0.058 A 
ATOM     53  C   UNL A   1      37.226  33.811  29.792  1.00  0.00     0.135 A 
ATOM     54  C   UNL A   1      35.851  32.032  30.617  1.00  0.00     0.135 A 
ATOM     55  F   UNL A   1      38.411  34.429  29.670  1.00  0.00    -0.206 F 
ATOM     56  C   UNL A   1      36.102  34.435  29.248  1.00  0.00     0.059 A 
ATOM     57  C   UNL A   1      34.726  32.603  30.034  1.00  0.00     0.059 A 
ATOM     58  F   UNL A   1      35.678  30.891  31.302  1.00  0.00    -0.206 F 
ATOM     59  C   UNL A   1      34.856  33.816  29.365  1.00  0.00     0.060 A 
BRANCH  59  60
ATOM     60  S   UNL A   1      33.411  34.573  28.594  1.00  0.00     0.124 S 
ATOM     61  O   UNL A   1      34.014  35.671  27.848  1.00  0.00    -0.237 OA
ATOM     62  O   UNL A   1      32.871  33.476  27.797  1.00  0.00    -0.237 OA
ATOM     63  O   UNL A   1      32.589  34.961  29.738  1.00  0.00    -0.744 OA
ENDBRANCH  59  60
ENDBRANCH  27  52
BRANCH  39  64
ATOM     64  C   UNL A   1      39.673  32.518  36.976  1.00  0.00     0.058 A 
ATOM     65  C   UNL A   1      38.555  31.940  37.600  1.00  0.00     0.135 A 
ATOM     66  C   UNL A   1      40.306  33.587  37.628  1.00  0.00     0.135 A 
ATOM     67  F   UNL A   1      37.909  30.918  37.016  1.00  0.00    -0.206 F 
ATOM     68  C   UNL A   1      38.069  32.418  38.813  1.00  0.00     0.059 A 
ATOM     69  C   UNL A   1      39.851  34.066  38.855  1.00  0.00     0.059 A 
ATOM     70  F   UNL A   1      41.384  34.171  37.081  1.00  0.00    -0.206 F 
ATOM     71  C   UNL A   1      38.725  33.481  39.433  1.00  0.00     0.060 A 
BRANCH  71  72
ATOM     72  S   UNL A   1      38.095  34.076  41.018  1.00  0.00     0.124 S 
ATOM     73  O   UNL A   1      36.716  33.602  40.984  1.00  0.00    -0.237 OA
ATOM     74  O   UNL A   1      38.973  33.406  41.973  1.00  0.00    -0.237 OA
ATOM     75  O   UNL A   1      38.264  35.523  40.929  1.00  0.00    -0.744 OA
ENDBRANCH  71  72
ENDBRANCH  39  64
ENDBRANCH  13  14
ENDBRANCH   6   8
ENDBRANCH   5   6
ENDBRANCH   4   5
ENDBRANCH   3   4
ENDBRANCH   2   3
ENDBRANCH   1   2
BRANCH   1  76
ATOM     76  C   UNL A   1      40.224  22.020  27.007  1.00  0.00     0.188 C 
BRANCH  76  77
ATOM     77  O   UNL A   1      39.638  23.215  27.509  1.00  0.00    -0.376 OA
BRANCH  77  78
ATOM     78  C   UNL A   1      38.881  24.027  26.608  1.00  0.00     0.202 C 
BRANCH  78  79
ATOM     79  C   UNL A   1      37.839  23.356  25.705  1.00  0.00     0.261 C 
BRANCH  79  80
ATOM     80  O   UNL A   1      36.639  24.126  25.530  1.00  0.00    -0.461 OA
BRANCH  80  81
ATOM     81  C   UNL A   1      35.810  23.682  24.546  1.00  0.00     0.336 C 
ATOM     82  O   UNL A   1      36.192  22.996  23.601  1.00  0.00    -0.249 OA
BRANCH  81  83
ATOM     83  C   UNL A   1      34.319  24.052  24.799  1.00  0.00     0.164 C 
ATOM     84  C   UNL A   1      34.051  23.918  26.346  1.00  0.00     0.046 C 
ATOM     85  C   UNL A   1      33.443  23.005  24.084  1.00  0.00    -0.008 A 
ATOM     86  C   UNL A   1      34.169  22.504  26.905  1.00  0.00     0.008 C 
ATOM     87  C   UNL A   1      32.990  21.832  24.742  1.00  0.00    -0.042 A 
ATOM     88  C   UNL A   1      33.191  23.117  22.706  1.00  0.00     0.007 A 
ATOM     89  C   UNL A   1      33.217  21.546  26.206  1.00  0.00     0.036 C 
ATOM     90  C   UNL A   1      32.279  20.853  24.022  1.00  0.00     0.004 A 
ATOM     91  C   UNL A   1      32.474  22.144  22.010  1.00  0.00     0.000 A 
ATOM     92  C   UNL A   1      32.026  21.009  22.665  1.00  0.00     0.000 A 
BRANCH  83  93
ATOM     93  N   UNL A   1      33.925  25.496  24.511  1.00  0.00    -0.336 N 
ATOM     94  C   UNL A   1      33.242  26.445  25.232  1.00  0.00     0.224 C 
ATOM     95  H   UNL A   1      34.223  25.814  23.628  1.00  0.00     0.164 HD
ATOM     96  O   UNL A   1      33.884  27.118  26.037  1.00  0.00    -0.275 OA
BRANCH  94  97
ATOM     97  C   UNL A   1      31.776  26.815  24.915  1.00  0.00     0.082 C 
ATOM     98  C   UNL A   1      31.405  26.855  23.426  1.00  0.00     0.035 C 
ATOM     99  C   UNL A   1      31.330  28.135  25.620  1.00  0.00     0.035 C 
ATOM    100  C   UNL A   1      31.528  28.206  22.722  1.00  0.00     0.120 C 
ATOM    101  C   UNL A   1      31.502  29.413  24.780  1.00  0.00     0.120 C 
ATOM    102  N   UNL A   1      30.852  29.225  23.487  1.00  0.00    -0.342 N 
ATOM    103  C   UNL A   1      29.644  29.707  22.985  1.00  0.00     0.225 C 
ATOM    104  O   UNL A   1      29.170  29.245  21.944  1.00  0.00    -0.275 OA
BRANCH 103 105
ATOM    105  C   UNL A   1      28.832  30.787  23.615  1.00  0.00     0.079 C 
ATOM    106  C   UNL A   1      28.835  32.247  23.272  1.00  0.00     0.014 C 
ATOM    107  C   UNL A   1      27.623  31.402  22.965  1.00  0.00     0.014 C 
ENDBRANCH 103 105
ENDBRANCH  94  97
ENDBRANCH  83  93
ENDBRANCH  81  83
ENDBRANCH  80  81
ENDBRANCH  79  80
ENDBRANCH  78  79
ENDBRANCH  77  78
ENDBRANCH  76  77
ENDBRANCH   1  76
TORSDOF 23
ENDMDL
