MODEL 1
REMARK VINA RESULT:     -10.5      0.000      0.000
REMARK SMILES O=C(OCCOCCOCCOC(=O)[C@@H]1CC2(CC[NH+](C(=O)C3(c4ccccc4F)CC3)CC2)C[NH2+]1)c1ccc(-c2c3nc(c(-c4c(F)cc(S(=O)(=O)[O-])cc4F)c4ccc([nH]4)c(-c4c(F)cc(S(=O)(=O)[O-])cc4F)c4nc(c(-c5c(F)cc(S(=O)(=O)[O-])cc5F)c5ccc2[nH]5)C=C4)C=C3)cc1
REMARK SMILES IDX 7 1 6 2 5 3 4 4 3 5 2 6 1 7 37 8 38 9 102 10 39 11 101 12
REMARK SMILES IDX 40 13 41 14 42 15 95 16 43 17 100 18 94 19 96 20 44 21 99 22
REMARK SMILES IDX 93 23 92 24 45 26 79 27 58 28 78 29 59 30 62 31 77 32 97 33
REMARK SMILES IDX 60 34 61 35 76 37 98 38 63 39 46 40 47 41 56 42 48 43 49 44
REMARK SMILES IDX 55 45 57 46 50 47 51 48 52 49 53 50 54 51 80 52 81 53 90 54
REMARK SMILES IDX 82 55 83 56 89 57 91 58 84 59 85 60 86 61 87 62 88 63 64 64
REMARK SMILES IDX 65 65 74 66 66 67 67 68 73 69 75 70 68 71 69 72 70 73 71 74
REMARK SMILES IDX 72 75 8 76 9 77 10 78 11 79 12 80 13 81 14 82 15 83 16 84
REMARK SMILES IDX 36 85 17 86 35 87 18 90 34 91 19 92 33 93 20 94 21 96 22 97
REMARK SMILES IDX 23 98 31 99 32 100 24 101 25 102 29 103 26 104 28 105 30 106
REMARK SMILES IDX 27 107
REMARK H PARENT 96 25 62 36 36 88 36 89 20 95
REMARK Flexibility Score: inf
ROOT
ATOM      1  C   UNL A   1      39.898  24.280  26.511  1.00  0.00     0.188 C 
ENDROOT
BRANCH   1   2
ATOM      2  O   UNL A   1      40.768  23.263  27.009  1.00  0.00    -0.376 OA
BRANCH   2   3
ATOM      3  C   UNL A   1      40.988  22.126  26.167  1.00  0.00     0.202 C 
BRANCH   3   4
ATOM      4  C   UNL A   1      42.446  21.799  25.832  1.00  0.00     0.261 C 
BRANCH   4   5
ATOM      5  O   UNL A   1      42.928  22.538  24.728  1.00  0.00    -0.460 OA
BRANCH   5   6
ATOM      6  C   UNL A   1      44.054  23.273  24.759  1.00  0.00     0.338 C 
ATOM      7  O   UNL A   1      44.746  23.277  23.741  1.00  0.00    -0.246 OA
BRANCH   6   8
ATOM      8  C   UNL A   1      44.590  23.988  25.968  1.00  0.00     0.060 A 
ATOM      9  C   UNL A   1      45.592  23.434  27.316  1.00  0.00     0.016 A 
ATOM     10  C   UNL A   1      44.084  25.635  25.871  1.00  0.00     0.016 A 
ATOM     11  C   UNL A   1      46.182  24.465  28.634  1.00  0.00     0.010 A 
ATOM     12  C   UNL A   1      44.622  26.744  27.106  1.00  0.00     0.010 A 
ATOM     13  C   UNL A   1      45.675  26.161  28.652  1.00  0.00    -0.014 A 
BRANCH  13  14
ATOM     14  C   UNL A   1      45.855  26.689  30.212  1.00  0.00     0.031 A 
ATOM     15  C   UNL A   1      46.964  26.215  31.205  1.00  0.00     0.074 A 
ATOM     16  C   UNL A   1      45.159  27.684  30.793  1.00  0.00     0.049 A 
ATOM     17  N   UNL A   1      46.945  25.975  32.510  1.00  0.00    -0.248 NA
ATOM     18  C   UNL A   1      48.292  26.084  30.634  1.00  0.00     0.031 C 
ATOM     19  C   UNL A   1      44.294  28.639  30.155  1.00  0.00     0.029 A 
ATOM     20  N   UNL A   1      44.985  27.941  32.138  1.00  0.00    -0.354 N 
ATOM     21  C   UNL A   1      48.213  25.454  32.841  1.00  0.00     0.074 A 
ATOM     22  C   UNL A   1      48.976  25.585  31.653  1.00  0.00     0.031 C 
ATOM     23  C   UNL A   1      43.449  29.149  31.059  1.00  0.00     0.029 A 
ATOM     24  C   UNL A   1      43.839  28.657  32.378  1.00  0.00     0.049 A 
ATOM     25  H   UNL A   1      45.608  27.646  32.840  1.00  0.00     0.167 HD
ATOM     26  C   UNL A   1      48.765  24.964  33.992  1.00  0.00     0.037 A 
ATOM     27  C   UNL A   1      43.170  28.906  33.517  1.00  0.00     0.037 A 
ATOM     28  C   UNL A   1      48.260  25.347  35.272  1.00  0.00     0.049 A 
ATOM     29  C   UNL A   1      43.786  28.573  34.839  1.00  0.00     0.074 A 
ATOM     30  C   UNL A   1      48.813  25.147  36.525  1.00  0.00     0.029 A 
ATOM     31  N   UNL A   1      47.160  26.157  35.427  1.00  0.00    -0.354 N 
ATOM     32  N   UNL A   1      44.844  27.844  35.097  1.00  0.00    -0.248 NA
ATOM     33  C   UNL A   1      43.174  29.188  36.024  1.00  0.00     0.031 C 
ATOM     34  C   UNL A   1      48.038  25.855  37.446  1.00  0.00     0.029 A 
ATOM     35  C   UNL A   1      47.038  26.513  36.745  1.00  0.00     0.049 A 
ATOM     36  H   UNL A   1      46.553  26.437  34.703  1.00  0.00     0.167 HD
ATOM     37  C   UNL A   1      45.056  27.962  36.467  1.00  0.00     0.074 A 
ATOM     38  C   UNL A   1      44.016  28.823  36.982  1.00  0.00     0.031 C 
ATOM     39  C   UNL A   1      46.035  27.415  37.227  1.00  0.00     0.037 A 
BRANCH  26  40
ATOM     40  C   UNL A   1      49.991  24.029  33.997  1.00  0.00     0.058 A 
ATOM     41  C   UNL A   1      49.785  22.627  34.052  1.00  0.00     0.135 A 
ATOM     42  C   UNL A   1      51.331  24.443  34.018  1.00  0.00     0.135 A 
ATOM     43  F   UNL A   1      48.537  22.131  34.088  1.00  0.00    -0.206 F 
ATOM     44  C   UNL A   1      50.834  21.701  34.056  1.00  0.00     0.059 A 
ATOM     45  C   UNL A   1      52.398  23.535  33.975  1.00  0.00     0.059 A 
ATOM     46  F   UNL A   1      51.640  25.748  34.070  1.00  0.00    -0.206 F 
ATOM     47  C   UNL A   1      52.143  22.166  33.995  1.00  0.00     0.060 A 
BRANCH  47  48
ATOM     48  S   UNL A   1      53.504  20.976  33.902  1.00  0.00     0.124 S 
ATOM     49  O   UNL A   1      54.666  21.826  34.135  1.00  0.00    -0.237 OA
ATOM     50  O   UNL A   1      53.181  20.037  34.972  1.00  0.00    -0.237 OA
ATOM     51  O   UNL A   1      53.385  20.433  32.550  1.00  0.00    -0.744 OA
ENDBRANCH  47  48
ENDBRANCH  26  40
BRANCH  27  52
ATOM     52  C   UNL A   1      41.910  29.670  33.381  1.00  0.00     0.058 A 
ATOM     53  C   UNL A   1      41.909  31.075  33.410  1.00  0.00     0.135 A 
ATOM     54  C   UNL A   1      40.688  28.998  33.493  1.00  0.00     0.135 A 
ATOM     55  F   UNL A   1      43.066  31.754  33.362  1.00  0.00    -0.206 F 
ATOM     56  C   UNL A   1      40.729  31.787  33.592  1.00  0.00     0.059 A 
ATOM     57  C   UNL A   1      39.498  29.687  33.665  1.00  0.00     0.059 A 
ATOM     58  F   UNL A   1      40.665  27.656  33.513  1.00  0.00    -0.206 F 
ATOM     59  C   UNL A   1      39.532  31.080  33.733  1.00  0.00     0.060 A 
BRANCH  59  60
ATOM     60  S   UNL A   1      38.020  32.007  34.064  1.00  0.00     0.124 S 
ATOM     61  O   UNL A   1      38.517  33.379  34.083  1.00  0.00    -0.237 OA
ATOM     62  O   UNL A   1      37.191  31.641  32.923  1.00  0.00    -0.237 OA
ATOM     63  O   UNL A   1      37.582  31.482  35.353  1.00  0.00    -0.744 OA
ENDBRANCH  59  60
ENDBRANCH  27  52
BRANCH  39  64
ATOM     64  C   UNL A   1      46.091  27.716  38.685  1.00  0.00     0.058 A 
ATOM     65  C   UNL A   1      45.312  26.971  39.586  1.00  0.00     0.135 A 
ATOM     66  C   UNL A   1      46.710  28.886  39.135  1.00  0.00     0.135 A 
ATOM     67  F   UNL A   1      44.673  25.862  39.179  1.00  0.00    -0.206 F 
ATOM     68  C   UNL A   1      45.111  27.408  40.886  1.00  0.00     0.059 A 
ATOM     69  C   UNL A   1      46.546  29.326  40.439  1.00  0.00     0.059 A 
ATOM     70  F   UNL A   1      47.443  29.630  38.292  1.00  0.00    -0.206 F 
ATOM     71  C   UNL A   1      45.726  28.592  41.298  1.00  0.00     0.060 A 
BRANCH  71  72
ATOM     72  S   UNL A   1      45.419  29.170  42.976  1.00  0.00     0.124 S 
ATOM     73  O   UNL A   1      44.157  28.513  43.293  1.00  0.00    -0.237 OA
ATOM     74  O   UNL A   1      46.594  28.671  43.685  1.00  0.00    -0.237 OA
ATOM     75  O   UNL A   1      45.354  30.621  42.827  1.00  0.00    -0.744 OA
ENDBRANCH  71  72
ENDBRANCH  39  64
ENDBRANCH  13  14
ENDBRANCH   6   8
ENDBRANCH   5   6
ENDBRANCH   4   5
ENDBRANCH   3   4
ENDBRANCH   2   3
ENDBRANCH   1   2
BRANCH   1  76
ATOM     76  C   UNL A   1      38.415  24.192  26.880  1.00  0.00     0.188 C 
BRANCH  76  77
ATOM     77  O   UNL A   1      37.462  24.185  25.839  1.00  0.00    -0.376 OA
BRANCH  77  78
ATOM     78  C   UNL A   1      37.388  23.014  25.043  1.00  0.00     0.202 C 
BRANCH  78  79
ATOM     79  C   UNL A   1      36.958  21.639  25.627  1.00  0.00     0.261 C 
BRANCH  79  80
ATOM     80  O   UNL A   1      35.571  21.366  25.991  1.00  0.00    -0.459 OA
BRANCH  80  81
ATOM     81  C   UNL A   1      34.915  20.486  25.178  1.00  0.00     0.364 C 
ATOM     82  O   UNL A   1      35.444  19.437  24.806  1.00  0.00    -0.245 OA
BRANCH  81  83
ATOM     83  C   UNL A   1      33.431  20.819  24.778  1.00  0.00     0.294 C 
ATOM     84  C   UNL A   1      33.027  21.746  23.636  1.00  0.00     0.090 C 
ATOM     85  N   UNL A   1      32.623  21.255  25.916  1.00  0.00    -0.334 N 
ATOM     86  C   UNL A   1      32.394  23.051  24.190  1.00  0.00     0.036 C 
ATOM     87  C   UNL A   1      31.950  22.522  25.604  1.00  0.00     0.268 C 
ATOM     88  H   UNL A   1      33.225  21.386  26.729  1.00  0.00     0.347 HD
ATOM     89  H   UNL A   1      31.918  20.545  26.117  1.00  0.00     0.347 HD
ATOM     90  C   UNL A   1      30.917  23.793  23.275  1.00  0.00     0.075 C 
ATOM     91  C   UNL A   1      33.872  24.211  24.403  1.00  0.00     0.075 C 
ATOM     92  C   UNL A   1      30.784  25.616  22.667  1.00  0.00     0.271 C 
ATOM     93  C   UNL A   1      33.747  26.243  23.573  1.00  0.00     0.271 C 
ATOM     94  N   UNL A   1      32.153  26.786  22.900  1.00  0.00    -0.271 N 
ATOM     95  H   UNL A   1      32.949  26.324  22.552  1.00  0.00     0.356 HD
BRANCH  94  96
ATOM     96  C   UNL A   1      32.036  28.148  23.242  1.00  0.00     0.322 C 
ATOM     97  O   UNL A   1      32.546  29.027  22.546  1.00  0.00    -0.230 OA
BRANCH  96  98
ATOM     98  C   UNL A   1      31.137  28.616  24.327  1.00  0.00     0.113 C 
ATOM     99  C   UNL A   1      31.106  27.949  25.690  1.00  0.00     0.028 C 
ATOM    100  C   UNL A   1      31.951  29.157  25.511  1.00  0.00     0.028 C 
BRANCH  98 101
ATOM    101  C   UNL A   1      29.900  29.452  23.797  1.00  0.00     0.007 A 
ATOM    102  C   UNL A   1      29.775  30.848  23.954  1.00  0.00     0.008 A 
ATOM    103  C   UNL A   1      28.731  28.869  23.301  1.00  0.00     0.127 A 
ATOM    104  C   UNL A   1      28.758  31.638  23.398  1.00  0.00     0.001 A 
ATOM    105  C   UNL A   1      27.632  29.623  22.847  1.00  0.00     0.039 A 
ATOM    106  F   UNL A   1      28.596  27.535  23.336  1.00  0.00    -0.207 F 
ATOM    107  C   UNL A   1      27.674  31.013  22.825  1.00  0.00     0.003 A 
ENDBRANCH  98 101
ENDBRANCH  96  98
ENDBRANCH  94  96
ENDBRANCH  81  83
ENDBRANCH  80  81
ENDBRANCH  79  80
ENDBRANCH  78  79
ENDBRANCH  77  78
ENDBRANCH  76  77
ENDBRANCH   1  76
TORSDOF 23
ENDMDL
MODEL 2
REMARK VINA RESULT:     -10.4      1.588      2.472
REMARK SMILES O=C(OCCOCCOCCOC(=O)[C@@H]1CC2(CC[NH+](C(=O)C3(c4ccccc4F)CC3)CC2)C[NH2+]1)c1ccc(-c2c3nc(c(-c4c(F)cc(S(=O)(=O)[O-])cc4F)c4ccc([nH]4)c(-c4c(F)cc(S(=O)(=O)[O-])cc4F)c4nc(c(-c5c(F)cc(S(=O)(=O)[O-])cc5F)c5ccc2[nH]5)C=C4)C=C3)cc1
REMARK SMILES IDX 7 1 6 2 5 3 4 4 3 5 2 6 1 7 37 8 38 9 102 10 39 11 101 12
REMARK SMILES IDX 40 13 41 14 42 15 95 16 43 17 100 18 94 19 96 20 44 21 99 22
REMARK SMILES IDX 93 23 92 24 45 26 79 27 58 28 78 29 59 30 62 31 77 32 97 33
REMARK SMILES IDX 60 34 61 35 76 37 98 38 63 39 46 40 47 41 56 42 48 43 49 44
REMARK SMILES IDX 55 45 57 46 50 47 51 48 52 49 53 50 54 51 80 52 81 53 90 54
REMARK SMILES IDX 82 55 83 56 89 57 91 58 84 59 85 60 86 61 87 62 88 63 64 64
REMARK SMILES IDX 65 65 74 66 66 67 67 68 73 69 75 70 68 71 69 72 70 73 71 74
REMARK SMILES IDX 72 75 8 76 9 77 10 78 11 79 12 80 13 81 14 82 15 83 16 84
REMARK SMILES IDX 36 85 17 86 35 87 18 90 34 91 19 92 33 93 20 94 21 96 22 97
REMARK SMILES IDX 23 98 31 99 32 100 24 101 25 102 29 103 26 104 28 105 30 106
REMARK SMILES IDX 27 107
REMARK H PARENT 96 25 62 36 36 88 36 89 20 95
REMARK Flexibility Score: inf
ROOT
ATOM      1  C   UNL A   1      39.046  23.396  26.183  1.00  0.00     0.188 C 
ENDROOT
BRANCH   1   2
ATOM      2  O   UNL A   1      39.613  22.344  26.966  1.00  0.00    -0.376 OA
BRANCH   2   3
ATOM      3  C   UNL A   1      40.223  21.262  26.255  1.00  0.00     0.202 C 
BRANCH   3   4
ATOM      4  C   UNL A   1      41.754  21.266  26.194  1.00  0.00     0.261 C 
BRANCH   4   5
ATOM      5  O   UNL A   1      42.248  21.831  24.996  1.00  0.00    -0.460 OA
BRANCH   5   6
ATOM      6  C   UNL A   1      43.305  22.660  24.946  1.00  0.00     0.338 C 
ATOM      7  O   UNL A   1      43.936  22.698  23.889  1.00  0.00    -0.246 OA
BRANCH   6   8
ATOM      8  C   UNL A   1      43.844  23.450  26.106  1.00  0.00     0.060 A 
ATOM      9  C   UNL A   1      44.958  23.015  27.411  1.00  0.00     0.016 A 
ATOM     10  C   UNL A   1      43.204  25.049  25.997  1.00  0.00     0.016 A 
ATOM     11  C   UNL A   1      45.530  24.127  28.669  1.00  0.00     0.010 A 
ATOM     12  C   UNL A   1      43.715  26.231  27.174  1.00  0.00     0.010 A 
ATOM     13  C   UNL A   1      44.890  25.777  28.673  1.00  0.00    -0.014 A 
BRANCH  13  14
ATOM     14  C   UNL A   1      45.109  26.362  30.208  1.00  0.00     0.031 A 
ATOM     15  C   UNL A   1      46.309  26.015  31.146  1.00  0.00     0.074 A 
ATOM     16  C   UNL A   1      44.361  27.308  30.805  1.00  0.00     0.049 A 
ATOM     17  N   UNL A   1      46.384  25.810  32.455  1.00  0.00    -0.248 NA
ATOM     18  C   UNL A   1      47.610  25.984  30.503  1.00  0.00     0.031 C 
ATOM     19  C   UNL A   1      43.380  28.166  30.197  1.00  0.00     0.029 A 
ATOM     20  N   UNL A   1      44.239  27.586  32.152  1.00  0.00    -0.354 N 
ATOM     21  C   UNL A   1      47.709  25.411  32.724  1.00  0.00     0.074 A 
ATOM     22  C   UNL A   1      48.390  25.575  31.492  1.00  0.00     0.031 C 
ATOM     23  C   UNL A   1      42.545  28.625  31.135  1.00  0.00     0.029 A 
ATOM     24  C   UNL A   1      43.050  28.206  32.440  1.00  0.00     0.049 A 
ATOM     25  H   UNL A   1      44.924  27.367  32.823  1.00  0.00     0.167 HD
ATOM     26  C   UNL A   1      48.365  25.004  33.853  1.00  0.00     0.037 A 
ATOM     27  C   UNL A   1      42.425  28.427  33.610  1.00  0.00     0.037 A 
ATOM     28  C   UNL A   1      47.900  25.376  35.151  1.00  0.00     0.049 A 
ATOM     29  C   UNL A   1      43.140  28.187  34.902  1.00  0.00     0.074 A 
ATOM     30  C   UNL A   1      48.537  25.261  36.374  1.00  0.00     0.029 A 
ATOM     31  N   UNL A   1      46.742  26.091  35.350  1.00  0.00    -0.354 N 
ATOM     32  N   UNL A   1      44.271  27.560  35.115  1.00  0.00    -0.248 NA
ATOM     33  C   UNL A   1      42.543  28.778  36.106  1.00  0.00     0.031 C 
ATOM     34  C   UNL A   1      47.754  25.923  37.321  1.00  0.00     0.029 A 
ATOM     35  C   UNL A   1      46.662  26.472  36.665  1.00  0.00     0.049 A 
ATOM     36  H   UNL A   1      46.074  26.298  34.656  1.00  0.00     0.167 HD
ATOM     37  C   UNL A   1      44.548  27.735  36.468  1.00  0.00     0.074 A 
ATOM     38  C   UNL A   1      43.465  28.515  37.022  1.00  0.00     0.031 C 
ATOM     39  C   UNL A   1      45.612  27.296  37.182  1.00  0.00     0.037 A 
BRANCH  26  40
ATOM     40  C   UNL A   1      49.668  24.180  33.809  1.00  0.00     0.058 A 
ATOM     41  C   UNL A   1      49.599  22.776  34.000  1.00  0.00     0.135 A 
ATOM     42  C   UNL A   1      50.959  24.705  33.657  1.00  0.00     0.135 A 
ATOM     43  F   UNL A   1      48.411  22.182  34.204  1.00  0.00    -0.206 F 
ATOM     44  C   UNL A   1      50.725  21.946  33.972  1.00  0.00     0.059 A 
ATOM     45  C   UNL A   1      52.097  23.891  33.580  1.00  0.00     0.059 A 
ATOM     46  F   UNL A   1      51.149  26.031  33.570  1.00  0.00    -0.206 F 
ATOM     47  C   UNL A   1      51.973  22.512  33.739  1.00  0.00     0.060 A 
BRANCH  47  48
ATOM     48  S   UNL A   1      53.424  21.437  33.605  1.00  0.00     0.124 S 
ATOM     49  O   UNL A   1      53.227  20.522  34.723  1.00  0.00    -0.237 OA
ATOM     50  O   UNL A   1      53.269  20.855  32.275  1.00  0.00    -0.237 OA
ATOM     51  O   UNL A   1      54.545  22.365  33.744  1.00  0.00    -0.744 OA
ENDBRANCH  47  48
ENDBRANCH  26  40
BRANCH  27  52
ATOM     52  C   UNL A   1      41.097  29.074  33.529  1.00  0.00     0.058 A 
ATOM     53  C   UNL A   1      39.941  28.324  33.251  1.00  0.00     0.135 A 
ATOM     54  C   UNL A   1      41.019  30.470  33.463  1.00  0.00     0.135 A 
ATOM     55  F   UNL A   1      39.990  26.982  33.249  1.00  0.00    -0.206 F 
ATOM     56  C   UNL A   1      38.757  28.945  32.872  1.00  0.00     0.059 A 
ATOM     57  C   UNL A   1      39.847  31.111  33.098  1.00  0.00     0.059 A 
ATOM     58  F   UNL A   1      42.118  31.209  33.680  1.00  0.00    -0.206 F 
ATOM     59  C   UNL A   1      38.727  30.340  32.785  1.00  0.00     0.060 A 
BRANCH  59  60
ATOM     60  S   UNL A   1      37.216  31.132  32.202  1.00  0.00     0.124 S 
ATOM     61  O   UNL A   1      37.702  31.873  31.043  1.00  0.00    -0.237 OA
ATOM     62  O   UNL A   1      36.367  29.982  31.918  1.00  0.00    -0.237 OA
ATOM     63  O   UNL A   1      36.806  31.950  33.340  1.00  0.00    -0.744 OA
ENDBRANCH  59  60
ENDBRANCH  27  52
BRANCH  39  64
ATOM     64  C   UNL A   1      45.721  27.641  38.627  1.00  0.00     0.058 A 
ATOM     65  C   UNL A   1      45.157  26.794  39.596  1.00  0.00     0.135 A 
ATOM     66  C   UNL A   1      46.152  28.914  39.012  1.00  0.00     0.135 A 
ATOM     67  F   UNL A   1      44.699  25.579  39.255  1.00  0.00    -0.206 F 
ATOM     68  C   UNL A   1      44.979  27.223  40.902  1.00  0.00     0.059 A 
ATOM     69  C   UNL A   1      46.010  29.353  40.320  1.00  0.00     0.059 A 
ATOM     70  F   UNL A   1      46.676  29.754  38.105  1.00  0.00    -0.206 F 
ATOM     71  C   UNL A   1      45.401  28.509  41.249  1.00  0.00     0.060 A 
BRANCH  71  72
ATOM     72  S   UNL A   1      45.122  29.068  42.939  1.00  0.00     0.124 S 
ATOM     73  O   UNL A   1      46.175  30.062  43.103  1.00  0.00    -0.237 OA
ATOM     74  O   UNL A   1      43.760  29.587  42.862  1.00  0.00    -0.237 OA
ATOM     75  O   UNL A   1      45.278  27.849  43.727  1.00  0.00    -0.744 OA
ENDBRANCH  71  72
ENDBRANCH  39  64
ENDBRANCH  13  14
ENDBRANCH   6   8
ENDBRANCH   5   6
ENDBRANCH   4   5
ENDBRANCH   3   4
ENDBRANCH   2   3
ENDBRANCH   1   2
BRANCH   1  76
ATOM     76  C   UNL A   1      37.526  23.408  26.000  1.00  0.00     0.188 C 
BRANCH  76  77
ATOM     77  O   UNL A   1      37.006  23.389  24.688  1.00  0.00    -0.376 OA
BRANCH  77  78
ATOM     78  C   UNL A   1      36.721  22.118  24.129  1.00  0.00     0.202 C 
BRANCH  78  79
ATOM     79  C   UNL A   1      36.290  20.905  25.000  1.00  0.00     0.261 C 
BRANCH  79  80
ATOM     80  O   UNL A   1      34.979  20.855  25.641  1.00  0.00    -0.459 OA
BRANCH  80  81
ATOM     81  C   UNL A   1      33.999  20.230  24.924  1.00  0.00     0.364 C 
ATOM     82  O   UNL A   1      34.182  19.123  24.415  1.00  0.00    -0.245 OA
BRANCH  81  83
ATOM     83  C   UNL A   1      32.599  20.939  24.817  1.00  0.00     0.294 C 
ATOM     84  C   UNL A   1      32.306  22.154  23.942  1.00  0.00     0.090 C 
ATOM     85  N   UNL A   1      32.034  21.275  26.123  1.00  0.00    -0.334 N 
ATOM     86  C   UNL A   1      32.051  23.409  24.819  1.00  0.00     0.036 C 
ATOM     87  C   UNL A   1      31.643  22.689  26.158  1.00  0.00     0.268 C 
ATOM     88  H   UNL A   1      32.730  21.101  26.848  1.00  0.00     0.347 HD
ATOM     89  H   UNL A   1      31.209  20.698  26.288  1.00  0.00     0.347 HD
ATOM     90  C   UNL A   1      30.700  24.618  24.288  1.00  0.00     0.075 C 
ATOM     91  C   UNL A   1      33.771  24.168  25.027  1.00  0.00     0.075 C 
ATOM     92  C   UNL A   1      30.929  26.517  24.061  1.00  0.00     0.271 C 
ATOM     93  C   UNL A   1      34.034  26.312  24.621  1.00  0.00     0.271 C 
ATOM     94  N   UNL A   1      32.548  27.303  24.305  1.00  0.00    -0.271 N 
ATOM     95  H   UNL A   1      33.176  26.774  23.763  1.00  0.00     0.356 HD
BRANCH  94  96
ATOM     96  C   UNL A   1      32.785  28.554  24.910  1.00  0.00     0.322 C 
ATOM     97  O   UNL A   1      32.930  29.573  24.235  1.00  0.00    -0.230 OA
BRANCH  96  98
ATOM     98  C   UNL A   1      32.673  28.755  26.377  1.00  0.00     0.113 C 
ATOM     99  C   UNL A   1      31.381  28.491  27.130  1.00  0.00     0.028 C 
ATOM    100  C   UNL A   1      32.409  27.421  27.090  1.00  0.00     0.028 C 
BRANCH  98 101
ATOM    101  C   UNL A   1      33.773  29.736  26.960  1.00  0.00     0.007 A 
ATOM    102  C   UNL A   1      35.068  29.323  27.335  1.00  0.00     0.008 A 
ATOM    103  C   UNL A   1      33.507  31.054  27.339  1.00  0.00     0.127 A 
ATOM    104  C   UNL A   1      36.105  30.177  27.740  1.00  0.00     0.001 A 
ATOM    105  C   UNL A   1      34.490  31.911  27.870  1.00  0.00     0.039 A 
ATOM    106  F   UNL A   1      32.248  31.512  27.288  1.00  0.00    -0.207 F 
ATOM    107  C   UNL A   1      35.811  31.496  28.001  1.00  0.00     0.003 A 
ENDBRANCH  98 101
ENDBRANCH  96  98
ENDBRANCH  94  96
ENDBRANCH  81  83
ENDBRANCH  80  81
ENDBRANCH  79  80
ENDBRANCH  78  79
ENDBRANCH  77  78
ENDBRANCH  76  77
ENDBRANCH   1  76
TORSDOF 23
ENDMDL
MODEL 3
REMARK VINA RESULT:     -10.2      5.995     11.590
REMARK SMILES O=C(OCCOCCOCCOC(=O)[C@@H]1CC2(CC[NH+](C(=O)C3(c4ccccc4F)CC3)CC2)C[NH2+]1)c1ccc(-c2c3nc(c(-c4c(F)cc(S(=O)(=O)[O-])cc4F)c4ccc([nH]4)c(-c4c(F)cc(S(=O)(=O)[O-])cc4F)c4nc(c(-c5c(F)cc(S(=O)(=O)[O-])cc5F)c5ccc2[nH]5)C=C4)C=C3)cc1
REMARK SMILES IDX 7 1 6 2 5 3 4 4 3 5 2 6 1 7 37 8 38 9 102 10 39 11 101 12
REMARK SMILES IDX 40 13 41 14 42 15 95 16 43 17 100 18 94 19 96 20 44 21 99 22
REMARK SMILES IDX 93 23 92 24 45 26 79 27 58 28 78 29 59 30 62 31 77 32 97 33
REMARK SMILES IDX 60 34 61 35 76 37 98 38 63 39 46 40 47 41 56 42 48 43 49 44
REMARK SMILES IDX 55 45 57 46 50 47 51 48 52 49 53 50 54 51 80 52 81 53 90 54
REMARK SMILES IDX 82 55 83 56 89 57 91 58 84 59 85 60 86 61 87 62 88 63 64 64
REMARK SMILES IDX 65 65 74 66 66 67 67 68 73 69 75 70 68 71 69 72 70 73 71 74
REMARK SMILES IDX 72 75 8 76 9 77 10 78 11 79 12 80 13 81 14 82 15 83 16 84
REMARK SMILES IDX 36 85 17 86 35 87 18 90 34 91 19 92 33 93 20 94 21 96 22 97
REMARK SMILES IDX 23 98 31 99 32 100 24 101 25 102 29 103 26 104 28 105 30 106
REMARK SMILES IDX 27 107
REMARK H PARENT 96 25 62 36 36 88 36 89 20 95
REMARK Flexibility Score: inf
ROOT
ATOM      1  C   UNL A   1      33.161  36.490  29.476  1.00  0.00     0.188 C 
ENDROOT
BRANCH   1   2
ATOM      2  O   UNL A   1      32.522  36.803  30.715  1.00  0.00    -0.376 OA
BRANCH   2   3
ATOM      3  C   UNL A   1      33.372  37.075  31.834  1.00  0.00     0.202 C 
BRANCH   3   4
ATOM      4  C   UNL A   1      33.286  36.095  33.007  1.00  0.00     0.261 C 
BRANCH   4   5
ATOM      5  O   UNL A   1      34.116  34.963  32.832  1.00  0.00    -0.460 OA
BRANCH   5   6
ATOM      6  C   UNL A   1      35.047  34.580  33.722  1.00  0.00     0.338 C 
ATOM      7  O   UNL A   1      34.784  34.747  34.914  1.00  0.00    -0.246 OA
BRANCH   6   8
ATOM      8  C   UNL A   1      36.421  34.076  33.378  1.00  0.00     0.060 A 
ATOM      9  C   UNL A   1      38.014  34.840  33.475  1.00  0.00     0.016 A 
ATOM     10  C   UNL A   1      36.263  32.445  32.838  1.00  0.00     0.016 A 
ATOM     11  C   UNL A   1      39.548  34.043  33.076  1.00  0.00     0.010 A 
ATOM     12  C   UNL A   1      37.711  31.558  32.435  1.00  0.00     0.010 A 
ATOM     13  C   UNL A   1      39.487  32.384  32.463  1.00  0.00    -0.014 A 
BRANCH  13  14
ATOM     14  C   UNL A   1      40.908  32.130  31.649  1.00  0.00     0.031 A 
ATOM     15  C   UNL A   1      41.865  30.913  31.858  1.00  0.00     0.074 A 
ATOM     16  C   UNL A   1      41.365  32.859  30.615  1.00  0.00     0.049 A 
ATOM     17  N   UNL A   1      43.189  30.812  31.858  1.00  0.00    -0.248 NA
ATOM     18  C   UNL A   1      41.209  29.626  32.001  1.00  0.00     0.031 C 
ATOM     19  C   UNL A   1      40.650  33.847  29.852  1.00  0.00     0.029 A 
ATOM     20  N   UNL A   1      42.655  32.951  30.130  1.00  0.00    -0.354 N 
ATOM     21  C   UNL A   1      43.490  29.484  32.223  1.00  0.00     0.074 A 
ATOM     22  C   UNL A   1      42.235  28.828  32.259  1.00  0.00     0.031 C 
ATOM     23  C   UNL A   1      41.523  34.660  29.246  1.00  0.00     0.029 A 
ATOM     24  C   UNL A   1      42.867  34.131  29.462  1.00  0.00     0.049 A 
ATOM     25  H   UNL A   1      43.339  32.254  30.250  1.00  0.00     0.167 HD
ATOM     26  C   UNL A   1      44.655  28.808  32.457  1.00  0.00     0.037 A 
ATOM     27  C   UNL A   1      44.000  34.730  29.057  1.00  0.00     0.037 A 
ATOM     28  C   UNL A   1      45.889  29.244  31.884  1.00  0.00     0.049 A 
ATOM     29  C   UNL A   1      45.300  33.990  29.101  1.00  0.00     0.074 A 
ATOM     30  C   UNL A   1      47.103  28.583  31.814  1.00  0.00     0.029 A 
ATOM     31  N   UNL A   1      45.998  30.393  31.136  1.00  0.00    -0.354 N 
ATOM     32  N   UNL A   1      45.585  32.859  29.697  1.00  0.00    -0.248 NA
ATOM     33  C   UNL A   1      46.408  34.559  28.325  1.00  0.00     0.031 C 
ATOM     34  C   UNL A   1      47.951  29.342  31.006  1.00  0.00     0.029 A 
ATOM     35  C   UNL A   1      47.238  30.443  30.555  1.00  0.00     0.049 A 
ATOM     36  H   UNL A   1      45.293  31.073  31.033  1.00  0.00     0.167 HD
ATOM     37  C   UNL A   1      46.889  32.553  29.318  1.00  0.00     0.074 A 
ATOM     38  C   UNL A   1      47.336  33.619  28.451  1.00  0.00     0.031 C 
ATOM     39  C   UNL A   1      47.642  31.478  29.651  1.00  0.00     0.037 A 
BRANCH  26  40
ATOM     40  C   UNL A   1      44.715  27.512  33.290  1.00  0.00     0.058 A 
ATOM     41  C   UNL A   1      44.779  26.265  32.617  1.00  0.00     0.135 A 
ATOM     42  C   UNL A   1      44.646  27.438  34.689  1.00  0.00     0.135 A 
ATOM     43  F   UNL A   1      44.797  26.226  31.274  1.00  0.00    -0.206 F 
ATOM     44  C   UNL A   1      44.840  25.038  33.286  1.00  0.00     0.059 A 
ATOM     45  C   UNL A   1      44.753  26.226  35.384  1.00  0.00     0.059 A 
ATOM     46  F   UNL A   1      44.483  28.551  35.422  1.00  0.00    -0.206 F 
ATOM     47  C   UNL A   1      44.849  25.029  34.677  1.00  0.00     0.060 A 
BRANCH  47  48
ATOM     48  S   UNL A   1      45.026  23.455  35.553  1.00  0.00     0.124 S 
ATOM     49  O   UNL A   1      43.662  22.940  35.527  1.00  0.00    -0.237 OA
ATOM     50  O   UNL A   1      45.991  22.736  34.727  1.00  0.00    -0.237 OA
ATOM     51  O   UNL A   1      45.520  23.856  36.869  1.00  0.00    -0.744 OA
ENDBRANCH  47  48
ENDBRANCH  26  40
BRANCH  27  52
ATOM     52  C   UNL A   1      43.846  36.056  28.417  1.00  0.00     0.058 A 
ATOM     53  C   UNL A   1      43.937  37.238  29.171  1.00  0.00     0.135 A 
ATOM     54  C   UNL A   1      43.342  36.131  27.114  1.00  0.00     0.135 A 
ATOM     55  F   UNL A   1      44.361  37.198  30.445  1.00  0.00    -0.206 F 
ATOM     56  C   UNL A   1      43.496  38.452  28.657  1.00  0.00     0.059 A 
ATOM     57  C   UNL A   1      42.907  37.332  26.577  1.00  0.00     0.059 A 
ATOM     58  F   UNL A   1      43.203  35.011  26.387  1.00  0.00    -0.206 F 
ATOM     59  C   UNL A   1      42.969  38.482  27.363  1.00  0.00     0.060 A 
BRANCH  59  60
ATOM     60  S   UNL A   1      42.312  40.042  26.739  1.00  0.00     0.124 S 
ATOM     61  O   UNL A   1      42.121  40.794  27.974  1.00  0.00    -0.237 OA
ATOM     62  O   UNL A   1      43.393  40.495  25.872  1.00  0.00    -0.237 OA
ATOM     63  O   UNL A   1      41.087  39.639  26.056  1.00  0.00    -0.744 OA
ENDBRANCH  59  60
ENDBRANCH  27  52
BRANCH  39  64
ATOM     64  C   UNL A   1      49.014  31.336  29.087  1.00  0.00     0.058 A 
ATOM     65  C   UNL A   1      50.084  32.047  29.657  1.00  0.00     0.135 A 
ATOM     66  C   UNL A   1      49.202  30.709  27.852  1.00  0.00     0.135 A 
ATOM     67  F   UNL A   1      49.928  32.693  30.824  1.00  0.00    -0.206 F 
ATOM     68  C   UNL A   1      51.292  32.173  28.990  1.00  0.00     0.059 A 
ATOM     69  C   UNL A   1      50.411  30.799  27.180  1.00  0.00     0.059 A 
ATOM     70  F   UNL A   1      48.192  30.040  27.273  1.00  0.00    -0.206 F 
ATOM     71  C   UNL A   1      51.440  31.553  27.747  1.00  0.00     0.060 A 
BRANCH  71  72
ATOM     72  S   UNL A   1      53.000  31.763  26.872  1.00  0.00     0.124 S 
ATOM     73  O   UNL A   1      52.800  33.045  26.207  1.00  0.00    -0.237 OA
ATOM     74  O   UNL A   1      53.963  31.757  27.969  1.00  0.00    -0.237 OA
ATOM     75  O   UNL A   1      53.054  30.599  25.992  1.00  0.00    -0.744 OA
ENDBRANCH  71  72
ENDBRANCH  39  64
ENDBRANCH  13  14
ENDBRANCH   6   8
ENDBRANCH   5   6
ENDBRANCH   4   5
ENDBRANCH   3   4
ENDBRANCH   2   3
ENDBRANCH   1   2
BRANCH   1  76
ATOM     76  C   UNL A   1      33.251  35.016  29.073  1.00  0.00     0.188 C 
BRANCH  76  77
ATOM     77  O   UNL A   1      34.388  34.279  29.467  1.00  0.00    -0.376 OA
BRANCH  77  78
ATOM     78  C   UNL A   1      34.586  33.021  28.843  1.00  0.00     0.202 C 
BRANCH  78  79
ATOM     79  C   UNL A   1      35.185  31.804  29.601  1.00  0.00     0.261 C 
BRANCH  79  80
ATOM     80  O   UNL A   1      35.415  30.527  28.932  1.00  0.00    -0.459 OA
BRANCH  80  81
ATOM     81  C   UNL A   1      36.605  29.921  29.220  1.00  0.00     0.364 C 
ATOM     82  O   UNL A   1      36.704  29.099  30.133  1.00  0.00    -0.245 OA
BRANCH  81  83
ATOM     83  C   UNL A   1      37.842  30.255  28.307  1.00  0.00     0.294 C 
ATOM     84  C   UNL A   1      38.344  29.373  27.169  1.00  0.00     0.090 C 
ATOM     85  N   UNL A   1      39.040  30.588  29.078  1.00  0.00    -0.334 N 
ATOM     86  C   UNL A   1      39.715  28.742  27.532  1.00  0.00     0.036 C 
ATOM     87  C   UNL A   1      40.175  29.776  28.625  1.00  0.00     0.268 C 
ATOM     88  H   UNL A   1      38.868  30.404  30.066  1.00  0.00     0.347 HD
ATOM     89  H   UNL A   1      39.261  31.574  28.941  1.00  0.00     0.347 HD
ATOM     90  C   UNL A   1      41.024  28.594  26.178  1.00  0.00     0.075 C 
ATOM     91  C   UNL A   1      39.250  27.116  28.379  1.00  0.00     0.075 C 
ATOM     92  C   UNL A   1      41.957  26.977  25.700  1.00  0.00     0.271 C 
ATOM     93  C   UNL A   1      40.227  25.262  27.715  1.00  0.00     0.271 C 
ATOM     94  N   UNL A   1      41.588  25.402  26.525  1.00  0.00    -0.271 N 
ATOM     95  H   UNL A   1      40.609  25.308  26.475  1.00  0.00     0.356 HD
BRANCH  94  96
ATOM     96  C   UNL A   1      42.523  24.415  26.894  1.00  0.00     0.322 C 
ATOM     97  O   UNL A   1      42.733  23.434  26.180  1.00  0.00    -0.230 OA
BRANCH  96  98
ATOM     98  C   UNL A   1      43.447  24.593  28.043  1.00  0.00     0.113 C 
ATOM     99  C   UNL A   1      43.361  23.726  29.286  1.00  0.00     0.028 C 
ATOM    100  C   UNL A   1      44.330  23.351  28.226  1.00  0.00     0.028 C 
BRANCH  98 101
ATOM    101  C   UNL A   1      44.116  26.029  28.092  1.00  0.00     0.007 A 
ATOM    102  C   UNL A   1      45.429  26.295  27.652  1.00  0.00     0.008 A 
ATOM    103  C   UNL A   1      43.546  27.123  28.749  1.00  0.00     0.127 A 
ATOM    104  C   UNL A   1      46.014  27.567  27.568  1.00  0.00     0.001 A 
ATOM    105  C   UNL A   1      44.158  28.390  28.798  1.00  0.00     0.039 A 
ATOM    106  F   UNL A   1      42.413  26.954  29.446  1.00  0.00    -0.207 F 
ATOM    107  C   UNL A   1      45.360  28.634  28.142  1.00  0.00     0.003 A 
ENDBRANCH  98 101
ENDBRANCH  96  98
ENDBRANCH  94  96
ENDBRANCH  81  83
ENDBRANCH  80  81
ENDBRANCH  79  80
ENDBRANCH  78  79
ENDBRANCH  77  78
ENDBRANCH  76  77
ENDBRANCH   1  76
TORSDOF 23
ENDMDL
