MODEL 1
REMARK VINA RESULT:     -10.8      0.000      0.000
REMARK SMILES COc1cc(NC(=O)C2CCN(S(=O)(=O)c3cccs3)CC2)c(Cl)cc1C(=O)OCCOCCOCCOC(=O)c1ccc(-c2c3nc(c(-c4c(F)cc(S(=O)(=O)[O-])cc4F)c4ccc([nH]4)c(-c4c(F)cc(S(=O)(=O)[O-])cc4F)c4nc(c(-c5c(F)cc(S(=O)(=O)[O-])cc5F)c5ccc2[nH]5)C=C4)C=C3)cc1
REMARK SMILES IDX 33 1 32 2 31 3 30 4 29 5 27 6 28 7 26 8 3 9 4 10 5 11 25 12
REMARK SMILES IDX 23 13 24 14 2 15 1 16 6 17 7 18 8 20 9 21 10 22 22 23 11 24
REMARK SMILES IDX 21 25 12 26 13 27 14 28 15 29 16 30 17 31 20 32 18 33 19 34
REMARK SMILES IDX 34 35 35 36 36 37 37 38 38 39 39 40 40 41 41 42 42 43 106 44
REMARK SMILES IDX 43 45 105 46 44 47 45 48 46 49 99 50 47 51 104 52 98 53
REMARK SMILES IDX 100 54 48 55 103 56 97 57 96 58 49 60 83 61 62 62 82 63
REMARK SMILES IDX 63 64 66 65 81 66 101 67 64 68 65 69 80 71 102 72 67 73
REMARK SMILES IDX 50 74 51 75 60 76 52 77 53 78 59 79 61 80 54 81 55 82 56 83
REMARK SMILES IDX 57 84 58 85 84 86 85 87 94 88 86 89 87 90 93 91 95 92 88 93
REMARK SMILES IDX 89 94 90 95 91 96 92 97 68 98 69 99 78 100 70 101 71 102
REMARK SMILES IDX 77 103 79 104 72 105 73 106 74 107 75 108 76 109
REMARK H PARENT 6 19 100 59 66 70
REMARK Flexibility Score: inf
ROOT
ATOM      1  C   UNL A   1      41.789  19.486  26.146  1.00  0.00     0.188 C 
ENDROOT
BRANCH   1   2
ATOM      2  O   UNL A   1      40.419  19.618  26.481  1.00  0.00    -0.376 OA
BRANCH   2   3
ATOM      3  C   UNL A   1      39.567  20.396  25.646  1.00  0.00     0.202 C 
BRANCH   3   4
ATOM      4  C   UNL A   1      38.382  19.733  24.943  1.00  0.00     0.261 C 
BRANCH   4   5
ATOM      5  O   UNL A   1      37.156  20.386  25.292  1.00  0.00    -0.460 OA
BRANCH   5   6
ATOM      6  C   UNL A   1      36.024  19.781  24.871  1.00  0.00     0.342 C 
ATOM      7  O   UNL A   1      35.895  18.605  24.574  1.00  0.00    -0.246 OA
BRANCH   6   8
ATOM      8  C   UNL A   1      34.870  20.700  25.003  1.00  0.00     0.103 A 
ATOM      9  C   UNL A   1      33.537  20.301  24.811  1.00  0.00     0.135 A 
ATOM     10  C   UNL A   1      32.519  21.240  25.007  1.00  0.00     0.075 A 
ATOM     11  C   UNL A   1      32.806  22.492  25.556  1.00  0.00     0.063 A 
ATOM     12  C   UNL A   1      35.168  22.037  25.308  1.00  0.00     0.042 A 
ATOM     13  C   UNL A   1      34.137  22.933  25.577  1.00  0.00     0.065 A 
ATOM     14  Cl  UNL A   1      34.543  24.537  26.067  1.00  0.00    -0.082 Cl
BRANCH   9  15
ATOM     15  O   UNL A   1      33.296  18.983  24.532  1.00  0.00    -0.496 OA
ATOM     16  C   UNL A   1      32.640  18.207  25.528  1.00  0.00     0.278 C 
ENDBRANCH   9  15
BRANCH  11  17
ATOM     17  N   UNL A   1      31.832  23.253  26.239  1.00  0.00    -0.324 N 
ATOM     18  C   UNL A   1      30.843  24.081  25.765  1.00  0.00     0.227 C 
ATOM     19  H   UNL A   1      31.868  23.178  27.220  1.00  0.00     0.169 HD
ATOM     20  O   UNL A   1      30.052  24.545  26.592  1.00  0.00    -0.274 OA
BRANCH  18  21
ATOM     21  C   UNL A   1      30.681  24.410  24.270  1.00  0.00     0.081 C 
ATOM     22  C   UNL A   1      32.007  24.848  23.609  1.00  0.00     0.030 C 
ATOM     23  C   UNL A   1      29.620  25.472  23.962  1.00  0.00     0.030 C 
ATOM     24  C   UNL A   1      32.385  26.312  23.876  1.00  0.00     0.103 C 
ATOM     25  C   UNL A   1      30.064  26.861  24.353  1.00  0.00     0.103 C 
ATOM     26  N   UNL A   1      31.239  27.214  23.540  1.00  0.00    -0.197 NA
BRANCH  26  27
ATOM     27  S   UNL A   1      31.650  28.882  23.608  1.00  0.00     0.252 S 
ATOM     28  O   UNL A   1      32.595  29.135  22.542  1.00  0.00    -0.206 OA
ATOM     29  O   UNL A   1      30.419  29.637  23.721  1.00  0.00    -0.206 OA
BRANCH  27  30
ATOM     30  C   UNL A   1      32.599  29.163  25.105  1.00  0.00     0.135 A 
ATOM     31  C   UNL A   1      33.735  28.534  25.592  1.00  0.00     0.033 A 
ATOM     32  S   UNL A   1      32.077  30.397  26.167  1.00  0.00    -0.131 S 
ATOM     33  C   UNL A   1      34.150  29.044  26.854  1.00  0.00     0.013 A 
ATOM     34  C   UNL A   1      33.351  30.083  27.269  1.00  0.00     0.066 A 
ENDBRANCH  27  30
ENDBRANCH  26  27
ENDBRANCH  18  21
ENDBRANCH  11  17
ENDBRANCH   6   8
ENDBRANCH   5   6
ENDBRANCH   4   5
ENDBRANCH   3   4
ENDBRANCH   2   3
ENDBRANCH   1   2
BRANCH   1  35
ATOM     35  C   UNL A   1      42.734  20.697  26.280  1.00  0.00     0.188 C 
BRANCH  35  36
ATOM     36  O   UNL A   1      43.651  21.040  25.265  1.00  0.00    -0.376 OA
BRANCH  36  37
ATOM     37  C   UNL A   1      44.030  22.391  25.074  1.00  0.00     0.202 C 
BRANCH  37  38
ATOM     38  C   UNL A   1      44.167  23.414  26.213  1.00  0.00     0.261 C 
BRANCH  38  39
ATOM     39  O   UNL A   1      42.968  24.048  26.665  1.00  0.00    -0.460 OA
BRANCH  39  40
ATOM     40  C   UNL A   1      42.675  25.217  26.037  1.00  0.00     0.338 C 
ATOM     41  O   UNL A   1      42.692  25.431  24.837  1.00  0.00    -0.246 OA
BRANCH  40  42
ATOM     42  C   UNL A   1      42.117  26.168  27.017  1.00  0.00     0.060 A 
ATOM     43  C   UNL A   1      42.580  27.491  26.997  1.00  0.00     0.016 A 
ATOM     44  C   UNL A   1      41.189  25.752  27.972  1.00  0.00     0.016 A 
ATOM     45  C   UNL A   1      42.139  28.398  27.958  1.00  0.00     0.010 A 
ATOM     46  C   UNL A   1      40.766  26.656  28.948  1.00  0.00     0.010 A 
ATOM     47  C   UNL A   1      41.264  27.972  28.966  1.00  0.00    -0.014 A 
BRANCH  47  48
ATOM     48  C   UNL A   1      41.022  28.842  30.141  1.00  0.00     0.031 A 
ATOM     49  C   UNL A   1      41.901  28.673  31.351  1.00  0.00     0.074 A 
ATOM     50  C   UNL A   1      40.054  29.776  30.129  1.00  0.00     0.049 A 
ATOM     51  N   UNL A   1      41.852  29.284  32.505  1.00  0.00    -0.248 NA
ATOM     52  C   UNL A   1      42.978  27.676  31.243  1.00  0.00     0.031 C 
ATOM     53  C   UNL A   1      39.166  30.060  29.004  1.00  0.00     0.029 A 
ATOM     54  N   UNL A   1      39.654  30.652  31.106  1.00  0.00    -0.354 N 
ATOM     55  C   UNL A   1      42.885  28.744  33.262  1.00  0.00     0.074 A 
ATOM     56  C   UNL A   1      43.526  27.736  32.447  1.00  0.00     0.031 C 
ATOM     57  C   UNL A   1      38.311  31.036  29.360  1.00  0.00     0.029 A 
ATOM     58  C   UNL A   1      38.575  31.425  30.746  1.00  0.00     0.049 A 
ATOM     59  H   UNL A   1      40.097  30.721  31.983  1.00  0.00     0.167 HD
ATOM     60  C   UNL A   1      43.268  29.065  34.520  1.00  0.00     0.037 A 
ATOM     61  C   UNL A   1      37.873  32.326  31.461  1.00  0.00     0.037 A 
ATOM     62  C   UNL A   1      42.624  30.064  35.331  1.00  0.00     0.049 A 
ATOM     63  C   UNL A   1      38.281  32.623  32.882  1.00  0.00     0.074 A 
ATOM     64  C   UNL A   1      42.942  30.468  36.615  1.00  0.00     0.029 A 
ATOM     65  N   UNL A   1      41.525  30.814  34.937  1.00  0.00    -0.354 N 
ATOM     66  N   UNL A   1      39.270  32.118  33.581  1.00  0.00    -0.248 NA
ATOM     67  C   UNL A   1      37.480  33.618  33.609  1.00  0.00     0.031 C 
ATOM     68  C   UNL A   1      42.008  31.430  37.016  1.00  0.00     0.029 A 
ATOM     69  C   UNL A   1      41.141  31.665  35.960  1.00  0.00     0.049 A 
ATOM     70  H   UNL A   1      41.082  30.751  34.060  1.00  0.00     0.167 HD
ATOM     71  C   UNL A   1      39.233  32.761  34.815  1.00  0.00     0.074 A 
ATOM     72  C   UNL A   1      38.127  33.694  34.765  1.00  0.00     0.031 C 
ATOM     73  C   UNL A   1      40.044  32.598  35.892  1.00  0.00     0.037 A 
BRANCH  60  74
ATOM     74  C   UNL A   1      44.423  28.303  35.108  1.00  0.00     0.058 A 
ATOM     75  C   UNL A   1      45.747  28.751  34.978  1.00  0.00     0.135 A 
ATOM     76  C   UNL A   1      44.201  27.119  35.829  1.00  0.00     0.135 A 
ATOM     77  F   UNL A   1      46.019  29.865  34.280  1.00  0.00    -0.206 F 
ATOM     78  C   UNL A   1      46.812  28.040  35.523  1.00  0.00     0.059 A 
ATOM     79  C   UNL A   1      45.248  26.406  36.405  1.00  0.00     0.059 A 
ATOM     80  F   UNL A   1      42.954  26.642  35.979  1.00  0.00    -0.206 F 
ATOM     81  C   UNL A   1      46.551  26.867  36.233  1.00  0.00     0.060 A 
BRANCH  81  82
ATOM     82  S   UNL A   1      47.943  25.956  36.935  1.00  0.00     0.124 S 
ATOM     83  O   UNL A   1      48.246  26.755  38.119  1.00  0.00    -0.237 OA
ATOM     84  O   UNL A   1      47.360  24.643  37.190  1.00  0.00    -0.237 OA
ATOM     85  O   UNL A   1      48.947  25.999  35.877  1.00  0.00    -0.744 OA
ENDBRANCH  81  82
ENDBRANCH  60  74
BRANCH  61  86
ATOM     86  C   UNL A   1      36.705  33.015  30.849  1.00  0.00     0.058 A 
ATOM     87  C   UNL A   1      36.878  34.007  29.875  1.00  0.00     0.135 A 
ATOM     88  C   UNL A   1      35.392  32.702  31.237  1.00  0.00     0.135 A 
ATOM     89  F   UNL A   1      38.114  34.351  29.480  1.00  0.00    -0.206 F 
ATOM     90  C   UNL A   1      35.795  34.679  29.316  1.00  0.00     0.059 A 
ATOM     91  C   UNL A   1      34.292  33.341  30.675  1.00  0.00     0.059 A 
ATOM     92  F   UNL A   1      35.172  31.754  32.160  1.00  0.00    -0.206 F 
ATOM     93  C   UNL A   1      34.504  34.336  29.722  1.00  0.00     0.060 A 
BRANCH  93  94
ATOM     94  S   UNL A   1      33.102  35.182  28.959  1.00  0.00     0.124 S 
ATOM     95  O   UNL A   1      32.233  35.405  30.108  1.00  0.00    -0.237 OA
ATOM     96  O   UNL A   1      33.732  36.370  28.393  1.00  0.00    -0.237 OA
ATOM     97  O   UNL A   1      32.619  34.213  27.980  1.00  0.00    -0.744 OA
ENDBRANCH  93  94
ENDBRANCH  61  86
BRANCH  73  98
ATOM     98  C   UNL A   1      39.803  33.485  37.083  1.00  0.00     0.058 A 
ATOM     99  C   UNL A   1      40.432  34.733  37.222  1.00  0.00     0.135 A 
ATOM    100  C   UNL A   1      38.896  33.095  38.083  1.00  0.00     0.135 A 
ATOM    101  F   UNL A   1      41.308  35.153  36.297  1.00  0.00    -0.206 F 
ATOM    102  C   UNL A   1      40.195  35.547  38.325  1.00  0.00     0.059 A 
ATOM    103  C   UNL A   1      38.623  33.906  39.180  1.00  0.00     0.059 A 
ATOM    104  F   UNL A   1      38.256  31.919  37.994  1.00  0.00    -0.206 F 
ATOM    105  C   UNL A   1      39.290  35.124  39.300  1.00  0.00     0.060 A 
BRANCH 105 106
ATOM    106  S   UNL A   1      38.980  36.195  40.720  1.00  0.00     0.124 S 
ATOM    107  O   UNL A   1      37.817  35.554  41.324  1.00  0.00    -0.237 OA
ATOM    108  O   UNL A   1      40.226  36.087  41.473  1.00  0.00    -0.237 OA
ATOM    109  O   UNL A   1      38.733  37.500  40.114  1.00  0.00    -0.744 OA
ENDBRANCH 105 106
ENDBRANCH  73  98
ENDBRANCH  47  48
ENDBRANCH  40  42
ENDBRANCH  39  40
ENDBRANCH  38  39
ENDBRANCH  37  38
ENDBRANCH  36  37
ENDBRANCH  35  36
ENDBRANCH   1  35
TORSDOF 25
ENDMDL
MODEL 2
REMARK VINA RESULT:      -9.1      5.029      6.073
REMARK SMILES COc1cc(NC(=O)C2CCN(S(=O)(=O)c3cccs3)CC2)c(Cl)cc1C(=O)OCCOCCOCCOC(=O)c1ccc(-c2c3nc(c(-c4c(F)cc(S(=O)(=O)[O-])cc4F)c4ccc([nH]4)c(-c4c(F)cc(S(=O)(=O)[O-])cc4F)c4nc(c(-c5c(F)cc(S(=O)(=O)[O-])cc5F)c5ccc2[nH]5)C=C4)C=C3)cc1
REMARK SMILES IDX 33 1 32 2 31 3 30 4 29 5 27 6 28 7 26 8 3 9 4 10 5 11 25 12
REMARK SMILES IDX 23 13 24 14 2 15 1 16 6 17 7 18 8 20 9 21 10 22 22 23 11 24
REMARK SMILES IDX 21 25 12 26 13 27 14 28 15 29 16 30 17 31 20 32 18 33 19 34
REMARK SMILES IDX 34 35 35 36 36 37 37 38 38 39 39 40 40 41 41 42 42 43 106 44
REMARK SMILES IDX 43 45 105 46 44 47 45 48 46 49 99 50 47 51 104 52 98 53
REMARK SMILES IDX 100 54 48 55 103 56 97 57 96 58 49 60 83 61 62 62 82 63
REMARK SMILES IDX 63 64 66 65 81 66 101 67 64 68 65 69 80 71 102 72 67 73
REMARK SMILES IDX 50 74 51 75 60 76 52 77 53 78 59 79 61 80 54 81 55 82 56 83
REMARK SMILES IDX 57 84 58 85 84 86 85 87 94 88 86 89 87 90 93 91 95 92 88 93
REMARK SMILES IDX 89 94 90 95 91 96 92 97 68 98 69 99 78 100 70 101 71 102
REMARK SMILES IDX 77 103 79 104 72 105 73 106 74 107 75 108 76 109
REMARK H PARENT 6 19 100 59 66 70
REMARK Flexibility Score: inf
ROOT
ATOM      1  C   UNL A   1      38.513  19.568  25.000  1.00  0.00     0.188 C 
ENDROOT
BRANCH   1   2
ATOM      2  O   UNL A   1      37.410  20.265  24.452  1.00  0.00    -0.376 OA
BRANCH   2   3
ATOM      3  C   UNL A   1      36.372  20.722  25.314  1.00  0.00     0.202 C 
BRANCH   3   4
ATOM      4  C   UNL A   1      35.013  20.021  25.305  1.00  0.00     0.261 C 
BRANCH   4   5
ATOM      5  O   UNL A   1      34.187  20.532  24.253  1.00  0.00    -0.460 OA
BRANCH   5   6
ATOM      6  C   UNL A   1      32.982  21.015  24.631  1.00  0.00     0.342 C 
ATOM      7  O   UNL A   1      31.999  20.360  24.935  1.00  0.00    -0.246 OA
BRANCH   6   8
ATOM      8  C   UNL A   1      33.055  22.481  24.828  1.00  0.00     0.103 A 
ATOM      9  C   UNL A   1      33.307  23.082  26.072  1.00  0.00     0.135 A 
ATOM     10  C   UNL A   1      33.403  24.476  26.139  1.00  0.00     0.075 A 
ATOM     11  C   UNL A   1      33.429  25.241  24.971  1.00  0.00     0.063 A 
ATOM     12  C   UNL A   1      32.827  23.277  23.695  1.00  0.00     0.042 A 
ATOM     13  C   UNL A   1      33.007  24.655  23.768  1.00  0.00     0.065 A 
ATOM     14  Cl  UNL A   1      32.836  25.588  22.326  1.00  0.00    -0.082 Cl
BRANCH   9  15
ATOM     15  O   UNL A   1      33.540  22.264  27.145  1.00  0.00    -0.496 OA
ATOM     16  C   UNL A   1      32.608  22.307  28.220  1.00  0.00     0.278 C 
ENDBRANCH   9  15
BRANCH  11  17
ATOM     17  N   UNL A   1      34.020  26.523  24.925  1.00  0.00    -0.324 N 
ATOM     18  C   UNL A   1      33.591  27.729  25.425  1.00  0.00     0.227 C 
ATOM     19  H   UNL A   1      34.884  26.558  24.456  1.00  0.00     0.169 HD
ATOM     20  O   UNL A   1      34.367  28.685  25.334  1.00  0.00    -0.274 OA
BRANCH  18  21
ATOM     21  C   UNL A   1      32.221  27.907  26.104  1.00  0.00     0.081 C 
ATOM     22  C   UNL A   1      31.185  26.858  25.640  1.00  0.00     0.030 C 
ATOM     23  C   UNL A   1      31.601  29.297  25.936  1.00  0.00     0.030 C 
ATOM     24  C   UNL A   1      30.539  27.175  24.285  1.00  0.00     0.103 C 
ATOM     25  C   UNL A   1      31.084  29.532  24.536  1.00  0.00     0.103 C 
ATOM     26  N   UNL A   1      29.999  28.571  24.280  1.00  0.00    -0.197 NA
BRANCH  26  27
ATOM     27  S   UNL A   1      29.073  28.933  22.878  1.00  0.00     0.252 S 
ATOM     28  O   UNL A   1      29.881  28.585  21.729  1.00  0.00    -0.206 OA
ATOM     29  O   UNL A   1      27.748  28.379  23.065  1.00  0.00    -0.206 OA
BRANCH  27  30
ATOM     30  C   UNL A   1      28.905  30.716  22.765  1.00  0.00     0.135 A 
ATOM     31  C   UNL A   1      29.171  31.715  23.690  1.00  0.00     0.033 A 
ATOM     32  S   UNL A   1      28.319  31.375  21.300  1.00  0.00    -0.131 S 
ATOM     33  C   UNL A   1      28.857  33.015  23.204  1.00  0.00     0.013 A 
ATOM     34  C   UNL A   1      28.411  32.977  21.903  1.00  0.00     0.066 A 
ENDBRANCH  27  30
ENDBRANCH  26  27
ENDBRANCH  18  21
ENDBRANCH  11  17
ENDBRANCH   6   8
ENDBRANCH   5   6
ENDBRANCH   4   5
ENDBRANCH   3   4
ENDBRANCH   2   3
ENDBRANCH   1   2
BRANCH   1  35
ATOM     35  C   UNL A   1      39.634  20.345  25.720  1.00  0.00     0.188 C 
BRANCH  35  36
ATOM     36  O   UNL A   1      40.856  19.734  26.067  1.00  0.00    -0.376 OA
BRANCH  36  37
ATOM     37  C   UNL A   1      42.051  20.495  26.090  1.00  0.00     0.202 C 
BRANCH  37  38
ATOM     38  C   UNL A   1      42.200  21.839  26.822  1.00  0.00     0.261 C 
BRANCH  38  39
ATOM     39  O   UNL A   1      41.788  23.012  26.116  1.00  0.00    -0.460 OA
BRANCH  39  40
ATOM     40  C   UNL A   1      40.892  23.786  26.782  1.00  0.00     0.338 C 
ATOM     41  O   UNL A   1      39.784  23.460  27.170  1.00  0.00    -0.246 OA
BRANCH  40  42
ATOM     42  C   UNL A   1      41.538  25.055  27.166  1.00  0.00     0.060 A 
ATOM     43  C   UNL A   1      42.138  25.139  28.431  1.00  0.00     0.016 A 
ATOM     44  C   UNL A   1      41.512  26.160  26.315  1.00  0.00     0.016 A 
ATOM     45  C   UNL A   1      42.686  26.345  28.863  1.00  0.00     0.010 A 
ATOM     46  C   UNL A   1      42.041  27.374  26.759  1.00  0.00     0.010 A 
ATOM     47  C   UNL A   1      42.599  27.480  28.047  1.00  0.00    -0.014 A 
BRANCH  47  48
ATOM     48  C   UNL A   1      42.917  28.813  28.612  1.00  0.00     0.031 A 
ATOM     49  C   UNL A   1      44.343  29.290  28.564  1.00  0.00     0.074 A 
ATOM     50  C   UNL A   1      41.957  29.593  29.140  1.00  0.00     0.049 A 
ATOM     51  N   UNL A   1      44.866  30.393  29.030  1.00  0.00    -0.248 NA
ATOM     52  C   UNL A   1      45.309  28.398  27.902  1.00  0.00     0.031 C 
ATOM     53  C   UNL A   1      40.536  29.258  29.208  1.00  0.00     0.029 A 
ATOM     54  N   UNL A   1      42.042  30.829  29.730  1.00  0.00    -0.354 N 
ATOM     55  C   UNL A   1      46.221  30.326  28.726  1.00  0.00     0.074 A 
ATOM     56  C   UNL A   1      46.444  29.062  28.059  1.00  0.00     0.031 C 
ATOM     57  C   UNL A   1      39.882  30.261  29.822  1.00  0.00     0.029 A 
ATOM     58  C   UNL A   1      40.841  31.293  30.213  1.00  0.00     0.049 A 
ATOM     59  H   UNL A   1      42.883  31.336  29.801  1.00  0.00     0.167 HD
ATOM     60  C   UNL A   1      47.189  31.239  28.973  1.00  0.00     0.037 A 
ATOM     61  C   UNL A   1      40.557  32.413  30.907  1.00  0.00     0.037 A 
ATOM     62  C   UNL A   1      46.965  32.493  29.642  1.00  0.00     0.049 A 
ATOM     63  C   UNL A   1      41.663  33.388  31.224  1.00  0.00     0.074 A 
ATOM     64  C   UNL A   1      47.879  33.490  29.933  1.00  0.00     0.029 A 
ATOM     65  N   UNL A   1      45.738  32.921  30.131  1.00  0.00    -0.354 N 
ATOM     66  N   UNL A   1      42.937  33.322  30.915  1.00  0.00    -0.248 NA
ATOM     67  C   UNL A   1      41.292  34.593  31.979  1.00  0.00     0.031 C 
ATOM     68  C   UNL A   1      47.215  34.500  30.638  1.00  0.00     0.029 A 
ATOM     69  C   UNL A   1      45.876  34.158  30.738  1.00  0.00     0.049 A 
ATOM     70  H   UNL A   1      44.895  32.419  30.058  1.00  0.00     0.167 HD
ATOM     71  C   UNL A   1      43.510  34.492  31.405  1.00  0.00     0.074 A 
ATOM     72  C   UNL A   1      42.443  35.250  32.026  1.00  0.00     0.031 C 
ATOM     73  C   UNL A   1      44.801  34.907  31.342  1.00  0.00     0.037 A 
BRANCH  60  74
ATOM     74  C   UNL A   1      48.589  30.899  28.541  1.00  0.00     0.058 A 
ATOM     75  C   UNL A   1      49.115  31.348  27.320  1.00  0.00     0.135 A 
ATOM     76  C   UNL A   1      49.421  30.132  29.371  1.00  0.00     0.135 A 
ATOM     77  F   UNL A   1      48.355  32.067  26.479  1.00  0.00    -0.206 F 
ATOM     78  C   UNL A   1      50.411  31.028  26.926  1.00  0.00     0.059 A 
ATOM     79  C   UNL A   1      50.729  29.822  29.009  1.00  0.00     0.059 A 
ATOM     80  F   UNL A   1      48.966  29.672  30.548  1.00  0.00    -0.206 F 
ATOM     81  C   UNL A   1      51.209  30.262  27.777  1.00  0.00     0.060 A 
BRANCH  81  82
ATOM     82  S   UNL A   1      52.888  29.856  27.252  1.00  0.00     0.124 S 
ATOM     83  O   UNL A   1      53.361  31.149  26.767  1.00  0.00    -0.237 OA
ATOM     84  O   UNL A   1      53.497  29.384  28.492  1.00  0.00    -0.237 OA
ATOM     85  O   UNL A   1      52.688  28.837  26.227  1.00  0.00    -0.744 OA
ENDBRANCH  81  82
ENDBRANCH  60  74
BRANCH  61  86
ATOM     86  C   UNL A   1      39.164  32.678  31.356  1.00  0.00     0.058 A 
ATOM     87  C   UNL A   1      38.717  32.259  32.617  1.00  0.00     0.135 A 
ATOM     88  C   UNL A   1      38.249  33.347  30.528  1.00  0.00     0.135 A 
ATOM     89  F   UNL A   1      39.551  31.605  33.440  1.00  0.00    -0.206 F 
ATOM     90  C   UNL A   1      37.409  32.476  33.037  1.00  0.00     0.059 A 
ATOM     91  C   UNL A   1      36.943  33.600  30.934  1.00  0.00     0.059 A 
ATOM     92  F   UNL A   1      38.629  33.777  29.315  1.00  0.00    -0.206 F 
ATOM     93  C   UNL A   1      36.529  33.151  32.188  1.00  0.00     0.060 A 
BRANCH  93  94
ATOM     94  S   UNL A   1      34.845  33.469  32.760  1.00  0.00     0.124 S 
ATOM     95  O   UNL A   1      34.694  34.886  32.455  1.00  0.00    -0.237 OA
ATOM     96  O   UNL A   1      34.064  32.551  31.935  1.00  0.00    -0.237 OA
ATOM     97  O   UNL A   1      34.902  33.129  34.178  1.00  0.00    -0.744 OA
ENDBRANCH  93  94
ENDBRANCH  61  86
BRANCH  73  98
ATOM     98  C   UNL A   1      45.125  36.262  31.909  1.00  0.00     0.058 A 
ATOM     99  C   UNL A   1      45.016  37.435  31.144  1.00  0.00     0.135 A 
ATOM    100  C   UNL A   1      45.511  36.393  33.254  1.00  0.00     0.135 A 
ATOM    101  F   UNL A   1      44.654  37.367  29.854  1.00  0.00    -0.206 F 
ATOM    102  C   UNL A   1      45.312  38.683  31.682  1.00  0.00     0.059 A 
ATOM    103  C   UNL A   1      45.782  37.633  33.821  1.00  0.00     0.059 A 
ATOM    104  F   UNL A   1      45.615  35.306  34.035  1.00  0.00    -0.206 F 
ATOM    105  C   UNL A   1      45.696  38.772  33.022  1.00  0.00     0.060 A 
BRANCH 105 106
ATOM    106  S   UNL A   1      46.062  40.399  33.714  1.00  0.00     0.124 S 
ATOM    107  O   UNL A   1      47.275  40.128  34.477  1.00  0.00    -0.237 OA
ATOM    108  O   UNL A   1      46.234  41.218  32.517  1.00  0.00    -0.237 OA
ATOM    109  O   UNL A   1      44.875  40.705  34.508  1.00  0.00    -0.744 OA
ENDBRANCH 105 106
ENDBRANCH  73  98
ENDBRANCH  47  48
ENDBRANCH  40  42
ENDBRANCH  39  40
ENDBRANCH  38  39
ENDBRANCH  37  38
ENDBRANCH  36  37
ENDBRANCH  35  36
ENDBRANCH   1  35
TORSDOF 25
ENDMDL
MODEL 3
REMARK VINA RESULT:      -9.1      6.611     15.166
REMARK SMILES COc1cc(NC(=O)C2CCN(S(=O)(=O)c3cccs3)CC2)c(Cl)cc1C(=O)OCCOCCOCCOC(=O)c1ccc(-c2c3nc(c(-c4c(F)cc(S(=O)(=O)[O-])cc4F)c4ccc([nH]4)c(-c4c(F)cc(S(=O)(=O)[O-])cc4F)c4nc(c(-c5c(F)cc(S(=O)(=O)[O-])cc5F)c5ccc2[nH]5)C=C4)C=C3)cc1
REMARK SMILES IDX 33 1 32 2 31 3 30 4 29 5 27 6 28 7 26 8 3 9 4 10 5 11 25 12
REMARK SMILES IDX 23 13 24 14 2 15 1 16 6 17 7 18 8 20 9 21 10 22 22 23 11 24
REMARK SMILES IDX 21 25 12 26 13 27 14 28 15 29 16 30 17 31 20 32 18 33 19 34
REMARK SMILES IDX 34 35 35 36 36 37 37 38 38 39 39 40 40 41 41 42 42 43 106 44
REMARK SMILES IDX 43 45 105 46 44 47 45 48 46 49 99 50 47 51 104 52 98 53
REMARK SMILES IDX 100 54 48 55 103 56 97 57 96 58 49 60 83 61 62 62 82 63
REMARK SMILES IDX 63 64 66 65 81 66 101 67 64 68 65 69 80 71 102 72 67 73
REMARK SMILES IDX 50 74 51 75 60 76 52 77 53 78 59 79 61 80 54 81 55 82 56 83
REMARK SMILES IDX 57 84 58 85 84 86 85 87 94 88 86 89 87 90 93 91 95 92 88 93
REMARK SMILES IDX 89 94 90 95 91 96 92 97 68 98 69 99 78 100 70 101 71 102
REMARK SMILES IDX 77 103 79 104 72 105 73 106 74 107 75 108 76 109
REMARK H PARENT 6 19 100 59 66 70
REMARK Flexibility Score: inf
ROOT
ATOM      1  C   UNL A   1      34.995  33.953  34.009  1.00  0.00     0.188 C 
ENDROOT
BRANCH   1   2
ATOM      2  O   UNL A   1      35.725  32.740  34.044  1.00  0.00    -0.376 OA
BRANCH   2   3
ATOM      3  C   UNL A   1      36.981  32.698  34.713  1.00  0.00     0.202 C 
BRANCH   3   4
ATOM      4  C   UNL A   1      37.762  31.385  34.783  1.00  0.00     0.261 C 
BRANCH   4   5
ATOM      5  O   UNL A   1      38.498  31.297  36.008  1.00  0.00    -0.460 OA
BRANCH   5   6
ATOM      6  C   UNL A   1      39.755  30.811  35.909  1.00  0.00     0.342 C 
ATOM      7  O   UNL A   1      40.076  29.639  35.809  1.00  0.00    -0.246 OA
BRANCH   6   8
ATOM      8  C   UNL A   1      40.721  31.920  35.731  1.00  0.00     0.103 A 
ATOM      9  C   UNL A   1      41.075  32.809  36.760  1.00  0.00     0.135 A 
ATOM     10  C   UNL A   1      42.035  33.793  36.499  1.00  0.00     0.075 A 
ATOM     11  C   UNL A   1      42.756  33.778  35.303  1.00  0.00     0.063 A 
ATOM     12  C   UNL A   1      41.268  32.074  34.448  1.00  0.00     0.042 A 
ATOM     13  C   UNL A   1      42.279  33.006  34.233  1.00  0.00     0.065 A 
ATOM     14  Cl  UNL A   1      43.012  33.085  32.673  1.00  0.00    -0.082 Cl
BRANCH   9  15
ATOM     15  O   UNL A   1      40.528  32.608  37.998  1.00  0.00    -0.496 OA
ATOM     16  C   UNL A   1      41.170  33.223  39.110  1.00  0.00     0.278 C 
ENDBRANCH   9  15
BRANCH  11  17
ATOM     17  N   UNL A   1      44.031  34.375  35.188  1.00  0.00    -0.324 N 
ATOM     18  C   UNL A   1      44.415  35.581  34.652  1.00  0.00     0.227 C 
ATOM     19  H   UNL A   1      44.769  33.836  35.552  1.00  0.00     0.169 HD
ATOM     20  O   UNL A   1      45.599  35.904  34.781  1.00  0.00    -0.274 OA
BRANCH  18  21
ATOM     21  C   UNL A   1      43.428  36.526  33.944  1.00  0.00     0.081 C 
ATOM     22  C   UNL A   1      44.081  37.309  32.782  1.00  0.00     0.030 C 
ATOM     23  C   UNL A   1      42.734  37.533  34.867  1.00  0.00     0.030 C 
ATOM     24  C   UNL A   1      44.902  38.525  33.233  1.00  0.00     0.103 C 
ATOM     25  C   UNL A   1      43.663  38.633  35.323  1.00  0.00     0.103 C 
ATOM     26  N   UNL A   1      44.088  39.396  34.138  1.00  0.00    -0.197 NA
BRANCH  26  27
ATOM     27  S   UNL A   1      44.858  40.885  34.517  1.00  0.00     0.252 S 
ATOM     28  O   UNL A   1      43.996  41.590  35.441  1.00  0.00    -0.206 OA
ATOM     29  O   UNL A   1      46.240  40.600  34.841  1.00  0.00    -0.206 OA
BRANCH  27  30
ATOM     30  C   UNL A   1      44.845  41.911  33.045  1.00  0.00     0.135 A 
ATOM     31  C   UNL A   1      45.885  42.420  32.282  1.00  0.00     0.033 A 
ATOM     32  S   UNL A   1      43.330  42.390  32.414  1.00  0.00    -0.131 S 
ATOM     33  C   UNL A   1      45.434  43.232  31.204  1.00  0.00     0.013 A 
ATOM     34  C   UNL A   1      44.061  43.276  31.142  1.00  0.00     0.066 A 
ENDBRANCH  27  30
ENDBRANCH  26  27
ENDBRANCH  18  21
ENDBRANCH  11  17
ENDBRANCH   6   8
ENDBRANCH   5   6
ENDBRANCH   4   5
ENDBRANCH   3   4
ENDBRANCH   2   3
ENDBRANCH   1   2
BRANCH   1  35
ATOM     35  C   UNL A   1      35.466  35.108  33.102  1.00  0.00     0.188 C 
BRANCH  35  36
ATOM     36  O   UNL A   1      35.385  35.028  31.697  1.00  0.00    -0.376 OA
BRANCH  36  37
ATOM     37  C   UNL A   1      34.649  33.985  31.084  1.00  0.00     0.202 C 
BRANCH  37  38
ATOM     38  C   UNL A   1      35.249  32.984  30.083  1.00  0.00     0.261 C 
BRANCH  38  39
ATOM     39  O   UNL A   1      36.592  32.553  30.318  1.00  0.00    -0.460 OA
BRANCH  39  40
ATOM     40  C   UNL A   1      36.699  31.374  30.983  1.00  0.00     0.338 C 
ATOM     41  O   UNL A   1      35.896  30.895  31.765  1.00  0.00    -0.246 OA
BRANCH  40  42
ATOM     42  C   UNL A   1      37.859  30.627  30.461  1.00  0.00     0.060 A 
ATOM     43  C   UNL A   1      38.781  30.105  31.380  1.00  0.00     0.016 A 
ATOM     44  C   UNL A   1      38.062  30.484  29.089  1.00  0.00     0.016 A 
ATOM     45  C   UNL A   1      39.932  29.465  30.924  1.00  0.00     0.010 A 
ATOM     46  C   UNL A   1      39.227  29.863  28.634  1.00  0.00     0.010 A 
ATOM     47  C   UNL A   1      40.183  29.382  29.549  1.00  0.00    -0.014 A 
BRANCH  47  48
ATOM     48  C   UNL A   1      41.523  28.966  29.073  1.00  0.00     0.031 A 
ATOM     49  C   UNL A   1      42.618  29.998  29.024  1.00  0.00     0.074 A 
ATOM     50  C   UNL A   1      41.770  27.695  28.708  1.00  0.00     0.049 A 
ATOM     51  N   UNL A   1      43.850  29.882  28.606  1.00  0.00    -0.248 NA
ATOM     52  C   UNL A   1      42.271  31.343  29.511  1.00  0.00     0.031 C 
ATOM     53  C   UNL A   1      40.803  26.600  28.748  1.00  0.00     0.029 A 
ATOM     54  N   UNL A   1      42.915  27.118  28.221  1.00  0.00    -0.354 N 
ATOM     55  C   UNL A   1      44.425  31.136  28.772  1.00  0.00     0.074 A 
ATOM     56  C   UNL A   1      43.399  32.006  29.304  1.00  0.00     0.031 C 
ATOM     57  C   UNL A   1      41.393  25.482  28.289  1.00  0.00     0.029 A 
ATOM     58  C   UNL A   1      42.769  25.790  27.897  1.00  0.00     0.049 A 
ATOM     59  H   UNL A   1      43.763  27.608  28.113  1.00  0.00     0.167 HD
ATOM     60  C   UNL A   1      45.695  31.526  28.512  1.00  0.00     0.037 A 
ATOM     61  C   UNL A   1      43.641  24.931  27.332  1.00  0.00     0.037 A 
ATOM     62  C   UNL A   1      46.712  30.659  27.977  1.00  0.00     0.049 A 
ATOM     63  C   UNL A   1      45.033  25.404  26.995  1.00  0.00     0.074 A 
ATOM     64  C   UNL A   1      48.031  30.957  27.686  1.00  0.00     0.029 A 
ATOM     65  N   UNL A   1      46.521  29.325  27.647  1.00  0.00    -0.354 N 
ATOM     66  N   UNL A   1      45.569  26.588  27.173  1.00  0.00    -0.248 NA
ATOM     67  C   UNL A   1      45.939  24.421  26.385  1.00  0.00     0.031 C 
ATOM     68  C   UNL A   1      48.626  29.816  27.137  1.00  0.00     0.029 A 
ATOM     69  C   UNL A   1      47.693  28.791  27.138  1.00  0.00     0.049 A 
ATOM     70  H   UNL A   1      45.677  28.831  27.758  1.00  0.00     0.167 HD
ATOM     71  C   UNL A   1      46.886  26.481  26.733  1.00  0.00     0.074 A 
ATOM     72  C   UNL A   1      47.064  25.116  26.284  1.00  0.00     0.031 C 
ATOM     73  C   UNL A   1      47.860  27.425  26.706  1.00  0.00     0.037 A 
BRANCH  60  74
ATOM     74  C   UNL A   1      46.046  32.964  28.776  1.00  0.00     0.058 A 
ATOM     75  C   UNL A   1      45.989  33.937  27.767  1.00  0.00     0.135 A 
ATOM     76  C   UNL A   1      46.423  33.377  30.064  1.00  0.00     0.135 A 
ATOM     77  F   UNL A   1      45.656  33.592  26.513  1.00  0.00    -0.206 F 
ATOM     78  C   UNL A   1      46.317  35.265  28.018  1.00  0.00     0.059 A 
ATOM     79  C   UNL A   1      46.729  34.705  30.345  1.00  0.00     0.059 A 
ATOM     80  F   UNL A   1      46.499  32.487  31.066  1.00  0.00    -0.206 F 
ATOM     81  C   UNL A   1      46.688  35.639  29.311  1.00  0.00     0.060 A 
BRANCH  81  82
ATOM     82  S   UNL A   1      47.109  37.367  29.623  1.00  0.00     0.124 S 
ATOM     83  O   UNL A   1      47.250  37.374  31.076  1.00  0.00    -0.237 OA
ATOM     84  O   UNL A   1      48.346  37.528  28.866  1.00  0.00    -0.237 OA
ATOM     85  O   UNL A   1      45.958  38.098  29.101  1.00  0.00    -0.744 OA
ENDBRANCH  81  82
ENDBRANCH  60  74
BRANCH  61  86
ATOM     86  C   UNL A   1      43.227  23.532  27.043  1.00  0.00     0.058 A 
ATOM     87  C   UNL A   1      43.196  22.562  28.055  1.00  0.00     0.135 A 
ATOM     88  C   UNL A   1      42.865  23.135  25.746  1.00  0.00     0.135 A 
ATOM     89  F   UNL A   1      43.546  22.889  29.309  1.00  0.00    -0.206 F 
ATOM     90  C   UNL A   1      42.838  21.243  27.791  1.00  0.00     0.059 A 
ATOM     91  C   UNL A   1      42.478  21.829  25.462  1.00  0.00     0.059 A 
ATOM     92  F   UNL A   1      42.869  24.027  24.744  1.00  0.00    -0.206 F 
ATOM     93  C   UNL A   1      42.478  20.887  26.491  1.00  0.00     0.060 A 
BRANCH  93  94
ATOM     94  S   UNL A   1      41.970  19.184  26.166  1.00  0.00     0.124 S 
ATOM     95  O   UNL A   1      42.777  18.855  24.997  1.00  0.00    -0.237 OA
ATOM     96  O   UNL A   1      42.342  18.513  27.408  1.00  0.00    -0.237 OA
ATOM     97  O   UNL A   1      40.535  19.301  25.932  1.00  0.00    -0.744 OA
ENDBRANCH  93  94
ENDBRANCH  61  86
BRANCH  73  98
ATOM     98  C   UNL A   1      49.224  27.004  26.229  1.00  0.00     0.058 A 
ATOM     99  C   UNL A   1      49.608  27.115  24.883  1.00  0.00     0.135 A 
ATOM    100  C   UNL A   1      50.174  26.518  27.143  1.00  0.00     0.135 A 
ATOM    101  F   UNL A   1      48.739  27.570  23.968  1.00  0.00    -0.206 F 
ATOM    102  C   UNL A   1      50.875  26.728  24.455  1.00  0.00     0.059 A 
ATOM    103  C   UNL A   1      51.455  26.153  26.743  1.00  0.00     0.059 A 
ATOM    104  F   UNL A   1      49.864  26.405  28.444  1.00  0.00    -0.206 F 
ATOM    105  C   UNL A   1      51.791  26.246  25.393  1.00  0.00     0.060 A 
BRANCH 105 106
ATOM    106  S   UNL A   1      53.436  25.762  24.829  1.00  0.00     0.124 S 
ATOM    107  O   UNL A   1      53.312  25.926  23.385  1.00  0.00    -0.237 OA
ATOM    108  O   UNL A   1      54.297  26.727  25.506  1.00  0.00    -0.237 OA
ATOM    109  O   UNL A   1      53.563  24.384  25.295  1.00  0.00    -0.744 OA
ENDBRANCH 105 106
ENDBRANCH  73  98
ENDBRANCH  47  48
ENDBRANCH  40  42
ENDBRANCH  39  40
ENDBRANCH  38  39
ENDBRANCH  37  38
ENDBRANCH  36  37
ENDBRANCH  35  36
ENDBRANCH   1  35
TORSDOF 25
ENDMDL
