MODEL 1
REMARK VINA RESULT:     -11.9      0.000      0.000
REMARK SMILES CC(C)n1c2c(c3ccccc31)[C@@H](c1ccccc1)N(CC(=O)OCCOCCOCCOC(=O)c1ccc(-c3c4nc(c(-c5c(F)cc(S(=O)(=O)[O-])cc5F)c5ccc([nH]5)c(-c5c(F)cc(S(=O)(=O)[O-])cc5F)c5nc(c(-c6c(F)cc(S(=O)(=O)[O-])cc6F)c6ccc3[nH]6)C=C5)C=C4)cc1)C2=O
REMARK SMILES IDX 29 1 28 2 27 3 26 4 25 5 24 6 22 7 23 8 21 9 20 10 4 11 5 12
REMARK SMILES IDX 12 13 6 14 102 15 7 16 11 17 13 18 103 19 8 20 10 21 9 22
REMARK SMILES IDX 2 23 1 24 3 25 14 26 15 27 19 28 16 29 18 30 17 31 30 32
REMARK SMILES IDX 31 33 32 34 33 35 34 36 35 37 36 38 37 39 101 40 38 41
REMARK SMILES IDX 100 42 39 43 40 44 41 45 94 46 42 47 99 48 93 49 95 50 43 51
REMARK SMILES IDX 98 52 92 53 91 54 44 56 78 57 57 58 77 59 58 60 61 61 76 62
REMARK SMILES IDX 96 63 59 64 60 65 75 67 97 68 62 69 45 70 46 71 55 72 47 73
REMARK SMILES IDX 48 74 54 75 56 76 49 77 50 78 51 79 52 80 53 81 79 82 80 83
REMARK SMILES IDX 89 84 81 85 82 86 88 87 90 88 83 89 84 90 85 91 86 92 87 93
REMARK SMILES IDX 63 94 64 95 73 96 65 97 66 98 72 99 74 100 67 101 68 102
REMARK SMILES IDX 69 103 70 104 71 105
REMARK H PARENT 95 55 61 66
REMARK Flexibility Score: inf
ROOT
ATOM      1  C   UNL A   1      38.163  19.651  24.984  1.00  0.00     0.188 C 
ENDROOT
BRANCH   1   2
ATOM      2  C   UNL A   1      37.680  21.096  25.106  1.00  0.00     0.188 C 
BRANCH   2   3
ATOM      3  O   UNL A   1      36.551  21.467  24.351  1.00  0.00    -0.376 OA
BRANCH   3   4
ATOM      4  C   UNL A   1      35.672  22.432  24.915  1.00  0.00     0.202 C 
BRANCH   4   5
ATOM      5  C   UNL A   1      35.447  23.764  24.177  1.00  0.00     0.261 C 
BRANCH   5   6
ATOM      6  O   UNL A   1      35.011  23.600  22.792  1.00  0.00    -0.462 OA
BRANCH   6   7
ATOM      7  C   UNL A   1      33.677  23.796  22.593  1.00  0.00     0.325 C 
ATOM      8  O   UNL A   1      32.865  22.883  22.747  1.00  0.00    -0.250 OA
BRANCH   7   9
ATOM      9  C   UNL A   1      33.170  25.276  22.407  1.00  0.00     0.243 C 
BRANCH   9  10
ATOM     10  N   UNL A   1      32.405  26.136  23.274  1.00  0.00    -0.315 N 
ATOM     11  N   UNL A   1      30.577  29.096  23.951  1.00  0.00    -0.334 N 
ATOM     12  C   UNL A   1      31.205  27.915  23.754  1.00  0.00     0.114 A 
ATOM     13  C   UNL A   1      31.199  29.710  25.050  1.00  0.00     0.049 A 
ATOM     14  C   UNL A   1      31.942  27.613  24.866  1.00  0.00     0.018 A 
ATOM     15  C   UNL A   1      31.448  26.968  22.714  1.00  0.00     0.272 C 
ATOM     16  C   UNL A   1      32.066  28.772  25.638  1.00  0.00     0.006 A 
ATOM     17  C   UNL A   1      31.095  31.007  25.573  1.00  0.00     0.027 A 
ATOM     18  C   UNL A   1      32.570  26.280  24.749  1.00  0.00     0.150 C 
ATOM     19  O   UNL A   1      31.073  26.945  21.562  1.00  0.00    -0.267 OA
ATOM     20  C   UNL A   1      32.853  29.130  26.749  1.00  0.00     0.011 A 
ATOM     21  C   UNL A   1      31.881  31.340  26.685  1.00  0.00     0.002 A 
ATOM     22  C   UNL A   1      32.748  30.420  27.267  1.00  0.00     0.001 A 
BRANCH  11  23
ATOM     23  C   UNL A   1      29.458  29.651  23.194  1.00  0.00     0.082 C 
ATOM     24  C   UNL A   1      29.746  30.018  21.735  1.00  0.00     0.031 C 
ATOM     25  C   UNL A   1      28.279  28.671  23.202  1.00  0.00     0.031 C 
ENDBRANCH  11  23
BRANCH  18  26
ATOM     26  C   UNL A   1      31.782  25.347  25.702  1.00  0.00    -0.021 A 
ATOM     27  C   UNL A   1      30.405  25.495  25.940  1.00  0.00     0.006 A 
ATOM     28  C   UNL A   1      32.361  24.141  26.178  1.00  0.00     0.006 A 
ATOM     29  C   UNL A   1      29.638  24.444  26.495  1.00  0.00     0.000 A 
ATOM     30  C   UNL A   1      31.608  23.108  26.754  1.00  0.00     0.000 A 
ATOM     31  C   UNL A   1      30.234  23.241  26.871  1.00  0.00     0.000 A 
ENDBRANCH  18  26
ENDBRANCH   9  10
ENDBRANCH   7   9
ENDBRANCH   6   7
ENDBRANCH   5   6
ENDBRANCH   4   5
ENDBRANCH   3   4
ENDBRANCH   2   3
ENDBRANCH   1   2
BRANCH   1  32
ATOM     32  O   UNL A   1      39.481  19.274  25.308  1.00  0.00    -0.376 OA
BRANCH  32  33
ATOM     33  C   UNL A   1      40.092  19.990  26.367  1.00  0.00     0.202 C 
BRANCH  33  34
ATOM     34  C   UNL A   1      41.538  20.514  26.179  1.00  0.00     0.261 C 
BRANCH  34  35
ATOM     35  O   UNL A   1      41.636  21.920  25.836  1.00  0.00    -0.460 OA
BRANCH  35  36
ATOM     36  C   UNL A   1      42.580  22.652  26.508  1.00  0.00     0.338 C 
ATOM     37  O   UNL A   1      43.786  22.560  26.348  1.00  0.00    -0.246 OA
BRANCH  36  38
ATOM     38  C   UNL A   1      41.921  23.850  27.145  1.00  0.00     0.060 A 
ATOM     39  C   UNL A   1      40.908  24.616  26.555  1.00  0.00     0.016 A 
ATOM     40  C   UNL A   1      42.578  24.391  28.247  1.00  0.00     0.016 A 
ATOM     41  C   UNL A   1      40.710  25.975  26.939  1.00  0.00     0.010 A 
ATOM     42  C   UNL A   1      42.337  25.721  28.629  1.00  0.00     0.010 A 
ATOM     43  C   UNL A   1      41.498  26.591  27.927  1.00  0.00    -0.014 A 
BRANCH  43  44
ATOM     44  C   UNL A   1      41.142  27.911  28.555  1.00  0.00     0.031 A 
ATOM     45  C   UNL A   1      42.173  28.886  28.184  1.00  0.00     0.074 A 
ATOM     46  C   UNL A   1      40.126  28.446  29.298  1.00  0.00     0.049 A 
ATOM     47  N   UNL A   1      43.211  29.119  28.909  1.00  0.00    -0.248 NA
ATOM     48  C   UNL A   1      42.200  29.475  26.847  1.00  0.00     0.031 C 
ATOM     49  C   UNL A   1      38.966  27.798  29.861  1.00  0.00     0.029 A 
ATOM     50  N   UNL A   1      39.908  29.743  29.741  1.00  0.00    -0.354 N 
ATOM     51  C   UNL A   1      43.889  30.114  28.247  1.00  0.00     0.074 A 
ATOM     52  C   UNL A   1      43.370  30.119  26.901  1.00  0.00     0.031 C 
ATOM     53  C   UNL A   1      38.019  28.667  30.283  1.00  0.00     0.029 A 
ATOM     54  C   UNL A   1      38.626  29.987  30.281  1.00  0.00     0.049 A 
ATOM     55  H   UNL A   1      40.597  30.444  29.682  1.00  0.00     0.167 HD
ATOM     56  C   UNL A   1      44.600  31.025  28.962  1.00  0.00     0.037 A 
ATOM     57  C   UNL A   1      38.162  30.989  31.086  1.00  0.00     0.037 A 
ATOM     58  C   UNL A   1      44.787  30.588  30.334  1.00  0.00     0.049 A 
ATOM     59  C   UNL A   1      39.332  31.545  31.788  1.00  0.00     0.074 A 
ATOM     60  C   UNL A   1      45.314  29.461  30.940  1.00  0.00     0.029 A 
ATOM     61  N   UNL A   1      44.051  31.218  31.308  1.00  0.00    -0.354 N 
ATOM     62  N   UNL A   1      39.976  30.925  32.736  1.00  0.00    -0.248 NA
ATOM     63  C   UNL A   1      40.043  32.627  31.137  1.00  0.00     0.031 C 
ATOM     64  C   UNL A   1      44.505  29.236  32.094  1.00  0.00     0.029 A 
ATOM     65  C   UNL A   1      43.569  30.266  32.170  1.00  0.00     0.049 A 
ATOM     66  H   UNL A   1      43.895  32.187  31.377  1.00  0.00     0.167 HD
ATOM     67  C   UNL A   1      41.304  31.222  32.492  1.00  0.00     0.074 A 
ATOM     68  C   UNL A   1      41.276  32.343  31.555  1.00  0.00     0.031 C 
ATOM     69  C   UNL A   1      42.297  30.363  32.859  1.00  0.00     0.037 A 
BRANCH  56  70
ATOM     70  C   UNL A   1      44.758  32.459  28.542  1.00  0.00     0.058 A 
ATOM     71  C   UNL A   1      46.056  32.943  28.294  1.00  0.00     0.135 A 
ATOM     72  C   UNL A   1      43.742  33.438  28.633  1.00  0.00     0.135 A 
ATOM     73  F   UNL A   1      47.095  32.099  28.200  1.00  0.00    -0.206 F 
ATOM     74  C   UNL A   1      46.337  34.304  28.227  1.00  0.00     0.059 A 
ATOM     75  C   UNL A   1      43.992  34.796  28.506  1.00  0.00     0.059 A 
ATOM     76  F   UNL A   1      42.476  33.142  28.949  1.00  0.00    -0.206 F 
ATOM     77  C   UNL A   1      45.298  35.221  28.347  1.00  0.00     0.060 A 
BRANCH  77  78
ATOM     78  S   UNL A   1      45.677  36.978  28.364  1.00  0.00     0.124 S 
ATOM     79  O   UNL A   1      47.057  36.968  28.832  1.00  0.00    -0.237 OA
ATOM     80  O   UNL A   1      45.474  37.339  26.965  1.00  0.00    -0.237 OA
ATOM     81  O   UNL A   1      44.695  37.522  29.296  1.00  0.00    -0.744 OA
ENDBRANCH  77  78
ENDBRANCH  56  70
BRANCH  57  82
ATOM     82  C   UNL A   1      36.850  31.713  31.050  1.00  0.00     0.058 A 
ATOM     83  C   UNL A   1      36.012  31.779  32.187  1.00  0.00     0.135 A 
ATOM     84  C   UNL A   1      36.523  32.594  30.003  1.00  0.00     0.135 A 
ATOM     85  F   UNL A   1      36.222  30.962  33.231  1.00  0.00    -0.206 F 
ATOM     86  C   UNL A   1      34.992  32.731  32.323  1.00  0.00     0.059 A 
ATOM     87  C   UNL A   1      35.506  33.549  30.114  1.00  0.00     0.059 A 
ATOM     88  F   UNL A   1      37.246  32.605  28.873  1.00  0.00    -0.206 F 
ATOM     89  C   UNL A   1      34.771  33.640  31.293  1.00  0.00     0.060 A 
BRANCH  89  90
ATOM     90  S   UNL A   1      33.622  35.018  31.556  1.00  0.00     0.124 S 
ATOM     91  O   UNL A   1      34.526  36.114  31.890  1.00  0.00    -0.237 OA
ATOM     92  O   UNL A   1      32.957  35.117  30.260  1.00  0.00    -0.237 OA
ATOM     93  O   UNL A   1      32.777  34.551  32.650  1.00  0.00    -0.744 OA
ENDBRANCH  89  90
ENDBRANCH  57  82
BRANCH  69  94
ATOM     94  C   UNL A   1      42.002  29.308  33.900  1.00  0.00     0.058 A 
ATOM     95  C   UNL A   1      41.528  28.011  33.635  1.00  0.00     0.135 A 
ATOM     96  C   UNL A   1      42.381  29.591  35.223  1.00  0.00     0.135 A 
ATOM     97  F   UNL A   1      41.211  27.633  32.389  1.00  0.00    -0.206 F 
ATOM     98  C   UNL A   1      41.433  27.044  34.643  1.00  0.00     0.059 A 
ATOM     99  C   UNL A   1      42.324  28.636  36.233  1.00  0.00     0.059 A 
ATOM    100  F   UNL A   1      42.876  30.801  35.535  1.00  0.00    -0.206 F 
ATOM    101  C   UNL A   1      41.848  27.362  35.938  1.00  0.00     0.060 A 
BRANCH 101 102
ATOM    102  S   UNL A   1      41.847  26.081  37.215  1.00  0.00     0.124 S 
ATOM    103  O   UNL A   1      42.211  24.887  36.461  1.00  0.00    -0.237 OA
ATOM    104  O   UNL A   1      42.852  26.570  38.155  1.00  0.00    -0.237 OA
ATOM    105  O   UNL A   1      40.475  26.103  37.720  1.00  0.00    -0.744 OA
ENDBRANCH 101 102
ENDBRANCH  69  94
ENDBRANCH  43  44
ENDBRANCH  36  38
ENDBRANCH  35  36
ENDBRANCH  34  35
ENDBRANCH  33  34
ENDBRANCH  32  33
ENDBRANCH   1  32
TORSDOF 23
ENDMDL
MODEL 2
REMARK VINA RESULT:     -11.4      1.603      2.984
REMARK SMILES CC(C)n1c2c(c3ccccc31)[C@@H](c1ccccc1)N(CC(=O)OCCOCCOCCOC(=O)c1ccc(-c3c4nc(c(-c5c(F)cc(S(=O)(=O)[O-])cc5F)c5ccc([nH]5)c(-c5c(F)cc(S(=O)(=O)[O-])cc5F)c5nc(c(-c6c(F)cc(S(=O)(=O)[O-])cc6F)c6ccc3[nH]6)C=C5)C=C4)cc1)C2=O
REMARK SMILES IDX 29 1 28 2 27 3 26 4 25 5 24 6 22 7 23 8 21 9 20 10 4 11 5 12
REMARK SMILES IDX 12 13 6 14 102 15 7 16 11 17 13 18 103 19 8 20 10 21 9 22
REMARK SMILES IDX 2 23 1 24 3 25 14 26 15 27 19 28 16 29 18 30 17 31 30 32
REMARK SMILES IDX 31 33 32 34 33 35 34 36 35 37 36 38 37 39 101 40 38 41
REMARK SMILES IDX 100 42 39 43 40 44 41 45 94 46 42 47 99 48 93 49 95 50 43 51
REMARK SMILES IDX 98 52 92 53 91 54 44 56 78 57 57 58 77 59 58 60 61 61 76 62
REMARK SMILES IDX 96 63 59 64 60 65 75 67 97 68 62 69 45 70 46 71 55 72 47 73
REMARK SMILES IDX 48 74 54 75 56 76 49 77 50 78 51 79 52 80 53 81 79 82 80 83
REMARK SMILES IDX 89 84 81 85 82 86 88 87 90 88 83 89 84 90 85 91 86 92 87 93
REMARK SMILES IDX 63 94 64 95 73 96 65 97 66 98 72 99 74 100 67 101 68 102
REMARK SMILES IDX 69 103 70 104 71 105
REMARK H PARENT 95 55 61 66
REMARK Flexibility Score: inf
ROOT
ATOM      1  C   UNL A   1      35.557  21.599  24.529  1.00  0.00     0.188 C 
ENDROOT
BRANCH   1   2
ATOM      2  C   UNL A   1      35.050  20.267  25.080  1.00  0.00     0.188 C 
BRANCH   2   3
ATOM      3  O   UNL A   1      33.853  19.757  24.541  1.00  0.00    -0.376 OA
BRANCH   3   4
ATOM      4  C   UNL A   1      32.840  20.692  24.190  1.00  0.00     0.202 C 
BRANCH   4   5
ATOM      5  C   UNL A   1      31.947  21.283  25.296  1.00  0.00     0.261 C 
BRANCH   5   6
ATOM      6  O   UNL A   1      32.262  22.672  25.622  1.00  0.00    -0.462 OA
BRANCH   6   7
ATOM      7  C   UNL A   1      31.494  23.207  26.614  1.00  0.00     0.325 C 
ATOM      8  O   UNL A   1      31.676  22.913  27.795  1.00  0.00    -0.250 OA
BRANCH   7   9
ATOM      9  C   UNL A   1      30.534  24.398  26.239  1.00  0.00     0.243 C 
BRANCH   9  10
ATOM     10  N   UNL A   1      30.737  25.561  25.412  1.00  0.00    -0.315 N 
ATOM     11  N   UNL A   1      31.178  29.045  24.941  1.00  0.00    -0.334 N 
ATOM     12  C   UNL A   1      31.080  27.700  25.042  1.00  0.00     0.114 A 
ATOM     13  C   UNL A   1      30.165  29.464  24.063  1.00  0.00     0.049 A 
ATOM     14  C   UNL A   1      30.294  27.236  24.024  1.00  0.00     0.018 A 
ATOM     15  C   UNL A   1      31.417  26.647  25.943  1.00  0.00     0.272 C 
ATOM     16  C   UNL A   1      29.601  28.318  23.475  1.00  0.00     0.006 A 
ATOM     17  C   UNL A   1      29.679  30.740  23.743  1.00  0.00     0.027 A 
ATOM     18  C   UNL A   1      30.235  25.758  24.023  1.00  0.00     0.150 C 
ATOM     19  O   UNL A   1      32.001  26.669  27.005  1.00  0.00    -0.267 OA
ATOM     20  C   UNL A   1      28.529  28.439  22.570  1.00  0.00     0.011 A 
ATOM     21  C   UNL A   1      28.617  30.838  22.834  1.00  0.00     0.002 A 
ATOM     22  C   UNL A   1      28.047  29.708  22.254  1.00  0.00     0.001 A 
BRANCH  11  23
ATOM     23  C   UNL A   1      32.147  29.922  25.594  1.00  0.00     0.082 C 
ATOM     24  C   UNL A   1      31.940  30.159  27.093  1.00  0.00     0.031 C 
ATOM     25  C   UNL A   1      33.566  29.377  25.401  1.00  0.00     0.031 C 
ENDBRANCH  11  23
BRANCH  18  26
ATOM     26  C   UNL A   1      31.097  25.293  22.823  1.00  0.00    -0.021 A 
ATOM     27  C   UNL A   1      31.423  26.140  21.751  1.00  0.00     0.006 A 
ATOM     28  C   UNL A   1      31.814  24.068  22.877  1.00  0.00     0.006 A 
ATOM     29  C   UNL A   1      32.491  25.837  20.873  1.00  0.00     0.000 A 
ATOM     30  C   UNL A   1      32.854  23.753  21.993  1.00  0.00     0.000 A 
ATOM     31  C   UNL A   1      33.225  24.661  21.015  1.00  0.00     0.000 A 
ENDBRANCH  18  26
ENDBRANCH   9  10
ENDBRANCH   7   9
ENDBRANCH   6   7
ENDBRANCH   5   6
ENDBRANCH   4   5
ENDBRANCH   3   4
ENDBRANCH   2   3
ENDBRANCH   1   2
BRANCH   1  32
ATOM     32  O   UNL A   1      36.919  21.821  24.247  1.00  0.00    -0.376 OA
BRANCH  32  33
ATOM     33  C   UNL A   1      37.841  21.003  24.946  1.00  0.00     0.202 C 
BRANCH  33  34
ATOM     34  C   UNL A   1      38.688  21.633  26.081  1.00  0.00     0.261 C 
BRANCH  34  35
ATOM     35  O   UNL A   1      39.941  22.223  25.649  1.00  0.00    -0.460 OA
BRANCH  35  36
ATOM     36  C   UNL A   1      40.886  22.437  26.618  1.00  0.00     0.338 C 
ATOM     37  O   UNL A   1      41.948  21.843  26.707  1.00  0.00    -0.246 OA
BRANCH  36  38
ATOM     38  C   UNL A   1      40.625  23.763  27.288  1.00  0.00     0.060 A 
ATOM     39  C   UNL A   1      39.780  24.762  26.786  1.00  0.00     0.016 A 
ATOM     40  C   UNL A   1      41.511  24.120  28.300  1.00  0.00     0.016 A 
ATOM     41  C   UNL A   1      39.974  26.126  27.150  1.00  0.00     0.010 A 
ATOM     42  C   UNL A   1      41.657  25.467  28.667  1.00  0.00     0.010 A 
ATOM     43  C   UNL A   1      40.995  26.522  28.033  1.00  0.00    -0.014 A 
BRANCH  43  44
ATOM     44  C   UNL A   1      41.053  27.890  28.657  1.00  0.00     0.031 A 
ATOM     45  C   UNL A   1      42.273  28.555  28.186  1.00  0.00     0.074 A 
ATOM     46  C   UNL A   1      40.280  28.676  29.465  1.00  0.00     0.049 A 
ATOM     47  N   UNL A   1      43.390  28.504  28.823  1.00  0.00    -0.248 NA
ATOM     48  C   UNL A   1      42.347  29.115  26.838  1.00  0.00     0.031 C 
ATOM     49  C   UNL A   1      39.039  28.361  30.131  1.00  0.00     0.029 A 
ATOM     50  N   UNL A   1      40.450  29.985  29.895  1.00  0.00    -0.354 N 
ATOM     51  C   UNL A   1      44.253  29.282  28.089  1.00  0.00     0.074 A 
ATOM     52  C   UNL A   1      43.646  29.424  26.787  1.00  0.00     0.031 C 
ATOM     53  C   UNL A   1      38.394  29.451  30.607  1.00  0.00     0.029 A 
ATOM     54  C   UNL A   1      39.326  30.561  30.528  1.00  0.00     0.049 A 
ATOM     55  H   UNL A   1      41.294  30.477  29.768  1.00  0.00     0.167 HD
ATOM     56  C   UNL A   1      45.235  29.970  28.726  1.00  0.00     0.037 A 
ATOM     57  C   UNL A   1      39.212  31.651  31.345  1.00  0.00     0.037 A 
ATOM     58  C   UNL A   1      45.410  29.501  30.088  1.00  0.00     0.049 A 
ATOM     59  C   UNL A   1      40.540  31.876  31.941  1.00  0.00     0.074 A 
ATOM     60  C   UNL A   1      45.666  28.274  30.676  1.00  0.00     0.029 A 
ATOM     61  N   UNL A   1      44.949  30.304  31.103  1.00  0.00    -0.354 N 
ATOM     62  N   UNL A   1      41.071  31.107  32.850  1.00  0.00    -0.248 NA
ATOM     63  C   UNL A   1      41.458  32.729  31.213  1.00  0.00     0.031 C 
ATOM     64  C   UNL A   1      44.922  28.273  31.894  1.00  0.00     0.029 A 
ATOM     65  C   UNL A   1      44.302  29.514  32.021  1.00  0.00     0.049 A 
ATOM     66  H   UNL A   1      45.062  31.280  31.162  1.00  0.00     0.167 HD
ATOM     67  C   UNL A   1      42.407  31.040  32.497  1.00  0.00     0.074 A 
ATOM     68  C   UNL A   1      42.601  32.127  31.540  1.00  0.00     0.031 C 
ATOM     69  C   UNL A   1      43.162  29.947  32.804  1.00  0.00     0.037 A 
BRANCH  56  70
ATOM     70  C   UNL A   1      45.734  31.311  28.263  1.00  0.00     0.058 A 
ATOM     71  C   UNL A   1      44.793  32.333  28.038  1.00  0.00     0.135 A 
ATOM     72  C   UNL A   1      47.038  31.555  27.776  1.00  0.00     0.135 A 
ATOM     73  F   UNL A   1      43.524  32.197  28.451  1.00  0.00    -0.206 F 
ATOM     74  C   UNL A   1      45.104  33.476  27.309  1.00  0.00     0.059 A 
ATOM     75  C   UNL A   1      47.384  32.717  27.102  1.00  0.00     0.059 A 
ATOM     76  F   UNL A   1      48.018  30.646  27.837  1.00  0.00    -0.206 F 
ATOM     77  C   UNL A   1      46.400  33.651  26.835  1.00  0.00     0.060 A 
BRANCH  77  78
ATOM     78  S   UNL A   1      46.772  35.076  25.806  1.00  0.00     0.124 S 
ATOM     79  O   UNL A   1      47.812  34.539  24.939  1.00  0.00    -0.237 OA
ATOM     80  O   UNL A   1      45.480  35.334  25.179  1.00  0.00    -0.237 OA
ATOM     81  O   UNL A   1      47.207  36.081  26.772  1.00  0.00    -0.744 OA
ENDBRANCH  77  78
ENDBRANCH  56  70
BRANCH  57  82
ATOM     82  C   UNL A   1      38.141  32.698  31.395  1.00  0.00     0.058 A 
ATOM     83  C   UNL A   1      37.462  33.116  30.227  1.00  0.00     0.135 A 
ATOM     84  C   UNL A   1      37.561  33.102  32.611  1.00  0.00     0.135 A 
ATOM     85  F   UNL A   1      37.948  32.807  29.015  1.00  0.00    -0.206 F 
ATOM     86  C   UNL A   1      36.233  33.788  30.264  1.00  0.00     0.059 A 
ATOM     87  C   UNL A   1      36.336  33.778  32.673  1.00  0.00     0.059 A 
ATOM     88  F   UNL A   1      38.130  32.770  33.780  1.00  0.00    -0.206 F 
ATOM     89  C   UNL A   1      35.657  34.081  31.496  1.00  0.00     0.060 A 
BRANCH  89  90
ATOM     90  S   UNL A   1      33.965  34.732  31.554  1.00  0.00     0.124 S 
ATOM     91  O   UNL A   1      33.485  34.465  30.202  1.00  0.00    -0.237 OA
ATOM     92  O   UNL A   1      33.361  33.928  32.612  1.00  0.00    -0.237 OA
ATOM     93  O   UNL A   1      34.154  36.142  31.881  1.00  0.00    -0.744 OA
ENDBRANCH  89  90
ENDBRANCH  57  82
BRANCH  69  94
ATOM     94  C   UNL A   1      42.683  29.010  33.887  1.00  0.00     0.058 A 
ATOM     95  C   UNL A   1      41.744  27.977  33.716  1.00  0.00     0.135 A 
ATOM     96  C   UNL A   1      43.343  29.072  35.126  1.00  0.00     0.135 A 
ATOM     97  F   UNL A   1      41.120  27.799  32.543  1.00  0.00    -0.206 F 
ATOM     98  C   UNL A   1      41.476  27.052  34.733  1.00  0.00     0.059 A 
ATOM     99  C   UNL A   1      43.114  28.146  36.139  1.00  0.00     0.059 A 
ATOM    100  F   UNL A   1      44.277  30.014  35.341  1.00  0.00    -0.206 F 
ATOM    101  C   UNL A   1      42.177  27.136  35.937  1.00  0.00     0.060 A 
BRANCH 101 102
ATOM    102  S   UNL A   1      41.926  25.872  37.205  1.00  0.00     0.124 S 
ATOM    103  O   UNL A   1      42.829  26.308  38.264  1.00  0.00    -0.237 OA
ATOM    104  O   UNL A   1      40.500  25.994  37.496  1.00  0.00    -0.237 OA
ATOM    105  O   UNL A   1      42.309  24.632  36.534  1.00  0.00    -0.744 OA
ENDBRANCH 101 102
ENDBRANCH  69  94
ENDBRANCH  43  44
ENDBRANCH  36  38
ENDBRANCH  35  36
ENDBRANCH  34  35
ENDBRANCH  33  34
ENDBRANCH  32  33
ENDBRANCH   1  32
TORSDOF 23
ENDMDL
MODEL 3
REMARK VINA RESULT:     -10.5      5.256     12.307
REMARK SMILES CC(C)n1c2c(c3ccccc31)[C@@H](c1ccccc1)N(CC(=O)OCCOCCOCCOC(=O)c1ccc(-c3c4nc(c(-c5c(F)cc(S(=O)(=O)[O-])cc5F)c5ccc([nH]5)c(-c5c(F)cc(S(=O)(=O)[O-])cc5F)c5nc(c(-c6c(F)cc(S(=O)(=O)[O-])cc6F)c6ccc3[nH]6)C=C5)C=C4)cc1)C2=O
REMARK SMILES IDX 29 1 28 2 27 3 26 4 25 5 24 6 22 7 23 8 21 9 20 10 4 11 5 12
REMARK SMILES IDX 12 13 6 14 102 15 7 16 11 17 13 18 103 19 8 20 10 21 9 22
REMARK SMILES IDX 2 23 1 24 3 25 14 26 15 27 19 28 16 29 18 30 17 31 30 32
REMARK SMILES IDX 31 33 32 34 33 35 34 36 35 37 36 38 37 39 101 40 38 41
REMARK SMILES IDX 100 42 39 43 40 44 41 45 94 46 42 47 99 48 93 49 95 50 43 51
REMARK SMILES IDX 98 52 92 53 91 54 44 56 78 57 57 58 77 59 58 60 61 61 76 62
REMARK SMILES IDX 96 63 59 64 60 65 75 67 97 68 62 69 45 70 46 71 55 72 47 73
REMARK SMILES IDX 48 74 54 75 56 76 49 77 50 78 51 79 52 80 53 81 79 82 80 83
REMARK SMILES IDX 89 84 81 85 82 86 88 87 90 88 83 89 84 90 85 91 86 92 87 93
REMARK SMILES IDX 63 94 64 95 73 96 65 97 66 98 72 99 74 100 67 101 68 102
REMARK SMILES IDX 69 103 70 104 71 105
REMARK H PARENT 95 55 61 66
REMARK Flexibility Score: inf
ROOT
ATOM      1  C   UNL A   1      43.365  35.933  35.123  1.00  0.00     0.188 C 
ENDROOT
BRANCH   1   2
ATOM      2  C   UNL A   1      42.186  35.047  35.525  1.00  0.00     0.188 C 
BRANCH   2   3
ATOM      3  O   UNL A   1      41.255  35.583  36.435  1.00  0.00    -0.376 OA
BRANCH   3   4
ATOM      4  C   UNL A   1      39.877  35.329  36.192  1.00  0.00     0.202 C 
BRANCH   4   5
ATOM      5  C   UNL A   1      39.091  34.445  37.176  1.00  0.00     0.261 C 
BRANCH   5   6
ATOM      6  O   UNL A   1      39.583  33.071  37.251  1.00  0.00    -0.462 OA
BRANCH   6   7
ATOM      7  C   UNL A   1      38.615  32.137  37.475  1.00  0.00     0.325 C 
ATOM      8  O   UNL A   1      38.002  32.093  38.541  1.00  0.00    -0.250 OA
BRANCH   7   9
ATOM      9  C   UNL A   1      38.127  31.274  36.251  1.00  0.00     0.243 C 
BRANCH   9  10
ATOM     10  N   UNL A   1      38.609  31.187  34.896  1.00  0.00    -0.315 N 
ATOM     11  N   UNL A   1      38.231  31.571  31.393  1.00  0.00    -0.334 N 
ATOM     12  C   UNL A   1      38.476  31.457  32.718  1.00  0.00     0.114 A 
ATOM     13  C   UNL A   1      38.482  30.314  30.821  1.00  0.00     0.049 A 
ATOM     14  C   UNL A   1      39.185  30.308  32.939  1.00  0.00     0.018 A 
ATOM     15  C   UNL A   1      38.113  32.073  33.952  1.00  0.00     0.272 C 
ATOM     16  C   UNL A   1      39.090  29.507  31.798  1.00  0.00     0.006 A 
ATOM     17  C   UNL A   1      38.215  29.803  29.542  1.00  0.00     0.027 A 
ATOM     18  C   UNL A   1      39.572  30.182  34.361  1.00  0.00     0.150 C 
ATOM     19  O   UNL A   1      37.409  33.033  34.180  1.00  0.00    -0.267 OA
ATOM     20  C   UNL A   1      39.424  28.170  31.508  1.00  0.00     0.011 A 
ATOM     21  C   UNL A   1      38.563  28.472  29.272  1.00  0.00     0.002 A 
ATOM     22  C   UNL A   1      39.158  27.664  30.237  1.00  0.00     0.001 A 
BRANCH  11  23
ATOM     23  C   UNL A   1      37.800  32.762  30.664  1.00  0.00     0.082 C 
ATOM     24  C   UNL A   1      36.347  33.196  30.879  1.00  0.00     0.031 C 
ATOM     25  C   UNL A   1      38.698  33.952  31.018  1.00  0.00     0.031 C 
ENDBRANCH  11  23
BRANCH  18  26
ATOM     26  C   UNL A   1      41.092  30.470  34.421  1.00  0.00    -0.021 A 
ATOM     27  C   UNL A   1      41.726  31.382  33.560  1.00  0.00     0.006 A 
ATOM     28  C   UNL A   1      41.872  30.019  35.519  1.00  0.00     0.006 A 
ATOM     29  C   UNL A   1      43.004  31.908  33.859  1.00  0.00     0.000 A 
ATOM     30  C   UNL A   1      43.151  30.519  35.803  1.00  0.00     0.000 A 
ATOM     31  C   UNL A   1      43.701  31.501  34.995  1.00  0.00     0.000 A 
ENDBRANCH  18  26
ENDBRANCH   9  10
ENDBRANCH   7   9
ENDBRANCH   6   7
ENDBRANCH   5   6
ENDBRANCH   4   5
ENDBRANCH   3   4
ENDBRANCH   2   3
ENDBRANCH   1   2
BRANCH   1  32
ATOM     32  O   UNL A   1      43.329  36.751  33.978  1.00  0.00    -0.376 OA
BRANCH  32  33
ATOM     33  C   UNL A   1      44.122  36.326  32.883  1.00  0.00     0.202 C 
BRANCH  33  34
ATOM     34  C   UNL A   1      43.852  34.934  32.259  1.00  0.00     0.261 C 
BRANCH  34  35
ATOM     35  O   UNL A   1      42.892  34.930  31.172  1.00  0.00    -0.460 OA
BRANCH  35  36
ATOM     36  C   UNL A   1      43.380  34.655  29.922  1.00  0.00     0.338 C 
ATOM     37  O   UNL A   1      44.182  35.345  29.313  1.00  0.00    -0.246 OA
BRANCH  36  38
ATOM     38  C   UNL A   1      43.121  33.207  29.591  1.00  0.00     0.060 A 
ATOM     39  C   UNL A   1      41.926  32.525  29.856  1.00  0.00     0.016 A 
ATOM     40  C   UNL A   1      44.243  32.441  29.285  1.00  0.00     0.016 A 
ATOM     41  C   UNL A   1      41.918  31.108  30.013  1.00  0.00     0.010 A 
ATOM     42  C   UNL A   1      44.199  31.043  29.411  1.00  0.00     0.010 A 
ATOM     43  C   UNL A   1      43.090  30.340  29.890  1.00  0.00    -0.014 A 
BRANCH  43  44
ATOM     44  C   UNL A   1      43.077  28.841  29.766  1.00  0.00     0.031 A 
ATOM     45  C   UNL A   1      43.742  28.280  30.946  1.00  0.00     0.074 A 
ATOM     46  C   UNL A   1      42.581  27.893  28.915  1.00  0.00     0.049 A 
ATOM     47  N   UNL A   1      44.999  28.004  30.978  1.00  0.00    -0.248 NA
ATOM     48  C   UNL A   1      43.058  28.225  32.236  1.00  0.00     0.031 C 
ATOM     49  C   UNL A   1      41.898  28.061  27.656  1.00  0.00     0.029 A 
ATOM     50  N   UNL A   1      42.591  26.506  28.991  1.00  0.00    -0.354 N 
ATOM     51  C   UNL A   1      45.211  27.461  32.223  1.00  0.00     0.074 A 
ATOM     52  C   UNL A   1      44.069  27.841  33.020  1.00  0.00     0.031 C 
ATOM     53  C   UNL A   1      41.285  26.935  27.223  1.00  0.00     0.029 A 
ATOM     54  C   UNL A   1      41.769  25.846  28.052  1.00  0.00     0.049 A 
ATOM     55  H   UNL A   1      43.133  26.018  29.654  1.00  0.00     0.167 HD
ATOM     56  C   UNL A   1      46.167  26.509  32.379  1.00  0.00     0.037 A 
ATOM     57  C   UNL A   1      41.765  24.553  27.609  1.00  0.00     0.037 A 
ATOM     58  C   UNL A   1      47.049  26.452  31.229  1.00  0.00     0.049 A 
ATOM     59  C   UNL A   1      43.115  24.016  27.853  1.00  0.00     0.074 A 
ATOM     60  C   UNL A   1      47.841  27.365  30.555  1.00  0.00     0.029 A 
ATOM     61  N   UNL A   1      46.909  25.387  30.371  1.00  0.00    -0.354 N 
ATOM     62  N   UNL A   1      44.173  24.366  27.177  1.00  0.00    -0.248 NA
ATOM     63  C   UNL A   1      43.359  23.396  29.140  1.00  0.00     0.031 C 
ATOM     64  C   UNL A   1      47.753  27.003  29.177  1.00  0.00     0.029 A 
ATOM     65  C   UNL A   1      46.967  25.856  29.083  1.00  0.00     0.049 A 
ATOM     66  H   UNL A   1      46.787  24.446  30.635  1.00  0.00     0.167 HD
ATOM     67  C   UNL A   1      45.175  24.435  28.128  1.00  0.00     0.074 A 
ATOM     68  C   UNL A   1      44.636  23.741  29.296  1.00  0.00     0.031 C 
ATOM     69  C   UNL A   1      46.234  25.278  27.974  1.00  0.00     0.037 A 
BRANCH  56  70
ATOM     70  C   UNL A   1      46.049  25.379  33.364  1.00  0.00     0.058 A 
ATOM     71  C   UNL A   1      47.106  25.167  34.268  1.00  0.00     0.135 A 
ATOM     72  C   UNL A   1      45.090  24.343  33.283  1.00  0.00     0.135 A 
ATOM     73  F   UNL A   1      48.075  26.083  34.414  1.00  0.00    -0.206 F 
ATOM     74  C   UNL A   1      47.245  23.978  34.978  1.00  0.00     0.059 A 
ATOM     75  C   UNL A   1      45.176  23.177  34.029  1.00  0.00     0.059 A 
ATOM     76  F   UNL A   1      44.077  24.359  32.409  1.00  0.00    -0.206 F 
ATOM     77  C   UNL A   1      46.280  22.986  34.840  1.00  0.00     0.060 A 
BRANCH  77  78
ATOM     78  S   UNL A   1      46.516  21.412  35.676  1.00  0.00     0.124 S 
ATOM     79  O   UNL A   1      47.790  21.634  36.348  1.00  0.00    -0.237 OA
ATOM     80  O   UNL A   1      45.337  21.353  36.534  1.00  0.00    -0.237 OA
ATOM     81  O   UNL A   1      46.537  20.451  34.578  1.00  0.00    -0.744 OA
ENDBRANCH  77  78
ENDBRANCH  56  70
BRANCH  57  82
ATOM     82  C   UNL A   1      40.607  23.654  27.297  1.00  0.00     0.058 A 
ATOM     83  C   UNL A   1      39.280  24.142  27.272  1.00  0.00     0.135 A 
ATOM     84  C   UNL A   1      40.795  22.376  26.740  1.00  0.00     0.135 A 
ATOM     85  F   UNL A   1      38.989  25.339  27.803  1.00  0.00    -0.206 F 
ATOM     86  C   UNL A   1      38.234  23.461  26.634  1.00  0.00     0.059 A 
ATOM     87  C   UNL A   1      39.764  21.675  26.102  1.00  0.00     0.059 A 
ATOM     88  F   UNL A   1      42.012  21.813  26.723  1.00  0.00    -0.206 F 
ATOM     89  C   UNL A   1      38.496  22.242  26.016  1.00  0.00     0.060 A 
BRANCH  89  90
ATOM     90  S   UNL A   1      37.213  21.473  24.990  1.00  0.00     0.124 S 
ATOM     91  O   UNL A   1      37.072  22.433  23.901  1.00  0.00    -0.237 OA
ATOM     92  O   UNL A   1      37.827  20.196  24.635  1.00  0.00    -0.237 OA
ATOM     93  O   UNL A   1      36.069  21.378  25.891  1.00  0.00    -0.744 OA
ENDBRANCH  89  90
ENDBRANCH  57  82
BRANCH  69  94
ATOM     94  C   UNL A   1      46.548  25.813  26.597  1.00  0.00     0.058 A 
ATOM     95  C   UNL A   1      45.987  26.967  26.022  1.00  0.00     0.135 A 
ATOM     96  C   UNL A   1      47.600  25.199  25.895  1.00  0.00     0.135 A 
ATOM     97  F   UNL A   1      45.028  27.657  26.656  1.00  0.00    -0.206 F 
ATOM     98  C   UNL A   1      46.451  27.482  24.805  1.00  0.00     0.059 A 
ATOM     99  C   UNL A   1      48.096  25.710  24.701  1.00  0.00     0.059 A 
ATOM    100  F   UNL A   1      48.203  24.113  26.408  1.00  0.00    -0.206 F 
ATOM    101  C   UNL A   1      47.517  26.854  24.158  1.00  0.00     0.060 A 
BRANCH 101 102
ATOM    102  S   UNL A   1      48.202  27.585  22.653  1.00  0.00     0.124 S 
ATOM    103  O   UNL A   1      48.390  26.420  21.797  1.00  0.00    -0.237 OA
ATOM    104  O   UNL A   1      47.150  28.512  22.244  1.00  0.00    -0.237 OA
ATOM    105  O   UNL A   1      49.434  28.224  23.113  1.00  0.00    -0.744 OA
ENDBRANCH 101 102
ENDBRANCH  69  94
ENDBRANCH  43  44
ENDBRANCH  36  38
ENDBRANCH  35  36
ENDBRANCH  34  35
ENDBRANCH  33  34
ENDBRANCH  32  33
ENDBRANCH   1  32
TORSDOF 23
ENDMDL
