MODEL 1
REMARK VINA RESULT:     -11.6      0.000      0.000
REMARK SMILES O=C(OCCOCCOCCOC(=O)c1ccc(-c2c3nc(c(-c4c(F)cc(S(=O)(=O)[O-])cc4F)c4ccc([nH]4)c(-c4c(F)cc(S(=O)(=O)[O-])cc4F)c4nc(c(-c5c(F)cc(S(=O)(=O)[O-])cc5F)c5ccc2[nH]5)C=C4)C=C3)cc1)C1=Cc2cc(Cl)c(Cl)c(Cl)c2O[C@@H]1C(F)(F)F
REMARK SMILES IDX 8 1 7 2 6 3 5 4 4 5 3 6 2 7 1 8 81 9 82 10 93 11 83 12 92 13
REMARK SMILES IDX 84 14 91 15 85 16 89 17 86 18 87 19 90 20 88 21 94 22 95 23
REMARK SMILES IDX 96 24 97 25 9 26 10 27 11 28 12 29 13 30 14 31 15 32 16 33
REMARK SMILES IDX 80 34 17 35 79 36 18 37 19 38 20 39 73 40 21 41 78 42 72 43
REMARK SMILES IDX 74 44 22 45 77 46 71 47 70 48 23 50 57 51 36 52 56 53 37 54
REMARK SMILES IDX 40 55 55 56 75 57 38 58 39 59 54 61 76 62 41 63 24 64 25 65
REMARK SMILES IDX 34 66 26 67 27 68 33 69 35 70 28 71 29 72 30 73 31 74 32 75
REMARK SMILES IDX 58 76 59 77 68 78 60 79 61 80 67 81 69 82 62 83 63 84 64 85
REMARK SMILES IDX 65 86 66 87 42 88 43 89 52 90 44 91 45 92 51 93 53 94 46 95
REMARK SMILES IDX 47 96 48 97 49 98 50 99
REMARK H PARENT 74 49 40 60
REMARK Flexibility Score: inf
ROOT
ATOM      1  C   UNL A   1      35.478  31.443  27.805  1.00  0.00     0.188 C 
ENDROOT
BRANCH   1   2
ATOM      2  C   UNL A   1      33.952  31.263  27.835  1.00  0.00     0.188 C 
BRANCH   2   3
ATOM      3  O   UNL A   1      33.205  30.478  26.816  1.00  0.00    -0.376 OA
BRANCH   3   4
ATOM      4  C   UNL A   1      31.792  29.530  27.020  1.00  0.00     0.202 C 
BRANCH   4   5
ATOM      5  C   UNL A   1      31.585  27.444  26.444  1.00  0.00     0.261 C 
BRANCH   5   6
ATOM      6  O   UNL A   1      32.359  26.269  27.008  1.00  0.00    -0.460 OA
BRANCH   6   7
ATOM      7  C   UNL A   1      31.854  25.096  26.602  1.00  0.00     0.338 C 
ATOM      8  O   UNL A   1      31.343  24.238  27.276  1.00  0.00    -0.246 OA
BRANCH   7   9
ATOM      9  C   UNL A   1      32.580  25.024  25.342  1.00  0.00     0.087 C 
ATOM     10  C   UNL A   1      34.036  24.945  25.437  1.00  0.00     0.027 C 
ATOM     11  C   UNL A   1      31.452  23.632  24.657  1.00  0.00     0.316 C 
ATOM     12  C   UNL A   1      34.979  23.427  25.230  1.00  0.00     0.020 A 
ATOM     13  O   UNL A   1      32.413  21.933  24.593  1.00  0.00    -0.474 OA
ATOM     14  C   UNL A   1      36.324  23.447  25.467  1.00  0.00     0.034 A 
ATOM     15  C   UNL A   1      34.224  21.909  24.886  1.00  0.00     0.148 A 
ATOM     16  C   UNL A   1      36.974  22.197  25.379  1.00  0.00     0.062 A 
ATOM     17  C   UNL A   1      34.924  20.726  24.849  1.00  0.00     0.103 A 
ATOM     18  Cl  UNL A   1      38.692  22.280  25.688  1.00  0.00    -0.083 Cl
ATOM     19  C   UNL A   1      36.322  20.905  25.087  1.00  0.00     0.082 A 
ATOM     20  Cl  UNL A   1      34.180  19.206  24.641  1.00  0.00    -0.079 Cl
ATOM     21  Cl  UNL A   1      37.357  19.488  25.047  1.00  0.00    -0.081 Cl
BRANCH  11  22
ATOM     22  C   UNL A   1      30.824  24.634  23.459  1.00  0.00     0.430 C 
ATOM     23  F   UNL A   1      31.604  25.213  22.550  1.00  0.00    -0.167 F 
ATOM     24  F   UNL A   1      29.893  23.929  22.764  1.00  0.00    -0.167 F 
ATOM     25  F   UNL A   1      30.132  25.686  23.996  1.00  0.00    -0.167 F 
ENDBRANCH  11  22
ENDBRANCH   7   9
ENDBRANCH   6   7
ENDBRANCH   5   6
ENDBRANCH   4   5
ENDBRANCH   3   4
ENDBRANCH   2   3
ENDBRANCH   1   2
BRANCH   1  26
ATOM     26  O   UNL A   1      36.102  32.238  28.777  1.00  0.00    -0.376 OA
BRANCH  26  27
ATOM     27  C   UNL A   1      35.319  32.555  29.918  1.00  0.00     0.202 C 
BRANCH  27  28
ATOM     28  C   UNL A   1      35.572  31.760  31.208  1.00  0.00     0.261 C 
BRANCH  28  29
ATOM     29  O   UNL A   1      36.927  31.282  31.352  1.00  0.00    -0.460 OA
BRANCH  29  30
ATOM     30  C   UNL A   1      37.208  30.057  30.839  1.00  0.00     0.338 C 
ATOM     31  O   UNL A   1      36.458  29.100  30.763  1.00  0.00    -0.246 OA
BRANCH  30  32
ATOM     32  C   UNL A   1      38.558  30.074  30.240  1.00  0.00     0.060 A 
ATOM     33  C   UNL A   1      38.716  29.817  28.869  1.00  0.00     0.016 A 
ATOM     34  C   UNL A   1      39.672  30.290  31.050  1.00  0.00     0.016 A 
ATOM     35  C   UNL A   1      39.992  29.802  28.300  1.00  0.00     0.010 A 
ATOM     36  C   UNL A   1      40.949  30.225  30.491  1.00  0.00     0.010 A 
ATOM     37  C   UNL A   1      41.116  29.963  29.119  1.00  0.00    -0.014 A 
BRANCH  37  38
ATOM     38  C   UNL A   1      42.460  29.597  28.610  1.00  0.00     0.031 A 
ATOM     39  C   UNL A   1      42.688  28.158  28.235  1.00  0.00     0.074 A 
ATOM     40  C   UNL A   1      43.453  30.497  28.505  1.00  0.00     0.049 A 
ATOM     41  N   UNL A   1      43.782  27.563  27.842  1.00  0.00    -0.248 NA
ATOM     42  C   UNL A   1      41.516  27.267  28.329  1.00  0.00     0.031 C 
ATOM     43  C   UNL A   1      43.339  31.922  28.807  1.00  0.00     0.029 A 
ATOM     44  N   UNL A   1      44.764  30.337  28.127  1.00  0.00    -0.354 N 
ATOM     45  C   UNL A   1      43.433  26.231  27.646  1.00  0.00     0.074 A 
ATOM     46  C   UNL A   1      42.037  26.097  27.997  1.00  0.00     0.031 C 
ATOM     47  C   UNL A   1      44.538  32.504  28.619  1.00  0.00     0.029 A 
ATOM     48  C   UNL A   1      45.511  31.488  28.218  1.00  0.00     0.049 A 
ATOM     49  H   UNL A   1      45.134  29.478  27.821  1.00  0.00     0.167 HD
ATOM     50  C   UNL A   1      44.208  25.212  27.208  1.00  0.00     0.037 A 
ATOM     51  C   UNL A   1      46.832  31.686  28.024  1.00  0.00     0.037 A 
ATOM     52  C   UNL A   1      45.604  25.354  26.887  1.00  0.00     0.049 A 
ATOM     53  C   UNL A   1      47.696  30.517  27.612  1.00  0.00     0.074 A 
ATOM     54  C   UNL A   1      46.480  24.389  26.425  1.00  0.00     0.029 A 
ATOM     55  N   UNL A   1      46.329  26.530  27.012  1.00  0.00    -0.354 N 
ATOM     56  N   UNL A   1      47.351  29.269  27.395  1.00  0.00    -0.248 NA
ATOM     57  C   UNL A   1      49.128  30.782  27.413  1.00  0.00     0.031 C 
ATOM     58  C   UNL A   1      47.751  24.962  26.342  1.00  0.00     0.029 A 
ATOM     59  C   UNL A   1      47.651  26.307  26.666  1.00  0.00     0.049 A 
ATOM     60  H   UNL A   1      45.960  27.395  27.302  1.00  0.00     0.167 HD
ATOM     61  C   UNL A   1      48.512  28.612  26.997  1.00  0.00     0.074 A 
ATOM     62  C   UNL A   1      49.568  29.602  26.996  1.00  0.00     0.031 C 
ATOM     63  C   UNL A   1      48.689  27.309  26.658  1.00  0.00     0.037 A 
BRANCH  50  64
ATOM     64  C   UNL A   1      43.574  23.852  27.091  1.00  0.00     0.058 A 
ATOM     65  C   UNL A   1      43.411  23.010  28.202  1.00  0.00     0.135 A 
ATOM     66  C   UNL A   1      43.096  23.398  25.851  1.00  0.00     0.135 A 
ATOM     67  F   UNL A   1      43.871  23.381  29.408  1.00  0.00    -0.206 F 
ATOM     68  C   UNL A   1      42.818  21.757  28.085  1.00  0.00     0.059 A 
ATOM     69  C   UNL A   1      42.467  22.164  25.717  1.00  0.00     0.059 A 
ATOM     70  F   UNL A   1      43.234  24.158  24.753  1.00  0.00    -0.206 F 
ATOM     71  C   UNL A   1      42.343  21.346  26.838  1.00  0.00     0.060 A 
BRANCH  71  72
ATOM     72  S   UNL A   1      41.553  19.729  26.710  1.00  0.00     0.124 S 
ATOM     73  O   UNL A   1      42.701  18.833  26.811  1.00  0.00    -0.237 OA
ATOM     74  O   UNL A   1      40.652  19.734  27.857  1.00  0.00    -0.237 OA
ATOM     75  O   UNL A   1      40.903  19.768  25.405  1.00  0.00    -0.744 OA
ENDBRANCH  71  72
ENDBRANCH  50  64
BRANCH  51  76
ATOM     76  C   UNL A   1      47.429  33.038  28.224  1.00  0.00     0.058 A 
ATOM     77  C   UNL A   1      47.933  33.438  29.472  1.00  0.00     0.135 A 
ATOM     78  C   UNL A   1      47.492  33.969  27.173  1.00  0.00     0.135 A 
ATOM     79  F   UNL A   1      47.881  32.595  30.516  1.00  0.00    -0.206 F 
ATOM     80  C   UNL A   1      48.457  34.711  29.678  1.00  0.00     0.059 A 
ATOM     81  C   UNL A   1      48.043  35.235  27.345  1.00  0.00     0.059 A 
ATOM     82  F   UNL A   1      47.028  33.643  25.957  1.00  0.00    -0.206 F 
ATOM     83  C   UNL A   1      48.514  35.602  28.605  1.00  0.00     0.060 A 
BRANCH  83  84
ATOM     84  S   UNL A   1      49.239  37.235  28.871  1.00  0.00     0.124 S 
ATOM     85  O   UNL A   1      48.826  37.523  30.238  1.00  0.00    -0.237 OA
ATOM     86  O   UNL A   1      50.662  36.971  28.675  1.00  0.00    -0.237 OA
ATOM     87  O   UNL A   1      48.613  38.054  27.838  1.00  0.00    -0.744 OA
ENDBRANCH  83  84
ENDBRANCH  51  76
BRANCH  63  88
ATOM     88  C   UNL A   1      50.059  26.881  26.196  1.00  0.00     0.058 A 
ATOM     89  C   UNL A   1      50.467  26.990  24.858  1.00  0.00     0.135 A 
ATOM     90  C   UNL A   1      51.003  26.420  27.131  1.00  0.00     0.135 A 
ATOM     91  F   UNL A   1      49.608  27.422  23.921  1.00  0.00    -0.206 F 
ATOM     92  C   UNL A   1      51.751  26.632  24.459  1.00  0.00     0.059 A 
ATOM     93  C   UNL A   1      52.303  26.094  26.760  1.00  0.00     0.059 A 
ATOM     94  F   UNL A   1      50.672  26.307  28.427  1.00  0.00    -0.206 F 
ATOM     95  C   UNL A   1      52.664  26.192  25.419  1.00  0.00     0.060 A 
BRANCH  95  96
ATOM     96  S   UNL A   1      54.339  25.771  24.891  1.00  0.00     0.124 S 
ATOM     97  O   UNL A   1      54.353  24.325  25.076  1.00  0.00    -0.237 OA
ATOM     98  O   UNL A   1      54.351  26.235  23.507  1.00  0.00    -0.237 OA
ATOM     99  O   UNL A   1      55.186  26.529  25.807  1.00  0.00    -0.744 OA
ENDBRANCH  95  96
ENDBRANCH  63  88
ENDBRANCH  37  38
ENDBRANCH  30  32
ENDBRANCH  29  30
ENDBRANCH  28  29
ENDBRANCH  27  28
ENDBRANCH  26  27
ENDBRANCH   1  26
TORSDOF 21
ENDMDL
MODEL 2
REMARK VINA RESULT:     -11.5      1.252      8.175
REMARK SMILES O=C(OCCOCCOCCOC(=O)c1ccc(-c2c3nc(c(-c4c(F)cc(S(=O)(=O)[O-])cc4F)c4ccc([nH]4)c(-c4c(F)cc(S(=O)(=O)[O-])cc4F)c4nc(c(-c5c(F)cc(S(=O)(=O)[O-])cc5F)c5ccc2[nH]5)C=C4)C=C3)cc1)C1=Cc2cc(Cl)c(Cl)c(Cl)c2O[C@@H]1C(F)(F)F
REMARK SMILES IDX 8 1 7 2 6 3 5 4 4 5 3 6 2 7 1 8 81 9 82 10 93 11 83 12 92 13
REMARK SMILES IDX 84 14 91 15 85 16 89 17 86 18 87 19 90 20 88 21 94 22 95 23
REMARK SMILES IDX 96 24 97 25 9 26 10 27 11 28 12 29 13 30 14 31 15 32 16 33
REMARK SMILES IDX 80 34 17 35 79 36 18 37 19 38 20 39 73 40 21 41 78 42 72 43
REMARK SMILES IDX 74 44 22 45 77 46 71 47 70 48 23 50 57 51 36 52 56 53 37 54
REMARK SMILES IDX 40 55 55 56 75 57 38 58 39 59 54 61 76 62 41 63 24 64 25 65
REMARK SMILES IDX 34 66 26 67 27 68 33 69 35 70 28 71 29 72 30 73 31 74 32 75
REMARK SMILES IDX 58 76 59 77 68 78 60 79 61 80 67 81 69 82 62 83 63 84 64 85
REMARK SMILES IDX 65 86 66 87 42 88 43 89 52 90 44 91 45 92 51 93 53 94 46 95
REMARK SMILES IDX 47 96 48 97 49 98 50 99
REMARK H PARENT 74 49 40 60
REMARK Flexibility Score: inf
ROOT
ATOM      1  C   UNL A   1      35.319  32.900  28.007  1.00  0.00     0.188 C 
ENDROOT
BRANCH   1   2
ATOM      2  C   UNL A   1      34.271  31.789  28.169  1.00  0.00     0.188 C 
BRANCH   2   3
ATOM      3  O   UNL A   1      33.654  31.076  27.019  1.00  0.00    -0.376 OA
BRANCH   3   4
ATOM      4  C   UNL A   1      32.133  30.293  26.935  1.00  0.00     0.202 C 
BRANCH   4   5
ATOM      5  C   UNL A   1      31.820  28.143  27.029  1.00  0.00     0.261 C 
BRANCH   5   6
ATOM      6  O   UNL A   1      32.861  27.067  26.796  1.00  0.00    -0.460 OA
BRANCH   6   7
ATOM      7  C   UNL A   1      32.314  25.934  26.335  1.00  0.00     0.338 C 
ATOM      8  O   UNL A   1      31.671  25.121  26.949  1.00  0.00    -0.246 OA
BRANCH   7   9
ATOM      9  C   UNL A   1      33.163  25.799  25.160  1.00  0.00     0.087 C 
ATOM     10  C   UNL A   1      34.569  25.488  25.409  1.00  0.00     0.027 C 
ATOM     11  C   UNL A   1      31.924  24.630  24.277  1.00  0.00     0.316 C 
ATOM     12  C   UNL A   1      35.288  23.850  25.218  1.00  0.00     0.020 A 
ATOM     13  O   UNL A   1      32.618  22.805  24.220  1.00  0.00    -0.474 OA
ATOM     14  C   UNL A   1      36.584  23.649  25.600  1.00  0.00     0.034 A 
ATOM     15  C   UNL A   1      34.358  22.485  24.707  1.00  0.00     0.148 A 
ATOM     16  C   UNL A   1      37.043  22.317  25.511  1.00  0.00     0.062 A 
ATOM     17  C   UNL A   1      34.870  21.210  24.678  1.00  0.00     0.103 A 
ATOM     18  Cl  UNL A   1      38.706  22.117  26.010  1.00  0.00    -0.083 Cl
ATOM     19  C   UNL A   1      36.241  21.156  25.076  1.00  0.00     0.082 A 
ATOM     20  Cl  UNL A   1      33.933  19.835  24.302  1.00  0.00    -0.079 Cl
ATOM     21  Cl  UNL A   1      37.047  19.597  25.067  1.00  0.00    -0.081 Cl
BRANCH  11  22
ATOM     22  C   UNL A   1      31.599  25.766  23.077  1.00  0.00     0.430 C 
ATOM     23  F   UNL A   1      32.536  26.168  22.222  1.00  0.00    -0.167 F 
ATOM     24  F   UNL A   1      30.571  25.299  22.321  1.00  0.00    -0.167 F 
ATOM     25  F   UNL A   1      31.133  26.938  23.609  1.00  0.00    -0.167 F 
ENDBRANCH  11  22
ENDBRANCH   7   9
ENDBRANCH   6   7
ENDBRANCH   5   6
ENDBRANCH   4   5
ENDBRANCH   3   4
ENDBRANCH   2   3
ENDBRANCH   1   2
BRANCH   1  26
ATOM     26  O   UNL A   1      35.292  34.011  28.863  1.00  0.00    -0.376 OA
BRANCH  26  27
ATOM     27  C   UNL A   1      34.599  33.836  30.088  1.00  0.00     0.202 C 
BRANCH  27  28
ATOM     28  C   UNL A   1      35.342  33.148  31.244  1.00  0.00     0.261 C 
BRANCH  28  29
ATOM     29  O   UNL A   1      36.460  32.335  30.827  1.00  0.00    -0.460 OA
BRANCH  29  30
ATOM     30  C   UNL A   1      36.594  31.119  31.415  1.00  0.00     0.338 C 
ATOM     31  O   UNL A   1      35.840  30.604  32.222  1.00  0.00    -0.246 OA
BRANCH  30  32
ATOM     32  C   UNL A   1      37.752  30.415  30.828  1.00  0.00     0.060 A 
ATOM     33  C   UNL A   1      38.574  29.623  31.645  1.00  0.00     0.016 A 
ATOM     34  C   UNL A   1      38.055  30.586  29.478  1.00  0.00     0.016 A 
ATOM     35  C   UNL A   1      39.689  28.977  31.105  1.00  0.00     0.010 A 
ATOM     36  C   UNL A   1      39.196  29.981  28.949  1.00  0.00     0.010 A 
ATOM     37  C   UNL A   1      40.028  29.191  29.763  1.00  0.00    -0.014 A 
BRANCH  37  38
ATOM     38  C   UNL A   1      41.377  28.818  29.273  1.00  0.00     0.031 A 
ATOM     39  C   UNL A   1      42.412  29.907  29.203  1.00  0.00     0.074 A 
ATOM     40  C   UNL A   1      41.672  27.566  28.881  1.00  0.00     0.049 A 
ATOM     41  N   UNL A   1      43.633  29.867  28.743  1.00  0.00    -0.248 NA
ATOM     42  C   UNL A   1      42.003  31.228  29.716  1.00  0.00     0.031 C 
ATOM     43  C   UNL A   1      40.762  26.424  28.935  1.00  0.00     0.029 A 
ATOM     44  N   UNL A   1      42.826  27.051  28.341  1.00  0.00    -0.354 N 
ATOM     45  C   UNL A   1      44.137  31.152  28.906  1.00  0.00     0.074 A 
ATOM     46  C   UNL A   1      43.079  31.958  29.474  1.00  0.00     0.031 C 
ATOM     47  C   UNL A   1      41.387  25.344  28.431  1.00  0.00     0.029 A 
ATOM     48  C   UNL A   1      42.728  25.725  27.986  1.00  0.00     0.049 A 
ATOM     49  H   UNL A   1      43.646  27.581  28.219  1.00  0.00     0.167 HD
ATOM     50  C   UNL A   1      45.372  31.618  28.612  1.00  0.00     0.037 A 
ATOM     51  C   UNL A   1      43.612  24.926  27.354  1.00  0.00     0.037 A 
ATOM     52  C   UNL A   1      46.408  30.812  28.022  1.00  0.00     0.049 A 
ATOM     53  C   UNL A   1      44.959  25.488  26.962  1.00  0.00     0.074 A 
ATOM     54  C   UNL A   1      47.699  31.180  27.693  1.00  0.00     0.029 A 
ATOM     55  N   UNL A   1      46.264  29.480  27.659  1.00  0.00    -0.354 N 
ATOM     56  N   UNL A   1      45.439  26.695  27.151  1.00  0.00    -0.248 NA
ATOM     57  C   UNL A   1      45.888  24.580  26.274  1.00  0.00     0.031 C 
ATOM     58  C   UNL A   1      48.312  30.094  27.062  1.00  0.00     0.029 A 
ATOM     59  C   UNL A   1      47.434  29.021  27.078  1.00  0.00     0.049 A 
ATOM     60  H   UNL A   1      45.452  28.941  27.794  1.00  0.00     0.167 HD
ATOM     61  C   UNL A   1      46.735  26.678  26.644  1.00  0.00     0.074 A 
ATOM     62  C   UNL A   1      46.968  25.339  26.146  1.00  0.00     0.031 C 
ATOM     63  C   UNL A   1      47.653  27.678  26.599  1.00  0.00     0.037 A 
BRANCH  50  64
ATOM     64  C   UNL A   1      45.656  33.070  28.885  1.00  0.00     0.058 A 
ATOM     65  C   UNL A   1      45.271  34.084  27.993  1.00  0.00     0.135 A 
ATOM     66  C   UNL A   1      46.296  33.456  30.074  1.00  0.00     0.135 A 
ATOM     67  F   UNL A   1      44.677  33.772  26.829  1.00  0.00    -0.206 F 
ATOM     68  C   UNL A   1      45.532  35.424  28.257  1.00  0.00     0.059 A 
ATOM     69  C   UNL A   1      46.535  34.793  30.376  1.00  0.00     0.059 A 
ATOM     70  F   UNL A   1      46.695  32.529  30.959  1.00  0.00    -0.206 F 
ATOM     71  C   UNL A   1      46.159  35.769  29.456  1.00  0.00     0.060 A 
BRANCH  71  72
ATOM     72  S   UNL A   1      46.465  37.515  29.794  1.00  0.00     0.124 S 
ATOM     73  O   UNL A   1      45.878  37.664  31.122  1.00  0.00    -0.237 OA
ATOM     74  O   UNL A   1      47.920  37.590  29.732  1.00  0.00    -0.237 OA
ATOM     75  O   UNL A   1      45.758  38.200  28.717  1.00  0.00    -0.744 OA
ENDBRANCH  71  72
ENDBRANCH  50  64
BRANCH  51  76
ATOM     76  C   UNL A   1      43.258  23.512  27.037  1.00  0.00     0.058 A 
ATOM     77  C   UNL A   1      42.962  23.108  25.726  1.00  0.00     0.135 A 
ATOM     78  C   UNL A   1      43.191  22.536  28.046  1.00  0.00     0.135 A 
ATOM     79  F   UNL A   1      42.993  24.003  24.726  1.00  0.00    -0.206 F 
ATOM     80  C   UNL A   1      42.594  21.799  25.428  1.00  0.00     0.059 A 
ATOM     81  C   UNL A   1      42.859  21.213  27.768  1.00  0.00     0.059 A 
ATOM     82  F   UNL A   1      43.465  22.862  29.318  1.00  0.00    -0.206 F 
ATOM     83  C   UNL A   1      42.551  20.856  26.456  1.00  0.00     0.060 A 
BRANCH  83  84
ATOM     84  S   UNL A   1      42.118  19.150  26.051  1.00  0.00     0.124 S 
ATOM     85  O   UNL A   1      42.936  18.909  24.869  1.00  0.00    -0.237 OA
ATOM     86  O   UNL A   1      42.518  18.438  27.261  1.00  0.00    -0.237 OA
ATOM     87  O   UNL A   1      40.678  19.213  25.817  1.00  0.00    -0.744 OA
ENDBRANCH  83  84
ENDBRANCH  51  76
BRANCH  63  88
ATOM     88  C   UNL A   1      49.019  27.356  26.046  1.00  0.00     0.058 A 
ATOM     89  C   UNL A   1      50.087  26.968  26.869  1.00  0.00     0.135 A 
ATOM     90  C   UNL A   1      49.236  27.368  24.658  1.00  0.00     0.135 A 
ATOM     91  F   UNL A   1      49.940  26.940  28.203  1.00  0.00    -0.206 F 
ATOM     92  C   UNL A   1      51.329  26.631  26.338  1.00  0.00     0.059 A 
ATOM     93  C   UNL A   1      50.456  26.997  24.103  1.00  0.00     0.059 A 
ATOM     94  F   UNL A   1      48.246  27.718  23.821  1.00  0.00    -0.206 F 
ATOM     95  C   UNL A   1      51.500  26.641  24.952  1.00  0.00     0.060 A 
BRANCH  95  96
ATOM     96  S   UNL A   1      53.104  26.160  24.276  1.00  0.00     0.124 S 
ATOM     97  O   UNL A   1      52.916  26.419  22.854  1.00  0.00    -0.237 OA
ATOM     98  O   UNL A   1      54.015  27.065  24.971  1.00  0.00    -0.237 OA
ATOM     99  O   UNL A   1      53.223  24.753  24.647  1.00  0.00    -0.744 OA
ENDBRANCH  95  96
ENDBRANCH  63  88
ENDBRANCH  37  38
ENDBRANCH  30  32
ENDBRANCH  29  30
ENDBRANCH  28  29
ENDBRANCH  27  28
ENDBRANCH  26  27
ENDBRANCH   1  26
TORSDOF 21
ENDMDL
MODEL 3
REMARK VINA RESULT:     -11.5      6.822     12.248
REMARK SMILES O=C(OCCOCCOCCOC(=O)c1ccc(-c2c3nc(c(-c4c(F)cc(S(=O)(=O)[O-])cc4F)c4ccc([nH]4)c(-c4c(F)cc(S(=O)(=O)[O-])cc4F)c4nc(c(-c5c(F)cc(S(=O)(=O)[O-])cc5F)c5ccc2[nH]5)C=C4)C=C3)cc1)C1=Cc2cc(Cl)c(Cl)c(Cl)c2O[C@@H]1C(F)(F)F
REMARK SMILES IDX 8 1 7 2 6 3 5 4 4 5 3 6 2 7 1 8 81 9 82 10 93 11 83 12 92 13
REMARK SMILES IDX 84 14 91 15 85 16 89 17 86 18 87 19 90 20 88 21 94 22 95 23
REMARK SMILES IDX 96 24 97 25 9 26 10 27 11 28 12 29 13 30 14 31 15 32 16 33
REMARK SMILES IDX 80 34 17 35 79 36 18 37 19 38 20 39 73 40 21 41 78 42 72 43
REMARK SMILES IDX 74 44 22 45 77 46 71 47 70 48 23 50 57 51 36 52 56 53 37 54
REMARK SMILES IDX 40 55 55 56 75 57 38 58 39 59 54 61 76 62 41 63 24 64 25 65
REMARK SMILES IDX 34 66 26 67 27 68 33 69 35 70 28 71 29 72 30 73 31 74 32 75
REMARK SMILES IDX 58 76 59 77 68 78 60 79 61 80 67 81 69 82 62 83 63 84 64 85
REMARK SMILES IDX 65 86 66 87 42 88 43 89 52 90 44 91 45 92 51 93 53 94 46 95
REMARK SMILES IDX 47 96 48 97 49 98 50 99
REMARK H PARENT 74 49 40 60
REMARK Flexibility Score: inf
ROOT
ATOM      1  C   UNL A   1      42.083  20.128  26.871  1.00  0.00     0.188 C 
ENDROOT
BRANCH   1   2
ATOM      2  C   UNL A   1      40.704  20.419  26.259  1.00  0.00     0.188 C 
BRANCH   2   3
ATOM      3  O   UNL A   1      39.812  19.359  25.719  1.00  0.00    -0.376 OA
BRANCH   3   4
ATOM      4  C   UNL A   1      38.279  19.527  24.973  1.00  0.00     0.202 C 
BRANCH   4   5
ATOM      5  C   UNL A   1      36.879  21.151  25.332  1.00  0.00     0.261 C 
BRANCH   5   6
ATOM      6  O   UNL A   1      36.980  22.566  24.797  1.00  0.00    -0.460 OA
BRANCH   6   7
ATOM      7  C   UNL A   1      36.034  22.823  23.883  1.00  0.00     0.338 C 
ATOM      8  O   UNL A   1      36.184  23.219  22.755  1.00  0.00    -0.246 OA
BRANCH   7   9
ATOM      9  C   UNL A   1      34.930  22.985  24.819  1.00  0.00     0.087 C 
ATOM     10  C   UNL A   1      34.907  24.230  25.584  1.00  0.00     0.027 C 
ATOM     11  C   UNL A   1      33.619  22.478  23.514  1.00  0.00     0.316 C 
ATOM     12  C   UNL A   1      33.834  25.625  25.207  1.00  0.00     0.020 A 
ATOM     13  O   UNL A   1      32.560  24.024  22.963  1.00  0.00    -0.474 OA
ATOM     14  C   UNL A   1      33.987  26.785  25.910  1.00  0.00     0.034 A 
ATOM     15  C   UNL A   1      32.716  25.601  23.887  1.00  0.00     0.148 A 
ATOM     16  C   UNL A   1      33.177  27.861  25.489  1.00  0.00     0.062 A 
ATOM     17  C   UNL A   1      31.984  26.705  23.518  1.00  0.00     0.103 A 
ATOM     18  Cl  UNL A   1      33.411  29.320  26.424  1.00  0.00    -0.083 Cl
ATOM     19  C   UNL A   1      32.226  27.834  24.359  1.00  0.00     0.082 A 
ATOM     20  Cl  UNL A   1      30.976  26.741  22.143  1.00  0.00    -0.079 Cl
ATOM     21  Cl  UNL A   1      31.345  29.316  24.031  1.00  0.00    -0.081 Cl
BRANCH  11  22
ATOM     22  C   UNL A   1      33.231  21.068  24.349  1.00  0.00     0.430 C 
ATOM     23  F   UNL A   1      33.014  21.069  25.661  1.00  0.00    -0.167 F 
ATOM     24  F   UNL A   1      32.118  20.534  23.781  1.00  0.00    -0.167 F 
ATOM     25  F   UNL A   1      34.195  20.110  24.189  1.00  0.00    -0.167 F 
ENDBRANCH  11  22
ENDBRANCH   7   9
ENDBRANCH   6   7
ENDBRANCH   5   6
ENDBRANCH   4   5
ENDBRANCH   3   4
ENDBRANCH   2   3
ENDBRANCH   1   2
BRANCH   1  26
ATOM     26  O   UNL A   1      43.031  21.157  26.969  1.00  0.00    -0.376 OA
BRANCH  26  27
ATOM     27  C   UNL A   1      42.514  22.460  27.188  1.00  0.00     0.202 C 
BRANCH  27  28
ATOM     28  C   UNL A   1      42.701  23.505  26.077  1.00  0.00     0.261 C 
BRANCH  28  29
ATOM     29  O   UNL A   1      42.109  24.789  26.367  1.00  0.00    -0.460 OA
BRANCH  29  30
ATOM     30  C   UNL A   1      40.799  24.801  26.725  1.00  0.00     0.338 C 
ATOM     31  O   UNL A   1      39.937  24.007  26.390  1.00  0.00    -0.246 OA
BRANCH  30  32
ATOM     32  C   UNL A   1      40.571  25.869  27.719  1.00  0.00     0.060 A 
ATOM     33  C   UNL A   1      41.458  26.954  27.792  1.00  0.00     0.016 A 
ATOM     34  C   UNL A   1      39.509  25.764  28.616  1.00  0.00     0.016 A 
ATOM     35  C   UNL A   1      41.267  27.954  28.749  1.00  0.00     0.010 A 
ATOM     36  C   UNL A   1      39.348  26.736  29.604  1.00  0.00     0.010 A 
ATOM     37  C   UNL A   1      40.235  27.825  29.687  1.00  0.00    -0.014 A 
BRANCH  37  38
ATOM     38  C   UNL A   1      40.237  28.666  30.908  1.00  0.00     0.031 A 
ATOM     39  C   UNL A   1      39.279  29.825  30.949  1.00  0.00     0.074 A 
ATOM     40  C   UNL A   1      41.071  28.431  31.936  1.00  0.00     0.049 A 
ATOM     41  N   UNL A   1      39.134  30.755  31.854  1.00  0.00    -0.248 NA
ATOM     42  C   UNL A   1      38.366  29.956  29.798  1.00  0.00     0.031 C 
ATOM     43  C   UNL A   1      42.017  27.321  32.023  1.00  0.00     0.029 A 
ATOM     44  N   UNL A   1      41.265  29.130  33.103  1.00  0.00    -0.354 N 
ATOM     45  C   UNL A   1      38.120  31.581  31.384  1.00  0.00     0.074 A 
ATOM     46  C   UNL A   1      37.710  31.066  30.096  1.00  0.00     0.031 C 
ATOM     47  C   UNL A   1      42.705  27.423  33.174  1.00  0.00     0.029 A 
ATOM     48  C   UNL A   1      42.274  28.624  33.890  1.00  0.00     0.049 A 
ATOM     49  H   UNL A   1      40.733  29.919  33.352  1.00  0.00     0.167 HD
ATOM     50  C   UNL A   1      37.577  32.670  31.974  1.00  0.00     0.037 A 
ATOM     51  C   UNL A   1      42.800  29.095  35.040  1.00  0.00     0.037 A 
ATOM     52  C   UNL A   1      38.012  33.188  33.244  1.00  0.00     0.049 A 
ATOM     53  C   UNL A   1      42.231  30.359  35.643  1.00  0.00     0.074 A 
ATOM     54  C   UNL A   1      37.524  34.279  33.939  1.00  0.00     0.029 A 
ATOM     55  N   UNL A   1      39.049  32.661  34.000  1.00  0.00    -0.354 N 
ATOM     56  N   UNL A   1      41.250  31.114  35.208  1.00  0.00    -0.248 NA
ATOM     57  C   UNL A   1      42.838  30.834  36.895  1.00  0.00     0.031 C 
ATOM     58  C   UNL A   1      38.313  34.458  35.077  1.00  0.00     0.029 A 
ATOM     59  C   UNL A   1      39.237  33.425  35.139  1.00  0.00     0.049 A 
ATOM     60  H   UNL A   1      39.573  31.863  33.764  1.00  0.00     0.167 HD
ATOM     61  C   UNL A   1      41.095  32.126  36.152  1.00  0.00     0.074 A 
ATOM     62  C   UNL A   1      42.080  31.883  37.184  1.00  0.00     0.031 C 
ATOM     63  C   UNL A   1      40.216  33.160  36.166  1.00  0.00     0.037 A 
BRANCH  50  64
ATOM     64  C   UNL A   1      36.483  33.394  31.235  1.00  0.00     0.058 A 
ATOM     65  C   UNL A   1      36.740  34.145  30.077  1.00  0.00     0.135 A 
ATOM     66  C   UNL A   1      35.153  33.310  31.677  1.00  0.00     0.135 A 
ATOM     67  F   UNL A   1      37.996  34.281  29.622  1.00  0.00    -0.206 F 
ATOM     68  C   UNL A   1      35.722  34.805  29.398  1.00  0.00     0.059 A 
ATOM     69  C   UNL A   1      34.113  33.932  30.993  1.00  0.00     0.059 A 
ATOM     70  F   UNL A   1      34.851  32.613  32.785  1.00  0.00    -0.206 F 
ATOM     71  C   UNL A   1      34.410  34.687  29.860  1.00  0.00     0.060 A 
BRANCH  71  72
ATOM     72  S   UNL A   1      33.099  35.529  28.951  1.00  0.00     0.124 S 
ATOM     73  O   UNL A   1      32.526  34.431  28.179  1.00  0.00    -0.237 OA
ATOM     74  O   UNL A   1      32.263  36.052  30.026  1.00  0.00    -0.237 OA
ATOM     75  O   UNL A   1      33.815  36.534  28.172  1.00  0.00    -0.744 OA
ENDBRANCH  71  72
ENDBRANCH  50  64
BRANCH  51  76
ATOM     76  C   UNL A   1      43.934  28.383  35.698  1.00  0.00     0.058 A 
ATOM     77  C   UNL A   1      45.268  28.708  35.409  1.00  0.00     0.135 A 
ATOM     78  C   UNL A   1      43.705  27.347  36.618  1.00  0.00     0.135 A 
ATOM     79  F   UNL A   1      45.545  29.679  34.523  1.00  0.00    -0.206 F 
ATOM     80  C   UNL A   1      46.332  28.024  35.989  1.00  0.00     0.059 A 
ATOM     81  C   UNL A   1      44.752  26.670  37.238  1.00  0.00     0.059 A 
ATOM     82  F   UNL A   1      42.451  26.992  36.936  1.00  0.00    -0.206 F 
ATOM     83  C   UNL A   1      46.064  27.009  36.909  1.00  0.00     0.060 A 
BRANCH  83  84
ATOM     84  S   UNL A   1      47.452  26.159  37.692  1.00  0.00     0.124 S 
ATOM     85  O   UNL A   1      48.509  26.347  36.706  1.00  0.00    -0.237 OA
ATOM     86  O   UNL A   1      47.601  26.904  38.939  1.00  0.00    -0.237 OA
ATOM     87  O   UNL A   1      46.967  24.790  37.843  1.00  0.00    -0.744 OA
ENDBRANCH  83  84
ENDBRANCH  51  76
BRANCH  63  88
ATOM     88  C   UNL A   1      40.229  34.080  37.361  1.00  0.00     0.058 A 
ATOM     89  C   UNL A   1      39.398  33.874  38.473  1.00  0.00     0.135 A 
ATOM     90  C   UNL A   1      41.145  35.144  37.419  1.00  0.00     0.135 A 
ATOM     91  F   UNL A   1      38.502  32.875  38.474  1.00  0.00    -0.206 F 
ATOM     92  C   UNL A   1      39.456  34.707  39.587  1.00  0.00     0.059 A 
ATOM     93  C   UNL A   1      41.247  35.964  38.538  1.00  0.00     0.059 A 
ATOM     94  F   UNL A   1      41.973  35.381  36.389  1.00  0.00    -0.206 F 
ATOM     95  C   UNL A   1      40.390  35.745  39.612  1.00  0.00     0.060 A 
BRANCH  95  96
ATOM     96  S   UNL A   1      40.480  36.790  41.082  1.00  0.00     0.124 S 
ATOM     97  O   UNL A   1      41.596  36.189  41.804  1.00  0.00    -0.237 OA
ATOM     98  O   UNL A   1      40.732  38.109  40.508  1.00  0.00    -0.237 OA
ATOM     99  O   UNL A   1      39.169  36.622  41.702  1.00  0.00    -0.744 OA
ENDBRANCH  95  96
ENDBRANCH  63  88
ENDBRANCH  37  38
ENDBRANCH  30  32
ENDBRANCH  29  30
ENDBRANCH  28  29
ENDBRANCH  27  28
ENDBRANCH  26  27
ENDBRANCH   1  26
TORSDOF 21
ENDMDL
