MODEL 1
REMARK VINA RESULT:      -6.6      0.000      0.000
REMARK SMILES C[C@H]1CCCN1c1cccc(OCC(=O)OCCOCCOCCOC(=O)c2ccc(-c3c4nc(c(-c5c(F)cc(S(=O)(=O)[O-])cc5F)c5ccc([nH]5)c(-c5c(F)cc(S(=O)(=O)[O-])cc5F)c5nc(c(-c6c(F)cc(S(=O)(=O)[O-])cc6F)c6ccc3[nH]6)C=C5)C=C4)cc2)c1
REMARK SMILES IDX 20 1 19 2 18 3 17 4 16 5 14 6 15 7 13 8 12 9 11 10 7 11 8 12
REMARK SMILES IDX 94 13 9 14 10 15 6 16 1 17 2 18 3 19 4 20 5 21 21 22 22 23
REMARK SMILES IDX 23 24 24 25 25 26 26 27 27 28 28 29 29 30 93 31 30 32 92 33
REMARK SMILES IDX 31 34 32 35 33 36 86 37 34 38 91 39 85 40 87 41 35 42 90 43
REMARK SMILES IDX 84 44 83 45 36 47 70 48 49 49 69 50 50 51 53 52 68 53 88 54
REMARK SMILES IDX 51 55 52 56 67 58 89 59 54 60 37 61 38 62 47 63 39 64 40 65
REMARK SMILES IDX 46 66 48 67 41 68 42 69 43 70 44 71 45 72 71 73 72 74 81 75
REMARK SMILES IDX 73 76 74 77 80 78 82 79 75 80 76 81 77 82 78 83 79 84 55 85
REMARK SMILES IDX 56 86 65 87 57 88 58 89 64 90 66 91 59 92 60 93 61 94 62 95
REMARK SMILES IDX 63 96
REMARK H PARENT 87 46 53 57
REMARK Flexibility Score: inf
ROOT
ATOM      1  C   UNL A   1      34.128  33.752  33.089  1.00  0.00     0.188 C 
ENDROOT
BRANCH   1   2
ATOM      2  O   UNL A   1      35.127  33.809  34.080  1.00  0.00    -0.376 OA
BRANCH   2   3
ATOM      3  C   UNL A   1      36.261  34.595  33.760  1.00  0.00     0.202 C 
BRANCH   3   4
ATOM      4  C   UNL A   1      37.656  33.964  33.980  1.00  0.00     0.261 C 
BRANCH   4   5
ATOM      5  O   UNL A   1      37.637  32.549  34.342  1.00  0.00    -0.461 OA
BRANCH   5   6
ATOM      6  C   UNL A   1      37.920  32.227  35.639  1.00  0.00     0.344 C 
ATOM      7  O   UNL A   1      37.806  33.031  36.561  1.00  0.00    -0.248 OA
BRANCH   6   8
ATOM      8  C   UNL A   1      38.436  30.767  35.904  1.00  0.00     0.351 C 
BRANCH   8   9
ATOM      9  O   UNL A   1      39.780  30.305  35.991  1.00  0.00    -0.482 OA
BRANCH   9  10
ATOM     10  C   UNL A   1      40.411  29.619  34.977  1.00  0.00     0.122 A 
ATOM     11  C   UNL A   1      42.112  28.015  34.118  1.00  0.00     0.041 A 
ATOM     12  C   UNL A   1      41.295  27.776  33.001  1.00  0.00     0.026 A 
ATOM     13  C   UNL A   1      41.701  29.083  35.000  1.00  0.00     0.072 A 
ATOM     14  C   UNL A   1      40.068  28.444  32.871  1.00  0.00     0.006 A 
ATOM     15  C   UNL A   1      39.611  29.312  33.875  1.00  0.00     0.046 A 
BRANCH  11  16
ATOM     16  N   UNL A   1      43.302  27.076  34.374  1.00  0.00    -0.369 N 
ATOM     17  C   UNL A   1      44.433  24.438  32.422  1.00  0.00     0.031 C 
ATOM     18  C   UNL A   1      44.172  25.187  33.967  1.00  0.00     0.079 C 
ATOM     19  C   UNL A   1      45.526  24.864  34.389  1.00  0.00     0.026 C 
ATOM     20  C   UNL A   1      44.773  25.425  35.459  1.00  0.00     0.023 C 
ATOM     21  C   UNL A   1      43.781  27.395  35.462  1.00  0.00     0.117 C 
ENDBRANCH  11  16
ENDBRANCH   9  10
ENDBRANCH   8   9
ENDBRANCH   6   8
ENDBRANCH   5   6
ENDBRANCH   4   5
ENDBRANCH   3   4
ENDBRANCH   2   3
ENDBRANCH   1   2
BRANCH   1  22
ATOM     22  C   UNL A   1      33.792  35.015  32.263  1.00  0.00     0.188 C 
BRANCH  22  23
ATOM     23  O   UNL A   1      32.833  34.960  31.231  1.00  0.00    -0.376 OA
BRANCH  23  24
ATOM     24  C   UNL A   1      33.197  35.440  29.954  1.00  0.00     0.202 C 
BRANCH  24  25
ATOM     25  C   UNL A   1      33.791  34.484  28.909  1.00  0.00     0.261 C 
BRANCH  25  26
ATOM     26  O   UNL A   1      33.985  33.146  29.392  1.00  0.00    -0.460 OA
BRANCH  26  27
ATOM     27  C   UNL A   1      34.304  32.213  28.466  1.00  0.00     0.338 C 
ATOM     28  O   UNL A   1      33.554  31.775  27.607  1.00  0.00    -0.246 OA
BRANCH  27  29
ATOM     29  C   UNL A   1      35.679  31.683  28.661  1.00  0.00     0.060 A 
ATOM     30  C   UNL A   1      36.300  29.890  29.254  1.00  0.00     0.016 A 
ATOM     31  C   UNL A   1      37.091  33.021  28.790  1.00  0.00     0.016 A 
ATOM     32  C   UNL A   1      38.111  29.799  30.009  1.00  0.00     0.010 A 
ATOM     33  C   UNL A   1      38.911  32.894  29.453  1.00  0.00     0.010 A 
ATOM     34  C   UNL A   1      39.525  31.164  30.219  1.00  0.00    -0.014 A 
BRANCH  34  35
ATOM     35  C   UNL A   1      40.964  31.003  30.623  1.00  0.00     0.031 A 
ATOM     36  C   UNL A   1      41.792  29.914  29.958  1.00  0.00     0.074 A 
ATOM     37  C   UNL A   1      41.438  31.628  31.723  1.00  0.00     0.049 A 
ATOM     38  N   UNL A   1      42.824  29.250  30.415  1.00  0.00    -0.248 NA
ATOM     39  C   UNL A   1      41.348  29.447  28.634  1.00  0.00     0.031 C 
ATOM     40  C   UNL A   1      40.741  32.635  32.517  1.00  0.00     0.029 A 
ATOM     41  N   UNL A   1      42.612  31.450  32.420  1.00  0.00    -0.354 N 
ATOM     42  C   UNL A   1      43.077  28.240  29.483  1.00  0.00     0.074 A 
ATOM     43  C   UNL A   1      42.040  28.326  28.484  1.00  0.00     0.031 C 
ATOM     44  C   UNL A   1      41.474  32.986  33.578  1.00  0.00     0.029 A 
ATOM     45  C   UNL A   1      42.673  32.178  33.591  1.00  0.00     0.049 A 
ATOM     46  H   UNL A   1      43.339  30.861  32.113  1.00  0.00     0.167 HD
ATOM     47  C   UNL A   1      44.109  27.360  29.435  1.00  0.00     0.037 A 
ATOM     48  C   UNL A   1      43.562  32.179  34.600  1.00  0.00     0.037 A 
ATOM     49  C   UNL A   1      45.213  27.412  30.358  1.00  0.00     0.049 A 
ATOM     50  C   UNL A   1      44.744  31.270  34.479  1.00  0.00     0.074 A 
ATOM     51  C   UNL A   1      46.390  26.687  30.343  1.00  0.00     0.029 A 
ATOM     52  N   UNL A   1      45.289  28.280  31.440  1.00  0.00    -0.354 N 
ATOM     53  N   UNL A   1      44.978  30.353  33.571  1.00  0.00    -0.248 NA
ATOM     54  C   UNL A   1      45.793  31.411  35.491  1.00  0.00     0.031 C 
ATOM     55  C   UNL A   1      47.167  27.099  31.431  1.00  0.00     0.029 A 
ATOM     56  C   UNL A   1      46.492  28.111  32.097  1.00  0.00     0.049 A 
ATOM     57  H   UNL A   1      44.587  28.921  31.699  1.00  0.00     0.167 HD
ATOM     58  C   UNL A   1      46.227  29.837  33.875  1.00  0.00     0.074 A 
ATOM     59  C   UNL A   1      46.698  30.551  35.047  1.00  0.00     0.031 C 
ATOM     60  C   UNL A   1      46.927  28.864  33.245  1.00  0.00     0.037 A 
BRANCH  47  61
ATOM     61  C   UNL A   1      44.145  26.325  28.330  1.00  0.00     0.058 A 
ATOM     62  C   UNL A   1      44.804  26.558  27.110  1.00  0.00     0.135 A 
ATOM     63  C   UNL A   1      43.570  25.054  28.514  1.00  0.00     0.135 A 
ATOM     64  F   UNL A   1      45.373  27.749  26.865  1.00  0.00    -0.206 F 
ATOM     65  C   UNL A   1      44.861  25.591  26.109  1.00  0.00     0.059 A 
ATOM     66  C   UNL A   1      43.644  24.059  27.539  1.00  0.00     0.059 A 
ATOM     67  F   UNL A   1      42.933  24.760  29.658  1.00  0.00    -0.206 F 
ATOM     68  C   UNL A   1      44.283  24.342  26.332  1.00  0.00     0.060 A 
BRANCH  68  69
ATOM     69  S   UNL A   1      44.400  23.092  25.032  1.00  0.00     0.124 S 
ATOM     70  O   UNL A   1      44.952  21.957  25.767  1.00  0.00    -0.237 OA
ATOM     71  O   UNL A   1      43.011  22.954  24.608  1.00  0.00    -0.237 OA
ATOM     72  O   UNL A   1      45.296  23.699  24.053  1.00  0.00    -0.744 OA
ENDBRANCH  68  69
ENDBRANCH  47  61
BRANCH  48  73
ATOM     73  C   UNL A   1      43.387  33.097  35.761  1.00  0.00     0.058 A 
ATOM     74  C   UNL A   1      42.856  32.625  36.969  1.00  0.00     0.135 A 
ATOM     75  C   UNL A   1      43.784  34.444  35.709  1.00  0.00     0.135 A 
ATOM     76  F   UNL A   1      42.482  31.341  37.078  1.00  0.00    -0.206 F 
ATOM     77  C   UNL A   1      42.679  33.458  38.068  1.00  0.00     0.059 A 
ATOM     78  C   UNL A   1      43.645  35.293  36.806  1.00  0.00     0.059 A 
ATOM     79  F   UNL A   1      44.345  34.939  34.594  1.00  0.00    -0.206 F 
ATOM     80  C   UNL A   1      43.073  34.794  37.975  1.00  0.00     0.060 A 
BRANCH  80  81
ATOM     81  S   UNL A   1      42.835  35.864  39.411  1.00  0.00     0.124 S 
ATOM     82  O   UNL A   1      43.414  35.056  40.477  1.00  0.00    -0.237 OA
ATOM     83  O   UNL A   1      43.586  37.056  39.033  1.00  0.00    -0.237 OA
ATOM     84  O   UNL A   1      41.386  36.036  39.465  1.00  0.00    -0.744 OA
ENDBRANCH  80  81
ENDBRANCH  48  73
BRANCH  60  85
ATOM     85  C   UNL A   1      48.293  28.570  33.781  1.00  0.00     0.058 A 
ATOM     86  C   UNL A   1      49.443  29.115  33.193  1.00  0.00     0.135 A 
ATOM     87  C   UNL A   1      48.441  27.765  34.921  1.00  0.00     0.135 A 
ATOM     88  F   UNL A   1      49.344  29.876  32.093  1.00  0.00    -0.206 F 
ATOM     89  C   UNL A   1      50.704  28.853  33.708  1.00  0.00     0.059 A 
ATOM     90  C   UNL A   1      49.690  27.517  35.472  1.00  0.00     0.059 A 
ATOM     91  F   UNL A   1      47.364  27.228  35.517  1.00  0.00    -0.206 F 
ATOM     92  C   UNL A   1      50.816  28.057  34.851  1.00  0.00     0.060 A 
BRANCH  92  93
ATOM     93  S   UNL A   1      52.458  27.767  35.536  1.00  0.00     0.124 S 
ATOM     94  O   UNL A   1      52.811  26.493  34.920  1.00  0.00    -0.237 OA
ATOM     95  O   UNL A   1      53.201  28.930  35.063  1.00  0.00    -0.237 OA
ATOM     96  O   UNL A   1      52.221  27.724  36.977  1.00  0.00    -0.744 OA
ENDBRANCH  92  93
ENDBRANCH  60  85
ENDBRANCH  34  35
ENDBRANCH  27  29
ENDBRANCH  26  27
ENDBRANCH  25  26
ENDBRANCH  24  25
ENDBRANCH  23  24
ENDBRANCH  22  23
ENDBRANCH   1  22
TORSDOF 23
ENDMDL
MODEL 2
REMARK VINA RESULT:      -6.5      6.240     11.671
REMARK SMILES C[C@H]1CCCN1c1cccc(OCC(=O)OCCOCCOCCOC(=O)c2ccc(-c3c4nc(c(-c5c(F)cc(S(=O)(=O)[O-])cc5F)c5ccc([nH]5)c(-c5c(F)cc(S(=O)(=O)[O-])cc5F)c5nc(c(-c6c(F)cc(S(=O)(=O)[O-])cc6F)c6ccc3[nH]6)C=C5)C=C4)cc2)c1
REMARK SMILES IDX 20 1 19 2 18 3 17 4 16 5 14 6 15 7 13 8 12 9 11 10 7 11 8 12
REMARK SMILES IDX 94 13 9 14 10 15 6 16 1 17 2 18 3 19 4 20 5 21 21 22 22 23
REMARK SMILES IDX 23 24 24 25 25 26 26 27 27 28 28 29 29 30 93 31 30 32 92 33
REMARK SMILES IDX 31 34 32 35 33 36 86 37 34 38 91 39 85 40 87 41 35 42 90 43
REMARK SMILES IDX 84 44 83 45 36 47 70 48 49 49 69 50 50 51 53 52 68 53 88 54
REMARK SMILES IDX 51 55 52 56 67 58 89 59 54 60 37 61 38 62 47 63 39 64 40 65
REMARK SMILES IDX 46 66 48 67 41 68 42 69 43 70 44 71 45 72 71 73 72 74 81 75
REMARK SMILES IDX 73 76 74 77 80 78 82 79 75 80 76 81 77 82 78 83 79 84 55 85
REMARK SMILES IDX 56 86 65 87 57 88 58 89 64 90 66 91 59 92 60 93 61 94 62 95
REMARK SMILES IDX 63 96
REMARK H PARENT 87 46 53 57
REMARK Flexibility Score: inf
ROOT
ATOM      1  C   UNL A   1      34.443  26.032  25.509  1.00  0.00     0.188 C 
ENDROOT
BRANCH   1   2
ATOM      2  O   UNL A   1      34.057  24.719  25.841  1.00  0.00    -0.376 OA
BRANCH   2   3
ATOM      3  C   UNL A   1      35.115  23.789  25.987  1.00  0.00     0.202 C 
BRANCH   3   4
ATOM      4  C   UNL A   1      34.871  22.562  26.896  1.00  0.00     0.261 C 
BRANCH   4   5
ATOM      5  O   UNL A   1      33.716  22.678  27.782  1.00  0.00    -0.461 OA
BRANCH   5   6
ATOM      6  C   UNL A   1      32.479  22.499  27.231  1.00  0.00     0.344 C 
ATOM      7  O   UNL A   1      31.538  23.256  27.454  1.00  0.00    -0.248 OA
BRANCH   6   8
ATOM      8  C   UNL A   1      32.298  21.243  26.303  1.00  0.00     0.351 C 
BRANCH   8   9
ATOM      9  O   UNL A   1      31.810  21.193  24.967  1.00  0.00    -0.482 OA
BRANCH   9  10
ATOM     10  C   UNL A   1      32.077  22.164  24.027  1.00  0.00     0.122 A 
ATOM     11  C   UNL A   1      31.892  24.479  23.127  1.00  0.00     0.041 A 
ATOM     12  C   UNL A   1      33.106  24.290  22.445  1.00  0.00     0.026 A 
ATOM     13  C   UNL A   1      31.329  23.316  23.773  1.00  0.00     0.072 A 
ATOM     14  C   UNL A   1      33.787  23.067  22.547  1.00  0.00     0.006 A 
ATOM     15  C   UNL A   1      33.303  22.040  23.372  1.00  0.00     0.046 A 
BRANCH  11  16
ATOM     16  N   UNL A   1      31.318  25.901  23.224  1.00  0.00    -0.369 N 
ATOM     17  C   UNL A   1      32.829  28.908  22.373  1.00  0.00     0.031 C 
ATOM     18  C   UNL A   1      31.754  27.970  23.364  1.00  0.00     0.079 C 
ATOM     19  C   UNL A   1      30.713  28.979  23.246  1.00  0.00     0.026 C 
ATOM     20  C   UNL A   1      30.338  27.957  24.163  1.00  0.00     0.023 C 
ATOM     21  C   UNL A   1      30.197  25.799  23.724  1.00  0.00     0.117 C 
ENDBRANCH  11  16
ENDBRANCH   9  10
ENDBRANCH   8   9
ENDBRANCH   6   8
ENDBRANCH   5   6
ENDBRANCH   4   5
ENDBRANCH   3   4
ENDBRANCH   2   3
ENDBRANCH   1   2
BRANCH   1  22
ATOM     22  C   UNL A   1      33.555  27.224  25.934  1.00  0.00     0.188 C 
BRANCH  22  23
ATOM     23  O   UNL A   1      34.140  28.437  26.353  1.00  0.00    -0.376 OA
BRANCH  23  24
ATOM     24  C   UNL A   1      33.289  29.535  26.611  1.00  0.00     0.202 C 
BRANCH  24  25
ATOM     25  C   UNL A   1      33.460  30.361  27.894  1.00  0.00     0.261 C 
BRANCH  25  26
ATOM     26  O   UNL A   1      34.503  31.344  27.816  1.00  0.00    -0.460 OA
BRANCH  26  27
ATOM     27  C   UNL A   1      35.370  31.383  28.853  1.00  0.00     0.338 C 
ATOM     28  O   UNL A   1      35.105  31.737  29.992  1.00  0.00    -0.246 OA
BRANCH  27  29
ATOM     29  C   UNL A   1      36.753  31.033  28.435  1.00  0.00     0.060 A 
ATOM     30  C   UNL A   1      37.407  30.012  26.860  1.00  0.00     0.016 A 
ATOM     31  C   UNL A   1      38.119  31.194  29.816  1.00  0.00     0.016 A 
ATOM     32  C   UNL A   1      39.194  29.212  27.019  1.00  0.00     0.010 A 
ATOM     33  C   UNL A   1      39.920  30.475  29.918  1.00  0.00     0.010 A 
ATOM     34  C   UNL A   1      40.559  29.300  28.445  1.00  0.00    -0.014 A 
BRANCH  34  35
ATOM     35  C   UNL A   1      41.989  28.835  28.438  1.00  0.00     0.031 A 
ATOM     36  C   UNL A   1      43.097  29.876  28.438  1.00  0.00     0.074 A 
ATOM     37  C   UNL A   1      42.284  27.543  28.176  1.00  0.00     0.049 A 
ATOM     38  N   UNL A   1      44.314  29.804  27.960  1.00  0.00    -0.248 NA
ATOM     39  C   UNL A   1      42.766  31.209  28.970  1.00  0.00     0.031 C 
ATOM     40  C   UNL A   1      41.332  26.441  28.065  1.00  0.00     0.029 A 
ATOM     41  N   UNL A   1      43.484  26.939  27.876  1.00  0.00    -0.354 N 
ATOM     42  C   UNL A   1      44.841  31.095  28.049  1.00  0.00     0.074 A 
ATOM     43  C   UNL A   1      43.784  31.943  28.545  1.00  0.00     0.031 C 
ATOM     44  C   UNL A   1      41.960  25.311  27.725  1.00  0.00     0.029 A 
ATOM     45  C   UNL A   1      43.359  25.611  27.519  1.00  0.00     0.049 A 
ATOM     46  H   UNL A   1      44.349  27.409  27.913  1.00  0.00     0.167 HD
ATOM     47  C   UNL A   1      46.103  31.522  27.796  1.00  0.00     0.037 A 
ATOM     48  C   UNL A   1      44.248  24.728  27.033  1.00  0.00     0.037 A 
ATOM     49  C   UNL A   1      47.174  30.618  27.462  1.00  0.00     0.049 A 
ATOM     50  C   UNL A   1      45.658  25.194  26.853  1.00  0.00     0.074 A 
ATOM     51  C   UNL A   1      48.523  30.886  27.323  1.00  0.00     0.029 A 
ATOM     52  N   UNL A   1      47.011  29.253  27.263  1.00  0.00    -0.354 N 
ATOM     53  N   UNL A   1      46.137  26.409  26.979  1.00  0.00    -0.248 NA
ATOM     54  C   UNL A   1      46.651  24.178  26.497  1.00  0.00     0.031 C 
ATOM     55  C   UNL A   1      49.173  29.686  27.014  1.00  0.00     0.029 A 
ATOM     56  C   UNL A   1      48.234  28.665  27.005  1.00  0.00     0.049 A 
ATOM     57  H   UNL A   1      46.151  28.776  27.300  1.00  0.00     0.167 HD
ATOM     58  C   UNL A   1      47.501  26.296  26.764  1.00  0.00     0.074 A 
ATOM     59  C   UNL A   1      47.767  24.893  26.507  1.00  0.00     0.031 C 
ATOM     60  C   UNL A   1      48.452  27.259  26.780  1.00  0.00     0.037 A 
BRANCH  47  61
ATOM     61  C   UNL A   1      46.426  32.996  27.935  1.00  0.00     0.058 A 
ATOM     62  C   UNL A   1      46.203  33.910  26.891  1.00  0.00     0.135 A 
ATOM     63  C   UNL A   1      46.904  33.517  29.152  1.00  0.00     0.135 A 
ATOM     64  F   UNL A   1      45.751  33.483  25.702  1.00  0.00    -0.206 F 
ATOM     65  C   UNL A   1      46.473  35.270  27.034  1.00  0.00     0.059 A 
ATOM     66  C   UNL A   1      47.149  34.879  29.329  1.00  0.00     0.059 A 
ATOM     67  F   UNL A   1      47.130  32.702  30.194  1.00  0.00    -0.206 F 
ATOM     68  C   UNL A   1      46.941  35.748  28.258  1.00  0.00     0.060 A 
BRANCH  68  69
ATOM     69  S   UNL A   1      47.250  37.520  28.431  1.00  0.00     0.124 S 
ATOM     70  O   UNL A   1      48.592  37.528  29.005  1.00  0.00    -0.237 OA
ATOM     71  O   UNL A   1      47.149  37.989  27.053  1.00  0.00    -0.237 OA
ATOM     72  O   UNL A   1      46.185  37.967  29.323  1.00  0.00    -0.744 OA
ENDBRANCH  68  69
ENDBRANCH  47  61
BRANCH  48  73
ATOM     73  C   UNL A   1      43.837  23.325  26.741  1.00  0.00     0.058 A 
ATOM     74  C   UNL A   1      43.814  22.849  25.423  1.00  0.00     0.135 A 
ATOM     75  C   UNL A   1      43.505  22.420  27.764  1.00  0.00     0.135 A 
ATOM     76  F   UNL A   1      44.143  23.666  24.411  1.00  0.00    -0.206 F 
ATOM     77  C   UNL A   1      43.432  21.545  25.121  1.00  0.00     0.059 A 
ATOM     78  C   UNL A   1      43.150  21.101  27.490  1.00  0.00     0.059 A 
ATOM     79  F   UNL A   1      43.559  22.806  29.049  1.00  0.00    -0.206 F 
ATOM     80  C   UNL A   1      43.097  20.679  26.163  1.00  0.00     0.060 A 
BRANCH  80  81
ATOM     81  S   UNL A   1      42.602  18.991  25.753  1.00  0.00     0.124 S 
ATOM     82  O   UNL A   1      43.201  18.237  26.848  1.00  0.00    -0.237 OA
ATOM     83  O   UNL A   1      41.146  19.087  25.764  1.00  0.00    -0.237 OA
ATOM     84  O   UNL A   1      43.199  18.776  24.437  1.00  0.00    -0.744 OA
ENDBRANCH  80  81
ENDBRANCH  48  73
BRANCH  60  85
ATOM     85  C   UNL A   1      49.864  26.808  26.572  1.00  0.00     0.058 A 
ATOM     86  C   UNL A   1      50.413  26.689  25.288  1.00  0.00     0.135 A 
ATOM     87  C   UNL A   1      50.682  26.533  27.678  1.00  0.00     0.135 A 
ATOM     88  F   UNL A   1      49.658  26.927  24.204  1.00  0.00    -0.206 F 
ATOM     89  C   UNL A   1      51.728  26.288  25.104  1.00  0.00     0.059 A 
ATOM     90  C   UNL A   1      52.010  26.163  27.519  1.00  0.00     0.059 A 
ATOM     91  F   UNL A   1      50.196  26.640  28.925  1.00  0.00    -0.206 F 
ATOM     92  C   UNL A   1      52.520  26.033  26.227  1.00  0.00     0.060 A 
BRANCH  92  93
ATOM     93  S   UNL A   1      54.241  25.563  25.973  1.00  0.00     0.124 S 
ATOM     94  O   UNL A   1      54.444  24.603  27.054  1.00  0.00    -0.237 OA
ATOM     95  O   UNL A   1      54.215  25.006  24.625  1.00  0.00    -0.237 OA
ATOM     96  O   UNL A   1      54.962  26.826  26.111  1.00  0.00    -0.744 OA
ENDBRANCH  92  93
ENDBRANCH  60  85
ENDBRANCH  34  35
ENDBRANCH  27  29
ENDBRANCH  26  27
ENDBRANCH  25  26
ENDBRANCH  24  25
ENDBRANCH  23  24
ENDBRANCH  22  23
ENDBRANCH   1  22
TORSDOF 23
ENDMDL
MODEL 3
REMARK VINA RESULT:      -6.4      4.430     11.260
REMARK SMILES C[C@H]1CCCN1c1cccc(OCC(=O)OCCOCCOCCOC(=O)c2ccc(-c3c4nc(c(-c5c(F)cc(S(=O)(=O)[O-])cc5F)c5ccc([nH]5)c(-c5c(F)cc(S(=O)(=O)[O-])cc5F)c5nc(c(-c6c(F)cc(S(=O)(=O)[O-])cc6F)c6ccc3[nH]6)C=C5)C=C4)cc2)c1
REMARK SMILES IDX 20 1 19 2 18 3 17 4 16 5 14 6 15 7 13 8 12 9 11 10 7 11 8 12
REMARK SMILES IDX 94 13 9 14 10 15 6 16 1 17 2 18 3 19 4 20 5 21 21 22 22 23
REMARK SMILES IDX 23 24 24 25 25 26 26 27 27 28 28 29 29 30 93 31 30 32 92 33
REMARK SMILES IDX 31 34 32 35 33 36 86 37 34 38 91 39 85 40 87 41 35 42 90 43
REMARK SMILES IDX 84 44 83 45 36 47 70 48 49 49 69 50 50 51 53 52 68 53 88 54
REMARK SMILES IDX 51 55 52 56 67 58 89 59 54 60 37 61 38 62 47 63 39 64 40 65
REMARK SMILES IDX 46 66 48 67 41 68 42 69 43 70 44 71 45 72 71 73 72 74 81 75
REMARK SMILES IDX 73 76 74 77 80 78 82 79 75 80 76 81 77 82 78 83 79 84 55 85
REMARK SMILES IDX 56 86 65 87 57 88 58 89 64 90 66 91 59 92 60 93 61 94 62 95
REMARK SMILES IDX 63 96
REMARK H PARENT 87 46 53 57
REMARK Flexibility Score: inf
ROOT
ATOM      1  C   UNL A   1      33.914  26.471  25.703  1.00  0.00     0.188 C 
ENDROOT
BRANCH   1   2
ATOM      2  O   UNL A   1      33.458  25.218  26.154  1.00  0.00    -0.376 OA
BRANCH   2   3
ATOM      3  C   UNL A   1      34.406  24.167  26.101  1.00  0.00     0.202 C 
BRANCH   3   4
ATOM      4  C   UNL A   1      33.983  22.790  26.664  1.00  0.00     0.261 C 
BRANCH   4   5
ATOM      5  O   UNL A   1      32.784  22.812  27.498  1.00  0.00    -0.461 OA
BRANCH   5   6
ATOM      6  C   UNL A   1      31.585  22.999  26.872  1.00  0.00     0.344 C 
ATOM      7  O   UNL A   1      30.682  23.677  27.357  1.00  0.00    -0.248 OA
BRANCH   6   8
ATOM      8  C   UNL A   1      31.393  22.275  25.491  1.00  0.00     0.351 C 
BRANCH   8   9
ATOM      9  O   UNL A   1      30.666  22.721  24.351  1.00  0.00    -0.482 OA
BRANCH   9  10
ATOM     10  C   UNL A   1      31.094  23.745  23.535  1.00  0.00     0.122 A 
ATOM     11  C   UNL A   1      31.091  26.118  22.779  1.00  0.00     0.041 A 
ATOM     12  C   UNL A   1      32.395  25.942  22.285  1.00  0.00     0.026 A 
ATOM     13  C   UNL A   1      30.414  24.931  23.246  1.00  0.00     0.072 A 
ATOM     14  C   UNL A   1      33.031  24.698  22.407  1.00  0.00     0.006 A 
ATOM     15  C   UNL A   1      32.406  23.632  23.073  1.00  0.00     0.046 A 
BRANCH  11  16
ATOM     16  N   UNL A   1      30.531  27.545  22.883  1.00  0.00    -0.369 N 
ATOM     17  C   UNL A   1      27.240  28.548  23.343  1.00  0.00     0.031 C 
ATOM     18  C   UNL A   1      28.826  28.786  22.675  1.00  0.00     0.079 C 
ATOM     19  C   UNL A   1      28.835  30.175  23.107  1.00  0.00     0.026 C 
ATOM     20  C   UNL A   1      29.975  29.876  22.310  1.00  0.00     0.023 C 
ATOM     21  C   UNL A   1      31.479  28.314  22.718  1.00  0.00     0.117 C 
ENDBRANCH  11  16
ENDBRANCH   9  10
ENDBRANCH   8   9
ENDBRANCH   6   8
ENDBRANCH   5   6
ENDBRANCH   4   5
ENDBRANCH   3   4
ENDBRANCH   2   3
ENDBRANCH   1   2
BRANCH   1  22
ATOM     22  C   UNL A   1      33.128  27.751  26.066  1.00  0.00     0.188 C 
BRANCH  22  23
ATOM     23  O   UNL A   1      33.803  28.976  26.252  1.00  0.00    -0.376 OA
BRANCH  23  24
ATOM     24  C   UNL A   1      33.038  30.163  26.276  1.00  0.00     0.202 C 
BRANCH  24  25
ATOM     25  C   UNL A   1      33.224  31.179  27.412  1.00  0.00     0.261 C 
BRANCH  25  26
ATOM     26  O   UNL A   1      34.327  32.076  27.213  1.00  0.00    -0.460 OA
BRANCH  26  27
ATOM     27  C   UNL A   1      34.997  32.461  28.322  1.00  0.00     0.338 C 
ATOM     28  O   UNL A   1      34.792  33.482  28.961  1.00  0.00    -0.246 OA
BRANCH  27  29
ATOM     29  C   UNL A   1      36.112  31.535  28.649  1.00  0.00     0.060 A 
ATOM     30  C   UNL A   1      36.093  29.601  29.108  1.00  0.00     0.016 A 
ATOM     31  C   UNL A   1      37.799  32.382  29.138  1.00  0.00     0.016 A 
ATOM     32  C   UNL A   1      37.648  28.923  30.099  1.00  0.00     0.010 A 
ATOM     33  C   UNL A   1      39.368  31.673  30.035  1.00  0.00     0.010 A 
ATOM     34  C   UNL A   1      39.330  29.789  30.672  1.00  0.00    -0.014 A 
BRANCH  34  35
ATOM     35  C   UNL A   1      40.574  29.181  31.256  1.00  0.00     0.031 A 
ATOM     36  C   UNL A   1      41.210  29.840  32.470  1.00  0.00     0.074 A 
ATOM     37  C   UNL A   1      41.256  28.235  30.573  1.00  0.00     0.049 A 
ATOM     38  N   UNL A   1      42.460  29.850  32.859  1.00  0.00    -0.248 NA
ATOM     39  C   UNL A   1      40.337  30.672  33.316  1.00  0.00     0.031 C 
ATOM     40  C   UNL A   1      40.821  27.563  29.352  1.00  0.00     0.029 A 
ATOM     41  N   UNL A   1      42.516  27.717  30.772  1.00  0.00    -0.354 N 
ATOM     42  C   UNL A   1      42.527  30.757  33.920  1.00  0.00     0.074 A 
ATOM     43  C   UNL A   1      41.214  31.338  34.055  1.00  0.00     0.031 C 
ATOM     44  C   UNL A   1      41.773  26.738  28.906  1.00  0.00     0.029 A 
ATOM     45  C   UNL A   1      42.928  26.866  29.766  1.00  0.00     0.049 A 
ATOM     46  H   UNL A   1      43.071  27.933  31.557  1.00  0.00     0.167 HD
ATOM     47  C   UNL A   1      43.571  31.037  34.740  1.00  0.00     0.037 A 
ATOM     48  C   UNL A   1      44.111  26.278  29.519  1.00  0.00     0.037 A 
ATOM     49  C   UNL A   1      44.817  30.317  34.680  1.00  0.00     0.049 A 
ATOM     50  C   UNL A   1      45.221  26.524  30.492  1.00  0.00     0.074 A 
ATOM     51  C   UNL A   1      45.902  30.389  35.534  1.00  0.00     0.029 A 
ATOM     52  N   UNL A   1      45.118  29.353  33.727  1.00  0.00    -0.354 N 
ATOM     53  N   UNL A   1      45.246  27.356  31.506  1.00  0.00    -0.248 NA
ATOM     54  C   UNL A   1      46.444  25.739  30.313  1.00  0.00     0.031 C 
ATOM     55  C   UNL A   1      46.870  29.486  35.082  1.00  0.00     0.029 A 
ATOM     56  C   UNL A   1      46.369  28.820  33.973  1.00  0.00     0.049 A 
ATOM     57  H   UNL A   1      44.527  29.088  32.985  1.00  0.00     0.167 HD
ATOM     58  C   UNL A   1      46.474  27.161  32.117  1.00  0.00     0.074 A 
ATOM     59  C   UNL A   1      47.156  26.127  31.360  1.00  0.00     0.031 C 
ATOM     60  C   UNL A   1      46.995  27.774  33.206  1.00  0.00     0.037 A 
BRANCH  47  61
ATOM     61  C   UNL A   1      43.406  32.097  35.809  1.00  0.00     0.058 A 
ATOM     62  C   UNL A   1      43.690  33.452  35.568  1.00  0.00     0.135 A 
ATOM     63  C   UNL A   1      42.893  31.767  37.078  1.00  0.00     0.135 A 
ATOM     64  F   UNL A   1      44.185  33.838  34.381  1.00  0.00    -0.206 F 
ATOM     65  C   UNL A   1      43.507  34.428  36.545  1.00  0.00     0.059 A 
ATOM     66  C   UNL A   1      42.669  32.732  38.060  1.00  0.00     0.059 A 
ATOM     67  F   UNL A   1      42.591  30.493  37.374  1.00  0.00    -0.206 F 
ATOM     68  C   UNL A   1      42.992  34.061  37.788  1.00  0.00     0.060 A 
BRANCH  68  69
ATOM     69  S   UNL A   1      42.730  35.349  39.028  1.00  0.00     0.124 S 
ATOM     70  O   UNL A   1      43.996  36.074  38.968  1.00  0.00    -0.237 OA
ATOM     71  O   UNL A   1      41.569  36.059  38.498  1.00  0.00    -0.237 OA
ATOM     72  O   UNL A   1      42.495  34.598  40.257  1.00  0.00    -0.744 OA
ENDBRANCH  68  69
ENDBRANCH  47  61
BRANCH  48  73
ATOM     73  C   UNL A   1      44.276  25.376  28.344  1.00  0.00     0.058 A 
ATOM     74  C   UNL A   1      43.917  24.024  28.428  1.00  0.00     0.135 A 
ATOM     75  C   UNL A   1      44.750  25.847  27.108  1.00  0.00     0.135 A 
ATOM     76  F   UNL A   1      43.440  23.529  29.580  1.00  0.00    -0.206 F 
ATOM     77  C   UNL A   1      44.062  23.158  27.349  1.00  0.00     0.059 A 
ATOM     78  C   UNL A   1      44.875  25.007  26.002  1.00  0.00     0.059 A 
ATOM     79  F   UNL A   1      45.061  27.144  26.954  1.00  0.00    -0.206 F 
ATOM     80  C   UNL A   1      44.547  23.659  26.140  1.00  0.00     0.060 A 
BRANCH  80  81
ATOM     81  S   UNL A   1      44.732  22.521  24.748  1.00  0.00     0.124 S 
ATOM     82  O   UNL A   1      45.400  23.367  23.766  1.00  0.00    -0.237 OA
ATOM     83  O   UNL A   1      45.541  21.455  25.330  1.00  0.00    -0.237 OA
ATOM     84  O   UNL A   1      43.355  22.152  24.432  1.00  0.00    -0.744 OA
ENDBRANCH  80  81
ENDBRANCH  48  73
BRANCH  60  85
ATOM     85  C   UNL A   1      48.335  27.293  33.667  1.00  0.00     0.058 A 
ATOM     86  C   UNL A   1      48.459  26.226  34.568  1.00  0.00     0.135 A 
ATOM     87  C   UNL A   1      49.504  27.885  33.166  1.00  0.00     0.135 A 
ATOM     88  F   UNL A   1      47.365  25.644  35.083  1.00  0.00    -0.206 F 
ATOM     89  C   UNL A   1      49.706  25.774  34.976  1.00  0.00     0.059 A 
ATOM     90  C   UNL A   1      50.760  27.428  33.535  1.00  0.00     0.059 A 
ATOM     91  F   UNL A   1      49.428  28.907  32.298  1.00  0.00    -0.206 F 
ATOM     92  C   UNL A   1      50.850  26.378  34.449  1.00  0.00     0.060 A 
BRANCH  92  93
ATOM     93  S   UNL A   1      52.461  25.745  34.950  1.00  0.00     0.124 S 
ATOM     94  O   UNL A   1      52.721  26.528  36.154  1.00  0.00    -0.237 OA
ATOM     95  O   UNL A   1      52.187  24.328  35.161  1.00  0.00    -0.237 OA
ATOM     96  O   UNL A   1      53.316  26.050  33.806  1.00  0.00    -0.744 OA
ENDBRANCH  92  93
ENDBRANCH  60  85
ENDBRANCH  34  35
ENDBRANCH  27  29
ENDBRANCH  26  27
ENDBRANCH  25  26
ENDBRANCH  24  25
ENDBRANCH  23  24
ENDBRANCH  22  23
ENDBRANCH   1  22
TORSDOF 23
ENDMDL
