MODEL 1
REMARK VINA RESULT:      -8.6      0.000      0.000
REMARK SMILES O=C(C[C@H]([NH2+]Cc1ccccc1C1CC1)c1cccs1)OCCOCCOCCOC(=O)c1ccc(-c2c3nc(c(-c4c(F)cc(S(=O)(=O)[O-])cc4F)c4ccc([nH]4)c(-c4c(F)cc(S(=O)(=O)[O-])cc4F)c4nc(c(-c5c(F)cc(S(=O)(=O)[O-])cc5F)c5ccc2[nH]5)C=C4)C=C3)cc1
REMARK SMILES IDX 25 1 24 2 23 3 22 4 21 5 2 6 1 7 3 8 4 9 16 10 17 11 20 12
REMARK SMILES IDX 18 13 19 14 5 15 6 18 7 19 8 20 12 21 9 22 11 23 10 24 13 25
REMARK SMILES IDX 14 26 15 27 26 28 27 29 28 30 29 31 30 32 31 33 32 34 33 35
REMARK SMILES IDX 34 36 98 37 35 38 97 39 36 40 37 41 38 42 91 43 39 44 96 45
REMARK SMILES IDX 90 46 92 47 40 48 95 49 89 50 88 51 41 53 75 54 54 55 74 56
REMARK SMILES IDX 55 57 58 58 73 59 93 60 56 61 57 62 72 64 94 65 59 66 42 67
REMARK SMILES IDX 43 68 52 69 44 70 45 71 51 72 53 73 46 74 47 75 48 76 49 77
REMARK SMILES IDX 50 78 76 79 77 80 86 81 78 82 79 83 85 84 87 85 80 86 81 87
REMARK SMILES IDX 82 88 83 89 84 90 60 91 61 92 70 93 62 94 63 95 69 96 71 97
REMARK SMILES IDX 64 98 65 99 66 100 67 101 68 102
REMARK H PARENT 5 16 5 17 92 52 58 63
REMARK Flexibility Score: inf
ROOT
ATOM      1  C   UNL A   1      34.327  33.225  28.494  1.00  0.00     0.188 C 
ENDROOT
BRANCH   1   2
ATOM      2  O   UNL A   1      33.513  32.459  27.612  1.00  0.00    -0.376 OA
BRANCH   2   3
ATOM      3  C   UNL A   1      33.693  31.046  27.578  1.00  0.00     0.202 C 
BRANCH   3   4
ATOM      4  C   UNL A   1      32.620  30.315  26.781  1.00  0.00     0.261 C 
BRANCH   4   5
ATOM      5  O   UNL A   1      32.902  28.915  26.889  1.00  0.00    -0.463 OA
BRANCH   5   6
ATOM      6  C   UNL A   1      31.841  28.126  27.215  1.00  0.00     0.312 C 
ATOM      7  O   UNL A   1      31.551  27.792  28.358  1.00  0.00    -0.252 OA
BRANCH   6   8
ATOM      8  C   UNL A   1      31.203  27.534  25.980  1.00  0.00     0.193 C 
BRANCH   8   9
ATOM      9  C   UNL A   1      32.004  26.377  25.345  1.00  0.00     0.235 C 
BRANCH   9  10
ATOM     10  C   UNL A   1      32.540  26.867  24.004  1.00  0.00     0.062 A 
ATOM     11  C   UNL A   1      33.837  27.173  23.629  1.00  0.00     0.021 A 
ATOM     12  S   UNL A   1      31.431  27.273  22.750  1.00  0.00    -0.143 S 
ATOM     13  C   UNL A   1      33.894  27.886  22.397  1.00  0.00     0.012 A 
ATOM     14  C   UNL A   1      32.649  28.042  21.833  1.00  0.00     0.065 A 
ENDBRANCH   9  10
BRANCH   9  15
ATOM     15  N   UNL A   1      33.104  25.842  26.184  1.00  0.00    -0.335 N 
ATOM     16  H   UNL A   1      32.923  26.100  27.153  1.00  0.00     0.347 HD
ATOM     17  H   UNL A   1      33.971  26.242  25.826  1.00  0.00     0.347 HD
BRANCH  15  18
ATOM     18  C   UNL A   1      33.248  24.376  26.112  1.00  0.00     0.298 C 
BRANCH  18  19
ATOM     19  C   UNL A   1      34.409  23.947  25.227  1.00  0.00     0.010 A 
ATOM     20  C   UNL A   1      35.721  24.103  25.734  1.00  0.00     0.010 A 
ATOM     21  C   UNL A   1      34.231  23.432  23.918  1.00  0.00    -0.036 A 
ATOM     22  C   UNL A   1      36.841  23.689  25.016  1.00  0.00     0.001 A 
ATOM     23  C   UNL A   1      35.396  23.019  23.223  1.00  0.00     0.004 A 
ATOM     24  C   UNL A   1      36.678  23.131  23.760  1.00  0.00     0.000 A 
BRANCH  21  25
ATOM     25  C   UNL A   1      32.919  23.207  23.181  1.00  0.00     0.020 C 
ATOM     26  C   UNL A   1      32.381  21.925  22.602  1.00  0.00     0.009 C 
ATOM     27  C   UNL A   1      31.852  22.410  23.911  1.00  0.00     0.009 C 
ENDBRANCH  21  25
ENDBRANCH  18  19
ENDBRANCH  15  18
ENDBRANCH   9  15
ENDBRANCH   8   9
ENDBRANCH   6   8
ENDBRANCH   5   6
ENDBRANCH   4   5
ENDBRANCH   3   4
ENDBRANCH   2   3
ENDBRANCH   1   2
BRANCH   1  28
ATOM     28  C   UNL A   1      34.877  34.551  27.962  1.00  0.00     0.188 C 
BRANCH  28  29
ATOM     29  O   UNL A   1      34.253  35.747  28.418  1.00  0.00    -0.376 OA
BRANCH  29  30
ATOM     30  C   UNL A   1      32.906  35.662  28.880  1.00  0.00     0.202 C 
BRANCH  30  31
ATOM     31  C   UNL A   1      32.512  36.719  29.907  1.00  0.00     0.261 C 
BRANCH  31  32
ATOM     32  O   UNL A   1      33.341  36.616  31.083  1.00  0.00    -0.460 OA
BRANCH  32  33
ATOM     33  C   UNL A   1      33.065  35.566  31.884  1.00  0.00     0.338 C 
ATOM     34  O   UNL A   1      31.991  35.307  32.410  1.00  0.00    -0.246 OA
BRANCH  33  35
ATOM     35  C   UNL A   1      34.219  34.655  31.969  1.00  0.00     0.060 A 
ATOM     36  C   UNL A   1      34.046  33.472  32.693  1.00  0.00     0.016 A 
ATOM     37  C   UNL A   1      35.483  35.018  31.493  1.00  0.00     0.016 A 
ATOM     38  C   UNL A   1      35.153  32.692  33.023  1.00  0.00     0.010 A 
ATOM     39  C   UNL A   1      36.595  34.232  31.827  1.00  0.00     0.010 A 
ATOM     40  C   UNL A   1      36.441  33.098  32.644  1.00  0.00    -0.014 A 
BRANCH  40  41
ATOM     41  C   UNL A   1      37.605  32.426  33.280  1.00  0.00     0.031 A 
ATOM     42  C   UNL A   1      38.351  31.368  32.505  1.00  0.00     0.074 A 
ATOM     43  C   UNL A   1      38.062  32.823  34.481  1.00  0.00     0.049 A 
ATOM     44  N   UNL A   1      39.468  30.755  32.806  1.00  0.00    -0.248 NA
ATOM     45  C   UNL A   1      37.766  30.953  31.220  1.00  0.00     0.031 C 
ATOM     46  C   UNL A   1      37.442  33.840  35.328  1.00  0.00     0.029 A 
ATOM     47  N   UNL A   1      39.169  32.423  35.188  1.00  0.00    -0.354 N 
ATOM     48  C   UNL A   1      39.732  29.903  31.738  1.00  0.00     0.074 A 
ATOM     49  C   UNL A   1      38.633  30.039  30.808  1.00  0.00     0.031 C 
ATOM     50  C   UNL A   1      38.179  33.984  36.444  1.00  0.00     0.029 A 
ATOM     51  C   UNL A   1      39.320  33.072  36.389  1.00  0.00     0.049 A 
ATOM     52  H   UNL A   1      39.794  31.735  34.864  1.00  0.00     0.167 HD
ATOM     53  C   UNL A   1      40.804  29.099  31.535  1.00  0.00     0.037 A 
ATOM     54  C   UNL A   1      40.275  32.949  37.334  1.00  0.00     0.037 A 
ATOM     55  C   UNL A   1      41.897  28.949  32.459  1.00  0.00     0.049 A 
ATOM     56  C   UNL A   1      41.437  32.020  37.104  1.00  0.00     0.074 A 
ATOM     57  C   UNL A   1      43.025  28.156  32.339  1.00  0.00     0.029 A 
ATOM     58  N   UNL A   1      41.999  29.604  33.676  1.00  0.00    -0.354 N 
ATOM     59  N   UNL A   1      41.689  31.250  36.071  1.00  0.00    -0.248 NA
ATOM     60  C   UNL A   1      42.456  31.955  38.162  1.00  0.00     0.031 C 
ATOM     61  C   UNL A   1      43.795  28.308  33.499  1.00  0.00     0.029 A 
ATOM     62  C   UNL A   1      43.163  29.223  34.325  1.00  0.00     0.049 A 
ATOM     63  H   UNL A   1      41.340  30.246  34.029  1.00  0.00     0.167 HD
ATOM     64  C   UNL A   1      42.902  30.625  36.350  1.00  0.00     0.074 A 
ATOM     65  C   UNL A   1      43.343  31.121  37.636  1.00  0.00     0.031 C 
ATOM     66  C   UNL A   1      43.587  29.719  35.608  1.00  0.00     0.037 A 
BRANCH  53  67
ATOM     67  C   UNL A   1      40.847  28.318  30.252  1.00  0.00     0.058 A 
ATOM     68  C   UNL A   1      41.718  28.675  29.210  1.00  0.00     0.135 A 
ATOM     69  C   UNL A   1      40.042  27.181  30.075  1.00  0.00     0.135 A 
ATOM     70  F   UNL A   1      42.495  29.764  29.323  1.00  0.00    -0.206 F 
ATOM     71  C   UNL A   1      41.778  27.943  28.030  1.00  0.00     0.059 A 
ATOM     72  C   UNL A   1      40.101  26.422  28.910  1.00  0.00     0.059 A 
ATOM     73  F   UNL A   1      39.190  26.800  31.040  1.00  0.00    -0.206 F 
ATOM     74  C   UNL A   1      40.964  26.817  27.888  1.00  0.00     0.060 A 
BRANCH  74  75
ATOM     75  S   UNL A   1      41.059  25.869  26.355  1.00  0.00     0.124 S 
ATOM     76  O   UNL A   1      42.138  24.934  26.658  1.00  0.00    -0.237 OA
ATOM     77  O   UNL A   1      39.724  25.287  26.261  1.00  0.00    -0.237 OA
ATOM     78  O   UNL A   1      41.370  26.880  25.350  1.00  0.00    -0.744 OA
ENDBRANCH  74  75
ENDBRANCH  53  67
BRANCH  54  79
ATOM     79  C   UNL A   1      40.174  33.730  38.594  1.00  0.00     0.058 A 
ATOM     80  C   UNL A   1      40.900  34.915  38.780  1.00  0.00     0.135 A 
ATOM     81  C   UNL A   1      39.360  33.287  39.648  1.00  0.00     0.135 A 
ATOM     82  F   UNL A   1      41.699  35.372  37.804  1.00  0.00    -0.206 F 
ATOM     83  C   UNL A   1      40.842  35.623  39.977  1.00  0.00     0.059 A 
ATOM     84  C   UNL A   1      39.269  33.989  40.844  1.00  0.00     0.059 A 
ATOM     85  F   UNL A   1      38.638  32.163  39.513  1.00  0.00    -0.206 F 
ATOM     86  C   UNL A   1      40.025  35.150  41.004  1.00  0.00     0.060 A 
BRANCH  86  87
ATOM     87  S   UNL A   1      39.928  36.086  42.545  1.00  0.00     0.124 S 
ATOM     88  O   UNL A   1      39.554  37.410  42.061  1.00  0.00    -0.237 OA
ATOM     89  O   UNL A   1      38.899  35.362  43.284  1.00  0.00    -0.237 OA
ATOM     90  O   UNL A   1      41.277  35.970  43.090  1.00  0.00    -0.744 OA
ENDBRANCH  86  87
ENDBRANCH  54  79
BRANCH  66  91
ATOM     91  C   UNL A   1      44.891  29.218  36.167  1.00  0.00     0.058 A 
ATOM     92  C   UNL A   1      46.097  29.897  35.934  1.00  0.00     0.135 A 
ATOM     93  C   UNL A   1      44.934  28.056  36.954  1.00  0.00     0.135 A 
ATOM     94  F   UNL A   1      46.112  31.012  35.187  1.00  0.00    -0.206 F 
ATOM     95  C   UNL A   1      47.307  29.422  36.431  1.00  0.00     0.059 A 
ATOM     96  C   UNL A   1      46.129  27.575  37.481  1.00  0.00     0.059 A 
ATOM     97  F   UNL A   1      43.807  27.377  37.219  1.00  0.00    -0.206 F 
ATOM     98  C   UNL A   1      47.313  28.255  37.198  1.00  0.00     0.060 A 
BRANCH  98  99
ATOM     99  S   UNL A   1      48.887  27.642  37.837  1.00  0.00     0.124 S 
ATOM    100  O   UNL A   1      49.806  28.029  36.772  1.00  0.00    -0.237 OA
ATOM    101  O   UNL A   1      49.028  28.374  39.092  1.00  0.00    -0.237 OA
ATOM    102  O   UNL A   1      48.658  26.208  37.980  1.00  0.00    -0.744 OA
ENDBRANCH  98  99
ENDBRANCH  66  91
ENDBRANCH  40  41
ENDBRANCH  33  35
ENDBRANCH  32  33
ENDBRANCH  31  32
ENDBRANCH  30  31
ENDBRANCH  29  30
ENDBRANCH  28  29
ENDBRANCH   1  28
TORSDOF 26
ENDMDL
MODEL 2
REMARK VINA RESULT:      -8.5      6.425     11.209
REMARK SMILES O=C(C[C@H]([NH2+]Cc1ccccc1C1CC1)c1cccs1)OCCOCCOCCOC(=O)c1ccc(-c2c3nc(c(-c4c(F)cc(S(=O)(=O)[O-])cc4F)c4ccc([nH]4)c(-c4c(F)cc(S(=O)(=O)[O-])cc4F)c4nc(c(-c5c(F)cc(S(=O)(=O)[O-])cc5F)c5ccc2[nH]5)C=C4)C=C3)cc1
REMARK SMILES IDX 25 1 24 2 23 3 22 4 21 5 2 6 1 7 3 8 4 9 16 10 17 11 20 12
REMARK SMILES IDX 18 13 19 14 5 15 6 18 7 19 8 20 12 21 9 22 11 23 10 24 13 25
REMARK SMILES IDX 14 26 15 27 26 28 27 29 28 30 29 31 30 32 31 33 32 34 33 35
REMARK SMILES IDX 34 36 98 37 35 38 97 39 36 40 37 41 38 42 91 43 39 44 96 45
REMARK SMILES IDX 90 46 92 47 40 48 95 49 89 50 88 51 41 53 75 54 54 55 74 56
REMARK SMILES IDX 55 57 58 58 73 59 93 60 56 61 57 62 72 64 94 65 59 66 42 67
REMARK SMILES IDX 43 68 52 69 44 70 45 71 51 72 53 73 46 74 47 75 48 76 49 77
REMARK SMILES IDX 50 78 76 79 77 80 86 81 78 82 79 83 85 84 87 85 80 86 81 87
REMARK SMILES IDX 82 88 83 89 84 90 60 91 61 92 70 93 62 94 63 95 69 96 71 97
REMARK SMILES IDX 64 98 65 99 66 100 67 101 68 102
REMARK H PARENT 5 16 5 17 92 52 58 63
REMARK Flexibility Score: inf
ROOT
ATOM      1  C   UNL A   1      34.241  32.250  28.856  1.00  0.00     0.188 C 
ENDROOT
BRANCH   1   2
ATOM      2  O   UNL A   1      34.688  31.381  27.822  1.00  0.00    -0.376 OA
BRANCH   2   3
ATOM      3  C   UNL A   1      33.820  30.335  27.391  1.00  0.00     0.202 C 
BRANCH   3   4
ATOM      4  C   UNL A   1      34.548  29.042  27.050  1.00  0.00     0.261 C 
BRANCH   4   5
ATOM      5  O   UNL A   1      33.606  28.197  26.380  1.00  0.00    -0.463 OA
BRANCH   5   6
ATOM      6  C   UNL A   1      33.901  27.900  25.085  1.00  0.00     0.312 C 
ATOM      7  O   UNL A   1      34.188  28.731  24.231  1.00  0.00    -0.252 OA
BRANCH   6   8
ATOM      8  C   UNL A   1      33.613  26.448  24.780  1.00  0.00     0.193 C 
BRANCH   8   9
ATOM      9  C   UNL A   1      32.261  25.942  25.326  1.00  0.00     0.235 C 
BRANCH   9  10
ATOM     10  C   UNL A   1      31.169  26.425  24.378  1.00  0.00     0.062 A 
ATOM     11  C   UNL A   1      31.268  27.210  23.242  1.00  0.00     0.021 A 
ATOM     12  S   UNL A   1      29.518  26.130  24.772  1.00  0.00    -0.143 S 
ATOM     13  C   UNL A   1      30.004  27.698  22.804  1.00  0.00     0.012 A 
ATOM     14  C   UNL A   1      28.971  27.217  23.575  1.00  0.00     0.065 A 
ENDBRANCH   9  10
BRANCH   9  15
ATOM     15  N   UNL A   1      32.173  24.475  25.522  1.00  0.00    -0.335 N 
ATOM     16  H   UNL A   1      31.263  24.259  25.928  1.00  0.00     0.347 HD
ATOM     17  H   UNL A   1      32.947  24.210  26.131  1.00  0.00     0.347 HD
BRANCH  15  18
ATOM     18  C   UNL A   1      32.323  23.698  24.278  1.00  0.00     0.298 C 
BRANCH  18  19
ATOM     19  C   UNL A   1      33.017  22.362  24.504  1.00  0.00     0.010 A 
ATOM     20  C   UNL A   1      32.209  21.238  24.798  1.00  0.00     0.010 A 
ATOM     21  C   UNL A   1      34.426  22.208  24.464  1.00  0.00    -0.036 A 
ATOM     22  C   UNL A   1      32.752  19.966  24.968  1.00  0.00     0.001 A 
ATOM     23  C   UNL A   1      34.936  20.898  24.639  1.00  0.00     0.004 A 
ATOM     24  C   UNL A   1      34.122  19.791  24.874  1.00  0.00     0.000 A 
BRANCH  21  25
ATOM     25  C   UNL A   1      35.468  23.283  24.191  1.00  0.00     0.020 C 
ATOM     26  C   UNL A   1      36.904  23.327  24.642  1.00  0.00     0.009 C 
ATOM     27  C   UNL A   1      36.594  22.917  23.240  1.00  0.00     0.009 C 
ENDBRANCH  21  25
ENDBRANCH  18  19
ENDBRANCH  15  18
ENDBRANCH   9  15
ENDBRANCH   8   9
ENDBRANCH   6   8
ENDBRANCH   5   6
ENDBRANCH   4   5
ENDBRANCH   3   4
ENDBRANCH   2   3
ENDBRANCH   1   2
BRANCH   1  28
ATOM     28  C   UNL A   1      35.103  33.479  29.157  1.00  0.00     0.188 C 
BRANCH  28  29
ATOM     29  O   UNL A   1      35.492  33.689  30.511  1.00  0.00    -0.376 OA
BRANCH  29  30
ATOM     30  C   UNL A   1      35.676  32.540  31.337  1.00  0.00     0.202 C 
BRANCH  30  31
ATOM     31  C   UNL A   1      37.088  31.963  31.327  1.00  0.00     0.261 C 
BRANCH  31  32
ATOM     32  O   UNL A   1      37.353  31.296  30.076  1.00  0.00    -0.460 OA
BRANCH  32  33
ATOM     33  C   UNL A   1      37.233  29.952  30.111  1.00  0.00     0.338 C 
ATOM     34  O   UNL A   1      36.283  29.311  30.539  1.00  0.00    -0.246 OA
BRANCH  33  35
ATOM     35  C   UNL A   1      38.374  29.307  29.437  1.00  0.00     0.060 A 
ATOM     36  C   UNL A   1      39.337  28.703  30.251  1.00  0.00     0.016 A 
ATOM     37  C   UNL A   1      38.582  29.429  28.060  1.00  0.00     0.016 A 
ATOM     38  C   UNL A   1      40.553  28.299  29.704  1.00  0.00     0.010 A 
ATOM     39  C   UNL A   1      39.808  29.023  27.512  1.00  0.00     0.010 A 
ATOM     40  C   UNL A   1      40.820  28.511  28.343  1.00  0.00    -0.014 A 
BRANCH  40  41
ATOM     41  C   UNL A   1      42.223  28.367  27.872  1.00  0.00     0.031 A 
ATOM     42  C   UNL A   1      43.160  29.543  27.994  1.00  0.00     0.074 A 
ATOM     43  C   UNL A   1      42.692  27.180  27.446  1.00  0.00     0.049 A 
ATOM     44  N   UNL A   1      44.449  29.602  27.777  1.00  0.00    -0.248 NA
ATOM     45  C   UNL A   1      42.566  30.820  28.424  1.00  0.00     0.031 C 
ATOM     46  C   UNL A   1      41.898  25.963  27.291  1.00  0.00     0.029 A 
ATOM     47  N   UNL A   1      43.960  26.805  27.078  1.00  0.00    -0.354 N 
ATOM     48  C   UNL A   1      44.825  30.909  28.069  1.00  0.00     0.074 A 
ATOM     49  C   UNL A   1      43.619  31.624  28.426  1.00  0.00     0.031 C 
ATOM     50  C   UNL A   1      42.699  24.973  26.858  1.00  0.00     0.029 A 
ATOM     51  C   UNL A   1      44.060  25.486  26.707  1.00  0.00     0.049 A 
ATOM     52  H   UNL A   1      44.726  27.424  27.080  1.00  0.00     0.167 HD
ATOM     53  C   UNL A   1      46.062  31.460  28.066  1.00  0.00     0.037 A 
ATOM     54  C   UNL A   1      45.128  24.772  26.299  1.00  0.00     0.037 A 
ATOM     55  C   UNL A   1      47.266  30.760  27.702  1.00  0.00     0.049 A 
ATOM     56  C   UNL A   1      46.488  25.417  26.266  1.00  0.00     0.074 A 
ATOM     57  C   UNL A   1      48.564  31.238  27.667  1.00  0.00     0.029 A 
ATOM     58  N   UNL A   1      47.319  29.433  27.306  1.00  0.00    -0.354 N 
ATOM     59  N   UNL A   1      46.830  26.644  26.581  1.00  0.00    -0.248 NA
ATOM     60  C   UNL A   1      47.613  24.573  25.837  1.00  0.00     0.031 C 
ATOM     61  C   UNL A   1      49.400  30.207  27.220  1.00  0.00     0.029 A 
ATOM     62  C   UNL A   1      48.626  29.078  27.011  1.00  0.00     0.049 A 
ATOM     63  H   UNL A   1      46.543  28.830  27.243  1.00  0.00     0.167 HD
ATOM     64  C   UNL A   1      48.210  26.713  26.404  1.00  0.00     0.074 A 
ATOM     65  C   UNL A   1      48.642  25.399  25.976  1.00  0.00     0.031 C 
ATOM     66  C   UNL A   1      49.043  27.769  26.579  1.00  0.00     0.037 A 
BRANCH  53  67
ATOM     67  C   UNL A   1      46.177  32.901  28.476  1.00  0.00     0.058 A 
ATOM     68  C   UNL A   1      46.326  33.266  29.823  1.00  0.00     0.135 A 
ATOM     69  C   UNL A   1      46.176  33.925  27.515  1.00  0.00     0.135 A 
ATOM     70  F   UNL A   1      46.314  32.326  30.783  1.00  0.00    -0.206 F 
ATOM     71  C   UNL A   1      46.454  34.596  30.207  1.00  0.00     0.059 A 
ATOM     72  C   UNL A   1      46.323  35.261  27.874  1.00  0.00     0.059 A 
ATOM     73  F   UNL A   1      46.032  33.629  26.213  1.00  0.00    -0.206 F 
ATOM     74  C   UNL A   1      46.451  35.588  29.224  1.00  0.00     0.060 A 
BRANCH  74  75
ATOM     75  S   UNL A   1      46.629  37.310  29.734  1.00  0.00     0.124 S 
ATOM     76  O   UNL A   1      45.244  37.672  30.025  1.00  0.00    -0.237 OA
ATOM     77  O   UNL A   1      47.511  37.206  30.891  1.00  0.00    -0.237 OA
ATOM     78  O   UNL A   1      47.212  37.954  28.562  1.00  0.00    -0.744 OA
ENDBRANCH  74  75
ENDBRANCH  53  67
BRANCH  54  79
ATOM     79  C   UNL A   1      44.957  23.355  25.885  1.00  0.00     0.058 A 
ATOM     80  C   UNL A   1      45.100  22.961  24.547  1.00  0.00     0.135 A 
ATOM     81  C   UNL A   1      44.621  22.370  26.827  1.00  0.00     0.135 A 
ATOM     82  F   UNL A   1      45.409  23.870  23.610  1.00  0.00    -0.206 F 
ATOM     83  C   UNL A   1      44.895  21.643  24.151  1.00  0.00     0.059 A 
ATOM     84  C   UNL A   1      44.432  21.043  26.458  1.00  0.00     0.059 A 
ATOM     85  F   UNL A   1      44.482  22.697  28.121  1.00  0.00    -0.206 F 
ATOM     86  C   UNL A   1      44.559  20.692  25.115  1.00  0.00     0.060 A 
BRANCH  86  87
ATOM     87  S   UNL A   1      44.322  18.976  24.603  1.00  0.00     0.124 S 
ATOM     88  O   UNL A   1      45.407  18.306  25.311  1.00  0.00    -0.237 OA
ATOM     89  O   UNL A   1      42.974  18.692  25.085  1.00  0.00    -0.237 OA
ATOM     90  O   UNL A   1      44.458  19.040  23.151  1.00  0.00    -0.744 OA
ENDBRANCH  86  87
ENDBRANCH  54  79
BRANCH  66  91
ATOM     91  C   UNL A   1      50.506  27.540  26.318  1.00  0.00     0.058 A 
ATOM     92  C   UNL A   1      51.053  27.685  25.033  1.00  0.00     0.135 A 
ATOM     93  C   UNL A   1      51.375  27.188  27.363  1.00  0.00     0.135 A 
ATOM     94  F   UNL A   1      50.266  28.019  23.997  1.00  0.00    -0.206 F 
ATOM     95  C   UNL A   1      52.402  27.451  24.786  1.00  0.00     0.059 A 
ATOM     96  C   UNL A   1      52.732  26.972  27.144  1.00  0.00     0.059 A 
ATOM     97  F   UNL A   1      50.906  27.051  28.614  1.00  0.00    -0.206 F 
ATOM     98  C   UNL A   1      53.233  27.087  25.848  1.00  0.00     0.060 A 
BRANCH  98  99
ATOM     99  S   UNL A   1      54.982  26.783  25.520  1.00  0.00     0.124 S 
ATOM    100  O   UNL A   1      54.913  25.886  24.371  1.00  0.00    -0.237 OA
ATOM    101  O   UNL A   1      55.493  28.123  25.247  1.00  0.00    -0.237 OA
ATOM    102  O   UNL A   1      55.458  26.180  26.761  1.00  0.00    -0.744 OA
ENDBRANCH  98  99
ENDBRANCH  66  91
ENDBRANCH  40  41
ENDBRANCH  33  35
ENDBRANCH  32  33
ENDBRANCH  31  32
ENDBRANCH  30  31
ENDBRANCH  29  30
ENDBRANCH  28  29
ENDBRANCH   1  28
TORSDOF 26
ENDMDL
MODEL 3
REMARK VINA RESULT:      -8.4      2.333      8.871
REMARK SMILES O=C(C[C@H]([NH2+]Cc1ccccc1C1CC1)c1cccs1)OCCOCCOCCOC(=O)c1ccc(-c2c3nc(c(-c4c(F)cc(S(=O)(=O)[O-])cc4F)c4ccc([nH]4)c(-c4c(F)cc(S(=O)(=O)[O-])cc4F)c4nc(c(-c5c(F)cc(S(=O)(=O)[O-])cc5F)c5ccc2[nH]5)C=C4)C=C3)cc1
REMARK SMILES IDX 25 1 24 2 23 3 22 4 21 5 2 6 1 7 3 8 4 9 16 10 17 11 20 12
REMARK SMILES IDX 18 13 19 14 5 15 6 18 7 19 8 20 12 21 9 22 11 23 10 24 13 25
REMARK SMILES IDX 14 26 15 27 26 28 27 29 28 30 29 31 30 32 31 33 32 34 33 35
REMARK SMILES IDX 34 36 98 37 35 38 97 39 36 40 37 41 38 42 91 43 39 44 96 45
REMARK SMILES IDX 90 46 92 47 40 48 95 49 89 50 88 51 41 53 75 54 54 55 74 56
REMARK SMILES IDX 55 57 58 58 73 59 93 60 56 61 57 62 72 64 94 65 59 66 42 67
REMARK SMILES IDX 43 68 52 69 44 70 45 71 51 72 53 73 46 74 47 75 48 76 49 77
REMARK SMILES IDX 50 78 76 79 77 80 86 81 78 82 79 83 85 84 87 85 80 86 81 87
REMARK SMILES IDX 82 88 83 89 84 90 60 91 61 92 70 93 62 94 63 95 69 96 71 97
REMARK SMILES IDX 64 98 65 99 66 100 67 101 68 102
REMARK H PARENT 5 16 5 17 92 52 58 63
REMARK Flexibility Score: inf
ROOT
ATOM      1  C   UNL A   1      39.724  21.857  26.013  1.00  0.00     0.188 C 
ENDROOT
BRANCH   1   2
ATOM      2  O   UNL A   1      38.323  21.606  26.029  1.00  0.00    -0.376 OA
BRANCH   2   3
ATOM      3  C   UNL A   1      37.478  22.428  25.227  1.00  0.00     0.202 C 
BRANCH   3   4
ATOM      4  C   UNL A   1      36.208  21.726  24.765  1.00  0.00     0.261 C 
BRANCH   4   5
ATOM      5  O   UNL A   1      35.139  22.670  24.894  1.00  0.00    -0.463 OA
BRANCH   5   6
ATOM      6  C   UNL A   1      34.942  23.483  23.820  1.00  0.00     0.312 C 
ATOM      7  O   UNL A   1      35.217  23.184  22.664  1.00  0.00    -0.252 OA
BRANCH   6   8
ATOM      8  C   UNL A   1      34.551  24.877  24.255  1.00  0.00     0.193 C 
BRANCH   8   9
ATOM      9  C   UNL A   1      33.092  25.258  23.924  1.00  0.00     0.235 C 
BRANCH   9  10
ATOM     10  C   UNL A   1      33.089  26.708  23.452  1.00  0.00     0.062 A 
ATOM     11  C   UNL A   1      33.989  27.726  23.718  1.00  0.00     0.021 A 
ATOM     12  S   UNL A   1      31.730  27.309  22.580  1.00  0.00    -0.143 S 
ATOM     13  C   UNL A   1      33.485  29.008  23.355  1.00  0.00     0.012 A 
ATOM     14  C   UNL A   1      32.247  28.926  22.761  1.00  0.00     0.065 A 
ENDBRANCH   9  10
BRANCH   9  15
ATOM     15  N   UNL A   1      32.425  24.383  22.930  1.00  0.00    -0.335 N 
ATOM     16  H   UNL A   1      33.126  23.759  22.530  1.00  0.00     0.347 HD
ATOM     17  H   UNL A   1      32.003  24.996  22.232  1.00  0.00     0.347 HD
BRANCH  15  18
ATOM     18  C   UNL A   1      31.338  23.562  23.494  1.00  0.00     0.298 C 
BRANCH  18  19
ATOM     19  C   UNL A   1      31.751  22.113  23.706  1.00  0.00     0.010 A 
ATOM     20  C   UNL A   1      31.912  21.296  22.562  1.00  0.00     0.010 A 
ATOM     21  C   UNL A   1      31.945  21.548  24.992  1.00  0.00    -0.036 A 
ATOM     22  C   UNL A   1      32.339  19.973  22.657  1.00  0.00     0.001 A 
ATOM     23  C   UNL A   1      32.382  20.200  25.044  1.00  0.00     0.004 A 
ATOM     24  C   UNL A   1      32.589  19.425  23.904  1.00  0.00     0.000 A 
BRANCH  21  25
ATOM     25  C   UNL A   1      31.802  22.239  26.340  1.00  0.00     0.020 C 
ATOM     26  C   UNL A   1      31.785  23.715  26.635  1.00  0.00     0.009 C 
ATOM     27  C   UNL A   1      30.494  22.966  26.600  1.00  0.00     0.009 C 
ENDBRANCH  21  25
ENDBRANCH  18  19
ENDBRANCH  15  18
ENDBRANCH   9  15
ENDBRANCH   8   9
ENDBRANCH   6   8
ENDBRANCH   5   6
ENDBRANCH   4   5
ENDBRANCH   3   4
ENDBRANCH   2   3
ENDBRANCH   1   2
BRANCH   1  28
ATOM     28  C   UNL A   1      40.493  21.606  27.314  1.00  0.00     0.188 C 
BRANCH  28  29
ATOM     29  O   UNL A   1      41.808  22.142  27.409  1.00  0.00    -0.376 OA
BRANCH  29  30
ATOM     30  C   UNL A   1      42.607  22.161  26.227  1.00  0.00     0.202 C 
BRANCH  30  31
ATOM     31  C   UNL A   1      42.643  23.501  25.499  1.00  0.00     0.261 C 
BRANCH  31  32
ATOM     32  O   UNL A   1      41.753  24.444  26.130  1.00  0.00    -0.460 OA
BRANCH  32  33
ATOM     33  C   UNL A   1      42.121  25.737  26.019  1.00  0.00     0.338 C 
ATOM     34  O   UNL A   1      42.241  26.380  24.985  1.00  0.00    -0.246 OA
BRANCH  33  35
ATOM     35  C   UNL A   1      42.257  26.359  27.348  1.00  0.00     0.060 A 
ATOM     36  C   UNL A   1      41.110  26.414  28.146  1.00  0.00     0.016 A 
ATOM     37  C   UNL A   1      43.428  27.014  27.740  1.00  0.00     0.016 A 
ATOM     38  C   UNL A   1      41.103  27.201  29.296  1.00  0.00     0.010 A 
ATOM     39  C   UNL A   1      43.418  27.806  28.897  1.00  0.00     0.010 A 
ATOM     40  C   UNL A   1      42.236  27.949  29.647  1.00  0.00    -0.014 A 
BRANCH  40  41
ATOM     41  C   UNL A   1      42.087  29.009  30.680  1.00  0.00     0.031 A 
ATOM     42  C   UNL A   1      40.907  29.946  30.601  1.00  0.00     0.074 A 
ATOM     43  C   UNL A   1      42.921  29.071  31.734  1.00  0.00     0.049 A 
ATOM     44  N   UNL A   1      40.506  30.846  31.461  1.00  0.00    -0.248 NA
ATOM     45  C   UNL A   1      40.065  29.849  29.397  1.00  0.00     0.031 C 
ATOM     46  C   UNL A   1      44.091  28.220  31.937  1.00  0.00     0.029 A 
ATOM     47  N   UNL A   1      42.897  29.883  32.840  1.00  0.00    -0.354 N 
ATOM     48  C   UNL A   1      39.353  31.404  30.918  1.00  0.00     0.074 A 
ATOM     49  C   UNL A   1      39.149  30.778  29.629  1.00  0.00     0.031 C 
ATOM     50  C   UNL A   1      44.676  28.555  33.101  1.00  0.00     0.029 A 
ATOM     51  C   UNL A   1      43.922  29.643  33.723  1.00  0.00     0.049 A 
ATOM     52  H   UNL A   1      42.210  30.573  32.986  1.00  0.00     0.167 HD
ATOM     53  C   UNL A   1      38.523  32.333  31.450  1.00  0.00     0.037 A 
ATOM     54  C   UNL A   1      44.214  30.228  34.902  1.00  0.00     0.037 A 
ATOM     55  C   UNL A   1      38.723  32.968  32.726  1.00  0.00     0.049 A 
ATOM     56  C   UNL A   1      43.298  31.287  35.457  1.00  0.00     0.074 A 
ATOM     57  C   UNL A   1      37.936  33.923  33.347  1.00  0.00     0.029 A 
ATOM     58  N   UNL A   1      39.788  32.716  33.577  1.00  0.00    -0.354 N 
ATOM     59  N   UNL A   1      42.192  31.774  34.945  1.00  0.00    -0.248 NA
ATOM     60  C   UNL A   1      43.661  31.864  36.760  1.00  0.00     0.031 C 
ATOM     61  C   UNL A   1      38.541  34.271  34.560  1.00  0.00     0.029 A 
ATOM     62  C   UNL A   1      39.687  33.507  34.711  1.00  0.00     0.049 A 
ATOM     63  H   UNL A   1      40.510  32.070  33.402  1.00  0.00     0.167 HD
ATOM     64  C   UNL A   1      41.721  32.701  35.872  1.00  0.00     0.074 A 
ATOM     65  C   UNL A   1      42.648  32.690  36.983  1.00  0.00     0.031 C 
ATOM     66  C   UNL A   1      40.621  33.492  35.807  1.00  0.00     0.037 A 
BRANCH  53  67
ATOM     67  C   UNL A   1      37.311  32.717  30.649  1.00  0.00     0.058 A 
ATOM     68  C   UNL A   1      36.063  32.119  30.883  1.00  0.00     0.135 A 
ATOM     69  C   UNL A   1      37.387  33.716  29.665  1.00  0.00     0.135 A 
ATOM     70  F   UNL A   1      35.942  31.146  31.801  1.00  0.00    -0.206 F 
ATOM     71  C   UNL A   1      34.934  32.486  30.160  1.00  0.00     0.059 A 
ATOM     72  C   UNL A   1      36.266  34.113  28.943  1.00  0.00     0.059 A 
ATOM     73  F   UNL A   1      38.558  34.316  29.400  1.00  0.00    -0.206 F 
ATOM     74  C   UNL A   1      35.045  33.484  29.190  1.00  0.00     0.060 A 
BRANCH  74  75
ATOM     75  S   UNL A   1      33.569  33.958  28.265  1.00  0.00     0.124 S 
ATOM     76  O   UNL A   1      34.135  34.838  27.246  1.00  0.00    -0.237 OA
ATOM     77  O   UNL A   1      33.072  32.673  27.786  1.00  0.00    -0.237 OA
ATOM     78  O   UNL A   1      32.736  34.614  29.267  1.00  0.00    -0.744 OA
ENDBRANCH  74  75
ENDBRANCH  53  67
BRANCH  54  79
ATOM     79  C   UNL A   1      45.435  29.825  35.645  1.00  0.00     0.058 A 
ATOM     80  C   UNL A   1      45.402  28.813  36.616  1.00  0.00     0.135 A 
ATOM     81  C   UNL A   1      46.661  30.469  35.411  1.00  0.00     0.135 A 
ATOM     82  F   UNL A   1      44.250  28.178  36.881  1.00  0.00    -0.206 F 
ATOM     83  C   UNL A   1      46.535  28.467  37.345  1.00  0.00     0.059 A 
ATOM     84  C   UNL A   1      47.811  30.125  36.112  1.00  0.00     0.059 A 
ATOM     85  F   UNL A   1      46.745  31.437  34.485  1.00  0.00    -0.206 F 
ATOM     86  C   UNL A   1      47.735  29.131  37.087  1.00  0.00     0.060 A 
BRANCH  86  87
ATOM     87  S   UNL A   1      49.211  28.659  38.014  1.00  0.00     0.124 S 
ATOM     88  O   UNL A   1      49.656  29.947  38.534  1.00  0.00    -0.237 OA
ATOM     89  O   UNL A   1      48.674  27.725  38.998  1.00  0.00    -0.237 OA
ATOM     90  O   UNL A   1      50.066  28.059  36.994  1.00  0.00    -0.744 OA
ENDBRANCH  86  87
ENDBRANCH  54  79
BRANCH  66  91
ATOM     91  C   UNL A   1      40.356  34.400  36.976  1.00  0.00     0.058 A 
ATOM     92  C   UNL A   1      39.487  34.025  38.014  1.00  0.00     0.135 A 
ATOM     93  C   UNL A   1      40.987  35.651  37.070  1.00  0.00     0.135 A 
ATOM     94  F   UNL A   1      38.857  32.841  37.973  1.00  0.00    -0.206 F 
ATOM     95  C   UNL A   1      39.224  34.874  39.084  1.00  0.00     0.059 A 
ATOM     96  C   UNL A   1      40.757  36.506  38.144  1.00  0.00     0.059 A 
ATOM     97  F   UNL A   1      41.838  36.052  36.112  1.00  0.00    -0.206 F 
ATOM     98  C   UNL A   1      39.859  36.117  39.136  1.00  0.00     0.060 A 
BRANCH  98  99
ATOM     99  S   UNL A   1      39.511  37.215  40.527  1.00  0.00     0.124 S 
ATOM    100  O   UNL A   1      39.618  36.299  41.657  1.00  0.00    -0.237 OA
ATOM    101  O   UNL A   1      40.570  38.213  40.418  1.00  0.00    -0.237 OA
ATOM    102  O   UNL A   1      38.166  37.706  40.240  1.00  0.00    -0.744 OA
ENDBRANCH  98  99
ENDBRANCH  66  91
ENDBRANCH  40  41
ENDBRANCH  33  35
ENDBRANCH  32  33
ENDBRANCH  31  32
ENDBRANCH  30  31
ENDBRANCH  29  30
ENDBRANCH  28  29
ENDBRANCH   1  28
TORSDOF 26
ENDMDL
