MODEL 1
REMARK VINA RESULT:     -10.5      0.000      0.000
REMARK SMILES O=C(OCCOCCOCCOC(=O)c1cn(-c2ccnc3ccc(Cl)cc23)cn1)c1ccc(-c2c3nc(c(-c4c(F)cc(S(=O)(=O)[O-])cc4F)c4ccc([nH]4)c(-c4c(F)cc(S(=O)(=O)[O-])cc4F)c4nc(c(-c5c(F)cc(S(=O)(=O)[O-])cc5F)c5ccc2[nH]5)C=C4)C=C3)cc1
REMARK SMILES IDX 7 1 6 2 5 3 4 4 3 5 2 6 1 7 31 8 32 9 96 10 33 11 95 12
REMARK SMILES IDX 34 13 35 14 36 15 89 16 37 17 94 18 88 19 90 20 38 21 93 22
REMARK SMILES IDX 87 23 86 24 39 26 73 27 52 28 72 29 53 30 56 31 71 32 91 33
REMARK SMILES IDX 54 34 55 35 70 37 92 38 57 39 40 40 41 41 50 42 42 43 43 44
REMARK SMILES IDX 49 45 51 46 44 47 45 48 46 49 47 50 48 51 74 52 75 53 84 54
REMARK SMILES IDX 76 55 77 56 83 57 85 58 78 59 79 60 80 61 81 62 82 63 58 64
REMARK SMILES IDX 59 65 68 66 60 67 61 68 67 69 69 70 62 71 63 72 64 73 65 74
REMARK SMILES IDX 66 75 8 76 9 77 10 78 11 79 12 80 13 81 14 82 15 83 16 84
REMARK SMILES IDX 30 85 17 86 29 87 18 88 19 89 28 90 20 91 22 92 27 93 21 94
REMARK SMILES IDX 23 95 25 96 24 97 26 98
REMARK H PARENT 90 25 56 36
REMARK Flexibility Score: inf
ROOT
ATOM      1  C   UNL A   1      42.602  18.626  27.240  1.00  0.00     0.188 C 
ENDROOT
BRANCH   1   2
ATOM      2  O   UNL A   1      42.743  18.011  25.967  1.00  0.00    -0.376 OA
BRANCH   2   3
ATOM      3  C   UNL A   1      43.387  18.819  24.997  1.00  0.00     0.202 C 
BRANCH   3   4
ATOM      4  C   UNL A   1      44.847  19.098  25.362  1.00  0.00     0.261 C 
BRANCH   4   5
ATOM      5  O   UNL A   1      45.302  20.445  25.117  1.00  0.00    -0.460 OA
BRANCH   5   6
ATOM      6  C   UNL A   1      44.712  21.542  24.608  1.00  0.00     0.338 C 
ATOM      7  O   UNL A   1      44.707  21.690  23.386  1.00  0.00    -0.246 OA
BRANCH   6   8
ATOM      8  C   UNL A   1      44.151  22.647  25.437  1.00  0.00     0.060 A 
ATOM      9  C   UNL A   1      43.142  23.525  25.044  1.00  0.00     0.016 A 
ATOM     10  C   UNL A   1      44.756  22.836  26.697  1.00  0.00     0.016 A 
ATOM     11  C   UNL A   1      42.795  24.606  25.847  1.00  0.00     0.010 A 
ATOM     12  C   UNL A   1      44.426  23.924  27.496  1.00  0.00     0.010 A 
ATOM     13  C   UNL A   1      43.486  24.841  27.034  1.00  0.00    -0.014 A 
BRANCH  13  14
ATOM     14  C   UNL A   1      43.292  26.136  27.672  1.00  0.00     0.031 A 
ATOM     15  C   UNL A   1      44.346  27.169  27.503  1.00  0.00     0.074 A 
ATOM     16  C   UNL A   1      42.160  26.401  28.356  1.00  0.00     0.049 A 
ATOM     17  N   UNL A   1      45.066  27.741  28.414  1.00  0.00    -0.248 NA
ATOM     18  C   UNL A   1      44.669  27.588  26.132  1.00  0.00     0.031 C 
ATOM     19  C   UNL A   1      40.926  25.607  28.382  1.00  0.00     0.029 A 
ATOM     20  N   UNL A   1      41.837  27.503  29.087  1.00  0.00    -0.354 N 
ATOM     21  C   UNL A   1      45.798  28.732  27.762  1.00  0.00     0.074 A 
ATOM     22  C   UNL A   1      45.605  28.515  26.349  1.00  0.00     0.031 C 
ATOM     23  C   UNL A   1      39.929  26.357  28.895  1.00  0.00     0.029 A 
ATOM     24  C   UNL A   1      40.480  27.625  29.346  1.00  0.00     0.049 A 
ATOM     25  H   UNL A   1      42.505  28.154  29.404  1.00  0.00     0.167 HD
ATOM     26  C   UNL A   1      46.370  29.779  28.420  1.00  0.00     0.037 A 
ATOM     27  C   UNL A   1      39.839  28.724  29.809  1.00  0.00     0.037 A 
ATOM     28  C   UNL A   1      46.466  29.552  29.835  1.00  0.00     0.049 A 
ATOM     29  C   UNL A   1      40.843  29.586  30.481  1.00  0.00     0.074 A 
ATOM     30  C   UNL A   1      47.099  28.619  30.632  1.00  0.00     0.029 A 
ATOM     31  N   UNL A   1      45.590  30.212  30.660  1.00  0.00    -0.354 N 
ATOM     32  N   UNL A   1      41.452  29.279  31.594  1.00  0.00    -0.248 NA
ATOM     33  C   UNL A   1      41.470  30.645  29.705  1.00  0.00     0.031 C 
ATOM     34  C   UNL A   1      46.247  28.450  31.760  1.00  0.00     0.029 A 
ATOM     35  C   UNL A   1      45.155  29.302  31.590  1.00  0.00     0.049 A 
ATOM     36  H   UNL A   1      45.324  31.157  30.598  1.00  0.00     0.167 HD
ATOM     37  C   UNL A   1      42.729  29.805  31.460  1.00  0.00     0.074 A 
ATOM     38  C   UNL A   1      42.643  30.729  30.335  1.00  0.00     0.031 C 
ATOM     39  C   UNL A   1      43.799  29.240  32.093  1.00  0.00     0.037 A 
BRANCH  26  40
ATOM     40  C   UNL A   1      46.577  31.148  27.820  1.00  0.00     0.058 A 
ATOM     41  C   UNL A   1      47.856  31.742  27.832  1.00  0.00     0.135 A 
ATOM     42  C   UNL A   1      45.506  32.006  27.485  1.00  0.00     0.135 A 
ATOM     43  F   UNL A   1      48.940  31.019  28.155  1.00  0.00    -0.206 F 
ATOM     44  C   UNL A   1      48.050  33.102  27.589  1.00  0.00     0.059 A 
ATOM     45  C   UNL A   1      45.683  33.353  27.186  1.00  0.00     0.059 A 
ATOM     46  F   UNL A   1      44.232  31.594  27.528  1.00  0.00    -0.206 F 
ATOM     47  C   UNL A   1      46.952  33.902  27.284  1.00  0.00     0.060 A 
BRANCH  47  48
ATOM     48  S   UNL A   1      47.175  35.681  27.091  1.00  0.00     0.124 S 
ATOM     49  O   UNL A   1      46.156  36.198  27.997  1.00  0.00    -0.237 OA
ATOM     50  O   UNL A   1      48.560  35.864  27.513  1.00  0.00    -0.237 OA
ATOM     51  O   UNL A   1      46.927  35.894  25.668  1.00  0.00    -0.744 OA
ENDBRANCH  47  48
ENDBRANCH  26  40
BRANCH  27  52
ATOM     52  C   UNL A   1      38.492  29.202  29.404  1.00  0.00     0.058 A 
ATOM     53  C   UNL A   1      37.479  29.415  30.352  1.00  0.00     0.135 A 
ATOM     54  C   UNL A   1      38.249  29.704  28.108  1.00  0.00     0.135 A 
ATOM     55  F   UNL A   1      37.641  29.000  31.617  1.00  0.00    -0.206 F 
ATOM     56  C   UNL A   1      36.309  30.118  30.043  1.00  0.00     0.059 A 
ATOM     57  C   UNL A   1      37.084  30.388  27.772  1.00  0.00     0.059 A 
ATOM     58  F   UNL A   1      39.180  29.631  27.145  1.00  0.00    -0.206 F 
ATOM     59  C   UNL A   1      36.128  30.614  28.752  1.00  0.00     0.060 A 
BRANCH  59  60
ATOM     60  S   UNL A   1      34.706  31.668  28.393  1.00  0.00     0.124 S 
ATOM     61  O   UNL A   1      33.734  30.703  27.892  1.00  0.00    -0.237 OA
ATOM     62  O   UNL A   1      34.417  32.247  29.700  1.00  0.00    -0.237 OA
ATOM     63  O   UNL A   1      35.222  32.607  27.400  1.00  0.00    -0.744 OA
ENDBRANCH  59  60
ENDBRANCH  27  52
BRANCH  39  64
ATOM     64  C   UNL A   1      43.538  28.257  33.203  1.00  0.00     0.058 A 
ATOM     65  C   UNL A   1      43.235  28.631  34.524  1.00  0.00     0.135 A 
ATOM     66  C   UNL A   1      43.425  26.896  32.880  1.00  0.00     0.135 A 
ATOM     67  F   UNL A   1      43.211  29.921  34.885  1.00  0.00    -0.206 F 
ATOM     68  C   UNL A   1      42.875  27.689  35.488  1.00  0.00     0.059 A 
ATOM     69  C   UNL A   1      43.037  25.943  33.818  1.00  0.00     0.059 A 
ATOM     70  F   UNL A   1      43.636  26.484  31.617  1.00  0.00    -0.206 F 
ATOM     71  C   UNL A   1      42.772  26.347  35.125  1.00  0.00     0.060 A 
BRANCH  71  72
ATOM     72  S   UNL A   1      42.194  25.150  36.349  1.00  0.00     0.124 S 
ATOM     73  O   UNL A   1      42.410  23.882  35.662  1.00  0.00    -0.237 OA
ATOM     74  O   UNL A   1      43.070  25.412  37.488  1.00  0.00    -0.237 OA
ATOM     75  O   UNL A   1      40.797  25.521  36.555  1.00  0.00    -0.744 OA
ENDBRANCH  71  72
ENDBRANCH  39  64
ENDBRANCH  13  14
ENDBRANCH   6   8
ENDBRANCH   5   6
ENDBRANCH   4   5
ENDBRANCH   3   4
ENDBRANCH   2   3
ENDBRANCH   1   2
BRANCH   1  76
ATOM     76  C   UNL A   1      41.807  19.954  27.240  1.00  0.00     0.188 C 
BRANCH  76  77
ATOM     77  O   UNL A   1      40.485  20.029  26.708  1.00  0.00    -0.376 OA
BRANCH  77  78
ATOM     78  C   UNL A   1      39.922  21.297  26.401  1.00  0.00     0.202 C 
BRANCH  78  79
ATOM     79  C   UNL A   1      38.781  21.320  25.381  1.00  0.00     0.261 C 
BRANCH  79  80
ATOM     80  O   UNL A   1      37.548  21.744  25.969  1.00  0.00    -0.458 OA
BRANCH  80  81
ATOM     81  C   UNL A   1      37.172  23.030  25.741  1.00  0.00     0.358 C 
ATOM     82  O   UNL A   1      37.929  23.992  25.717  1.00  0.00    -0.244 OA
BRANCH  81  83
ATOM     83  C   UNL A   1      35.726  23.157  25.590  1.00  0.00     0.166 A 
ATOM     84  C   UNL A   1      35.024  24.327  25.754  1.00  0.00     0.129 A 
ATOM     85  N   UNL A   1      34.851  22.140  25.241  1.00  0.00    -0.229 NA
ATOM     86  N   UNL A   1      33.724  24.046  25.417  1.00  0.00    -0.305 N 
ATOM     87  C   UNL A   1      33.659  22.697  25.179  1.00  0.00     0.205 A 
BRANCH  86  88
ATOM     88  C   UNL A   1      32.684  24.990  25.323  1.00  0.00     0.057 A 
ATOM     89  C   UNL A   1      32.081  25.439  26.495  1.00  0.00     0.047 A 
ATOM     90  C   UNL A   1      32.319  25.515  24.054  1.00  0.00     0.026 A 
ATOM     91  C   UNL A   1      31.190  26.484  26.375  1.00  0.00     0.114 A 
ATOM     92  C   UNL A   1      31.402  26.583  24.066  1.00  0.00     0.072 A 
ATOM     93  C   UNL A   1      32.755  25.005  22.799  1.00  0.00     0.033 A 
ATOM     94  N   UNL A   1      30.867  27.066  25.198  1.00  0.00    -0.256 NA
ATOM     95  C   UNL A   1      31.024  27.148  22.852  1.00  0.00     0.030 A 
ATOM     96  C   UNL A   1      32.350  25.581  21.603  1.00  0.00     0.041 A 
ATOM     97  C   UNL A   1      31.492  26.665  21.625  1.00  0.00     0.023 A 
ATOM     98  Cl  UNL A   1      32.905  24.938  20.110  1.00  0.00    -0.084 Cl
ENDBRANCH  86  88
ENDBRANCH  81  83
ENDBRANCH  80  81
ENDBRANCH  79  80
ENDBRANCH  78  79
ENDBRANCH  77  78
ENDBRANCH  76  77
ENDBRANCH   1  76
TORSDOF 21
ENDMDL
MODEL 2
REMARK VINA RESULT:     -10.2      2.858      9.700
REMARK SMILES O=C(OCCOCCOCCOC(=O)c1cn(-c2ccnc3ccc(Cl)cc23)cn1)c1ccc(-c2c3nc(c(-c4c(F)cc(S(=O)(=O)[O-])cc4F)c4ccc([nH]4)c(-c4c(F)cc(S(=O)(=O)[O-])cc4F)c4nc(c(-c5c(F)cc(S(=O)(=O)[O-])cc5F)c5ccc2[nH]5)C=C4)C=C3)cc1
REMARK SMILES IDX 7 1 6 2 5 3 4 4 3 5 2 6 1 7 31 8 32 9 96 10 33 11 95 12
REMARK SMILES IDX 34 13 35 14 36 15 89 16 37 17 94 18 88 19 90 20 38 21 93 22
REMARK SMILES IDX 87 23 86 24 39 26 73 27 52 28 72 29 53 30 56 31 71 32 91 33
REMARK SMILES IDX 54 34 55 35 70 37 92 38 57 39 40 40 41 41 50 42 42 43 43 44
REMARK SMILES IDX 49 45 51 46 44 47 45 48 46 49 47 50 48 51 74 52 75 53 84 54
REMARK SMILES IDX 76 55 77 56 83 57 85 58 78 59 79 60 80 61 81 62 82 63 58 64
REMARK SMILES IDX 59 65 68 66 60 67 61 68 67 69 69 70 62 71 63 72 64 73 65 74
REMARK SMILES IDX 66 75 8 76 9 77 10 78 11 79 12 80 13 81 14 82 15 83 16 84
REMARK SMILES IDX 30 85 17 86 29 87 18 88 19 89 28 90 20 91 22 92 27 93 21 94
REMARK SMILES IDX 23 95 25 96 24 97 26 98
REMARK H PARENT 90 25 56 36
REMARK Flexibility Score: inf
ROOT
ATOM      1  C   UNL A   1      33.048  30.475  26.761  1.00  0.00     0.188 C 
ENDROOT
BRANCH   1   2
ATOM      2  O   UNL A   1      34.301  31.091  27.020  1.00  0.00    -0.376 OA
BRANCH   2   3
ATOM      3  C   UNL A   1      34.522  31.417  28.381  1.00  0.00     0.202 C 
BRANCH   3   4
ATOM      4  C   UNL A   1      34.159  32.871  28.690  1.00  0.00     0.261 C 
BRANCH   4   5
ATOM      5  O   UNL A   1      34.494  33.328  30.016  1.00  0.00    -0.460 OA
BRANCH   5   6
ATOM      6  C   UNL A   1      34.845  32.695  31.151  1.00  0.00     0.338 C 
ATOM      7  O   UNL A   1      34.027  32.643  32.069  1.00  0.00    -0.246 OA
BRANCH   6   8
ATOM      8  C   UNL A   1      36.204  32.139  31.408  1.00  0.00     0.060 A 
ATOM      9  C   UNL A   1      37.403  32.842  31.297  1.00  0.00     0.016 A 
ATOM     10  C   UNL A   1      36.254  30.767  31.729  1.00  0.00     0.016 A 
ATOM     11  C   UNL A   1      38.621  32.184  31.426  1.00  0.00     0.010 A 
ATOM     12  C   UNL A   1      37.469  30.100  31.842  1.00  0.00     0.010 A 
ATOM     13  C   UNL A   1      38.649  30.805  31.626  1.00  0.00    -0.014 A 
BRANCH  13  14
ATOM     14  C   UNL A   1      39.930  30.133  31.452  1.00  0.00     0.031 A 
ATOM     15  C   UNL A   1      40.822  30.004  32.633  1.00  0.00     0.074 A 
ATOM     16  C   UNL A   1      40.269  29.601  30.260  1.00  0.00     0.049 A 
ATOM     17  N   UNL A   1      42.016  30.477  32.796  1.00  0.00    -0.248 NA
ATOM     18  C   UNL A   1      40.297  29.287  33.803  1.00  0.00     0.031 C 
ATOM     19  C   UNL A   1      39.403  29.401  29.093  1.00  0.00     0.029 A 
ATOM     20  N   UNL A   1      41.442  29.023  29.882  1.00  0.00    -0.354 N 
ATOM     21  C   UNL A   1      42.475  29.961  34.006  1.00  0.00     0.074 A 
ATOM     22  C   UNL A   1      41.338  29.336  34.636  1.00  0.00     0.031 C 
ATOM     23  C   UNL A   1      40.007  28.551  28.237  1.00  0.00     0.029 A 
ATOM     24  C   UNL A   1      41.341  28.254  28.732  1.00  0.00     0.049 A 
ATOM     25  H   UNL A   1      42.285  29.139  30.378  1.00  0.00     0.167 HD
ATOM     26  C   UNL A   1      43.796  29.916  34.336  1.00  0.00     0.037 A 
ATOM     27  C   UNL A   1      42.251  27.364  28.269  1.00  0.00     0.037 A 
ATOM     28  C   UNL A   1      44.596  30.777  33.510  1.00  0.00     0.049 A 
ATOM     29  C   UNL A   1      43.565  27.705  28.868  1.00  0.00     0.074 A 
ATOM     30  C   UNL A   1      44.634  32.135  33.265  1.00  0.00     0.029 A 
ATOM     31  N   UNL A   1      45.375  30.203  32.535  1.00  0.00    -0.354 N 
ATOM     32  N   UNL A   1      44.245  28.784  28.589  1.00  0.00    -0.248 NA
ATOM     33  C   UNL A   1      43.962  27.023  30.091  1.00  0.00     0.031 C 
ATOM     34  C   UNL A   1      45.036  32.261  31.904  1.00  0.00     0.029 A 
ATOM     35  C   UNL A   1      45.235  30.972  31.407  1.00  0.00     0.049 A 
ATOM     36  H   UNL A   1      45.928  29.395  32.627  1.00  0.00     0.167 HD
ATOM     37  C   UNL A   1      44.863  29.137  29.779  1.00  0.00     0.074 A 
ATOM     38  C   UNL A   1      44.747  27.959  30.630  1.00  0.00     0.031 C 
ATOM     39  C   UNL A   1      45.166  30.438  30.064  1.00  0.00     0.037 A 
BRANCH  26  40
ATOM     40  C   UNL A   1      44.417  28.863  35.219  1.00  0.00     0.058 A 
ATOM     41  C   UNL A   1      44.359  27.503  34.849  1.00  0.00     0.135 A 
ATOM     42  C   UNL A   1      44.818  29.120  36.549  1.00  0.00     0.135 A 
ATOM     43  F   UNL A   1      43.972  27.149  33.614  1.00  0.00    -0.206 F 
ATOM     44  C   UNL A   1      44.625  26.472  35.751  1.00  0.00     0.059 A 
ATOM     45  C   UNL A   1      45.140  28.109  37.449  1.00  0.00     0.059 A 
ATOM     46  F   UNL A   1      44.823  30.359  37.057  1.00  0.00    -0.206 F 
ATOM     47  C   UNL A   1      44.996  26.788  37.056  1.00  0.00     0.060 A 
BRANCH  47  48
ATOM     48  S   UNL A   1      45.219  25.466  38.260  1.00  0.00     0.124 S 
ATOM     49  O   UNL A   1      44.635  24.332  37.554  1.00  0.00    -0.237 OA
ATOM     50  O   UNL A   1      46.669  25.440  38.423  1.00  0.00    -0.237 OA
ATOM     51  O   UNL A   1      44.474  25.944  39.421  1.00  0.00    -0.744 OA
ENDBRANCH  47  48
ENDBRANCH  26  40
BRANCH  27  52
ATOM     52  C   UNL A   1      41.964  26.061  27.617  1.00  0.00     0.058 A 
ATOM     53  C   UNL A   1      42.775  25.570  26.582  1.00  0.00     0.135 A 
ATOM     54  C   UNL A   1      41.039  25.149  28.169  1.00  0.00     0.135 A 
ATOM     55  F   UNL A   1      43.705  26.359  26.022  1.00  0.00    -0.206 F 
ATOM     56  C   UNL A   1      42.700  24.244  26.143  1.00  0.00     0.059 A 
ATOM     57  C   UNL A   1      40.932  23.830  27.735  1.00  0.00     0.059 A 
ATOM     58  F   UNL A   1      40.271  25.482  29.217  1.00  0.00    -0.206 F 
ATOM     59  C   UNL A   1      41.784  23.376  26.739  1.00  0.00     0.060 A 
BRANCH  59  60
ATOM     60  S   UNL A   1      41.800  21.624  26.301  1.00  0.00     0.124 S 
ATOM     61  O   UNL A   1      42.737  21.601  25.184  1.00  0.00    -0.237 OA
ATOM     62  O   UNL A   1      42.265  21.004  27.537  1.00  0.00    -0.237 OA
ATOM     63  O   UNL A   1      40.408  21.348  25.956  1.00  0.00    -0.744 OA
ENDBRANCH  59  60
ENDBRANCH  27  52
BRANCH  39  64
ATOM     64  C   UNL A   1      45.139  31.441  28.942  1.00  0.00     0.058 A 
ATOM     65  C   UNL A   1      46.239  31.713  28.110  1.00  0.00     0.135 A 
ATOM     66  C   UNL A   1      43.910  32.022  28.592  1.00  0.00     0.135 A 
ATOM     67  F   UNL A   1      47.419  31.111  28.310  1.00  0.00    -0.206 F 
ATOM     68  C   UNL A   1      46.130  32.557  27.003  1.00  0.00     0.059 A 
ATOM     69  C   UNL A   1      43.772  32.842  27.474  1.00  0.00     0.059 A 
ATOM     70  F   UNL A   1      42.807  31.747  29.309  1.00  0.00    -0.206 F 
ATOM     71  C   UNL A   1      44.891  33.112  26.689  1.00  0.00     0.060 A 
BRANCH  71  72
ATOM     72  S   UNL A   1      44.732  34.109  25.191  1.00  0.00     0.124 S 
ATOM     73  O   UNL A   1      46.109  34.529  24.955  1.00  0.00    -0.237 OA
ATOM     74  O   UNL A   1      44.186  33.154  24.230  1.00  0.00    -0.237 OA
ATOM     75  O   UNL A   1      43.812  35.172  25.586  1.00  0.00    -0.744 OA
ENDBRANCH  71  72
ENDBRANCH  39  64
ENDBRANCH  13  14
ENDBRANCH   6   8
ENDBRANCH   5   6
ENDBRANCH   4   5
ENDBRANCH   3   4
ENDBRANCH   2   3
ENDBRANCH   1   2
BRANCH   1  76
ATOM     76  C   UNL A   1      33.082  29.339  25.711  1.00  0.00     0.188 C 
BRANCH  76  77
ATOM     77  O   UNL A   1      32.114  29.265  24.663  1.00  0.00    -0.376 OA
BRANCH  77  78
ATOM     78  C   UNL A   1      31.071  28.305  24.738  1.00  0.00     0.202 C 
BRANCH  78  79
ATOM     79  C   UNL A   1      31.155  27.275  25.867  1.00  0.00     0.261 C 
BRANCH  79  80
ATOM     80  O   UNL A   1      30.240  26.194  25.671  1.00  0.00    -0.458 OA
BRANCH  80  81
ATOM     81  C   UNL A   1      30.620  25.220  24.803  1.00  0.00     0.358 C 
ATOM     82  O   UNL A   1      30.167  25.064  23.676  1.00  0.00    -0.244 OA
BRANCH  81  83
ATOM     83  C   UNL A   1      31.601  24.316  25.393  1.00  0.00     0.166 A 
ATOM     84  C   UNL A   1      32.662  23.764  24.715  1.00  0.00     0.129 A 
ATOM     85  N   UNL A   1      31.631  23.895  26.714  1.00  0.00    -0.229 NA
ATOM     86  N   UNL A   1      33.397  23.073  25.646  1.00  0.00    -0.305 N 
ATOM     87  C   UNL A   1      32.696  23.128  26.824  1.00  0.00     0.205 A 
BRANCH  86  88
ATOM     88  C   UNL A   1      34.639  22.456  25.408  1.00  0.00     0.057 A 
ATOM     89  C   UNL A   1      35.799  23.216  25.543  1.00  0.00     0.047 A 
ATOM     90  C   UNL A   1      34.693  21.069  25.105  1.00  0.00     0.026 A 
ATOM     91  C   UNL A   1      36.997  22.537  25.471  1.00  0.00     0.114 A 
ATOM     92  C   UNL A   1      35.976  20.494  25.061  1.00  0.00     0.072 A 
ATOM     93  C   UNL A   1      33.570  20.256  24.784  1.00  0.00     0.033 A 
ATOM     94  N   UNL A   1      37.097  21.206  25.258  1.00  0.00    -0.256 NA
ATOM     95  C   UNL A   1      36.087  19.134  24.787  1.00  0.00     0.030 A 
ATOM     96  C   UNL A   1      33.712  18.905  24.501  1.00  0.00     0.041 A 
ATOM     97  C   UNL A   1      34.972  18.334  24.515  1.00  0.00     0.023 A 
ATOM     98  Cl  UNL A   1      32.329  17.957  24.124  1.00  0.00    -0.084 Cl
ENDBRANCH  86  88
ENDBRANCH  81  83
ENDBRANCH  80  81
ENDBRANCH  79  80
ENDBRANCH  78  79
ENDBRANCH  77  78
ENDBRANCH  76  77
ENDBRANCH   1  76
TORSDOF 21
ENDMDL
MODEL 3
REMARK VINA RESULT:     -10.0      3.828     10.349
REMARK SMILES O=C(OCCOCCOCCOC(=O)c1cn(-c2ccnc3ccc(Cl)cc23)cn1)c1ccc(-c2c3nc(c(-c4c(F)cc(S(=O)(=O)[O-])cc4F)c4ccc([nH]4)c(-c4c(F)cc(S(=O)(=O)[O-])cc4F)c4nc(c(-c5c(F)cc(S(=O)(=O)[O-])cc5F)c5ccc2[nH]5)C=C4)C=C3)cc1
REMARK SMILES IDX 7 1 6 2 5 3 4 4 3 5 2 6 1 7 31 8 32 9 96 10 33 11 95 12
REMARK SMILES IDX 34 13 35 14 36 15 89 16 37 17 94 18 88 19 90 20 38 21 93 22
REMARK SMILES IDX 87 23 86 24 39 26 73 27 52 28 72 29 53 30 56 31 71 32 91 33
REMARK SMILES IDX 54 34 55 35 70 37 92 38 57 39 40 40 41 41 50 42 42 43 43 44
REMARK SMILES IDX 49 45 51 46 44 47 45 48 46 49 47 50 48 51 74 52 75 53 84 54
REMARK SMILES IDX 76 55 77 56 83 57 85 58 78 59 79 60 80 61 81 62 82 63 58 64
REMARK SMILES IDX 59 65 68 66 60 67 61 68 67 69 69 70 62 71 63 72 64 73 65 74
REMARK SMILES IDX 66 75 8 76 9 77 10 78 11 79 12 80 13 81 14 82 15 83 16 84
REMARK SMILES IDX 30 85 17 86 29 87 18 88 19 89 28 90 20 91 22 92 27 93 21 94
REMARK SMILES IDX 23 95 25 96 24 97 26 98
REMARK H PARENT 90 25 56 36
REMARK Flexibility Score: inf
ROOT
ATOM      1  C   UNL A   1      35.039  33.491  28.034  1.00  0.00     0.188 C 
ENDROOT
BRANCH   1   2
ATOM      2  O   UNL A   1      34.717  34.649  28.793  1.00  0.00    -0.376 OA
BRANCH   2   3
ATOM      3  C   UNL A   1      33.341  34.776  29.108  1.00  0.00     0.202 C 
BRANCH   3   4
ATOM      4  C   UNL A   1      33.024  36.127  29.752  1.00  0.00     0.261 C 
BRANCH   4   5
ATOM      5  O   UNL A   1      32.716  36.087  31.161  1.00  0.00    -0.460 OA
BRANCH   5   6
ATOM      6  C   UNL A   1      32.927  35.175  32.128  1.00  0.00     0.338 C 
ATOM      7  O   UNL A   1      31.993  34.888  32.876  1.00  0.00    -0.246 OA
BRANCH   6   8
ATOM      8  C   UNL A   1      34.254  34.562  32.419  1.00  0.00     0.060 A 
ATOM      9  C   UNL A   1      35.447  35.260  32.610  1.00  0.00     0.016 A 
ATOM     10  C   UNL A   1      34.288  33.152  32.433  1.00  0.00     0.016 A 
ATOM     11  C   UNL A   1      36.651  34.577  32.737  1.00  0.00     0.010 A 
ATOM     12  C   UNL A   1      35.491  32.464  32.542  1.00  0.00     0.010 A 
ATOM     13  C   UNL A   1      36.677  33.188  32.631  1.00  0.00    -0.014 A 
BRANCH  13  14
ATOM     14  C   UNL A   1      37.980  32.557  32.469  1.00  0.00     0.031 A 
ATOM     15  C   UNL A   1      38.847  32.416  33.667  1.00  0.00     0.074 A 
ATOM     16  C   UNL A   1      38.364  32.072  31.270  1.00  0.00     0.049 A 
ATOM     17  N   UNL A   1      40.023  32.917  33.874  1.00  0.00    -0.248 NA
ATOM     18  C   UNL A   1      38.314  31.649  34.802  1.00  0.00     0.031 C 
ATOM     19  C   UNL A   1      37.533  31.883  30.076  1.00  0.00     0.029 A 
ATOM     20  N   UNL A   1      39.562  31.538  30.904  1.00  0.00    -0.354 N 
ATOM     21  C   UNL A   1      40.466  32.376  35.080  1.00  0.00     0.074 A 
ATOM     22  C   UNL A   1      39.333  31.700  35.662  1.00  0.00     0.031 C 
ATOM     23  C   UNL A   1      38.181  31.077  29.210  1.00  0.00     0.029 A 
ATOM     24  C   UNL A   1      39.511  30.803  29.729  1.00  0.00     0.049 A 
ATOM     25  H   UNL A   1      40.388  31.662  31.425  1.00  0.00     0.167 HD
ATOM     26  C   UNL A   1      41.780  32.358  35.441  1.00  0.00     0.037 A 
ATOM     27  C   UNL A   1      40.456  29.953  29.263  1.00  0.00     0.037 A 
ATOM     28  C   UNL A   1      42.575  33.266  34.662  1.00  0.00     0.049 A 
ATOM     29  C   UNL A   1      41.746  30.312  29.904  1.00  0.00     0.074 A 
ATOM     30  C   UNL A   1      42.580  34.632  34.460  1.00  0.00     0.029 A 
ATOM     31  N   UNL A   1      43.393  32.744  33.690  1.00  0.00    -0.354 N 
ATOM     32  N   UNL A   1      42.401  31.417  29.676  1.00  0.00    -0.248 NA
ATOM     33  C   UNL A   1      42.132  29.604  31.116  1.00  0.00     0.031 C 
ATOM     34  C   UNL A   1      43.011  34.810  33.113  1.00  0.00     0.029 A 
ATOM     35  C   UNL A   1      43.259  33.543  32.583  1.00  0.00     0.049 A 
ATOM     36  H   UNL A   1      43.966  31.949  33.771  1.00  0.00     0.167 HD
ATOM     37  C   UNL A   1      42.979  31.750  30.892  1.00  0.00     0.074 A 
ATOM     38  C   UNL A   1      42.876  30.543  31.703  1.00  0.00     0.031 C 
ATOM     39  C   UNL A   1      43.238  33.049  31.223  1.00  0.00     0.037 A 
BRANCH  26  40
ATOM     40  C   UNL A   1      42.409  31.295  36.308  1.00  0.00     0.058 A 
ATOM     41  C   UNL A   1      43.219  31.661  37.402  1.00  0.00     0.135 A 
ATOM     42  C   UNL A   1      42.465  29.935  35.930  1.00  0.00     0.135 A 
ATOM     43  F   UNL A   1      43.254  32.932  37.831  1.00  0.00    -0.206 F 
ATOM     44  C   UNL A   1      44.069  30.754  38.037  1.00  0.00     0.059 A 
ATOM     45  C   UNL A   1      43.264  29.003  36.583  1.00  0.00     0.059 A 
ATOM     46  F   UNL A   1      41.819  29.476  34.850  1.00  0.00    -0.206 F 
ATOM     47  C   UNL A   1      44.096  29.430  37.606  1.00  0.00     0.060 A 
BRANCH  47  48
ATOM     48  S   UNL A   1      45.279  28.283  38.336  1.00  0.00     0.124 S 
ATOM     49  O   UNL A   1      44.993  27.062  37.591  1.00  0.00    -0.237 OA
ATOM     50  O   UNL A   1      46.555  28.928  38.042  1.00  0.00    -0.237 OA
ATOM     51  O   UNL A   1      44.903  28.269  39.746  1.00  0.00    -0.744 OA
ENDBRANCH  47  48
ENDBRANCH  26  40
BRANCH  27  52
ATOM     52  C   UNL A   1      40.223  28.663  28.565  1.00  0.00     0.058 A 
ATOM     53  C   UNL A   1      40.782  28.406  27.303  1.00  0.00     0.135 A 
ATOM     54  C   UNL A   1      39.657  27.556  29.233  1.00  0.00     0.135 A 
ATOM     55  F   UNL A   1      41.370  29.394  26.612  1.00  0.00    -0.206 F 
ATOM     56  C   UNL A   1      40.812  27.121  26.751  1.00  0.00     0.059 A 
ATOM     57  C   UNL A   1      39.657  26.272  28.695  1.00  0.00     0.059 A 
ATOM     58  F   UNL A   1      39.169  27.666  30.477  1.00  0.00    -0.206 F 
ATOM     59  C   UNL A   1      40.259  26.056  27.464  1.00  0.00     0.060 A 
BRANCH  59  60
ATOM     60  S   UNL A   1      40.448  24.372  26.840  1.00  0.00     0.124 S 
ATOM     61  O   UNL A   1      39.187  24.168  26.136  1.00  0.00    -0.237 OA
ATOM     62  O   UNL A   1      41.637  24.488  26.001  1.00  0.00    -0.237 OA
ATOM     63  O   UNL A   1      40.623  23.578  28.054  1.00  0.00    -0.744 OA
ENDBRANCH  59  60
ENDBRANCH  27  52
BRANCH  39  64
ATOM     64  C   UNL A   1      43.210  34.086  30.132  1.00  0.00     0.058 A 
ATOM     65  C   UNL A   1      42.028  34.646  29.616  1.00  0.00     0.135 A 
ATOM     66  C   UNL A   1      44.424  34.652  29.713  1.00  0.00     0.135 A 
ATOM     67  F   UNL A   1      40.827  34.238  30.048  1.00  0.00    -0.206 F 
ATOM     68  C   UNL A   1      42.055  35.696  28.696  1.00  0.00     0.059 A 
ATOM     69  C   UNL A   1      44.473  35.720  28.820  1.00  0.00     0.059 A 
ATOM     70  F   UNL A   1      45.585  34.204  30.222  1.00  0.00    -0.206 F 
ATOM     71  C   UNL A   1      43.282  36.230  28.308  1.00  0.00     0.060 A 
BRANCH  71  72
ATOM     72  S   UNL A   1      43.305  37.662  27.207  1.00  0.00     0.124 S 
ATOM     73  O   UNL A   1      41.900  37.786  26.837  1.00  0.00    -0.237 OA
ATOM     74  O   UNL A   1      43.831  38.718  28.069  1.00  0.00    -0.237 OA
ATOM     75  O   UNL A   1      44.202  37.249  26.130  1.00  0.00    -0.744 OA
ENDBRANCH  71  72
ENDBRANCH  39  64
ENDBRANCH  13  14
ENDBRANCH   6   8
ENDBRANCH   5   6
ENDBRANCH   4   5
ENDBRANCH   3   4
ENDBRANCH   2   3
ENDBRANCH   1   2
BRANCH   1  76
ATOM     76  C   UNL A   1      33.935  32.408  27.995  1.00  0.00     0.188 C 
BRANCH  76  77
ATOM     77  O   UNL A   1      34.168  31.131  27.399  1.00  0.00    -0.376 OA
BRANCH  77  78
ATOM     78  C   UNL A   1      33.089  30.221  27.245  1.00  0.00     0.202 C 
BRANCH  78  79
ATOM     79  C   UNL A   1      32.609  29.950  25.817  1.00  0.00     0.261 C 
BRANCH  79  80
ATOM     80  O   UNL A   1      33.430  28.985  25.153  1.00  0.00    -0.458 OA
BRANCH  80  81
ATOM     81  C   UNL A   1      33.004  28.554  23.937  1.00  0.00     0.358 C 
ATOM     82  O   UNL A   1      32.512  29.263  23.069  1.00  0.00    -0.244 OA
BRANCH  81  83
ATOM     83  C   UNL A   1      33.137  27.107  23.794  1.00  0.00     0.166 A 
ATOM     84  C   UNL A   1      32.751  26.190  24.742  1.00  0.00     0.129 A 
ATOM     85  N   UNL A   1      33.644  26.441  22.688  1.00  0.00    -0.229 NA
ATOM     86  N   UNL A   1      32.940  24.953  24.179  1.00  0.00    -0.305 N 
ATOM     87  C   UNL A   1      33.543  25.157  22.965  1.00  0.00     0.205 A 
BRANCH  86  88
ATOM     88  C   UNL A   1      32.557  23.728  24.758  1.00  0.00     0.057 A 
ATOM     89  C   UNL A   1      31.243  23.579  25.196  1.00  0.00     0.047 A 
ATOM     90  C   UNL A   1      33.485  22.655  24.822  1.00  0.00     0.026 A 
ATOM     91  C   UNL A   1      30.862  22.316  25.597  1.00  0.00     0.114 A 
ATOM     92  C   UNL A   1      32.971  21.415  25.246  1.00  0.00     0.072 A 
ATOM     93  C   UNL A   1      34.880  22.761  24.558  1.00  0.00     0.033 A 
ATOM     94  N   UNL A   1      31.689  21.246  25.605  1.00  0.00    -0.256 NA
ATOM     95  C   UNL A   1      33.833  20.325  25.309  1.00  0.00     0.030 A 
ATOM     96  C   UNL A   1      35.718  21.658  24.643  1.00  0.00     0.041 A 
ATOM     97  C   UNL A   1      35.195  20.430  25.006  1.00  0.00     0.023 A 
ATOM     98  Cl  UNL A   1      37.395  21.827  24.310  1.00  0.00    -0.084 Cl
ENDBRANCH  86  88
ENDBRANCH  81  83
ENDBRANCH  80  81
ENDBRANCH  79  80
ENDBRANCH  78  79
ENDBRANCH  77  78
ENDBRANCH  76  77
ENDBRANCH   1  76
TORSDOF 21
ENDMDL
