MODEL 1
REMARK VINA RESULT:      -9.9      0.000      0.000
REMARK SMILES COc1ccc(CSc2ncccc2C(=O)OCCOCCOCCOC(=O)c2ccc(-c3c4nc(c(-c5c(F)cc(S(=O)(=O)[O-])cc5F)c5ccc([nH]5)c(-c5c(F)cc(S(=O)(=O)[O-])cc5F)c5nc(c(-c6c(F)cc(S(=O)(=O)[O-])cc6F)c6ccc3[nH]6)C=C5)C=C4)cc2)cc1
REMARK SMILES IDX 21 1 20 2 19 3 18 4 17 5 15 6 16 7 14 8 9 9 10 10 11 11
REMARK SMILES IDX 13 12 12 13 8 14 7 15 6 16 3 17 4 18 96 19 5 20 95 21 2 22
REMARK SMILES IDX 1 23 22 24 23 25 24 26 25 27 26 28 27 29 28 30 29 31 30 32
REMARK SMILES IDX 94 33 31 34 93 35 32 36 33 37 34 38 87 39 35 40 92 41 86 42
REMARK SMILES IDX 88 43 36 44 91 45 85 46 84 47 37 49 71 50 50 51 70 52 51 53
REMARK SMILES IDX 54 54 69 55 89 56 52 57 53 58 68 60 90 61 55 62 38 63 39 64
REMARK SMILES IDX 48 65 40 66 41 67 47 68 49 69 42 70 43 71 44 72 45 73 46 74
REMARK SMILES IDX 72 75 73 76 82 77 74 78 75 79 81 80 83 81 76 82 77 83 78 84
REMARK SMILES IDX 79 85 80 86 56 87 57 88 66 89 58 90 59 91 65 92 67 93 60 94
REMARK SMILES IDX 61 95 62 96 63 97 64 98
REMARK H PARENT 88 48 54 59
REMARK Flexibility Score: inf
ROOT
ATOM      1  C   UNL A   1      35.055  24.068  24.173  1.00  0.00     0.188 C 
ENDROOT
BRANCH   1   2
ATOM      2  O   UNL A   1      34.510  24.107  22.860  1.00  0.00    -0.376 OA
BRANCH   2   3
ATOM      3  C   UNL A   1      33.284  24.818  22.727  1.00  0.00     0.202 C 
BRANCH   3   4
ATOM      4  C   UNL A   1      33.480  26.259  22.252  1.00  0.00     0.261 C 
BRANCH   4   5
ATOM      5  O   UNL A   1      33.232  27.229  23.285  1.00  0.00    -0.460 OA
BRANCH   5   6
ATOM      6  C   UNL A   1      31.927  27.526  23.516  1.00  0.00     0.340 C 
ATOM      7  O   UNL A   1      31.075  27.617  22.670  1.00  0.00    -0.246 OA
BRANCH   6   8
ATOM      8  C   UNL A   1      31.752  27.733  24.967  1.00  0.00     0.092 A 
ATOM      9  C   UNL A   1      31.125  26.829  25.828  1.00  0.00     0.111 A 
ATOM     10  N   UNL A   1      31.074  27.075  27.169  1.00  0.00    -0.249 NA
ATOM     11  C   UNL A   1      31.649  28.191  27.663  1.00  0.00     0.112 A 
ATOM     12  C   UNL A   1      32.350  28.885  25.512  1.00  0.00     0.020 A 
ATOM     13  C   UNL A   1      32.308  29.114  26.881  1.00  0.00     0.021 A 
BRANCH   9  14
ATOM     14  S   UNL A   1      30.628  25.149  25.500  1.00  0.00    -0.101 SA
BRANCH  14  15
ATOM     15  C   UNL A   1      31.598  24.098  26.618  1.00  0.00     0.112 C 
BRANCH  15  16
ATOM     16  C   UNL A   1      32.165  22.839  26.027  1.00  0.00    -0.037 A 
ATOM     17  C   UNL A   1      33.220  20.442  24.989  1.00  0.00     0.118 A 
ATOM     18  C   UNL A   1      32.260  21.163  24.277  1.00  0.00     0.047 A 
ATOM     19  C   UNL A   1      33.641  20.914  26.230  1.00  0.00     0.047 A 
ATOM     20  C   UNL A   1      31.733  22.353  24.788  1.00  0.00     0.008 A 
ATOM     21  C   UNL A   1      33.099  22.088  26.749  1.00  0.00     0.008 A 
BRANCH  17  22
ATOM     22  O   UNL A   1      33.677  19.305  24.381  1.00  0.00    -0.497 OA
ATOM     23  C   UNL A   1      33.392  18.083  25.051  1.00  0.00     0.278 C 
ENDBRANCH  17  22
ENDBRANCH  15  16
ENDBRANCH  14  15
ENDBRANCH   9  14
ENDBRANCH   6   8
ENDBRANCH   5   6
ENDBRANCH   4   5
ENDBRANCH   3   4
ENDBRANCH   2   3
ENDBRANCH   1   2
BRANCH   1  24
ATOM     24  C   UNL A   1      36.484  23.493  24.286  1.00  0.00     0.188 C 
BRANCH  24  25
ATOM     25  O   UNL A   1      36.976  23.033  25.539  1.00  0.00    -0.376 OA
BRANCH  25  26
ATOM     26  C   UNL A   1      38.077  23.704  26.132  1.00  0.00     0.202 C 
BRANCH  26  27
ATOM     27  C   UNL A   1      39.321  22.882  26.489  1.00  0.00     0.261 C 
BRANCH  27  28
ATOM     28  O   UNL A   1      40.132  23.442  27.534  1.00  0.00    -0.460 OA
BRANCH  28  29
ATOM     29  C   UNL A   1      40.886  24.510  27.170  1.00  0.00     0.338 C 
ATOM     30  O   UNL A   1      41.596  24.603  26.182  1.00  0.00    -0.246 OA
BRANCH  29  31
ATOM     31  C   UNL A   1      40.609  25.656  28.062  1.00  0.00     0.060 A 
ATOM     32  C   UNL A   1      41.590  26.650  28.182  1.00  0.00     0.016 A 
ATOM     33  C   UNL A   1      39.444  25.720  28.829  1.00  0.00     0.016 A 
ATOM     34  C   UNL A   1      41.431  27.688  29.098  1.00  0.00     0.010 A 
ATOM     35  C   UNL A   1      39.297  26.749  29.767  1.00  0.00     0.010 A 
ATOM     36  C   UNL A   1      40.306  27.716  29.930  1.00  0.00    -0.014 A 
BRANCH  36  37
ATOM     37  C   UNL A   1      40.277  28.639  31.091  1.00  0.00     0.031 A 
ATOM     38  C   UNL A   1      39.304  29.789  31.073  1.00  0.00     0.074 A 
ATOM     39  C   UNL A   1      41.083  28.455  32.150  1.00  0.00     0.049 A 
ATOM     40  N   UNL A   1      39.129  30.743  31.949  1.00  0.00    -0.248 NA
ATOM     41  C   UNL A   1      38.411  29.870  29.906  1.00  0.00     0.031 C 
ATOM     42  C   UNL A   1      42.033  27.356  32.310  1.00  0.00     0.029 A 
ATOM     43  N   UNL A   1      41.234  29.203  33.292  1.00  0.00    -0.354 N 
ATOM     44  C   UNL A   1      38.109  31.539  31.441  1.00  0.00     0.074 A 
ATOM     45  C   UNL A   1      37.724  30.971  30.167  1.00  0.00     0.031 C 
ATOM     46  C   UNL A   1      42.688  27.514  33.475  1.00  0.00     0.029 A 
ATOM     47  C   UNL A   1      42.219  28.736  34.129  1.00  0.00     0.049 A 
ATOM     48  H   UNL A   1      40.689  29.998  33.492  1.00  0.00     0.167 HD
ATOM     49  C   UNL A   1      37.539  32.640  31.988  1.00  0.00     0.037 A 
ATOM     50  C   UNL A   1      42.701  29.250  35.278  1.00  0.00     0.037 A 
ATOM     51  C   UNL A   1      37.930  33.211  33.250  1.00  0.00     0.049 A 
ATOM     52  C   UNL A   1      42.103  30.516  35.835  1.00  0.00     0.074 A 
ATOM     53  C   UNL A   1      37.406  34.317  33.894  1.00  0.00     0.029 A 
ATOM     54  N   UNL A   1      38.952  32.726  34.055  1.00  0.00    -0.354 N 
ATOM     55  N   UNL A   1      41.125  31.249  35.357  1.00  0.00    -0.248 NA
ATOM     56  C   UNL A   1      42.674  31.026  37.091  1.00  0.00     0.031 C 
ATOM     57  C   UNL A   1      38.141  34.528  35.067  1.00  0.00     0.029 A 
ATOM     58  C   UNL A   1      39.091  33.525  35.177  1.00  0.00     0.049 A 
ATOM     59  H   UNL A   1      39.496  31.930  33.856  1.00  0.00     0.167 HD
ATOM     60  C   UNL A   1      40.947  32.290  36.264  1.00  0.00     0.074 A 
ATOM     61  C   UNL A   1      41.915  32.089  37.323  1.00  0.00     0.031 C 
ATOM     62  C   UNL A   1      40.060  33.315  36.225  1.00  0.00     0.037 A 
BRANCH  49  63
ATOM     63  C   UNL A   1      36.454  33.314  31.197  1.00  0.00     0.058 A 
ATOM     64  C   UNL A   1      36.738  34.072  30.049  1.00  0.00     0.135 A 
ATOM     65  C   UNL A   1      35.113  33.207  31.597  1.00  0.00     0.135 A 
ATOM     66  F   UNL A   1      38.006  34.221  29.633  1.00  0.00    -0.206 F 
ATOM     67  C   UNL A   1      35.734  34.731  29.347  1.00  0.00     0.059 A 
ATOM     68  C   UNL A   1      34.090  33.838  30.895  1.00  0.00     0.059 A 
ATOM     69  F   UNL A   1      34.787  32.498  32.688  1.00  0.00    -0.206 F 
ATOM     70  C   UNL A   1      34.413  34.615  29.784  1.00  0.00     0.060 A 
BRANCH  70  71
ATOM     71  S   UNL A   1      33.121  35.496  28.881  1.00  0.00     0.124 S 
ATOM     72  O   UNL A   1      32.504  34.412  28.124  1.00  0.00    -0.237 OA
ATOM     73  O   UNL A   1      32.311  36.057  29.958  1.00  0.00    -0.237 OA
ATOM     74  O   UNL A   1      33.866  36.471  28.089  1.00  0.00    -0.744 OA
ENDBRANCH  70  71
ENDBRANCH  49  63
BRANCH  50  75
ATOM     75  C   UNL A   1      43.824  28.567  35.973  1.00  0.00     0.058 A 
ATOM     76  C   UNL A   1      43.596  27.487  36.837  1.00  0.00     0.135 A 
ATOM     77  C   UNL A   1      45.151  28.976  35.772  1.00  0.00     0.135 A 
ATOM     78  F   UNL A   1      42.342  27.070  37.072  1.00  0.00    -0.206 F 
ATOM     79  C   UNL A   1      44.644  26.834  37.479  1.00  0.00     0.059 A 
ATOM     80  C   UNL A   1      46.218  28.327  36.387  1.00  0.00     0.059 A 
ATOM     81  F   UNL A   1      45.423  30.002  34.950  1.00  0.00    -0.206 F 
ATOM     82  C   UNL A   1      45.953  27.259  37.243  1.00  0.00     0.060 A 
BRANCH  82  83
ATOM     83  S   UNL A   1      47.312  26.367  38.031  1.00  0.00     0.124 S 
ATOM     84  O   UNL A   1      46.645  25.777  39.187  1.00  0.00    -0.237 OA
ATOM     85  O   UNL A   1      47.718  25.436  36.983  1.00  0.00    -0.237 OA
ATOM     86  O   UNL A   1      48.276  27.422  38.329  1.00  0.00    -0.744 OA
ENDBRANCH  82  83
ENDBRANCH  50  75
BRANCH  62  87
ATOM     87  C   UNL A   1      40.069  34.288  37.371  1.00  0.00     0.058 A 
ATOM     88  C   UNL A   1      40.822  35.472  37.328  1.00  0.00     0.135 A 
ATOM     89  C   UNL A   1      39.263  34.065  38.500  1.00  0.00     0.135 A 
ATOM     90  F   UNL A   1      41.612  35.732  36.274  1.00  0.00    -0.206 F 
ATOM     91  C   UNL A   1      40.793  36.391  38.373  1.00  0.00     0.059 A 
ATOM     92  C   UNL A   1      39.200  34.982  39.546  1.00  0.00     0.059 A 
ATOM     93  F   UNL A   1      38.514  32.955  38.587  1.00  0.00    -0.206 F 
ATOM     94  C   UNL A   1      39.976  36.137  39.478  1.00  0.00     0.060 A 
BRANCH  94  95
ATOM     95  S   UNL A   1      39.914  37.356  40.809  1.00  0.00     0.124 S 
ATOM     96  O   UNL A   1      39.382  38.524  40.114  1.00  0.00    -0.237 OA
ATOM     97  O   UNL A   1      39.016  36.727  41.772  1.00  0.00    -0.237 OA
ATOM     98  O   UNL A   1      41.307  37.462  41.237  1.00  0.00    -0.744 OA
ENDBRANCH  94  95
ENDBRANCH  62  87
ENDBRANCH  36  37
ENDBRANCH  29  31
ENDBRANCH  28  29
ENDBRANCH  27  28
ENDBRANCH  26  27
ENDBRANCH  25  26
ENDBRANCH  24  25
ENDBRANCH   1  24
TORSDOF 24
ENDMDL
MODEL 2
REMARK VINA RESULT:      -9.9      1.185      8.300
REMARK SMILES COc1ccc(CSc2ncccc2C(=O)OCCOCCOCCOC(=O)c2ccc(-c3c4nc(c(-c5c(F)cc(S(=O)(=O)[O-])cc5F)c5ccc([nH]5)c(-c5c(F)cc(S(=O)(=O)[O-])cc5F)c5nc(c(-c6c(F)cc(S(=O)(=O)[O-])cc6F)c6ccc3[nH]6)C=C5)C=C4)cc2)cc1
REMARK SMILES IDX 21 1 20 2 19 3 18 4 17 5 15 6 16 7 14 8 9 9 10 10 11 11
REMARK SMILES IDX 13 12 12 13 8 14 7 15 6 16 3 17 4 18 96 19 5 20 95 21 2 22
REMARK SMILES IDX 1 23 22 24 23 25 24 26 25 27 26 28 27 29 28 30 29 31 30 32
REMARK SMILES IDX 94 33 31 34 93 35 32 36 33 37 34 38 87 39 35 40 92 41 86 42
REMARK SMILES IDX 88 43 36 44 91 45 85 46 84 47 37 49 71 50 50 51 70 52 51 53
REMARK SMILES IDX 54 54 69 55 89 56 52 57 53 58 68 60 90 61 55 62 38 63 39 64
REMARK SMILES IDX 48 65 40 66 41 67 47 68 49 69 42 70 43 71 44 72 45 73 46 74
REMARK SMILES IDX 72 75 73 76 82 77 74 78 75 79 81 80 83 81 76 82 77 83 78 84
REMARK SMILES IDX 79 85 80 86 56 87 57 88 66 89 58 90 59 91 65 92 67 93 60 94
REMARK SMILES IDX 61 95 62 96 63 97 64 98
REMARK H PARENT 88 48 54 59
REMARK Flexibility Score: inf
ROOT
ATOM      1  C   UNL A   1      38.323  21.471  25.711  1.00  0.00     0.188 C 
ENDROOT
BRANCH   1   2
ATOM      2  O   UNL A   1      37.298  21.027  24.830  1.00  0.00    -0.376 OA
BRANCH   2   3
ATOM      3  C   UNL A   1      36.078  21.758  24.892  1.00  0.00     0.202 C 
BRANCH   3   4
ATOM      4  C   UNL A   1      36.015  22.898  23.873  1.00  0.00     0.261 C 
BRANCH   4   5
ATOM      5  O   UNL A   1      35.391  24.084  24.396  1.00  0.00    -0.460 OA
BRANCH   5   6
ATOM      6  C   UNL A   1      34.348  24.570  23.675  1.00  0.00     0.340 C 
ATOM      7  O   UNL A   1      34.198  24.428  22.488  1.00  0.00    -0.246 OA
BRANCH   6   8
ATOM      8  C   UNL A   1      33.457  25.309  24.592  1.00  0.00     0.092 A 
ATOM      9  C   UNL A   1      32.131  24.963  24.859  1.00  0.00     0.111 A 
ATOM     10  N   UNL A   1      31.407  25.666  25.779  1.00  0.00    -0.249 NA
ATOM     11  C   UNL A   1      31.987  26.687  26.441  1.00  0.00     0.112 A 
ATOM     12  C   UNL A   1      34.038  26.375  25.304  1.00  0.00     0.020 A 
ATOM     13  C   UNL A   1      33.297  27.069  26.252  1.00  0.00     0.021 A 
BRANCH   9  14
ATOM     14  S   UNL A   1      31.262  23.472  24.414  1.00  0.00    -0.101 SA
BRANCH  14  15
ATOM     15  C   UNL A   1      31.961  22.146  25.439  1.00  0.00     0.112 C 
BRANCH  15  16
ATOM     16  C   UNL A   1      32.265  20.851  24.740  1.00  0.00    -0.037 A 
ATOM     17  C   UNL A   1      32.798  18.385  23.487  1.00  0.00     0.118 A 
ATOM     18  C   UNL A   1      32.350  19.479  22.743  1.00  0.00     0.047 A 
ATOM     19  C   UNL A   1      32.963  18.523  24.863  1.00  0.00     0.047 A 
ATOM     20  C   UNL A   1      32.084  20.704  23.360  1.00  0.00     0.008 A 
ATOM     21  C   UNL A   1      32.677  19.738  25.481  1.00  0.00     0.008 A 
BRANCH  17  22
ATOM     22  O   UNL A   1      33.044  17.245  22.772  1.00  0.00    -0.497 OA
ATOM     23  C   UNL A   1      34.250  16.561  23.088  1.00  0.00     0.278 C 
ENDBRANCH  17  22
ENDBRANCH  15  16
ENDBRANCH  14  15
ENDBRANCH   9  14
ENDBRANCH   6   8
ENDBRANCH   5   6
ENDBRANCH   4   5
ENDBRANCH   3   4
ENDBRANCH   2   3
ENDBRANCH   1   2
BRANCH   1  24
ATOM     24  C   UNL A   1      39.595  20.597  25.750  1.00  0.00     0.188 C 
BRANCH  24  25
ATOM     25  O   UNL A   1      40.627  20.872  26.689  1.00  0.00    -0.376 OA
BRANCH  25  26
ATOM     26  C   UNL A   1      41.720  21.685  26.290  1.00  0.00     0.202 C 
BRANCH  26  27
ATOM     27  C   UNL A   1      41.802  23.112  26.844  1.00  0.00     0.261 C 
BRANCH  27  28
ATOM     28  O   UNL A   1      40.737  23.981  26.426  1.00  0.00    -0.460 OA
BRANCH  28  29
ATOM     29  C   UNL A   1      41.103  25.267  26.186  1.00  0.00     0.338 C 
ATOM     30  O   UNL A   1      41.240  25.798  25.097  1.00  0.00    -0.246 OA
BRANCH  29  31
ATOM     31  C   UNL A   1      41.160  26.024  27.455  1.00  0.00     0.060 A 
ATOM     32  C   UNL A   1      40.067  25.933  28.327  1.00  0.00     0.016 A 
ATOM     33  C   UNL A   1      42.230  26.871  27.751  1.00  0.00     0.016 A 
ATOM     34  C   UNL A   1      40.019  26.718  29.477  1.00  0.00     0.010 A 
ATOM     35  C   UNL A   1      42.169  27.678  28.894  1.00  0.00     0.010 A 
ATOM     36  C   UNL A   1      41.047  27.630  29.742  1.00  0.00    -0.014 A 
BRANCH  36  37
ATOM     37  C   UNL A   1      40.858  28.662  30.792  1.00  0.00     0.031 A 
ATOM     38  C   UNL A   1      41.714  28.594  32.029  1.00  0.00     0.074 A 
ATOM     39  C   UNL A   1      39.959  29.649  30.648  1.00  0.00     0.049 A 
ATOM     40  N   UNL A   1      41.699  29.354  33.093  1.00  0.00    -0.248 NA
ATOM     41  C   UNL A   1      42.721  27.521  32.069  1.00  0.00     0.031 C 
ATOM     42  C   UNL A   1      39.105  29.852  29.479  1.00  0.00     0.029 A 
ATOM     43  N   UNL A   1      39.611  30.666  31.503  1.00  0.00    -0.354 N 
ATOM     44  C   UNL A   1      42.690  28.853  33.929  1.00  0.00     0.074 A 
ATOM     45  C   UNL A   1      43.268  27.707  33.260  1.00  0.00     0.031 C 
ATOM     46  C   UNL A   1      38.312  30.916  29.701  1.00  0.00     0.029 A 
ATOM     47  C   UNL A   1      38.587  31.453  31.034  1.00  0.00     0.049 A 
ATOM     48  H   UNL A   1      40.053  30.816  32.369  1.00  0.00     0.167 HD
ATOM     49  C   UNL A   1      43.089  29.309  35.141  1.00  0.00     0.037 A 
ATOM     50  C   UNL A   1      37.933  32.473  31.624  1.00  0.00     0.037 A 
ATOM     51  C   UNL A   1      42.507  30.443  35.810  1.00  0.00     0.049 A 
ATOM     52  C   UNL A   1      38.342  32.921  33.004  1.00  0.00     0.074 A 
ATOM     53  C   UNL A   1      42.848  30.990  37.033  1.00  0.00     0.029 A 
ATOM     54  N   UNL A   1      41.452  31.197  35.315  1.00  0.00    -0.354 N 
ATOM     55  N   UNL A   1      39.294  32.454  33.776  1.00  0.00    -0.248 NA
ATOM     56  C   UNL A   1      37.588  34.039  33.592  1.00  0.00     0.031 C 
ATOM     57  C   UNL A   1      41.970  32.047  37.300  1.00  0.00     0.029 A 
ATOM     58  C   UNL A   1      41.112  32.188  36.220  1.00  0.00     0.049 A 
ATOM     59  H   UNL A   1      41.010  31.048  34.448  1.00  0.00     0.167 HD
ATOM     60  C   UNL A   1      39.270  33.233  34.928  1.00  0.00     0.074 A 
ATOM     61  C   UNL A   1      38.213  34.207  34.751  1.00  0.00     0.031 C 
ATOM     62  C   UNL A   1      40.056  33.153  36.031  1.00  0.00     0.037 A 
BRANCH  49  63
ATOM     63  C   UNL A   1      44.187  28.551  35.831  1.00  0.00     0.058 A 
ATOM     64  C   UNL A   1      45.541  28.872  35.636  1.00  0.00     0.135 A 
ATOM     65  C   UNL A   1      43.883  27.486  36.692  1.00  0.00     0.135 A 
ATOM     66  F   UNL A   1      45.888  29.871  34.810  1.00  0.00    -0.206 F 
ATOM     67  C   UNL A   1      46.555  28.138  36.243  1.00  0.00     0.059 A 
ATOM     68  C   UNL A   1      44.881  26.754  37.329  1.00  0.00     0.059 A 
ATOM     69  F   UNL A   1      42.606  27.137  36.910  1.00  0.00    -0.206 F 
ATOM     70  C   UNL A   1      46.215  27.074  37.081  1.00  0.00     0.060 A 
BRANCH  70  71
ATOM     71  S   UNL A   1      47.539  26.112  37.842  1.00  0.00     0.124 S 
ATOM     72  O   UNL A   1      47.917  25.222  36.748  1.00  0.00    -0.237 OA
ATOM     73  O   UNL A   1      48.517  27.140  38.187  1.00  0.00    -0.237 OA
ATOM     74  O   UNL A   1      46.884  25.469  38.977  1.00  0.00    -0.744 OA
ENDBRANCH  70  71
ENDBRANCH  49  63
BRANCH  50  75
ATOM     75  C   UNL A   1      36.808  33.134  30.911  1.00  0.00     0.058 A 
ATOM     76  C   UNL A   1      37.038  34.146  29.969  1.00  0.00     0.135 A 
ATOM     77  C   UNL A   1      35.479  32.751  31.148  1.00  0.00     0.135 A 
ATOM     78  F   UNL A   1      38.291  34.556  29.720  1.00  0.00    -0.206 F 
ATOM     79  C   UNL A   1      35.992  34.759  29.287  1.00  0.00     0.059 A 
ATOM     80  C   UNL A   1      34.416  33.334  30.465  1.00  0.00     0.059 A 
ATOM     81  F   UNL A   1      35.206  31.782  32.037  1.00  0.00    -0.206 F 
ATOM     82  C   UNL A   1      34.683  34.341  29.539  1.00  0.00     0.060 A 
BRANCH  82  83
ATOM     83  S   UNL A   1      33.334  35.097  28.604  1.00  0.00     0.124 S 
ATOM     84  O   UNL A   1      32.632  33.922  28.100  1.00  0.00    -0.237 OA
ATOM     85  O   UNL A   1      32.639  35.864  29.632  1.00  0.00    -0.237 OA
ATOM     86  O   UNL A   1      34.030  35.896  27.600  1.00  0.00    -0.744 OA
ENDBRANCH  82  83
ENDBRANCH  50  75
BRANCH  62  87
ATOM     87  C   UNL A   1      39.827  34.158  37.125  1.00  0.00     0.058 A 
ATOM     88  C   UNL A   1      39.004  33.876  38.227  1.00  0.00     0.135 A 
ATOM     89  C   UNL A   1      40.489  35.397  37.103  1.00  0.00     0.135 A 
ATOM     90  F   UNL A   1      38.345  32.709  38.296  1.00  0.00    -0.206 F 
ATOM     91  C   UNL A   1      38.831  34.794  39.259  1.00  0.00     0.059 A 
ATOM     92  C   UNL A   1      40.349  36.320  38.136  1.00  0.00     0.059 A 
ATOM     93  F   UNL A   1      41.297  35.714  36.078  1.00  0.00    -0.206 F 
ATOM     94  C   UNL A   1      39.509  36.014  39.205  1.00  0.00     0.060 A 
BRANCH  94  95
ATOM     95  S   UNL A   1      39.308  37.180  40.569  1.00  0.00     0.124 S 
ATOM     96  O   UNL A   1      40.637  37.779  40.641  1.00  0.00    -0.237 OA
ATOM     97  O   UNL A   1      38.245  38.053  40.083  1.00  0.00    -0.237 OA
ATOM     98  O   UNL A   1      38.944  36.325  41.695  1.00  0.00    -0.744 OA
ENDBRANCH  94  95
ENDBRANCH  62  87
ENDBRANCH  36  37
ENDBRANCH  29  31
ENDBRANCH  28  29
ENDBRANCH  27  28
ENDBRANCH  26  27
ENDBRANCH  25  26
ENDBRANCH  24  25
ENDBRANCH   1  24
TORSDOF 24
ENDMDL
MODEL 3
REMARK VINA RESULT:      -9.9      1.841      8.845
REMARK SMILES COc1ccc(CSc2ncccc2C(=O)OCCOCCOCCOC(=O)c2ccc(-c3c4nc(c(-c5c(F)cc(S(=O)(=O)[O-])cc5F)c5ccc([nH]5)c(-c5c(F)cc(S(=O)(=O)[O-])cc5F)c5nc(c(-c6c(F)cc(S(=O)(=O)[O-])cc6F)c6ccc3[nH]6)C=C5)C=C4)cc2)cc1
REMARK SMILES IDX 21 1 20 2 19 3 18 4 17 5 15 6 16 7 14 8 9 9 10 10 11 11
REMARK SMILES IDX 13 12 12 13 8 14 7 15 6 16 3 17 4 18 96 19 5 20 95 21 2 22
REMARK SMILES IDX 1 23 22 24 23 25 24 26 25 27 26 28 27 29 28 30 29 31 30 32
REMARK SMILES IDX 94 33 31 34 93 35 32 36 33 37 34 38 87 39 35 40 92 41 86 42
REMARK SMILES IDX 88 43 36 44 91 45 85 46 84 47 37 49 71 50 50 51 70 52 51 53
REMARK SMILES IDX 54 54 69 55 89 56 52 57 53 58 68 60 90 61 55 62 38 63 39 64
REMARK SMILES IDX 48 65 40 66 41 67 47 68 49 69 42 70 43 71 44 72 45 73 46 74
REMARK SMILES IDX 72 75 73 76 82 77 74 78 75 79 81 80 83 81 76 82 77 83 78 84
REMARK SMILES IDX 79 85 80 86 56 87 57 88 66 89 58 90 59 91 65 92 67 93 60 94
REMARK SMILES IDX 61 95 62 96 63 97 64 98
REMARK H PARENT 88 48 54 59
REMARK Flexibility Score: inf
ROOT
ATOM      1  C   UNL A   1      36.965  23.613  25.591  1.00  0.00     0.188 C 
ENDROOT
BRANCH   1   2
ATOM      2  O   UNL A   1      35.574  23.331  25.672  1.00  0.00    -0.376 OA
BRANCH   2   3
ATOM      3  C   UNL A   1      35.218  22.237  26.512  1.00  0.00     0.202 C 
BRANCH   3   4
ATOM      4  C   UNL A   1      33.722  22.188  26.825  1.00  0.00     0.261 C 
BRANCH   4   5
ATOM      5  O   UNL A   1      32.989  23.277  26.236  1.00  0.00    -0.460 OA
BRANCH   5   6
ATOM      6  C   UNL A   1      31.914  22.927  25.484  1.00  0.00     0.340 C 
ATOM      7  O   UNL A   1      31.031  22.187  25.836  1.00  0.00    -0.246 OA
BRANCH   6   8
ATOM      8  C   UNL A   1      32.033  23.591  24.171  1.00  0.00     0.092 A 
ATOM      9  C   UNL A   1      31.377  24.773  23.817  1.00  0.00     0.111 A 
ATOM     10  N   UNL A   1      31.606  25.351  22.603  1.00  0.00    -0.249 NA
ATOM     11  C   UNL A   1      32.484  24.784  21.751  1.00  0.00     0.112 A 
ATOM     12  C   UNL A   1      32.950  23.026  23.265  1.00  0.00     0.020 A 
ATOM     13  C   UNL A   1      33.189  23.636  22.040  1.00  0.00     0.021 A 
BRANCH   9  14
ATOM     14  S   UNL A   1      30.478  25.899  24.866  1.00  0.00    -0.101 SA
BRANCH  14  15
ATOM     15  C   UNL A   1      29.010  26.412  23.930  1.00  0.00     0.112 C 
BRANCH  15  16
ATOM     16  C   UNL A   1      28.970  27.846  23.485  1.00  0.00    -0.037 A 
ATOM     17  C   UNL A   1      28.966  30.526  22.616  1.00  0.00     0.118 A 
ATOM     18  C   UNL A   1      27.822  29.735  22.488  1.00  0.00     0.047 A 
ATOM     19  C   UNL A   1      30.118  29.969  23.164  1.00  0.00     0.047 A 
ATOM     20  C   UNL A   1      27.819  28.405  22.918  1.00  0.00     0.008 A 
ATOM     21  C   UNL A   1      30.122  28.636  23.572  1.00  0.00     0.008 A 
BRANCH  17  22
ATOM     22  O   UNL A   1      28.843  31.816  22.180  1.00  0.00    -0.497 OA
ATOM     23  C   UNL A   1      28.184  31.992  20.932  1.00  0.00     0.278 C 
ENDBRANCH  17  22
ENDBRANCH  15  16
ENDBRANCH  14  15
ENDBRANCH   9  14
ENDBRANCH   6   8
ENDBRANCH   5   6
ENDBRANCH   4   5
ENDBRANCH   3   4
ENDBRANCH   2   3
ENDBRANCH   1   2
BRANCH   1  24
ATOM     24  C   UNL A   1      37.896  22.381  25.579  1.00  0.00     0.188 C 
BRANCH  24  25
ATOM     25  O   UNL A   1      39.036  22.334  26.429  1.00  0.00    -0.376 OA
BRANCH  25  26
ATOM     26  C   UNL A   1      40.088  21.434  26.117  1.00  0.00     0.202 C 
BRANCH  26  27
ATOM     27  C   UNL A   1      41.522  21.976  26.091  1.00  0.00     0.261 C 
BRANCH  27  28
ATOM     28  O   UNL A   1      41.779  23.042  27.018  1.00  0.00    -0.460 OA
BRANCH  28  29
ATOM     29  C   UNL A   1      42.148  24.220  26.454  1.00  0.00     0.338 C 
ATOM     30  O   UNL A   1      42.655  24.380  25.356  1.00  0.00    -0.246 OA
BRANCH  29  31
ATOM     31  C   UNL A   1      41.697  25.350  27.295  1.00  0.00     0.060 A 
ATOM     32  C   UNL A   1      42.491  26.504  27.329  1.00  0.00     0.016 A 
ATOM     33  C   UNL A   1      40.559  25.253  28.098  1.00  0.00     0.016 A 
ATOM     34  C   UNL A   1      42.175  27.549  28.195  1.00  0.00     0.010 A 
ATOM     35  C   UNL A   1      40.256  26.293  28.985  1.00  0.00     0.010 A 
ATOM     36  C   UNL A   1      41.084  27.429  29.063  1.00  0.00    -0.014 A 
BRANCH  36  37
ATOM     37  C   UNL A   1      40.923  28.397  30.176  1.00  0.00     0.031 A 
ATOM     38  C   UNL A   1      41.826  28.274  31.374  1.00  0.00     0.074 A 
ATOM     39  C   UNL A   1      40.006  29.378  30.120  1.00  0.00     0.049 A 
ATOM     40  N   UNL A   1      41.841  28.973  32.478  1.00  0.00    -0.248 NA
ATOM     41  C   UNL A   1      42.847  27.215  31.316  1.00  0.00     0.031 C 
ATOM     42  C   UNL A   1      39.106  29.633  28.998  1.00  0.00     0.029 A 
ATOM     43  N   UNL A   1      39.678  30.341  31.044  1.00  0.00    -0.354 N 
ATOM     44  C   UNL A   1      42.870  28.442  33.248  1.00  0.00     0.074 A 
ATOM     45  C   UNL A   1      43.436  27.343  32.495  1.00  0.00     0.031 C 
ATOM     46  C   UNL A   1      38.308  30.671  29.308  1.00  0.00     0.029 A 
ATOM     47  C   UNL A   1      38.627  31.137  30.658  1.00  0.00     0.049 A 
ATOM     48  H   UNL A   1      40.150  30.449  31.900  1.00  0.00     0.167 HD
ATOM     49  C   UNL A   1      43.308  28.836  34.467  1.00  0.00     0.037 A 
ATOM     50  C   UNL A   1      37.982  32.113  31.328  1.00  0.00     0.037 A 
ATOM     51  C   UNL A   1      42.738  29.921  35.220  1.00  0.00     0.049 A 
ATOM     52  C   UNL A   1      38.438  32.490  32.715  1.00  0.00     0.074 A 
ATOM     53  C   UNL A   1      43.119  30.405  36.459  1.00  0.00     0.029 A 
ATOM     54  N   UNL A   1      41.655  30.686  34.808  1.00  0.00    -0.354 N 
ATOM     55  N   UNL A   1      39.425  31.994  33.423  1.00  0.00    -0.248 NA
ATOM     56  C   UNL A   1      37.693  33.561  33.393  1.00  0.00     0.031 C 
ATOM     57  C   UNL A   1      42.238  31.432  36.817  1.00  0.00     0.029 A 
ATOM     58  C   UNL A   1      41.337  31.621  35.780  1.00  0.00     0.049 A 
ATOM     59  H   UNL A   1      41.182  30.579  33.951  1.00  0.00     0.167 HD
ATOM     60  C   UNL A   1      39.435  32.708  34.618  1.00  0.00     0.074 A 
ATOM     61  C   UNL A   1      38.359  33.675  34.535  1.00  0.00     0.031 C 
ATOM     62  C   UNL A   1      40.263  32.578  35.684  1.00  0.00     0.037 A 
BRANCH  49  63
ATOM     63  C   UNL A   1      44.442  28.057  35.073  1.00  0.00     0.058 A 
ATOM     64  C   UNL A   1      45.777  28.474  34.943  1.00  0.00     0.135 A 
ATOM     65  C   UNL A   1      44.190  26.874  35.785  1.00  0.00     0.135 A 
ATOM     66  F   UNL A   1      46.074  29.589  34.258  1.00  0.00    -0.206 F 
ATOM     67  C   UNL A   1      46.826  27.726  35.467  1.00  0.00     0.059 A 
ATOM     68  C   UNL A   1      45.223  26.122  36.339  1.00  0.00     0.059 A 
ATOM     69  F   UNL A   1      42.934  26.429  35.935  1.00  0.00    -0.206 F 
ATOM     70  C   UNL A   1      46.538  26.545  36.156  1.00  0.00     0.060 A 
BRANCH  70  71
ATOM     71  S   UNL A   1      47.909  25.568  36.809  1.00  0.00     0.124 S 
ATOM     72  O   UNL A   1      47.256  24.837  37.890  1.00  0.00    -0.237 OA
ATOM     73  O   UNL A   1      48.304  24.768  35.652  1.00  0.00    -0.237 OA
ATOM     74  O   UNL A   1      48.877  26.577  37.228  1.00  0.00    -0.744 OA
ENDBRANCH  70  71
ENDBRANCH  49  63
BRANCH  50  75
ATOM     75  C   UNL A   1      36.823  32.795  30.696  1.00  0.00     0.058 A 
ATOM     76  C   UNL A   1      35.506  32.422  30.999  1.00  0.00     0.135 A 
ATOM     77  C   UNL A   1      37.013  33.847  29.786  1.00  0.00     0.135 A 
ATOM     78  F   UNL A   1      35.275  31.412  31.851  1.00  0.00    -0.206 F 
ATOM     79  C   UNL A   1      34.415  33.067  30.422  1.00  0.00     0.059 A 
ATOM     80  C   UNL A   1      35.939  34.520  29.211  1.00  0.00     0.059 A 
ATOM     81  F   UNL A   1      38.254  34.245  29.467  1.00  0.00    -0.206 F 
ATOM     82  C   UNL A   1      34.643  34.119  29.533  1.00  0.00     0.060 A 
BRANCH  82  83
ATOM     83  S   UNL A   1      33.222  34.991  28.836  1.00  0.00     0.124 S 
ATOM     84  O   UNL A   1      32.428  35.259  30.030  1.00  0.00    -0.237 OA
ATOM     85  O   UNL A   1      33.849  36.152  28.213  1.00  0.00    -0.237 OA
ATOM     86  O   UNL A   1      32.656  34.019  27.905  1.00  0.00    -0.744 OA
ENDBRANCH  82  83
ENDBRANCH  50  75
BRANCH  62  87
ATOM     87  C   UNL A   1      40.063  33.518  36.841  1.00  0.00     0.058 A 
ATOM     88  C   UNL A   1      40.763  34.731  36.936  1.00  0.00     0.135 A 
ATOM     89  C   UNL A   1      39.113  33.230  37.836  1.00  0.00     0.135 A 
ATOM     90  F   UNL A   1      41.685  35.052  36.014  1.00  0.00    -0.206 F 
ATOM     91  C   UNL A   1      40.543  35.618  37.986  1.00  0.00     0.059 A 
ATOM     92  C   UNL A   1      38.860  34.114  38.882  1.00  0.00     0.059 A 
ATOM     93  F   UNL A   1      38.407  32.089  37.787  1.00  0.00    -0.206 F 
ATOM     94  C   UNL A   1      39.587  35.300  38.954  1.00  0.00     0.060 A 
BRANCH  94  95
ATOM     95  S   UNL A   1      39.280  36.477  40.290  1.00  0.00     0.124 S 
ATOM     96  O   UNL A   1      38.602  37.557  39.580  1.00  0.00    -0.237 OA
ATOM     97  O   UNL A   1      38.452  35.703  41.208  1.00  0.00    -0.237 OA
ATOM     98  O   UNL A   1      40.620  36.792  40.778  1.00  0.00    -0.744 OA
ENDBRANCH  94  95
ENDBRANCH  62  87
ENDBRANCH  36  37
ENDBRANCH  29  31
ENDBRANCH  28  29
ENDBRANCH  27  28
ENDBRANCH  26  27
ENDBRANCH  25  26
ENDBRANCH  24  25
ENDBRANCH   1  24
TORSDOF 24
ENDMDL
