MODEL 1
REMARK VINA RESULT:      -9.5      0.000      0.000
REMARK SMILES C[C@@H](O)[C@@H](NC(=O)CN(C)C(=O)c1cccs1)C(=O)OCCOCCOCCOC(=O)c1ccc(-c2c3nc(c(-c4c(F)cc(S(=O)(=O)[O-])cc4F)c4ccc([nH]4)c(-c4c(F)cc(S(=O)(=O)[O-])cc4F)c4nc(c(-c5c(F)cc(S(=O)(=O)[O-])cc5F)c5ccc2[nH]5)C=C4)C=C3)cc1
REMARK SMILES IDX 24 1 23 2 22 3 21 4 20 5 18 6 19 7 4 8 2 9 1 10 3 11 5 13
REMARK SMILES IDX 6 14 7 16 8 17 9 18 10 19 11 20 12 21 13 22 14 23 17 24
REMARK SMILES IDX 15 25 16 26 25 27 26 28 27 29 28 30 29 31 30 32 31 33 32 34
REMARK SMILES IDX 33 35 97 36 34 37 96 38 35 39 36 40 37 41 90 42 38 43 95 44
REMARK SMILES IDX 89 45 91 46 39 47 94 48 88 49 87 50 40 52 74 53 53 54 73 55
REMARK SMILES IDX 54 56 57 57 72 58 92 59 55 60 56 61 71 63 93 64 58 65 41 66
REMARK SMILES IDX 42 67 51 68 43 69 44 70 50 71 52 72 45 73 46 74 47 75 48 76
REMARK SMILES IDX 49 77 75 78 76 79 85 80 77 81 78 82 84 83 86 84 79 85 80 86
REMARK SMILES IDX 81 87 82 88 83 89 59 90 60 91 69 92 61 93 62 94 68 95 70 96
REMARK SMILES IDX 63 97 64 98 65 99 66 100 67 101
REMARK H PARENT 3 12 5 15 91 51 57 62
REMARK Flexibility Score: inf
ROOT
ATOM      1  C   UNL A   1      39.570  22.000  26.123  1.00  0.00     0.188 C 
ENDROOT
BRANCH   1   2
ATOM      2  O   UNL A   1      38.181  21.768  25.897  1.00  0.00    -0.376 OA
BRANCH   2   3
ATOM      3  C   UNL A   1      37.389  22.894  25.523  1.00  0.00     0.202 C 
BRANCH   3   4
ATOM      4  C   UNL A   1      35.911  22.588  25.273  1.00  0.00     0.261 C 
BRANCH   4   5
ATOM      5  O   UNL A   1      35.486  21.495  26.114  1.00  0.00    -0.462 OA
BRANCH   5   6
ATOM      6  C   UNL A   1      34.306  21.699  26.753  1.00  0.00     0.331 C 
ATOM      7  O   UNL A   1      34.230  21.944  27.954  1.00  0.00    -0.250 OA
BRANCH   6   8
ATOM      8  C   UNL A   1      33.069  21.370  25.899  1.00  0.00     0.221 C 
BRANCH   8   9
ATOM      9  C   UNL A   1      32.898  19.968  25.268  1.00  0.00     0.145 C 
ATOM     10  C   UNL A   1      32.506  20.070  23.788  1.00  0.00     0.041 C 
BRANCH   9  11
ATOM     11  O   UNL A   1      34.098  19.202  25.351  1.00  0.00    -0.391 OA
ATOM     12  H   UNL A   1      33.879  18.277  25.546  1.00  0.00     0.211 HD
ENDBRANCH   9  11
ENDBRANCH   8   9
BRANCH   8  13
ATOM     13  N   UNL A   1      31.817  21.861  26.511  1.00  0.00    -0.339 N 
ATOM     14  C   UNL A   1      31.040  22.955  26.263  1.00  0.00     0.240 C 
ATOM     15  H   UNL A   1      31.479  21.290  27.237  1.00  0.00     0.164 HD
ATOM     16  O   UNL A   1      30.385  23.382  27.219  1.00  0.00    -0.273 OA
BRANCH  14  17
ATOM     17  C   UNL A   1      30.952  23.617  24.877  1.00  0.00     0.219 C 
BRANCH  17  18
ATOM     18  N   UNL A   1      31.733  24.839  24.653  1.00  0.00    -0.332 N 
ATOM     19  C   UNL A   1      32.668  25.247  25.683  1.00  0.00     0.147 C 
BRANCH  18  20
ATOM     20  C   UNL A   1      31.714  25.463  23.396  1.00  0.00     0.264 C 
ATOM     21  O   UNL A   1      32.273  24.984  22.416  1.00  0.00    -0.268 OA
BRANCH  20  22
ATOM     22  C   UNL A   1      31.036  26.753  23.352  1.00  0.00     0.092 A 
ATOM     23  C   UNL A   1      29.689  27.018  23.520  1.00  0.00     0.025 A 
ATOM     24  S   UNL A   1      31.917  28.166  22.968  1.00  0.00    -0.139 S 
ATOM     25  C   UNL A   1      29.364  28.369  23.205  1.00  0.00     0.012 A 
ATOM     26  C   UNL A   1      30.483  29.100  22.874  1.00  0.00     0.065 A 
ENDBRANCH  20  22
ENDBRANCH  18  20
ENDBRANCH  17  18
ENDBRANCH  14  17
ENDBRANCH   8  13
ENDBRANCH   6   8
ENDBRANCH   5   6
ENDBRANCH   4   5
ENDBRANCH   3   4
ENDBRANCH   2   3
ENDBRANCH   1   2
BRANCH   1  27
ATOM     27  C   UNL A   1      40.382  20.783  26.574  1.00  0.00     0.188 C 
BRANCH  27  28
ATOM     28  O   UNL A   1      41.678  21.048  27.108  1.00  0.00    -0.376 OA
BRANCH  28  29
ATOM     29  C   UNL A   1      42.777  20.850  26.217  1.00  0.00     0.202 C 
BRANCH  29  30
ATOM     30  C   UNL A   1      43.455  22.157  25.800  1.00  0.00     0.261 C 
BRANCH  30  31
ATOM     31  O   UNL A   1      42.951  23.223  26.621  1.00  0.00    -0.460 OA
BRANCH  31  32
ATOM     32  C   UNL A   1      42.933  24.454  26.058  1.00  0.00     0.338 C 
ATOM     33  O   UNL A   1      43.095  24.724  24.880  1.00  0.00    -0.246 OA
BRANCH  32  34
ATOM     34  C   UNL A   1      42.437  25.423  27.065  1.00  0.00     0.060 A 
ATOM     35  C   UNL A   1      43.112  26.645  27.178  1.00  0.00     0.016 A 
ATOM     36  C   UNL A   1      41.303  25.171  27.847  1.00  0.00     0.016 A 
ATOM     37  C   UNL A   1      42.680  27.599  28.097  1.00  0.00     0.010 A 
ATOM     38  C   UNL A   1      40.874  26.126  28.772  1.00  0.00     0.010 A 
ATOM     39  C   UNL A   1      41.582  27.328  28.922  1.00  0.00    -0.014 A 
BRANCH  39  40
ATOM     40  C   UNL A   1      41.314  28.216  30.077  1.00  0.00     0.031 A 
ATOM     41  C   UNL A   1      42.205  28.095  31.283  1.00  0.00     0.074 A 
ATOM     42  C   UNL A   1      40.337  29.137  30.041  1.00  0.00     0.049 A 
ATOM     43  N   UNL A   1      42.213  28.803  32.381  1.00  0.00    -0.248 NA
ATOM     44  C   UNL A   1      43.225  27.034  31.240  1.00  0.00     0.031 C 
ATOM     45  C   UNL A   1      39.415  29.357  28.928  1.00  0.00     0.029 A 
ATOM     46  N   UNL A   1      39.962  30.067  30.979  1.00  0.00    -0.354 N 
ATOM     47  C   UNL A   1      43.245  28.285  33.153  1.00  0.00     0.074 A 
ATOM     48  C   UNL A   1      43.815  27.177  32.416  1.00  0.00     0.031 C 
ATOM     49  C   UNL A   1      38.575  30.359  29.250  1.00  0.00     0.029 A 
ATOM     50  C   UNL A   1      38.899  30.846  30.590  1.00  0.00     0.049 A 
ATOM     51  H   UNL A   1      40.413  30.167  31.848  1.00  0.00     0.167 HD
ATOM     52  C   UNL A   1      43.694  28.703  34.359  1.00  0.00     0.037 A 
ATOM     53  C   UNL A   1      38.265  31.838  31.245  1.00  0.00     0.037 A 
ATOM     54  C   UNL A   1      43.123  29.792  35.100  1.00  0.00     0.049 A 
ATOM     55  C   UNL A   1      38.752  32.255  32.610  1.00  0.00     0.074 A 
ATOM     56  C   UNL A   1      43.511  30.297  36.328  1.00  0.00     0.029 A 
ATOM     57  N   UNL A   1      42.034  30.542  34.683  1.00  0.00    -0.354 N 
ATOM     58  N   UNL A   1      39.759  31.786  33.307  1.00  0.00    -0.248 NA
ATOM     59  C   UNL A   1      38.021  33.347  33.270  1.00  0.00     0.031 C 
ATOM     60  C   UNL A   1      42.635  31.335  36.669  1.00  0.00     0.029 A 
ATOM     61  C   UNL A   1      41.723  31.495  35.638  1.00  0.00     0.049 A 
ATOM     62  H   UNL A   1      41.551  30.414  33.835  1.00  0.00     0.167 HD
ATOM     63  C   UNL A   1      39.795  32.539  34.477  1.00  0.00     0.074 A 
ATOM     64  C   UNL A   1      38.716  33.500  34.389  1.00  0.00     0.031 C 
ATOM     65  C   UNL A   1      40.647  32.445  35.528  1.00  0.00     0.037 A 
BRANCH  52  66
ATOM     66  C   UNL A   1      44.855  27.957  34.944  1.00  0.00     0.058 A 
ATOM     67  C   UNL A   1      46.178  28.350  34.684  1.00  0.00     0.135 A 
ATOM     68  C   UNL A   1      44.647  26.832  35.756  1.00  0.00     0.135 A 
ATOM     69  F   UNL A   1      46.427  29.404  33.891  1.00  0.00    -0.206 F 
ATOM     70  C   UNL A   1      47.258  27.634  35.187  1.00  0.00     0.059 A 
ATOM     71  C   UNL A   1      45.714  26.112  36.286  1.00  0.00     0.059 A 
ATOM     72  F   UNL A   1      43.401  26.413  36.022  1.00  0.00    -0.206 F 
ATOM     73  C   UNL A   1      47.015  26.512  35.981  1.00  0.00     0.060 A 
BRANCH  73  74
ATOM     74  S   UNL A   1      48.423  25.575  36.612  1.00  0.00     0.124 S 
ATOM     75  O   UNL A   1      48.501  24.485  35.644  1.00  0.00    -0.237 OA
ATOM     76  O   UNL A   1      49.505  26.553  36.552  1.00  0.00    -0.237 OA
ATOM     77  O   UNL A   1      48.000  25.193  37.955  1.00  0.00    -0.744 OA
ENDBRANCH  73  74
ENDBRANCH  52  66
BRANCH  53  78
ATOM     78  C   UNL A   1      37.104  32.520  30.621  1.00  0.00     0.058 A 
ATOM     79  C   UNL A   1      37.283  33.598  29.742  1.00  0.00     0.135 A 
ATOM     80  C   UNL A   1      35.790  32.118  30.908  1.00  0.00     0.135 A 
ATOM     81  F   UNL A   1      38.521  34.024  29.448  1.00  0.00    -0.206 F 
ATOM     82  C   UNL A   1      36.201  34.266  29.181  1.00  0.00     0.059 A 
ATOM     83  C   UNL A   1      34.692  32.760  30.345  1.00  0.00     0.059 A 
ATOM     84  F   UNL A   1      35.570  31.086  31.736  1.00  0.00    -0.206 F 
ATOM     85  C   UNL A   1      34.907  33.841  29.492  1.00  0.00     0.060 A 
BRANCH  85  86
ATOM     86  S   UNL A   1      33.504  34.691  28.733  1.00  0.00     0.124 S 
ATOM     87  O   UNL A   1      33.094  33.727  27.718  1.00  0.00    -0.237 OA
ATOM     88  O   UNL A   1      32.595  34.857  29.862  1.00  0.00    -0.237 OA
ATOM     89  O   UNL A   1      34.099  35.926  28.230  1.00  0.00    -0.744 OA
ENDBRANCH  85  86
ENDBRANCH  53  78
BRANCH  65  90
ATOM     90  C   UNL A   1      40.461  33.421  36.656  1.00  0.00     0.058 A 
ATOM     91  C   UNL A   1      39.551  33.175  37.694  1.00  0.00     0.135 A 
ATOM     92  C   UNL A   1      41.232  34.592  36.717  1.00  0.00     0.135 A 
ATOM     93  F   UNL A   1      38.789  32.071  37.678  1.00  0.00    -0.206 F 
ATOM     94  C   UNL A   1      39.396  34.070  38.749  1.00  0.00     0.059 A 
ATOM     95  C   UNL A   1      41.107  35.490  37.772  1.00  0.00     0.059 A 
ATOM     96  F   UNL A   1      42.125  34.865  35.753  1.00  0.00    -0.206 F 
ATOM     97  C   UNL A   1      40.176  35.227  38.776  1.00  0.00     0.060 A 
BRANCH  97  98
ATOM     98  S   UNL A   1      39.990  36.373  40.159  1.00  0.00     0.124 S 
ATOM     99  O   UNL A   1      40.076  37.663  39.484  1.00  0.00    -0.237 OA
ATOM    100  O   UNL A   1      38.676  36.022  40.689  1.00  0.00    -0.237 OA
ATOM    101  O   UNL A   1      41.116  36.039  41.027  1.00  0.00    -0.744 OA
ENDBRANCH  97  98
ENDBRANCH  65  90
ENDBRANCH  39  40
ENDBRANCH  32  34
ENDBRANCH  31  32
ENDBRANCH  30  31
ENDBRANCH  29  30
ENDBRANCH  28  29
ENDBRANCH  27  28
ENDBRANCH   1  27
TORSDOF 27
ENDMDL
MODEL 2
REMARK VINA RESULT:      -8.5      1.480      2.354
REMARK SMILES C[C@@H](O)[C@@H](NC(=O)CN(C)C(=O)c1cccs1)C(=O)OCCOCCOCCOC(=O)c1ccc(-c2c3nc(c(-c4c(F)cc(S(=O)(=O)[O-])cc4F)c4ccc([nH]4)c(-c4c(F)cc(S(=O)(=O)[O-])cc4F)c4nc(c(-c5c(F)cc(S(=O)(=O)[O-])cc5F)c5ccc2[nH]5)C=C4)C=C3)cc1
REMARK SMILES IDX 24 1 23 2 22 3 21 4 20 5 18 6 19 7 4 8 2 9 1 10 3 11 5 13
REMARK SMILES IDX 6 14 7 16 8 17 9 18 10 19 11 20 12 21 13 22 14 23 17 24
REMARK SMILES IDX 15 25 16 26 25 27 26 28 27 29 28 30 29 31 30 32 31 33 32 34
REMARK SMILES IDX 33 35 97 36 34 37 96 38 35 39 36 40 37 41 90 42 38 43 95 44
REMARK SMILES IDX 89 45 91 46 39 47 94 48 88 49 87 50 40 52 74 53 53 54 73 55
REMARK SMILES IDX 54 56 57 57 72 58 92 59 55 60 56 61 71 63 93 64 58 65 41 66
REMARK SMILES IDX 42 67 51 68 43 69 44 70 50 71 52 72 45 73 46 74 47 75 48 76
REMARK SMILES IDX 49 77 75 78 76 79 85 80 77 81 78 82 84 83 86 84 79 85 80 86
REMARK SMILES IDX 81 87 82 88 83 89 59 90 60 91 69 92 61 93 62 94 68 95 70 96
REMARK SMILES IDX 63 97 64 98 65 99 66 100 67 101
REMARK H PARENT 3 12 5 15 91 51 57 62
REMARK Flexibility Score: inf
ROOT
ATOM      1  C   UNL A   1      39.776  22.273  26.681  1.00  0.00     0.188 C 
ENDROOT
BRANCH   1   2
ATOM      2  O   UNL A   1      38.749  21.552  26.001  1.00  0.00    -0.376 OA
BRANCH   2   3
ATOM      3  C   UNL A   1      37.582  22.284  25.631  1.00  0.00     0.202 C 
BRANCH   3   4
ATOM      4  C   UNL A   1      37.017  21.940  24.250  1.00  0.00     0.261 C 
BRANCH   4   5
ATOM      5  O   UNL A   1      35.580  22.077  24.260  1.00  0.00    -0.462 OA
BRANCH   5   6
ATOM      6  C   UNL A   1      34.915  21.021  24.794  1.00  0.00     0.331 C 
ATOM      7  O   UNL A   1      35.461  19.953  25.058  1.00  0.00    -0.250 OA
BRANCH   6   8
ATOM      8  C   UNL A   1      33.386  21.196  24.825  1.00  0.00     0.221 C 
BRANCH   8   9
ATOM      9  C   UNL A   1      32.467  20.221  24.053  1.00  0.00     0.145 C 
ATOM     10  C   UNL A   1      32.134  20.763  22.656  1.00  0.00     0.041 C 
BRANCH   9  11
ATOM     11  O   UNL A   1      33.072  18.940  23.892  1.00  0.00    -0.391 OA
ATOM     12  H   UNL A   1      32.382  18.259  23.856  1.00  0.00     0.211 HD
ENDBRANCH   9  11
ENDBRANCH   8   9
BRANCH   8  13
ATOM     13  N   UNL A   1      32.881  21.480  26.183  1.00  0.00    -0.339 N 
ATOM     14  C   UNL A   1      33.058  22.536  27.029  1.00  0.00     0.240 C 
ATOM     15  H   UNL A   1      32.306  20.770  26.550  1.00  0.00     0.164 HD
ATOM     16  O   UNL A   1      32.965  22.286  28.234  1.00  0.00    -0.273 OA
BRANCH  14  17
ATOM     17  C   UNL A   1      33.332  23.965  26.529  1.00  0.00     0.219 C 
BRANCH  17  18
ATOM     18  N   UNL A   1      32.190  24.753  26.051  1.00  0.00    -0.332 N 
ATOM     19  C   UNL A   1      30.856  24.262  26.341  1.00  0.00     0.147 C 
BRANCH  18  20
ATOM     20  C   UNL A   1      32.395  26.034  25.515  1.00  0.00     0.264 C 
ATOM     21  O   UNL A   1      32.310  27.050  26.194  1.00  0.00    -0.268 OA
BRANCH  20  22
ATOM     22  C   UNL A   1      32.655  26.073  24.081  1.00  0.00     0.092 A 
ATOM     23  C   UNL A   1      33.508  26.913  23.388  1.00  0.00     0.025 A 
ATOM     24  S   UNL A   1      31.782  25.048  23.029  1.00  0.00    -0.139 S 
ATOM     25  C   UNL A   1      33.346  26.798  21.977  1.00  0.00     0.012 A 
ATOM     26  C   UNL A   1      32.425  25.829  21.646  1.00  0.00     0.065 A 
ENDBRANCH  20  22
ENDBRANCH  18  20
ENDBRANCH  17  18
ENDBRANCH  14  17
ENDBRANCH   8  13
ENDBRANCH   6   8
ENDBRANCH   5   6
ENDBRANCH   4   5
ENDBRANCH   3   4
ENDBRANCH   2   3
ENDBRANCH   1   2
BRANCH   1  27
ATOM     27  C   UNL A   1      41.033  21.470  27.026  1.00  0.00     0.188 C 
BRANCH  27  28
ATOM     28  O   UNL A   1      42.280  22.147  26.872  1.00  0.00    -0.376 OA
BRANCH  28  29
ATOM     29  C   UNL A   1      42.798  22.212  25.541  1.00  0.00     0.202 C 
BRANCH  29  30
ATOM     30  C   UNL A   1      43.004  23.646  25.048  1.00  0.00     0.261 C 
BRANCH  30  31
ATOM     31  O   UNL A   1      42.874  24.543  26.162  1.00  0.00    -0.460 OA
BRANCH  31  32
ATOM     32  C   UNL A   1      43.707  25.611  26.169  1.00  0.00     0.338 C 
ATOM     33  O   UNL A   1      44.402  26.005  25.248  1.00  0.00    -0.246 OA
BRANCH  32  34
ATOM     34  C   UNL A   1      43.461  26.389  27.408  1.00  0.00     0.060 A 
ATOM     35  C   UNL A   1      42.568  25.853  28.343  1.00  0.00     0.016 A 
ATOM     36  C   UNL A   1      44.128  27.589  27.679  1.00  0.00     0.016 A 
ATOM     37  C   UNL A   1      42.310  26.533  29.532  1.00  0.00     0.010 A 
ATOM     38  C   UNL A   1      43.866  28.273  28.869  1.00  0.00     0.010 A 
ATOM     39  C   UNL A   1      42.930  27.763  29.782  1.00  0.00    -0.014 A 
BRANCH  39  40
ATOM     40  C   UNL A   1      42.437  28.603  30.897  1.00  0.00     0.031 A 
ATOM     41  C   UNL A   1      43.195  28.571  32.195  1.00  0.00     0.074 A 
ATOM     42  C   UNL A   1      41.371  29.408  30.751  1.00  0.00     0.049 A 
ATOM     43  N   UNL A   1      43.001  29.264  33.286  1.00  0.00    -0.248 NA
ATOM     44  C   UNL A   1      44.328  27.633  32.269  1.00  0.00     0.031 C 
ATOM     45  C   UNL A   1      40.559  29.534  29.541  1.00  0.00     0.029 A 
ATOM     46  N   UNL A   1      40.791  30.280  31.638  1.00  0.00    -0.354 N 
ATOM     47  C   UNL A   1      43.993  28.858  34.169  1.00  0.00     0.074 A 
ATOM     48  C   UNL A   1      44.763  27.829  33.504  1.00  0.00     0.031 C 
ATOM     49  C   UNL A   1      39.581  30.431  29.765  1.00  0.00     0.029 A 
ATOM     50  C   UNL A   1      39.696  30.937  31.131  1.00  0.00     0.049 A 
ATOM     51  H   UNL A   1      41.128  30.421  32.552  1.00  0.00     0.167 HD
ATOM     52  C   UNL A   1      44.254  29.311  35.417  1.00  0.00     0.037 A 
ATOM     53  C   UNL A   1      38.885  31.844  31.710  1.00  0.00     0.037 A 
ATOM     54  C   UNL A   1      43.485  30.321  36.088  1.00  0.00     0.049 A 
ATOM     55  C   UNL A   1      39.167  32.300  33.119  1.00  0.00     0.074 A 
ATOM     56  C   UNL A   1      43.673  30.853  37.351  1.00  0.00     0.029 A 
ATOM     57  N   UNL A   1      42.370  30.947  35.550  1.00  0.00    -0.354 N 
ATOM     58  N   UNL A   1      40.136  31.940  33.926  1.00  0.00    -0.248 NA
ATOM     59  C   UNL A   1      38.247  33.295  33.691  1.00  0.00     0.031 C 
ATOM     60  C   UNL A   1      42.653  31.782  37.589  1.00  0.00     0.029 A 
ATOM     61  C   UNL A   1      41.849  31.849  36.462  1.00  0.00     0.049 A 
ATOM     62  H   UNL A   1      42.003  30.774  34.654  1.00  0.00     0.167 HD
ATOM     63  C   UNL A   1      39.957  32.680  35.090  1.00  0.00     0.074 A 
ATOM     64  C   UNL A   1      38.791  33.514  34.881  1.00  0.00     0.031 C 
ATOM     65  C   UNL A   1      40.691  32.672  36.231  1.00  0.00     0.037 A 
BRANCH  52  66
ATOM     66  C   UNL A   1      45.421  28.695  36.130  1.00  0.00     0.058 A 
ATOM     67  C   UNL A   1      45.258  27.570  36.955  1.00  0.00     0.135 A 
ATOM     68  C   UNL A   1      46.706  29.242  36.003  1.00  0.00     0.135 A 
ATOM     69  F   UNL A   1      44.042  27.029  37.128  1.00  0.00    -0.206 F 
ATOM     70  C   UNL A   1      46.328  27.024  37.654  1.00  0.00     0.059 A 
ATOM     71  C   UNL A   1      47.796  28.700  36.679  1.00  0.00     0.059 A 
ATOM     72  F   UNL A   1      46.908  30.323  35.236  1.00  0.00    -0.206 F 
ATOM     73  C   UNL A   1      47.592  27.601  37.515  1.00  0.00     0.060 A 
BRANCH  73  74
ATOM     74  S   UNL A   1      48.972  26.900  38.443  1.00  0.00     0.124 S 
ATOM     75  O   UNL A   1      50.055  27.807  38.078  1.00  0.00    -0.237 OA
ATOM     76  O   UNL A   1      48.504  26.994  39.823  1.00  0.00    -0.237 OA
ATOM     77  O   UNL A   1      49.081  25.545  37.913  1.00  0.00    -0.744 OA
ENDBRANCH  73  74
ENDBRANCH  52  66
BRANCH  53  78
ATOM     78  C   UNL A   1      37.730  32.397  30.958  1.00  0.00     0.058 A 
ATOM     79  C   UNL A   1      36.466  31.795  31.025  1.00  0.00     0.135 A 
ATOM     80  C   UNL A   1      37.876  33.530  30.142  1.00  0.00     0.135 A 
ATOM     81  F   UNL A   1      36.283  30.703  31.784  1.00  0.00    -0.206 F 
ATOM     82  C   UNL A   1      35.388  32.284  30.296  1.00  0.00     0.059 A 
ATOM     83  C   UNL A   1      36.808  34.048  29.417  1.00  0.00     0.059 A 
ATOM     84  F   UNL A   1      39.065  34.145  30.053  1.00  0.00    -0.206 F 
ATOM     85  C   UNL A   1      35.570  33.410  29.491  1.00  0.00     0.060 A 
BRANCH  85  86
ATOM     86  S   UNL A   1      34.158  34.063  28.572  1.00  0.00     0.124 S 
ATOM     87  O   UNL A   1      33.354  32.862  28.380  1.00  0.00    -0.237 OA
ATOM     88  O   UNL A   1      33.617  35.053  29.498  1.00  0.00    -0.237 OA
ATOM     89  O   UNL A   1      34.772  34.613  27.368  1.00  0.00    -0.744 OA
ENDBRANCH  85  86
ENDBRANCH  53  78
BRANCH  65  90
ATOM     90  C   UNL A   1      40.271  33.608  37.328  1.00  0.00     0.058 A 
ATOM     91  C   UNL A   1      40.930  34.827  37.544  1.00  0.00     0.135 A 
ATOM     92  C   UNL A   1      39.169  33.301  38.143  1.00  0.00     0.135 A 
ATOM     93  F   UNL A   1      41.990  35.164  36.793  1.00  0.00    -0.206 F 
ATOM     94  C   UNL A   1      40.526  35.703  38.547  1.00  0.00     0.059 A 
ATOM     95  C   UNL A   1      38.736  34.171  39.138  1.00  0.00     0.059 A 
ATOM     96  F   UNL A   1      38.498  32.152  37.967  1.00  0.00    -0.206 F 
ATOM     97  C   UNL A   1      39.429  35.363  39.341  1.00  0.00     0.060 A 
BRANCH  97  98
ATOM     98  S   UNL A   1      38.891  36.514  40.626  1.00  0.00     0.124 S 
ATOM     99  O   UNL A   1      40.123  36.700  41.385  1.00  0.00    -0.237 OA
ATOM    100  O   UNL A   1      38.444  37.668  39.851  1.00  0.00    -0.237 OA
ATOM    101  O   UNL A   1      37.832  35.781  41.312  1.00  0.00    -0.744 OA
ENDBRANCH  97  98
ENDBRANCH  65  90
ENDBRANCH  39  40
ENDBRANCH  32  34
ENDBRANCH  31  32
ENDBRANCH  30  31
ENDBRANCH  29  30
ENDBRANCH  28  29
ENDBRANCH  27  28
ENDBRANCH   1  27
TORSDOF 27
ENDMDL
MODEL 3
REMARK VINA RESULT:      -8.5      6.045     11.535
REMARK SMILES C[C@@H](O)[C@@H](NC(=O)CN(C)C(=O)c1cccs1)C(=O)OCCOCCOCCOC(=O)c1ccc(-c2c3nc(c(-c4c(F)cc(S(=O)(=O)[O-])cc4F)c4ccc([nH]4)c(-c4c(F)cc(S(=O)(=O)[O-])cc4F)c4nc(c(-c5c(F)cc(S(=O)(=O)[O-])cc5F)c5ccc2[nH]5)C=C4)C=C3)cc1
REMARK SMILES IDX 24 1 23 2 22 3 21 4 20 5 18 6 19 7 4 8 2 9 1 10 3 11 5 13
REMARK SMILES IDX 6 14 7 16 8 17 9 18 10 19 11 20 12 21 13 22 14 23 17 24
REMARK SMILES IDX 15 25 16 26 25 27 26 28 27 29 28 30 29 31 30 32 31 33 32 34
REMARK SMILES IDX 33 35 97 36 34 37 96 38 35 39 36 40 37 41 90 42 38 43 95 44
REMARK SMILES IDX 89 45 91 46 39 47 94 48 88 49 87 50 40 52 74 53 53 54 73 55
REMARK SMILES IDX 54 56 57 57 72 58 92 59 55 60 56 61 71 63 93 64 58 65 41 66
REMARK SMILES IDX 42 67 51 68 43 69 44 70 50 71 52 72 45 73 46 74 47 75 48 76
REMARK SMILES IDX 49 77 75 78 76 79 85 80 77 81 78 82 84 83 86 84 79 85 80 86
REMARK SMILES IDX 81 87 82 88 83 89 59 90 60 91 69 92 61 93 62 94 68 95 70 96
REMARK SMILES IDX 63 97 64 98 65 99 66 100 67 101
REMARK H PARENT 3 12 5 15 91 51 57 62
REMARK Flexibility Score: inf
ROOT
ATOM      1  C   UNL A   1      35.903  31.079  28.118  1.00  0.00     0.188 C 
ENDROOT
BRANCH   1   2
ATOM      2  O   UNL A   1      35.087  30.621  27.042  1.00  0.00    -0.376 OA
BRANCH   2   3
ATOM      3  C   UNL A   1      33.886  29.932  27.388  1.00  0.00     0.202 C 
BRANCH   3   4
ATOM      4  C   UNL A   1      32.680  30.256  26.503  1.00  0.00     0.261 C 
BRANCH   4   5
ATOM      5  O   UNL A   1      32.196  29.052  25.871  1.00  0.00    -0.462 OA
BRANCH   5   6
ATOM      6  C   UNL A   1      31.535  29.252  24.703  1.00  0.00     0.331 C 
ATOM      7  O   UNL A   1      30.603  30.044  24.590  1.00  0.00    -0.250 OA
BRANCH   6   8
ATOM      8  C   UNL A   1      31.900  28.244  23.599  1.00  0.00     0.221 C 
BRANCH   8   9
ATOM      9  C   UNL A   1      33.345  27.710  23.466  1.00  0.00     0.145 C 
ATOM     10  C   UNL A   1      33.581  27.088  22.083  1.00  0.00     0.041 C 
BRANCH   9  11
ATOM     11  O   UNL A   1      34.309  28.745  23.650  1.00  0.00    -0.391 OA
ATOM     12  H   UNL A   1      34.007  29.347  24.349  1.00  0.00     0.211 HD
ENDBRANCH   9  11
ENDBRANCH   8   9
BRANCH   8  13
ATOM     13  N   UNL A   1      30.895  27.169  23.467  1.00  0.00    -0.339 N 
ATOM     14  C   UNL A   1      30.714  25.991  24.133  1.00  0.00     0.240 C 
ATOM     15  H   UNL A   1      30.227  27.333  22.763  1.00  0.00     0.164 HD
ATOM     16  O   UNL A   1      30.153  25.092  23.500  1.00  0.00    -0.273 OA
BRANCH  14  17
ATOM     17  C   UNL A   1      31.153  25.786  25.593  1.00  0.00     0.219 C 
BRANCH  17  18
ATOM     18  N   UNL A   1      31.780  24.507  25.944  1.00  0.00    -0.332 N 
ATOM     19  C   UNL A   1      31.017  23.573  26.750  1.00  0.00     0.147 C 
BRANCH  18  20
ATOM     20  C   UNL A   1      32.992  24.131  25.344  1.00  0.00     0.264 C 
ATOM     21  O   UNL A   1      33.953  24.888  25.277  1.00  0.00    -0.268 OA
BRANCH  20  22
ATOM     22  C   UNL A   1      33.006  22.799  24.752  1.00  0.00     0.092 A 
ATOM     23  C   UNL A   1      32.305  22.343  23.651  1.00  0.00     0.025 A 
ATOM     24  S   UNL A   1      33.906  21.549  25.491  1.00  0.00    -0.139 S 
ATOM     25  C   UNL A   1      32.410  20.932  23.492  1.00  0.00     0.012 A 
ATOM     26  C   UNL A   1      33.241  20.372  24.437  1.00  0.00     0.065 A 
ENDBRANCH  20  22
ENDBRANCH  18  20
ENDBRANCH  17  18
ENDBRANCH  14  17
ENDBRANCH   8  13
ENDBRANCH   6   8
ENDBRANCH   5   6
ENDBRANCH   4   5
ENDBRANCH   3   4
ENDBRANCH   2   3
ENDBRANCH   1   2
BRANCH   1  27
ATOM     27  C   UNL A   1      36.029  32.599  28.255  1.00  0.00     0.188 C 
BRANCH  27  28
ATOM     28  O   UNL A   1      35.653  33.156  29.514  1.00  0.00    -0.376 OA
BRANCH  28  29
ATOM     29  C   UNL A   1      34.807  32.345  30.331  1.00  0.00     0.202 C 
BRANCH  29  30
ATOM     30  C   UNL A   1      35.444  31.973  31.672  1.00  0.00     0.261 C 
BRANCH  30  31
ATOM     31  O   UNL A   1      36.661  31.250  31.422  1.00  0.00    -0.460 OA
BRANCH  31  32
ATOM     32  C   UNL A   1      37.774  31.728  32.028  1.00  0.00     0.338 C 
ATOM     33  O   UNL A   1      37.828  32.362  33.068  1.00  0.00    -0.246 OA
BRANCH  32  34
ATOM     34  C   UNL A   1      38.960  31.145  31.354  1.00  0.00     0.060 A 
ATOM     35  C   UNL A   1      39.881  30.452  32.149  1.00  0.00     0.016 A 
ATOM     36  C   UNL A   1      39.144  31.223  29.969  1.00  0.00     0.016 A 
ATOM     37  C   UNL A   1      41.006  29.871  31.567  1.00  0.00     0.010 A 
ATOM     38  C   UNL A   1      40.274  30.645  29.386  1.00  0.00     0.010 A 
ATOM     39  C   UNL A   1      41.225  29.997  30.189  1.00  0.00    -0.014 A 
BRANCH  39  40
ATOM     40  C   UNL A   1      42.549  29.630  29.635  1.00  0.00     0.031 A 
ATOM     41  C   UNL A   1      42.739  28.228  29.127  1.00  0.00     0.074 A 
ATOM     42  C   UNL A   1      43.544  30.529  29.543  1.00  0.00     0.049 A 
ATOM     43  N   UNL A   1      43.776  27.693  28.539  1.00  0.00    -0.248 NA
ATOM     44  C   UNL A   1      41.602  27.308  29.303  1.00  0.00     0.031 C 
ATOM     45  C   UNL A   1      43.479  31.919  29.993  1.00  0.00     0.029 A 
ATOM     46  N   UNL A   1      44.811  30.398  29.032  1.00  0.00    -0.354 N 
ATOM     47  C   UNL A   1      43.414  26.381  28.262  1.00  0.00     0.074 A 
ATOM     48  C   UNL A   1      42.077  26.187  28.781  1.00  0.00     0.031 C 
ATOM     49  C   UNL A   1      44.660  32.513  29.739  1.00  0.00     0.029 A 
ATOM     50  C   UNL A   1      45.561  31.546  29.115  1.00  0.00     0.049 A 
ATOM     51  H   UNL A   1      45.149  29.560  28.642  1.00  0.00     0.167 HD
ATOM     52  C   UNL A   1      44.121  25.425  27.617  1.00  0.00     0.037 A 
ATOM     53  C   UNL A   1      46.830  31.781  28.729  1.00  0.00     0.037 A 
ATOM     54  C   UNL A   1      45.453  25.606  27.112  1.00  0.00     0.049 A 
ATOM     55  C   UNL A   1      47.617  30.686  28.055  1.00  0.00     0.074 A 
ATOM     56  C   UNL A   1      46.252  24.700  26.438  1.00  0.00     0.029 A 
ATOM     57  N   UNL A   1      46.188  26.776  27.236  1.00  0.00    -0.354 N 
ATOM     58  N   UNL A   1      47.244  29.464  27.758  1.00  0.00    -0.248 NA
ATOM     59  C   UNL A   1      48.994  31.009  27.653  1.00  0.00     0.031 C 
ATOM     60  C   UNL A   1      47.483  25.314  26.179  1.00  0.00     0.029 A 
ATOM     61  C   UNL A   1      47.438  26.611  26.665  1.00  0.00     0.049 A 
ATOM     62  H   UNL A   1      45.869  27.601  27.667  1.00  0.00     0.167 HD
ATOM     63  C   UNL A   1      48.332  28.880  27.116  1.00  0.00     0.074 A 
ATOM     64  C   UNL A   1      49.373  29.886  27.059  1.00  0.00     0.031 C 
ATOM     65  C   UNL A   1      48.458  27.626  26.616  1.00  0.00     0.037 A 
BRANCH  52  66
ATOM     66  C   UNL A   1      43.454  24.094  27.440  1.00  0.00     0.058 A 
ATOM     67  C   UNL A   1      43.346  23.186  28.506  1.00  0.00     0.135 A 
ATOM     68  C   UNL A   1      42.934  23.715  26.193  1.00  0.00     0.135 A 
ATOM     69  F   UNL A   1      43.853  23.494  29.710  1.00  0.00    -0.206 F 
ATOM     70  C   UNL A   1      42.769  21.933  28.334  1.00  0.00     0.059 A 
ATOM     71  C   UNL A   1      42.335  22.473  26.003  1.00  0.00     0.059 A 
ATOM     72  F   UNL A   1      43.024  24.544  25.143  1.00  0.00    -0.206 F 
ATOM     73  C   UNL A   1      42.274  21.583  27.076  1.00  0.00     0.060 A 
BRANCH  73  74
ATOM     74  S   UNL A   1      41.547  19.945  26.857  1.00  0.00     0.124 S 
ATOM     75  O   UNL A   1      40.171  20.182  27.282  1.00  0.00    -0.237 OA
ATOM     76  O   UNL A   1      41.736  19.704  25.429  1.00  0.00    -0.237 OA
ATOM     77  O   UNL A   1      42.342  19.102  27.743  1.00  0.00    -0.744 OA
ENDBRANCH  73  74
ENDBRANCH  52  66
BRANCH  53  78
ATOM     78  C   UNL A   1      47.443  33.115  28.957  1.00  0.00     0.058 A 
ATOM     79  C   UNL A   1      48.109  33.412  30.154  1.00  0.00     0.135 A 
ATOM     80  C   UNL A   1      47.355  34.125  27.986  1.00  0.00     0.135 A 
ATOM     81  F   UNL A   1      48.207  32.481  31.115  1.00  0.00    -0.206 F 
ATOM     82  C   UNL A   1      48.653  34.669  30.391  1.00  0.00     0.059 A 
ATOM     83  C   UNL A   1      47.907  35.384  28.193  1.00  0.00     0.059 A 
ATOM     84  F   UNL A   1      46.734  33.884  26.821  1.00  0.00    -0.206 F 
ATOM     85  C   UNL A   1      48.543  35.651  29.404  1.00  0.00     0.060 A 
BRANCH  85  86
ATOM     86  S   UNL A   1      49.283  37.273  29.702  1.00  0.00     0.124 S 
ATOM     87  O   UNL A   1      48.230  38.165  29.231  1.00  0.00    -0.237 OA
ATOM     88  O   UNL A   1      49.505  37.252  31.144  1.00  0.00    -0.237 OA
ATOM     89  O   UNL A   1      50.495  37.238  28.889  1.00  0.00    -0.744 OA
ENDBRANCH  85  86
ENDBRANCH  53  78
BRANCH  65  90
ATOM     90  C   UNL A   1      49.756  27.278  25.944  1.00  0.00     0.058 A 
ATOM     91  C   UNL A   1      50.825  26.721  26.660  1.00  0.00     0.135 A 
ATOM     92  C   UNL A   1      49.913  27.465  24.561  1.00  0.00     0.135 A 
ATOM     93  F   UNL A   1      50.724  26.527  27.984  1.00  0.00    -0.206 F 
ATOM     94  C   UNL A   1      52.019  26.380  26.031  1.00  0.00     0.059 A 
ATOM     95  C   UNL A   1      51.091  27.112  23.910  1.00  0.00     0.059 A 
ATOM     96  F   UNL A   1      48.914  27.983  23.831  1.00  0.00    -0.206 F 
ATOM     97  C   UNL A   1      52.143  26.584  24.656  1.00  0.00     0.060 A 
BRANCH  97  98
ATOM     98  S   UNL A   1      53.685  26.116  23.839  1.00  0.00     0.124 S 
ATOM     99  O   UNL A   1      54.519  27.283  24.100  1.00  0.00    -0.237 OA
ATOM    100  O   UNL A   1      54.062  24.896  24.547  1.00  0.00    -0.237 OA
ATOM    101  O   UNL A   1      53.284  25.925  22.449  1.00  0.00    -0.744 OA
ENDBRANCH  97  98
ENDBRANCH  65  90
ENDBRANCH  39  40
ENDBRANCH  32  34
ENDBRANCH  31  32
ENDBRANCH  30  31
ENDBRANCH  29  30
ENDBRANCH  28  29
ENDBRANCH  27  28
ENDBRANCH   1  27
TORSDOF 27
ENDMDL
