MODEL 1
REMARK VINA RESULT:     -11.4      0.000      0.000
REMARK SMILES CCc1ccc(S(=O)(=O)N2CCC3(CC2)NC(=O)C[C@H]3C(=O)OCCOCCOCCOC(=O)c2ccc(-c3c4nc(c(-c5c(F)cc(S(=O)(=O)[O-])cc5F)c5ccc([nH]5)c(-c5c(F)cc(S(=O)(=O)[O-])cc5F)c5nc(c(-c6c(F)cc(S(=O)(=O)[O-])cc6F)c6ccc3[nH]6)C=C5)C=C4)cc2)s1
REMARK SMILES IDX 27 1 26 2 25 3 24 4 23 5 21 6 22 7 20 8 10 9 11 10 15 11
REMARK SMILES IDX 12 12 14 13 13 14 16 15 17 16 19 18 18 19 7 20 8 21 9 22
REMARK SMILES IDX 6 23 3 24 4 25 101 26 5 27 2 28 1 29 28 30 29 31 30 32 31 33
REMARK SMILES IDX 32 34 33 35 34 36 35 37 36 38 100 39 37 40 99 41 38 42 39 43
REMARK SMILES IDX 40 44 93 45 41 46 98 47 92 48 94 49 42 50 97 51 91 52 90 53
REMARK SMILES IDX 43 55 77 56 56 57 76 58 57 59 60 60 75 61 95 62 58 63 59 64
REMARK SMILES IDX 74 66 96 67 61 68 44 69 45 70 54 71 46 72 47 73 53 74 55 75
REMARK SMILES IDX 48 76 49 77 50 78 51 79 52 80 78 81 79 82 88 83 80 84 81 85
REMARK SMILES IDX 87 86 89 87 82 88 83 89 84 90 85 91 86 92 62 93 63 94 72 95
REMARK SMILES IDX 64 96 65 97 71 98 73 99 66 100 67 101 68 102 69 103 70 104
REMARK H PARENT 16 17 94 54 60 65
REMARK Flexibility Score: inf
ROOT
ATOM      1  C   UNL A   1      34.051  30.666  27.441  1.00  0.00     0.188 C 
ENDROOT
BRANCH   1   2
ATOM      2  O   UNL A   1      33.531  30.146  26.220  1.00  0.00    -0.376 OA
BRANCH   2   3
ATOM      3  C   UNL A   1      32.132  29.999  26.050  1.00  0.00     0.202 C 
BRANCH   3   4
ATOM      4  C   UNL A   1      31.719  28.797  25.190  1.00  0.00     0.261 C 
BRANCH   4   5
ATOM      5  O   UNL A   1      31.025  29.106  23.957  1.00  0.00    -0.463 OA
BRANCH   5   6
ATOM      6  C   UNL A   1      31.141  28.159  22.998  1.00  0.00     0.311 C 
ATOM      7  O   UNL A   1      30.377  28.052  22.044  1.00  0.00    -0.252 OA
BRANCH   6   8
ATOM      8  C   UNL A   1      32.187  27.089  23.240  1.00  0.00     0.134 C 
ATOM      9  N   UNL A   1      31.555  24.511  26.183  1.00  0.00    -0.197 NA
ATOM     10  C   UNL A   1      32.882  25.032  25.851  1.00  0.00     0.105 C 
ATOM     11  C   UNL A   1      30.451  25.182  25.500  1.00  0.00     0.105 C 
ATOM     12  C   UNL A   1      33.120  25.034  24.344  1.00  0.00     0.046 C 
ATOM     13  C   UNL A   1      30.595  25.072  23.999  1.00  0.00     0.046 C 
ATOM     14  C   UNL A   1      31.943  25.576  23.468  1.00  0.00     0.056 C 
ATOM     15  N   UNL A   1      32.101  25.039  22.125  1.00  0.00    -0.350 N 
ATOM     16  C   UNL A   1      32.785  25.861  21.271  1.00  0.00     0.221 C 
ATOM     17  H   UNL A   1      31.745  24.161  21.855  1.00  0.00     0.164 HD
ATOM     18  C   UNL A   1      33.118  27.130  22.004  1.00  0.00     0.117 C 
ATOM     19  O   UNL A   1      33.099  25.568  20.132  1.00  0.00    -0.275 OA
BRANCH   9  20
ATOM     20  S   UNL A   1      31.363  22.939  26.793  1.00  0.00     0.252 S 
ATOM     21  O   UNL A   1      29.944  22.641  26.814  1.00  0.00    -0.206 OA
ATOM     22  O   UNL A   1      32.193  22.797  27.963  1.00  0.00    -0.206 OA
BRANCH  20  23
ATOM     23  C   UNL A   1      32.099  21.826  25.604  1.00  0.00     0.135 A 
ATOM     24  C   UNL A   1      33.396  19.962  24.612  1.00  0.00     0.006 A 
ATOM     25  C   UNL A   1      32.633  20.628  23.676  1.00  0.00     0.017 A 
ATOM     26  S   UNL A   1      33.194  20.644  26.174  1.00  0.00    -0.127 S 
ATOM     27  C   UNL A   1      31.955  21.743  24.233  1.00  0.00     0.034 A 
BRANCH  24  28
ATOM     28  C   UNL A   1      34.355  18.825  24.411  1.00  0.00     0.043 C 
ATOM     29  C   UNL A   1      33.661  17.510  24.086  1.00  0.00     0.010 C 
ENDBRANCH  24  28
ENDBRANCH  20  23
ENDBRANCH   9  20
ENDBRANCH   6   8
ENDBRANCH   5   6
ENDBRANCH   4   5
ENDBRANCH   3   4
ENDBRANCH   2   3
ENDBRANCH   1   2
BRANCH   1  30
ATOM     30  C   UNL A   1      33.784  32.119  27.817  1.00  0.00     0.188 C 
BRANCH  30  31
ATOM     31  O   UNL A   1      34.919  32.945  27.569  1.00  0.00    -0.376 OA
BRANCH  31  32
ATOM     32  C   UNL A   1      34.998  34.071  28.444  1.00  0.00     0.202 C 
BRANCH  32  33
ATOM     33  C   UNL A   1      35.586  33.619  29.786  1.00  0.00     0.261 C 
BRANCH  33  34
ATOM     34  O   UNL A   1      36.797  32.849  29.638  1.00  0.00    -0.460 OA
BRANCH  34  35
ATOM     35  C   UNL A   1      36.750  31.616  30.196  1.00  0.00     0.338 C 
ATOM     36  O   UNL A   1      35.789  31.118  30.755  1.00  0.00    -0.246 OA
BRANCH  35  37
ATOM     37  C   UNL A   1      37.967  30.869  29.831  1.00  0.00     0.060 A 
ATOM     38  C   UNL A   1      38.865  30.550  30.853  1.00  0.00     0.016 A 
ATOM     39  C   UNL A   1      38.257  30.528  28.511  1.00  0.00     0.016 A 
ATOM     40  C   UNL A   1      40.056  29.889  30.576  1.00  0.00     0.010 A 
ATOM     41  C   UNL A   1      39.469  29.887  28.225  1.00  0.00     0.010 A 
ATOM     42  C   UNL A   1      40.381  29.578  29.252  1.00  0.00    -0.014 A 
BRANCH  42  43
ATOM     43  C   UNL A   1      41.742  29.088  28.929  1.00  0.00     0.031 A 
ATOM     44  C   UNL A   1      42.883  30.065  28.970  1.00  0.00     0.074 A 
ATOM     45  C   UNL A   1      41.971  27.793  28.642  1.00  0.00     0.049 A 
ATOM     46  N   UNL A   1      44.105  29.930  28.532  1.00  0.00    -0.248 NA
ATOM     47  C   UNL A   1      42.602  31.375  29.583  1.00  0.00     0.031 C 
ATOM     48  C   UNL A   1      40.968  26.728  28.667  1.00  0.00     0.029 A 
ATOM     49  N   UNL A   1      43.126  27.156  28.261  1.00  0.00    -0.354 N 
ATOM     50  C   UNL A   1      44.725  31.152  28.762  1.00  0.00     0.074 A 
ATOM     51  C   UNL A   1      43.749  32.012  29.395  1.00  0.00     0.031 C 
ATOM     52  C   UNL A   1      41.549  25.573  28.299  1.00  0.00     0.029 A 
ATOM     53  C   UNL A   1      42.946  25.829  27.952  1.00  0.00     0.049 A 
ATOM     54  H   UNL A   1      44.000  27.608  28.214  1.00  0.00     0.167 HD
ATOM     55  C   UNL A   1      45.990  31.522  28.460  1.00  0.00     0.037 A 
ATOM     56  C   UNL A   1      43.795  24.939  27.401  1.00  0.00     0.037 A 
ATOM     57  C   UNL A   1      46.967  30.640  27.879  1.00  0.00     0.049 A 
ATOM     58  C   UNL A   1      45.188  25.384  27.034  1.00  0.00     0.074 A 
ATOM     59  C   UNL A   1      48.278  30.916  27.534  1.00  0.00     0.029 A 
ATOM     60  N   UNL A   1      46.743  29.308  27.572  1.00  0.00    -0.354 N 
ATOM     61  N   UNL A   1      45.747  26.561  27.194  1.00  0.00    -0.248 NA
ATOM     62  C   UNL A   1      46.061  24.388  26.396  1.00  0.00     0.031 C 
ATOM     63  C   UNL A   1      48.838  29.756  26.989  1.00  0.00     0.029 A 
ATOM     64  C   UNL A   1      47.887  28.748  27.033  1.00  0.00     0.049 A 
ATOM     65  H   UNL A   1      45.894  28.829  27.716  1.00  0.00     0.167 HD
ATOM     66  C   UNL A   1      47.038  26.441  26.692  1.00  0.00     0.074 A 
ATOM     67  C   UNL A   1      47.185  25.074  26.238  1.00  0.00     0.031 C 
ATOM     68  C   UNL A   1      48.015  27.378  26.607  1.00  0.00     0.037 A 
BRANCH  55  69
ATOM     69  C   UNL A   1      46.379  32.951  28.703  1.00  0.00     0.058 A 
ATOM     70  C   UNL A   1      46.983  33.369  29.897  1.00  0.00     0.135 A 
ATOM     71  C   UNL A   1      46.182  33.910  27.695  1.00  0.00     0.135 A 
ATOM     72  F   UNL A   1      47.171  32.498  30.900  1.00  0.00    -0.206 F 
ATOM     73  C   UNL A   1      47.373  34.692  30.087  1.00  0.00     0.059 A 
ATOM     74  C   UNL A   1      46.584  35.231  27.854  1.00  0.00     0.059 A 
ATOM     75  F   UNL A   1      45.599  33.562  26.537  1.00  0.00    -0.206 F 
ATOM     76  C   UNL A   1      47.173  35.615  29.058  1.00  0.00     0.060 A 
BRANCH  76  77
ATOM     77  S   UNL A   1      47.715  37.319  29.303  1.00  0.00     0.124 S 
ATOM     78  O   UNL A   1      48.456  37.212  30.556  1.00  0.00    -0.237 OA
ATOM     79  O   UNL A   1      48.520  37.566  28.110  1.00  0.00    -0.237 OA
ATOM     80  O   UNL A   1      46.463  38.066  29.375  1.00  0.00    -0.744 OA
ENDBRANCH  76  77
ENDBRANCH  55  69
BRANCH  56  81
ATOM     81  C   UNL A   1      43.338  23.558  27.089  1.00  0.00     0.058 A 
ATOM     82  C   UNL A   1      43.160  22.602  28.100  1.00  0.00     0.135 A 
ATOM     83  C   UNL A   1      43.099  23.157  25.764  1.00  0.00     0.135 A 
ATOM     84  F   UNL A   1      43.389  22.931  29.381  1.00  0.00    -0.206 F 
ATOM     85  C   UNL A   1      42.784  21.295  27.809  1.00  0.00     0.059 A 
ATOM     86  C   UNL A   1      42.694  21.864  25.451  1.00  0.00     0.059 A 
ATOM     87  F   UNL A   1      43.246  24.034  24.759  1.00  0.00    -0.206 F 
ATOM     88  C   UNL A   1      42.554  20.934  26.480  1.00  0.00     0.060 A 
BRANCH  88  89
ATOM     89  S   UNL A   1      42.040  19.243  26.110  1.00  0.00     0.124 S 
ATOM     90  O   UNL A   1      42.779  18.975  24.882  1.00  0.00    -0.237 OA
ATOM     91  O   UNL A   1      42.486  18.517  27.294  1.00  0.00    -0.237 OA
ATOM     92  O   UNL A   1      40.592  19.359  25.965  1.00  0.00    -0.744 OA
ENDBRANCH  88  89
ENDBRANCH  56  81
BRANCH  68  93
ATOM     93  C   UNL A   1      49.340  26.949  26.044  1.00  0.00     0.058 A 
ATOM     94  C   UNL A   1      49.626  27.052  24.675  1.00  0.00     0.135 A 
ATOM     95  C   UNL A   1      50.357  26.490  26.897  1.00  0.00     0.135 A 
ATOM     96  F   UNL A   1      48.685  27.480  23.819  1.00  0.00    -0.206 F 
ATOM     97  C   UNL A   1      50.870  26.696  24.165  1.00  0.00     0.059 A 
ATOM     98  C   UNL A   1      51.616  26.150  26.413  1.00  0.00     0.059 A 
ATOM     99  F   UNL A   1      50.136  26.384  28.217  1.00  0.00    -0.206 F 
ATOM    100  C   UNL A   1      51.860  26.248  25.043  1.00  0.00     0.060 A 
BRANCH 100 101
ATOM    101  S   UNL A   1      53.484  25.825  24.378  1.00  0.00     0.124 S 
ATOM    102  O   UNL A   1      54.349  26.744  25.111  1.00  0.00    -0.237 OA
ATOM    103  O   UNL A   1      53.613  24.415  24.733  1.00  0.00    -0.237 OA
ATOM    104  O   UNL A   1      53.346  26.095  22.950  1.00  0.00    -0.744 OA
ENDBRANCH 100 101
ENDBRANCH  68  93
ENDBRANCH  42  43
ENDBRANCH  35  37
ENDBRANCH  34  35
ENDBRANCH  33  34
ENDBRANCH  32  33
ENDBRANCH  31  32
ENDBRANCH  30  31
ENDBRANCH   1  30
TORSDOF 23
ENDMDL
MODEL 2
REMARK VINA RESULT:     -10.6      6.290      8.420
REMARK SMILES CCc1ccc(S(=O)(=O)N2CCC3(CC2)NC(=O)C[C@H]3C(=O)OCCOCCOCCOC(=O)c2ccc(-c3c4nc(c(-c5c(F)cc(S(=O)(=O)[O-])cc5F)c5ccc([nH]5)c(-c5c(F)cc(S(=O)(=O)[O-])cc5F)c5nc(c(-c6c(F)cc(S(=O)(=O)[O-])cc6F)c6ccc3[nH]6)C=C5)C=C4)cc2)s1
REMARK SMILES IDX 27 1 26 2 25 3 24 4 23 5 21 6 22 7 20 8 10 9 11 10 15 11
REMARK SMILES IDX 12 12 14 13 13 14 16 15 17 16 19 18 18 19 7 20 8 21 9 22
REMARK SMILES IDX 6 23 3 24 4 25 101 26 5 27 2 28 1 29 28 30 29 31 30 32 31 33
REMARK SMILES IDX 32 34 33 35 34 36 35 37 36 38 100 39 37 40 99 41 38 42 39 43
REMARK SMILES IDX 40 44 93 45 41 46 98 47 92 48 94 49 42 50 97 51 91 52 90 53
REMARK SMILES IDX 43 55 77 56 56 57 76 58 57 59 60 60 75 61 95 62 58 63 59 64
REMARK SMILES IDX 74 66 96 67 61 68 44 69 45 70 54 71 46 72 47 73 53 74 55 75
REMARK SMILES IDX 48 76 49 77 50 78 51 79 52 80 78 81 79 82 88 83 80 84 81 85
REMARK SMILES IDX 87 86 89 87 82 88 83 89 84 90 85 91 86 92 62 93 63 94 72 95
REMARK SMILES IDX 64 96 65 97 71 98 73 99 66 100 67 101 68 102 69 103 70 104
REMARK H PARENT 16 17 94 54 60 65
REMARK Flexibility Score: inf
ROOT
ATOM      1  C   UNL A   1      31.735  32.917  26.840  1.00  0.00     0.188 C 
ENDROOT
BRANCH   1   2
ATOM      2  O   UNL A   1      31.604  31.543  26.483  1.00  0.00    -0.376 OA
BRANCH   2   3
ATOM      3  C   UNL A   1      32.633  30.624  26.808  1.00  0.00     0.202 C 
BRANCH   3   4
ATOM      4  C   UNL A   1      33.037  29.691  25.659  1.00  0.00     0.261 C 
BRANCH   4   5
ATOM      5  O   UNL A   1      31.985  29.335  24.728  1.00  0.00    -0.463 OA
BRANCH   5   6
ATOM      6  C   UNL A   1      32.411  28.660  23.636  1.00  0.00     0.311 C 
ATOM      7  O   UNL A   1      33.119  29.149  22.761  1.00  0.00    -0.252 OA
BRANCH   6   8
ATOM      8  C   UNL A   1      31.822  27.278  23.435  1.00  0.00     0.134 C 
ATOM      9  N   UNL A   1      33.300  24.301  25.594  1.00  0.00    -0.197 NA
ATOM     10  C   UNL A   1      32.876  24.143  24.202  1.00  0.00     0.105 C 
ATOM     11  C   UNL A   1      33.353  25.687  26.058  1.00  0.00     0.105 C 
ATOM     12  C   UNL A   1      31.540  24.834  23.943  1.00  0.00     0.046 C 
ATOM     13  C   UNL A   1      31.999  26.349  25.941  1.00  0.00     0.046 C 
ATOM     14  C   UNL A   1      31.392  26.275  24.534  1.00  0.00     0.056 C 
ATOM     15  N   UNL A   1      29.972  26.561  24.665  1.00  0.00    -0.350 N 
ATOM     16  C   UNL A   1      29.432  27.215  23.591  1.00  0.00     0.221 C 
ATOM     17  H   UNL A   1      29.447  26.306  25.458  1.00  0.00     0.164 HD
ATOM     18  C   UNL A   1      30.532  27.492  22.606  1.00  0.00     0.117 C 
ATOM     19  O   UNL A   1      28.249  27.472  23.462  1.00  0.00    -0.275 OA
BRANCH   9  20
ATOM     20  S   UNL A   1      33.150  23.026  26.703  1.00  0.00     0.252 S 
ATOM     21  O   UNL A   1      31.861  23.155  27.355  1.00  0.00    -0.206 OA
ATOM     22  O   UNL A   1      34.378  22.921  27.449  1.00  0.00    -0.206 OA
BRANCH  20  23
ATOM     23  C   UNL A   1      33.091  21.514  25.752  1.00  0.00     0.135 A 
ATOM     24  C   UNL A   1      33.719  19.335  24.753  1.00  0.00     0.006 A 
ATOM     25  C   UNL A   1      32.406  19.671  24.499  1.00  0.00     0.017 A 
ATOM     26  S   UNL A   1      34.497  20.544  25.691  1.00  0.00    -0.127 S 
ATOM     27  C   UNL A   1      32.074  20.955  25.004  1.00  0.00     0.034 A 
BRANCH  24  28
ATOM     28  C   UNL A   1      34.495  18.140  24.281  1.00  0.00     0.043 C 
ATOM     29  C   UNL A   1      33.786  17.367  23.179  1.00  0.00     0.010 C 
ENDBRANCH  24  28
ENDBRANCH  20  23
ENDBRANCH   9  20
ENDBRANCH   6   8
ENDBRANCH   5   6
ENDBRANCH   4   5
ENDBRANCH   3   4
ENDBRANCH   2   3
ENDBRANCH   1   2
BRANCH   1  30
ATOM     30  C   UNL A   1      32.926  33.369  27.678  1.00  0.00     0.188 C 
BRANCH  30  31
ATOM     31  O   UNL A   1      32.529  34.250  28.726  1.00  0.00    -0.376 OA
BRANCH  31  32
ATOM     32  C   UNL A   1      33.486  35.276  28.991  1.00  0.00     0.202 C 
BRANCH  32  33
ATOM     33  C   UNL A   1      32.884  36.273  29.987  1.00  0.00     0.261 C 
BRANCH  33  34
ATOM     34  O   UNL A   1      32.303  35.635  31.142  1.00  0.00    -0.460 OA
BRANCH  34  35
ATOM     35  C   UNL A   1      32.911  35.932  32.314  1.00  0.00     0.338 C 
ATOM     36  O   UNL A   1      32.470  36.660  33.186  1.00  0.00    -0.246 OA
BRANCH  35  37
ATOM     37  C   UNL A   1      34.093  35.067  32.484  1.00  0.00     0.060 A 
ATOM     38  C   UNL A   1      33.885  33.771  32.964  1.00  0.00     0.016 A 
ATOM     39  C   UNL A   1      35.385  35.523  32.230  1.00  0.00     0.016 A 
ATOM     40  C   UNL A   1      34.958  32.916  33.193  1.00  0.00     0.010 A 
ATOM     41  C   UNL A   1      36.469  34.674  32.488  1.00  0.00     0.010 A 
ATOM     42  C   UNL A   1      36.262  33.373  32.985  1.00  0.00    -0.014 A 
BRANCH  42  43
ATOM     43  C   UNL A   1      37.407  32.553  33.446  1.00  0.00     0.031 A 
ATOM     44  C   UNL A   1      38.021  32.868  34.782  1.00  0.00     0.074 A 
ATOM     45  C   UNL A   1      37.870  31.522  32.716  1.00  0.00     0.049 A 
ATOM     46  N   UNL A   1      39.140  32.440  35.300  1.00  0.00    -0.248 NA
ATOM     47  C   UNL A   1      37.271  33.797  35.644  1.00  0.00     0.031 C 
ATOM     48  C   UNL A   1      37.300  31.052  31.453  1.00  0.00     0.029 A 
ATOM     49  N   UNL A   1      38.941  30.689  32.929  1.00  0.00    -0.354 N 
ATOM     50  C   UNL A   1      39.260  33.090  36.522  1.00  0.00     0.074 A 
ATOM     51  C   UNL A   1      38.091  33.927  36.677  1.00  0.00     0.031 C 
ATOM     52  C   UNL A   1      38.037  30.024  30.996  1.00  0.00     0.029 A 
ATOM     53  C   UNL A   1      39.167  29.808  31.898  1.00  0.00     0.049 A 
ATOM     54  H   UNL A   1      39.495  30.721  33.743  1.00  0.00     0.167 HD
ATOM     55  C   UNL A   1      40.264  33.001  37.425  1.00  0.00     0.037 A 
ATOM     56  C   UNL A   1      40.196  28.964  31.683  1.00  0.00     0.037 A 
ATOM     57  C   UNL A   1      41.396  32.124  37.283  1.00  0.00     0.049 A 
ATOM     58  C   UNL A   1      41.323  28.911  32.681  1.00  0.00     0.074 A 
ATOM     59  C   UNL A   1      42.468  31.957  38.142  1.00  0.00     0.029 A 
ATOM     60  N   UNL A   1      41.592  31.255  36.221  1.00  0.00    -0.354 N 
ATOM     61  N   UNL A   1      41.463  29.577  33.803  1.00  0.00    -0.248 NA
ATOM     62  C   UNL A   1      42.442  28.007  32.378  1.00  0.00     0.031 C 
ATOM     63  C   UNL A   1      43.330  31.008  37.582  1.00  0.00     0.029 A 
ATOM     64  C   UNL A   1      42.773  30.555  36.396  1.00  0.00     0.049 A 
ATOM     65  H   UNL A   1      40.982  31.151  35.455  1.00  0.00     0.167 HD
ATOM     66  C   UNL A   1      42.675  29.161  34.345  1.00  0.00     0.074 A 
ATOM     67  C   UNL A   1      43.221  28.173  33.438  1.00  0.00     0.031 C 
ATOM     68  C   UNL A   1      43.285  29.562  35.488  1.00  0.00     0.037 A 
BRANCH  55  69
ATOM     69  C   UNL A   1      40.213  33.908  38.620  1.00  0.00     0.058 A 
ATOM     70  C   UNL A   1      40.824  35.170  38.627  1.00  0.00     0.135 A 
ATOM     71  C   UNL A   1      39.494  33.519  39.763  1.00  0.00     0.135 A 
ATOM     72  F   UNL A   1      41.543  35.579  37.570  1.00  0.00    -0.206 F 
ATOM     73  C   UNL A   1      40.731  36.013  39.730  1.00  0.00     0.059 A 
ATOM     74  C   UNL A   1      39.369  34.354  40.867  1.00  0.00     0.059 A 
ATOM     75  F   UNL A   1      38.899  32.317  39.809  1.00  0.00    -0.206 F 
ATOM     76  C   UNL A   1      39.998  35.599  40.844  1.00  0.00     0.060 A 
BRANCH  76  77
ATOM     77  S   UNL A   1      39.855  36.715  42.255  1.00  0.00     0.124 S 
ATOM     78  O   UNL A   1      38.814  36.060  43.041  1.00  0.00    -0.237 OA
ATOM     79  O   UNL A   1      41.199  36.674  42.824  1.00  0.00    -0.237 OA
ATOM     80  O   UNL A   1      39.475  37.985  41.645  1.00  0.00    -0.744 OA
ENDBRANCH  76  77
ENDBRANCH  55  69
BRANCH  56  81
ATOM     81  C   UNL A   1      40.252  28.152  30.436  1.00  0.00     0.058 A 
ATOM     82  C   UNL A   1      39.428  27.032  30.257  1.00  0.00     0.135 A 
ATOM     83  C   UNL A   1      41.159  28.466  29.410  1.00  0.00     0.135 A 
ATOM     84  F   UNL A   1      38.555  26.682  31.214  1.00  0.00    -0.206 F 
ATOM     85  C   UNL A   1      39.514  26.239  29.117  1.00  0.00     0.059 A 
ATOM     86  C   UNL A   1      41.243  27.706  28.249  1.00  0.00     0.059 A 
ATOM     87  F   UNL A   1      41.965  29.533  29.527  1.00  0.00    -0.206 F 
ATOM     88  C   UNL A   1      40.427  26.583  28.118  1.00  0.00     0.060 A 
BRANCH  88  89
ATOM     89  S   UNL A   1      40.516  25.567  26.628  1.00  0.00     0.124 S 
ATOM     90  O   UNL A   1      40.957  26.540  25.636  1.00  0.00    -0.237 OA
ATOM     91  O   UNL A   1      41.494  24.551  27.004  1.00  0.00    -0.237 OA
ATOM     92  O   UNL A   1      39.148  25.081  26.474  1.00  0.00    -0.744 OA
ENDBRANCH  88  89
ENDBRANCH  56  81
BRANCH  68  93
ATOM     93  C   UNL A   1      44.588  28.905  35.845  1.00  0.00     0.058 A 
ATOM     94  C   UNL A   1      45.820  29.457  35.463  1.00  0.00     0.135 A 
ATOM     95  C   UNL A   1      44.603  27.743  36.635  1.00  0.00     0.135 A 
ATOM     96  F   UNL A   1      45.858  30.563  34.704  1.00  0.00    -0.206 F 
ATOM     97  C   UNL A   1      47.024  28.869  35.835  1.00  0.00     0.059 A 
ATOM     98  C   UNL A   1      45.795  27.151  37.037  1.00  0.00     0.059 A 
ATOM     99  F   UNL A   1      43.450  27.183  37.035  1.00  0.00    -0.206 F 
ATOM    100  C   UNL A   1      47.002  27.717  36.625  1.00  0.00     0.060 A 
BRANCH 100 101
ATOM    101  S   UNL A   1      48.570  26.983  37.136  1.00  0.00     0.124 S 
ATOM    102  O   UNL A   1      49.506  27.621  36.217  1.00  0.00    -0.237 OA
ATOM    103  O   UNL A   1      48.670  27.397  38.533  1.00  0.00    -0.237 OA
ATOM    104  O   UNL A   1      48.359  25.553  36.927  1.00  0.00    -0.744 OA
ENDBRANCH 100 101
ENDBRANCH  68  93
ENDBRANCH  42  43
ENDBRANCH  35  37
ENDBRANCH  34  35
ENDBRANCH  33  34
ENDBRANCH  32  33
ENDBRANCH  31  32
ENDBRANCH  30  31
ENDBRANCH   1  30
TORSDOF 23
ENDMDL
MODEL 3
REMARK VINA RESULT:     -10.3      1.662      8.269
REMARK SMILES CCc1ccc(S(=O)(=O)N2CCC3(CC2)NC(=O)C[C@H]3C(=O)OCCOCCOCCOC(=O)c2ccc(-c3c4nc(c(-c5c(F)cc(S(=O)(=O)[O-])cc5F)c5ccc([nH]5)c(-c5c(F)cc(S(=O)(=O)[O-])cc5F)c5nc(c(-c6c(F)cc(S(=O)(=O)[O-])cc6F)c6ccc3[nH]6)C=C5)C=C4)cc2)s1
REMARK SMILES IDX 27 1 26 2 25 3 24 4 23 5 21 6 22 7 20 8 10 9 11 10 15 11
REMARK SMILES IDX 12 12 14 13 13 14 16 15 17 16 19 18 18 19 7 20 8 21 9 22
REMARK SMILES IDX 6 23 3 24 4 25 101 26 5 27 2 28 1 29 28 30 29 31 30 32 31 33
REMARK SMILES IDX 32 34 33 35 34 36 35 37 36 38 100 39 37 40 99 41 38 42 39 43
REMARK SMILES IDX 40 44 93 45 41 46 98 47 92 48 94 49 42 50 97 51 91 52 90 53
REMARK SMILES IDX 43 55 77 56 56 57 76 58 57 59 60 60 75 61 95 62 58 63 59 64
REMARK SMILES IDX 74 66 96 67 61 68 44 69 45 70 54 71 46 72 47 73 53 74 55 75
REMARK SMILES IDX 48 76 49 77 50 78 51 79 52 80 78 81 79 82 88 83 80 84 81 85
REMARK SMILES IDX 87 86 89 87 82 88 83 89 84 90 85 91 86 92 62 93 63 94 72 95
REMARK SMILES IDX 64 96 65 97 71 98 73 99 66 100 67 101 68 102 69 103 70 104
REMARK H PARENT 16 17 94 54 60 65
REMARK Flexibility Score: inf
ROOT
ATOM      1  C   UNL A   1      32.636  29.752  25.254  1.00  0.00     0.188 C 
ENDROOT
BRANCH   1   2
ATOM      2  O   UNL A   1      33.353  28.521  25.315  1.00  0.00    -0.376 OA
BRANCH   2   3
ATOM      3  C   UNL A   1      34.179  28.126  24.234  1.00  0.00     0.202 C 
BRANCH   3   4
ATOM      4  C   UNL A   1      33.421  27.807  22.939  1.00  0.00     0.261 C 
BRANCH   4   5
ATOM      5  O   UNL A   1      33.266  26.401  22.622  1.00  0.00    -0.463 OA
BRANCH   5   6
ATOM      6  C   UNL A   1      31.985  26.006  22.443  1.00  0.00     0.311 C 
ATOM      7  O   UNL A   1      31.251  26.442  21.561  1.00  0.00    -0.252 OA
BRANCH   6   8
ATOM      8  C   UNL A   1      31.411  25.098  23.511  1.00  0.00     0.134 C 
ATOM      9  N   UNL A   1      33.296  21.692  24.258  1.00  0.00    -0.197 NA
ATOM     10  C   UNL A   1      31.838  21.819  24.283  1.00  0.00     0.105 C 
ATOM     11  C   UNL A   1      33.997  22.854  23.714  1.00  0.00     0.105 C 
ATOM     12  C   UNL A   1      31.400  23.084  25.014  1.00  0.00     0.046 C 
ATOM     13  C   UNL A   1      33.685  24.098  24.515  1.00  0.00     0.046 C 
ATOM     14  C   UNL A   1      32.185  24.388  24.651  1.00  0.00     0.056 C 
ATOM     15  N   UNL A   1      32.028  25.326  25.751  1.00  0.00    -0.350 N 
ATOM     16  C   UNL A   1      30.990  26.205  25.594  1.00  0.00     0.221 C 
ATOM     17  H   UNL A   1      32.618  25.328  26.540  1.00  0.00     0.164 HD
ATOM     18  C   UNL A   1      30.355  25.948  24.257  1.00  0.00     0.117 C 
ATOM     19  O   UNL A   1      30.635  27.011  26.433  1.00  0.00    -0.275 OA
BRANCH   9  20
ATOM     20  S   UNL A   1      34.096  20.608  25.290  1.00  0.00     0.252 S 
ATOM     21  O   UNL A   1      34.013  19.288  24.697  1.00  0.00    -0.206 OA
ATOM     22  O   UNL A   1      33.673  20.868  26.642  1.00  0.00    -0.206 OA
BRANCH  20  23
ATOM     23  C   UNL A   1      35.825  21.063  25.282  1.00  0.00     0.135 A 
ATOM     24  C   UNL A   1      37.960  22.210  25.797  1.00  0.00     0.006 A 
ATOM     25  C   UNL A   1      38.139  21.099  24.999  1.00  0.00     0.017 A 
ATOM     26  S   UNL A   1      36.302  22.435  26.181  1.00  0.00    -0.127 S 
ATOM     27  C   UNL A   1      36.907  20.492  24.641  1.00  0.00     0.034 A 
BRANCH  24  28
ATOM     28  C   UNL A   1      38.981  23.198  26.280  1.00  0.00     0.043 C 
ATOM     29  C   UNL A   1      38.364  24.379  27.017  1.00  0.00     0.010 C 
ENDBRANCH  24  28
ENDBRANCH  20  23
ENDBRANCH   9  20
ENDBRANCH   6   8
ENDBRANCH   5   6
ENDBRANCH   4   5
ENDBRANCH   3   4
ENDBRANCH   2   3
ENDBRANCH   1   2
BRANCH   1  30
ATOM     30  C   UNL A   1      32.007  30.322  26.521  1.00  0.00     0.188 C 
BRANCH  30  31
ATOM     31  O   UNL A   1      32.889  31.221  27.189  1.00  0.00    -0.376 OA
BRANCH  31  32
ATOM     32  C   UNL A   1      34.084  30.594  27.655  1.00  0.00     0.202 C 
BRANCH  32  33
ATOM     33  C   UNL A   1      34.870  31.595  28.510  1.00  0.00     0.261 C 
BRANCH  33  34
ATOM     34  O   UNL A   1      36.298  31.431  28.397  1.00  0.00    -0.460 OA
BRANCH  34  35
ATOM     35  C   UNL A   1      36.884  30.852  29.471  1.00  0.00     0.338 C 
ATOM     36  O   UNL A   1      36.366  30.667  30.558  1.00  0.00    -0.246 OA
BRANCH  35  37
ATOM     37  C   UNL A   1      38.178  30.271  29.067  1.00  0.00     0.060 A 
ATOM     38  C   UNL A   1      39.222  30.301  29.996  1.00  0.00     0.016 A 
ATOM     39  C   UNL A   1      38.388  29.752  27.791  1.00  0.00     0.016 A 
ATOM     40  C   UNL A   1      40.482  29.814  29.667  1.00  0.00     0.010 A 
ATOM     41  C   UNL A   1      39.664  29.287  27.448  1.00  0.00     0.010 A 
ATOM     42  C   UNL A   1      40.721  29.330  28.378  1.00  0.00    -0.014 A 
BRANCH  42  43
ATOM     43  C   UNL A   1      42.109  29.030  27.955  1.00  0.00     0.031 A 
ATOM     44  C   UNL A   1      42.445  27.622  27.549  1.00  0.00     0.074 A 
ATOM     45  C   UNL A   1      43.046  29.994  27.891  1.00  0.00     0.049 A 
ATOM     46  N   UNL A   1      43.613  27.076  27.346  1.00  0.00    -0.248 NA
ATOM     47  C   UNL A   1      41.307  26.708  27.354  1.00  0.00     0.031 C 
ATOM     48  C   UNL A   1      42.823  31.414  28.162  1.00  0.00     0.029 A 
ATOM     49  N   UNL A   1      44.384  29.917  27.590  1.00  0.00    -0.354 N 
ATOM     50  C   UNL A   1      43.358  25.741  27.056  1.00  0.00     0.074 A 
ATOM     51  C   UNL A   1      41.923  25.564  27.092  1.00  0.00     0.031 C 
ATOM     52  C   UNL A   1      43.988  32.072  28.029  1.00  0.00     0.029 A 
ATOM     53  C   UNL A   1      45.049  31.112  27.730  1.00  0.00     0.049 A 
ATOM     54  H   UNL A   1      44.824  29.085  27.300  1.00  0.00     0.167 HD
ATOM     55  C   UNL A   1      44.246  24.754  26.796  1.00  0.00     0.037 A 
ATOM     56  C   UNL A   1      46.367  31.387  27.677  1.00  0.00     0.037 A 
ATOM     57  C   UNL A   1      45.668  24.955  26.712  1.00  0.00     0.049 A 
ATOM     58  C   UNL A   1      47.342  30.265  27.426  1.00  0.00     0.074 A 
ATOM     59  C   UNL A   1      46.655  24.021  26.453  1.00  0.00     0.029 A 
ATOM     60  N   UNL A   1      46.302  26.177  26.870  1.00  0.00    -0.354 N 
ATOM     61  N   UNL A   1      47.098  28.992  27.218  1.00  0.00    -0.248 NA
ATOM     62  C   UNL A   1      48.771  30.610  27.422  1.00  0.00     0.031 C 
ATOM     63  C   UNL A   1      47.891  24.675  26.485  1.00  0.00     0.029 A 
ATOM     64  C   UNL A   1      47.669  26.022  26.723  1.00  0.00     0.049 A 
ATOM     65  H   UNL A   1      45.848  27.030  27.058  1.00  0.00     0.167 HD
ATOM     66  C   UNL A   1      48.340  28.390  27.042  1.00  0.00     0.074 A 
ATOM     67  C   UNL A   1      49.332  29.439  27.151  1.00  0.00     0.031 C 
ATOM     68  C   UNL A   1      48.635  27.086  26.816  1.00  0.00     0.037 A 
BRANCH  55  69
ATOM     69  C   UNL A   1      43.715  23.360  26.634  1.00  0.00     0.058 A 
ATOM     70  C   UNL A   1      43.619  22.737  25.382  1.00  0.00     0.135 A 
ATOM     71  C   UNL A   1      43.340  22.618  27.768  1.00  0.00     0.135 A 
ATOM     72  F   UNL A   1      43.941  23.409  24.266  1.00  0.00    -0.206 F 
ATOM     73  C   UNL A   1      43.162  21.428  25.257  1.00  0.00     0.059 A 
ATOM     74  C   UNL A   1      42.902  21.303  27.669  1.00  0.00     0.059 A 
ATOM     75  F   UNL A   1      43.404  23.173  28.989  1.00  0.00    -0.206 F 
ATOM     76  C   UNL A   1      42.809  20.717  26.407  1.00  0.00     0.060 A 
BRANCH  76  77
ATOM     77  S   UNL A   1      42.251  19.009  26.236  1.00  0.00     0.124 S 
ATOM     78  O   UNL A   1      42.405  18.515  27.600  1.00  0.00    -0.237 OA
ATOM     79  O   UNL A   1      40.877  19.174  25.772  1.00  0.00    -0.237 OA
ATOM     80  O   UNL A   1      43.175  18.447  25.256  1.00  0.00    -0.744 OA
ENDBRANCH  76  77
ENDBRANCH  55  69
BRANCH  56  81
ATOM     81  C   UNL A   1      46.858  32.768  27.938  1.00  0.00     0.058 A 
ATOM     82  C   UNL A   1      46.860  33.744  26.931  1.00  0.00     0.135 A 
ATOM     83  C   UNL A   1      47.364  33.129  29.198  1.00  0.00     0.135 A 
ATOM     84  F   UNL A   1      46.401  33.445  25.707  1.00  0.00    -0.206 F 
ATOM     85  C   UNL A   1      47.366  35.021  27.155  1.00  0.00     0.059 A 
ATOM     86  C   UNL A   1      47.848  34.407  29.454  1.00  0.00     0.059 A 
ATOM     87  F   UNL A   1      47.376  32.236  30.199  1.00  0.00    -0.206 F 
ATOM     88  C   UNL A   1      47.860  35.343  28.421  1.00  0.00     0.060 A 
BRANCH  88  89
ATOM     89  S   UNL A   1      48.491  37.009  28.715  1.00  0.00     0.124 S 
ATOM     90  O   UNL A   1      47.898  37.321  30.010  1.00  0.00    -0.237 OA
ATOM     91  O   UNL A   1      49.935  36.799  28.708  1.00  0.00    -0.237 OA
ATOM     92  O   UNL A   1      47.971  37.767  27.581  1.00  0.00    -0.744 OA
ENDBRANCH  88  89
ENDBRANCH  56  81
BRANCH  68  93
ATOM     93  C   UNL A   1      50.081  26.726  26.628  1.00  0.00     0.058 A 
ATOM     94  C   UNL A   1      50.660  26.643  25.353  1.00  0.00     0.135 A 
ATOM     95  C   UNL A   1      50.912  26.525  27.743  1.00  0.00     0.135 A 
ATOM     96  F   UNL A   1      49.907  26.821  24.257  1.00  0.00    -0.206 F 
ATOM     97  C   UNL A   1      52.010  26.354  25.187  1.00  0.00     0.059 A 
ATOM     98  C   UNL A   1      52.269  26.258  27.601  1.00  0.00     0.059 A 
ATOM     99  F   UNL A   1      50.408  26.605  28.985  1.00  0.00    -0.206 F 
ATOM    100  C   UNL A   1      52.808  26.165  26.318  1.00  0.00     0.060 A 
BRANCH 100 101
ATOM    101  S   UNL A   1      54.568  25.829  26.094  1.00  0.00     0.124 S 
ATOM    102  O   UNL A   1      54.821  24.870  27.163  1.00  0.00    -0.237 OA
ATOM    103  O   UNL A   1      54.615  25.293  24.737  1.00  0.00    -0.237 OA
ATOM    104  O   UNL A   1      55.187  27.140  26.265  1.00  0.00    -0.744 OA
ENDBRANCH 100 101
ENDBRANCH  68  93
ENDBRANCH  42  43
ENDBRANCH  35  37
ENDBRANCH  34  35
ENDBRANCH  33  34
ENDBRANCH  32  33
ENDBRANCH  31  32
ENDBRANCH  30  31
ENDBRANCH   1  30
TORSDOF 23
ENDMDL
