MODEL 1
REMARK VINA RESULT:     -10.9      0.000      0.000
REMARK SMILES O=C(OCCOCCOCCOC(=O)c1ccc(Cl)cc1-c1ccc(C(F)(F)F)cc1)c1ccc(-c2c3nc(c(-c4c(F)cc(S(=O)(=O)[O-])cc4F)c4ccc([nH]4)c(-c4c(F)cc(S(=O)(=O)[O-])cc4F)c4nc(c(-c5c(F)cc(S(=O)(=O)[O-])cc5F)c5ccc2[nH]5)C=C4)C=C3)cc1
REMARK SMILES IDX 7 1 6 2 5 3 4 4 3 5 2 6 1 7 32 8 33 9 97 10 34 11 96 12
REMARK SMILES IDX 35 13 36 14 37 15 90 16 38 17 95 18 89 19 91 20 39 21 94 22
REMARK SMILES IDX 88 23 87 24 40 26 74 27 53 28 73 29 54 30 57 31 72 32 92 33
REMARK SMILES IDX 55 34 56 35 71 37 93 38 58 39 41 40 42 41 51 42 43 43 44 44
REMARK SMILES IDX 50 45 52 46 45 47 46 48 47 49 48 50 49 51 75 52 76 53 85 54
REMARK SMILES IDX 77 55 78 56 84 57 86 58 79 59 80 60 81 61 82 62 83 63 59 64
REMARK SMILES IDX 60 65 69 66 61 67 62 68 68 69 70 70 63 71 64 72 65 73 66 74
REMARK SMILES IDX 67 75 8 76 9 77 10 78 11 79 12 80 13 81 14 82 15 83 16 84
REMARK SMILES IDX 21 85 17 86 20 87 18 88 19 89 22 90 23 91 31 92 24 93 30 94
REMARK SMILES IDX 25 95 26 96 27 97 28 98 29 99
REMARK H PARENT 91 25 57 36
REMARK Flexibility Score: inf
ROOT
ATOM      1  C   UNL A   1      34.274  34.108  29.090  1.00  0.00     0.188 C 
ENDROOT
BRANCH   1   2
ATOM      2  O   UNL A   1      33.878  33.769  30.416  1.00  0.00    -0.376 OA
BRANCH   2   3
ATOM      3  C   UNL A   1      34.918  33.647  31.374  1.00  0.00     0.202 C 
BRANCH   3   4
ATOM      4  C   UNL A   1      35.211  32.196  31.761  1.00  0.00     0.261 C 
BRANCH   4   5
ATOM      5  O   UNL A   1      35.977  31.535  30.740  1.00  0.00    -0.460 OA
BRANCH   5   6
ATOM      6  C   UNL A   1      36.705  30.400  30.883  1.00  0.00     0.338 C 
ATOM      7  O   UNL A   1      36.328  29.566  31.705  1.00  0.00    -0.246 OA
BRANCH   6   8
ATOM      8  C   UNL A   1      38.060  30.209  30.257  1.00  0.00     0.060 A 
ATOM      9  C   UNL A   1      38.342  30.170  28.891  1.00  0.00     0.016 A 
ATOM     10  C   UNL A   1      39.145  30.061  31.147  1.00  0.00     0.016 A 
ATOM     11  C   UNL A   1      39.640  29.966  28.422  1.00  0.00     0.010 A 
ATOM     12  C   UNL A   1      40.454  29.871  30.685  1.00  0.00     0.010 A 
ATOM     13  C   UNL A   1      40.698  29.790  29.312  1.00  0.00    -0.014 A 
BRANCH  13  14
ATOM     14  C   UNL A   1      41.992  29.324  28.768  1.00  0.00     0.031 A 
ATOM     15  C   UNL A   1      43.123  30.310  28.695  1.00  0.00     0.074 A 
ATOM     16  C   UNL A   1      42.196  28.022  28.496  1.00  0.00     0.049 A 
ATOM     17  N   UNL A   1      44.368  30.111  28.357  1.00  0.00    -0.248 NA
ATOM     18  C   UNL A   1      42.819  31.697  29.090  1.00  0.00     0.031 C 
ATOM     19  C   UNL A   1      41.197  26.961  28.632  1.00  0.00     0.029 A 
ATOM     20  N   UNL A   1      43.324  27.366  28.072  1.00  0.00    -0.354 N 
ATOM     21  C   UNL A   1      44.999  31.337  28.519  1.00  0.00     0.074 A 
ATOM     22  C   UNL A   1      43.998  32.284  28.952  1.00  0.00     0.031 C 
ATOM     23  C   UNL A   1      41.760  25.789  28.290  1.00  0.00     0.029 A 
ATOM     24  C   UNL A   1      43.138  26.020  27.873  1.00  0.00     0.049 A 
ATOM     25  H   UNL A   1      44.186  27.819  27.925  1.00  0.00     0.167 HD
ATOM     26  C   UNL A   1      46.305  31.642  28.337  1.00  0.00     0.037 A 
ATOM     27  C   UNL A   1      43.976  25.086  27.382  1.00  0.00     0.037 A 
ATOM     28  C   UNL A   1      47.293  30.699  27.895  1.00  0.00     0.049 A 
ATOM     29  C   UNL A   1      45.384  25.487  27.039  1.00  0.00     0.074 A 
ATOM     30  C   UNL A   1      48.641  30.908  27.671  1.00  0.00     0.029 A 
ATOM     31  N   UNL A   1      47.036  29.371  27.593  1.00  0.00    -0.354 N 
ATOM     32  N   UNL A   1      45.971  26.647  27.211  1.00  0.00    -0.248 NA
ATOM     33  C   UNL A   1      46.243  24.458  26.439  1.00  0.00     0.031 C 
ATOM     34  C   UNL A   1      49.190  29.718  27.183  1.00  0.00     0.029 A 
ATOM     35  C   UNL A   1      48.191  28.756  27.145  1.00  0.00     0.049 A 
ATOM     36  H   UNL A   1      46.161  28.930  27.685  1.00  0.00     0.167 HD
ATOM     37  C   UNL A   1      47.274  26.482  26.759  1.00  0.00     0.074 A 
ATOM     38  C   UNL A   1      47.393  25.108  26.318  1.00  0.00     0.031 C 
ATOM     39  C   UNL A   1      48.283  27.386  26.712  1.00  0.00     0.037 A 
BRANCH  26  40
ATOM     40  C   UNL A   1      46.722  33.059  28.584  1.00  0.00     0.058 A 
ATOM     41  C   UNL A   1      47.182  33.485  29.840  1.00  0.00     0.135 A 
ATOM     42  C   UNL A   1      46.684  33.998  27.542  1.00  0.00     0.135 A 
ATOM     43  F   UNL A   1      47.206  32.630  30.876  1.00  0.00    -0.206 F 
ATOM     44  C   UNL A   1      47.585  34.797  30.056  1.00  0.00     0.059 A 
ATOM     45  C   UNL A   1      47.099  35.312  27.730  1.00  0.00     0.059 A 
ATOM     46  F   UNL A   1      46.236  33.641  26.328  1.00  0.00    -0.206 F 
ATOM     47  C   UNL A   1      47.542  35.704  28.994  1.00  0.00     0.060 A 
BRANCH  47  48
ATOM     48  S   UNL A   1      48.090  37.398  29.284  1.00  0.00     0.124 S 
ATOM     49  O   UNL A   1      46.905  37.986  29.901  1.00  0.00    -0.237 OA
ATOM     50  O   UNL A   1      49.237  37.208  30.166  1.00  0.00    -0.237 OA
ATOM     51  O   UNL A   1      48.407  37.887  27.945  1.00  0.00    -0.744 OA
ENDBRANCH  47  48
ENDBRANCH  26  40
BRANCH  27  52
ATOM     52  C   UNL A   1      43.494  23.709  27.100  1.00  0.00     0.058 A 
ATOM     53  C   UNL A   1      43.150  23.287  25.809  1.00  0.00     0.135 A 
ATOM     54  C   UNL A   1      43.311  22.800  28.155  1.00  0.00     0.135 A 
ATOM     55  F   UNL A   1      43.287  24.124  24.771  1.00  0.00    -0.206 F 
ATOM     56  C   UNL A   1      42.624  22.018  25.575  1.00  0.00     0.059 A 
ATOM     57  C   UNL A   1      42.814  21.519  27.944  1.00  0.00     0.059 A 
ATOM     58  F   UNL A   1      43.617  23.162  29.409  1.00  0.00    -0.206 F 
ATOM     59  C   UNL A   1      42.456  21.142  26.650  1.00  0.00     0.060 A 
BRANCH  59  60
ATOM     60  S   UNL A   1      41.792  19.492  26.343  1.00  0.00     0.124 S 
ATOM     61  O   UNL A   1      40.361  19.759  26.279  1.00  0.00    -0.237 OA
ATOM     62  O   UNL A   1      42.434  19.132  25.082  1.00  0.00    -0.237 OA
ATOM     63  O   UNL A   1      42.247  18.733  27.505  1.00  0.00    -0.744 OA
ENDBRANCH  59  60
ENDBRANCH  27  52
BRANCH  39  64
ATOM     64  C   UNL A   1      49.603  26.913  26.183  1.00  0.00     0.058 A 
ATOM     65  C   UNL A   1      49.956  27.090  24.837  1.00  0.00     0.135 A 
ATOM     66  C   UNL A   1      50.547  26.332  27.044  1.00  0.00     0.135 A 
ATOM     67  F   UNL A   1      49.081  27.632  23.975  1.00  0.00    -0.206 F 
ATOM     68  C   UNL A   1      51.199  26.694  24.358  1.00  0.00     0.059 A 
ATOM     69  C   UNL A   1      51.804  25.950  26.592  1.00  0.00     0.059 A 
ATOM     70  F   UNL A   1      50.257  26.149  28.342  1.00  0.00    -0.206 F 
ATOM     71  C   UNL A   1      52.118  26.128  25.244  1.00  0.00     0.060 A 
BRANCH  71  72
ATOM     72  S   UNL A   1      53.746  25.661  24.623  1.00  0.00     0.124 S 
ATOM     73  O   UNL A   1      53.763  24.228  24.894  1.00  0.00    -0.237 OA
ATOM     74  O   UNL A   1      53.665  26.040  23.215  1.00  0.00    -0.237 OA
ATOM     75  O   UNL A   1      54.659  26.465  25.429  1.00  0.00    -0.744 OA
ENDBRANCH  71  72
ENDBRANCH  39  64
ENDBRANCH  13  14
ENDBRANCH   6   8
ENDBRANCH   5   6
ENDBRANCH   4   5
ENDBRANCH   3   4
ENDBRANCH   2   3
ENDBRANCH   1   2
BRANCH   1  76
ATOM     76  C   UNL A   1      33.699  33.259  27.948  1.00  0.00     0.188 C 
BRANCH  76  77
ATOM     77  O   UNL A   1      34.300  32.019  27.604  1.00  0.00    -0.376 OA
BRANCH  77  78
ATOM     78  C   UNL A   1      33.513  30.840  27.584  1.00  0.00     0.202 C 
BRANCH  78  79
ATOM     79  C   UNL A   1      34.201  29.522  27.229  1.00  0.00     0.261 C 
BRANCH  79  80
ATOM     80  O   UNL A   1      33.766  28.898  26.010  1.00  0.00    -0.460 OA
BRANCH  80  81
ATOM     81  C   UNL A   1      32.909  27.858  26.168  1.00  0.00     0.338 C 
ATOM     82  O   UNL A   1      32.039  27.739  27.012  1.00  0.00    -0.246 OA
BRANCH  81  83
ATOM     83  C   UNL A   1      33.263  26.780  25.224  1.00  0.00     0.068 A 
ATOM     84  C   UNL A   1      34.231  25.860  25.665  1.00  0.00     0.018 A 
ATOM     85  C   UNL A   1      32.584  26.587  24.004  1.00  0.00    -0.002 A 
ATOM     86  C   UNL A   1      34.510  24.721  24.908  1.00  0.00     0.021 A 
ATOM     87  C   UNL A   1      32.909  25.442  23.249  1.00  0.00     0.030 A 
ATOM     88  C   UNL A   1      33.847  24.515  23.704  1.00  0.00     0.041 A 
ATOM     89  Cl  UNL A   1      34.150  23.102  22.777  1.00  0.00    -0.084 Cl
BRANCH  85  90
ATOM     90  C   UNL A   1      31.561  27.495  23.469  1.00  0.00    -0.017 A 
ATOM     91  C   UNL A   1      31.909  28.684  22.817  1.00  0.00     0.009 A 
ATOM     92  C   UNL A   1      30.198  27.226  23.673  1.00  0.00     0.009 A 
ATOM     93  C   UNL A   1      30.924  29.565  22.355  1.00  0.00     0.014 A 
ATOM     94  C   UNL A   1      29.210  28.102  23.209  1.00  0.00     0.014 A 
ATOM     95  C   UNL A   1      29.564  29.276  22.533  1.00  0.00     0.056 A 
BRANCH  95  96
ATOM     96  C   UNL A   1      28.500  30.227  22.044  1.00  0.00     0.416 C 
ATOM     97  F   UNL A   1      27.665  30.633  23.040  1.00  0.00    -0.166 F 
ATOM     98  F   UNL A   1      29.011  31.369  21.500  1.00  0.00    -0.166 F 
ATOM     99  F   UNL A   1      27.702  29.690  21.080  1.00  0.00    -0.166 F 
ENDBRANCH  95  96
ENDBRANCH  85  90
ENDBRANCH  81  83
ENDBRANCH  80  81
ENDBRANCH  79  80
ENDBRANCH  78  79
ENDBRANCH  77  78
ENDBRANCH  76  77
ENDBRANCH   1  76
TORSDOF 22
ENDMDL
MODEL 2
REMARK VINA RESULT:     -10.4      6.626     12.228
REMARK SMILES O=C(OCCOCCOCCOC(=O)c1ccc(Cl)cc1-c1ccc(C(F)(F)F)cc1)c1ccc(-c2c3nc(c(-c4c(F)cc(S(=O)(=O)[O-])cc4F)c4ccc([nH]4)c(-c4c(F)cc(S(=O)(=O)[O-])cc4F)c4nc(c(-c5c(F)cc(S(=O)(=O)[O-])cc5F)c5ccc2[nH]5)C=C4)C=C3)cc1
REMARK SMILES IDX 7 1 6 2 5 3 4 4 3 5 2 6 1 7 32 8 33 9 97 10 34 11 96 12
REMARK SMILES IDX 35 13 36 14 37 15 90 16 38 17 95 18 89 19 91 20 39 21 94 22
REMARK SMILES IDX 88 23 87 24 40 26 74 27 53 28 73 29 54 30 57 31 72 32 92 33
REMARK SMILES IDX 55 34 56 35 71 37 93 38 58 39 41 40 42 41 51 42 43 43 44 44
REMARK SMILES IDX 50 45 52 46 45 47 46 48 47 49 48 50 49 51 75 52 76 53 85 54
REMARK SMILES IDX 77 55 78 56 84 57 86 58 79 59 80 60 81 61 82 62 83 63 59 64
REMARK SMILES IDX 60 65 69 66 61 67 62 68 68 69 70 70 63 71 64 72 65 73 66 74
REMARK SMILES IDX 67 75 8 76 9 77 10 78 11 79 12 80 13 81 14 82 15 83 16 84
REMARK SMILES IDX 21 85 17 86 20 87 18 88 19 89 22 90 23 91 31 92 24 93 30 94
REMARK SMILES IDX 25 95 26 96 27 97 28 98 29 99
REMARK H PARENT 91 25 57 36
REMARK Flexibility Score: inf
ROOT
ATOM      1  C   UNL A   1      39.468  22.186  26.793  1.00  0.00     0.188 C 
ENDROOT
BRANCH   1   2
ATOM      2  O   UNL A   1      40.764  22.752  26.623  1.00  0.00    -0.376 OA
BRANCH   2   3
ATOM      3  C   UNL A   1      41.759  21.899  26.076  1.00  0.00     0.202 C 
BRANCH   3   4
ATOM      4  C   UNL A   1      43.061  22.632  25.744  1.00  0.00     0.261 C 
BRANCH   4   5
ATOM      5  O   UNL A   1      43.291  23.714  26.662  1.00  0.00    -0.460 OA
BRANCH   5   6
ATOM      6  C   UNL A   1      43.195  25.039  26.390  1.00  0.00     0.338 C 
ATOM      7  O   UNL A   1      43.707  25.459  25.353  1.00  0.00    -0.246 OA
BRANCH   6   8
ATOM      8  C   UNL A   1      42.697  26.048  27.388  1.00  0.00     0.060 A 
ATOM      9  C   UNL A   1      43.202  27.334  27.587  1.00  0.00     0.016 A 
ATOM     10  C   UNL A   1      41.610  25.648  28.194  1.00  0.00     0.016 A 
ATOM     11  C   UNL A   1      42.673  28.180  28.561  1.00  0.00     0.010 A 
ATOM     12  C   UNL A   1      41.062  26.497  29.165  1.00  0.00     0.010 A 
ATOM     13  C   UNL A   1      41.620  27.761  29.372  1.00  0.00    -0.014 A 
BRANCH  13  14
ATOM     14  C   UNL A   1      41.275  28.591  30.546  1.00  0.00     0.031 A 
ATOM     15  C   UNL A   1      42.123  28.455  31.779  1.00  0.00     0.074 A 
ATOM     16  C   UNL A   1      40.333  29.548  30.462  1.00  0.00     0.049 A 
ATOM     17  N   UNL A   1      42.082  29.145  32.887  1.00  0.00    -0.248 NA
ATOM     18  C   UNL A   1      43.182  27.431  31.745  1.00  0.00     0.031 C 
ATOM     19  C   UNL A   1      39.522  29.835  29.278  1.00  0.00     0.029 A 
ATOM     20  N   UNL A   1      39.917  30.474  31.385  1.00  0.00    -0.354 N 
ATOM     21  C   UNL A   1      43.118  28.655  33.670  1.00  0.00     0.074 A 
ATOM     22  C   UNL A   1      43.752  27.589  32.930  1.00  0.00     0.031 C 
ATOM     23  C   UNL A   1      38.702  30.865  29.554  1.00  0.00     0.029 A 
ATOM     24  C   UNL A   1      38.899  31.280  30.938  1.00  0.00     0.049 A 
ATOM     25  H   UNL A   1      40.313  30.553  32.283  1.00  0.00     0.167 HD
ATOM     26  C   UNL A   1      43.517  29.072  34.894  1.00  0.00     0.037 A 
ATOM     27  C   UNL A   1      38.187  32.225  31.583  1.00  0.00     0.037 A 
ATOM     28  C   UNL A   1      42.875  30.125  35.630  1.00  0.00     0.049 A 
ATOM     29  C   UNL A   1      38.551  32.561  33.003  1.00  0.00     0.074 A 
ATOM     30  C   UNL A   1      43.196  30.617  36.882  1.00  0.00     0.029 A 
ATOM     31  N   UNL A   1      41.772  30.837  35.186  1.00  0.00    -0.354 N 
ATOM     32  N   UNL A   1      39.543  32.100  33.726  1.00  0.00    -0.248 NA
ATOM     33  C   UNL A   1      37.705  33.543  33.694  1.00  0.00     0.031 C 
ATOM     34  C   UNL A   1      42.252  31.594  37.218  1.00  0.00     0.029 A 
ATOM     35  C   UNL A   1      41.371  31.738  36.156  1.00  0.00     0.049 A 
ATOM     36  H   UNL A   1      41.338  30.720  34.311  1.00  0.00     0.167 HD
ATOM     37  C   UNL A   1      39.452  32.750  34.950  1.00  0.00     0.074 A 
ATOM     38  C   UNL A   1      38.317  33.645  34.865  1.00  0.00     0.031 C 
ATOM     39  C   UNL A   1      40.238  32.618  36.047  1.00  0.00     0.037 A 
BRANCH  26  40
ATOM     40  C   UNL A   1      44.676  28.359  35.521  1.00  0.00     0.058 A 
ATOM     41  C   UNL A   1      44.497  27.215  36.314  1.00  0.00     0.135 A 
ATOM     42  C   UNL A   1      45.986  28.814  35.304  1.00  0.00     0.135 A 
ATOM     43  F   UNL A   1      43.261  26.761  36.576  1.00  0.00    -0.206 F 
ATOM     44  C   UNL A   1      45.578  26.548  36.876  1.00  0.00     0.059 A 
ATOM     45  C   UNL A   1      47.084  28.152  35.842  1.00  0.00     0.059 A 
ATOM     46  F   UNL A   1      46.204  29.913  34.567  1.00  0.00    -0.206 F 
ATOM     47  C   UNL A   1      46.870  27.024  36.633  1.00  0.00     0.060 A 
BRANCH  47  48
ATOM     48  S   UNL A   1      48.266  26.134  37.352  1.00  0.00     0.124 S 
ATOM     49  O   UNL A   1      47.641  24.871  37.732  1.00  0.00    -0.237 OA
ATOM     50  O   UNL A   1      49.201  26.067  36.234  1.00  0.00    -0.237 OA
ATOM     51  O   UNL A   1      48.678  26.988  38.461  1.00  0.00    -0.744 OA
ENDBRANCH  47  48
ENDBRANCH  26  40
BRANCH  27  52
ATOM     52  C   UNL A   1      37.009  32.858  30.936  1.00  0.00     0.058 A 
ATOM     53  C   UNL A   1      35.705  32.381  31.126  1.00  0.00     0.135 A 
ATOM     54  C   UNL A   1      37.187  33.935  30.052  1.00  0.00     0.135 A 
ATOM     55  F   UNL A   1      35.483  31.342  31.944  1.00  0.00    -0.206 F 
ATOM     56  C   UNL A   1      34.621  32.937  30.449  1.00  0.00     0.059 A 
ATOM     57  C   UNL A   1      36.120  34.525  29.386  1.00  0.00     0.059 A 
ATOM     58  F   UNL A   1      38.418  34.419  29.831  1.00  0.00    -0.206 F 
ATOM     59  C   UNL A   1      34.840  34.006  29.578  1.00  0.00     0.060 A 
BRANCH  59  60
ATOM     60  S   UNL A   1      33.432  34.738  28.716  1.00  0.00     0.124 S 
ATOM     61  O   UNL A   1      33.077  33.676  27.783  1.00  0.00    -0.237 OA
ATOM     62  O   UNL A   1      32.492  34.975  29.806  1.00  0.00    -0.237 OA
ATOM     63  O   UNL A   1      34.002  35.943  28.120  1.00  0.00    -0.744 OA
ENDBRANCH  59  60
ENDBRANCH  27  52
BRANCH  39  64
ATOM     64  C   UNL A   1      39.906  33.473  37.233  1.00  0.00     0.058 A 
ATOM     65  C   UNL A   1      38.942  33.077  38.172  1.00  0.00     0.135 A 
ATOM     66  C   UNL A   1      40.604  34.670  37.464  1.00  0.00     0.135 A 
ATOM     67  F   UNL A   1      38.244  31.946  37.987  1.00  0.00    -0.206 F 
ATOM     68  C   UNL A   1      38.669  33.847  39.296  1.00  0.00     0.059 A 
ATOM     69  C   UNL A   1      40.364  35.443  38.594  1.00  0.00     0.059 A 
ATOM     70  F   UNL A   1      41.540  35.085  36.597  1.00  0.00    -0.206 F 
ATOM     71  C   UNL A   1      39.388  35.027  39.500  1.00  0.00     0.060 A 
BRANCH  71  72
ATOM     72  S   UNL A   1      39.061  35.995  40.987  1.00  0.00     0.124 S 
ATOM     73  O   UNL A   1      38.098  35.147  41.681  1.00  0.00    -0.237 OA
ATOM     74  O   UNL A   1      40.384  36.087  41.599  1.00  0.00    -0.237 OA
ATOM     75  O   UNL A   1      38.532  37.251  40.464  1.00  0.00    -0.744 OA
ENDBRANCH  71  72
ENDBRANCH  39  64
ENDBRANCH  13  14
ENDBRANCH   6   8
ENDBRANCH   5   6
ENDBRANCH   4   5
ENDBRANCH   3   4
ENDBRANCH   2   3
ENDBRANCH   1   2
BRANCH   1  76
ATOM     76  C   UNL A   1      38.683  21.838  25.522  1.00  0.00     0.188 C 
BRANCH  76  77
ATOM     77  O   UNL A   1      37.368  21.308  25.612  1.00  0.00    -0.376 OA
BRANCH  77  78
ATOM     78  C   UNL A   1      36.269  22.078  25.154  1.00  0.00     0.202 C 
BRANCH  78  79
ATOM     79  C   UNL A   1      36.407  23.600  25.157  1.00  0.00     0.261 C 
BRANCH  79  80
ATOM     80  O   UNL A   1      35.178  24.339  25.071  1.00  0.00    -0.460 OA
BRANCH  80  81
ATOM     81  C   UNL A   1      34.582  24.329  23.852  1.00  0.00     0.338 C 
ATOM     82  O   UNL A   1      35.111  24.138  22.773  1.00  0.00    -0.246 OA
BRANCH  81  83
ATOM     83  C   UNL A   1      33.167  24.725  23.992  1.00  0.00     0.068 A 
ATOM     84  C   UNL A   1      32.908  26.106  24.037  1.00  0.00     0.018 A 
ATOM     85  C   UNL A   1      32.110  23.793  23.947  1.00  0.00    -0.002 A 
ATOM     86  C   UNL A   1      31.594  26.574  24.006  1.00  0.00     0.021 A 
ATOM     87  C   UNL A   1      30.794  24.295  23.946  1.00  0.00     0.030 A 
ATOM     88  C   UNL A   1      30.541  25.667  23.960  1.00  0.00     0.041 A 
ATOM     89  Cl  UNL A   1      28.919  26.224  23.884  1.00  0.00    -0.084 Cl
BRANCH  85  90
ATOM     90  C   UNL A   1      32.289  22.335  23.898  1.00  0.00    -0.017 A 
ATOM     91  C   UNL A   1      32.086  21.615  22.715  1.00  0.00     0.009 A 
ATOM     92  C   UNL A   1      32.594  21.618  25.066  1.00  0.00     0.009 A 
ATOM     93  C   UNL A   1      32.212  20.221  22.693  1.00  0.00     0.014 A 
ATOM     94  C   UNL A   1      32.725  20.225  25.047  1.00  0.00     0.014 A 
ATOM     95  C   UNL A   1      32.548  19.512  23.855  1.00  0.00     0.056 A 
BRANCH  95  96
ATOM     96  C   UNL A   1      32.676  18.009  23.836  1.00  0.00     0.416 C 
ATOM     97  F   UNL A   1      31.836  17.402  24.720  1.00  0.00    -0.166 F 
ATOM     98  F   UNL A   1      32.391  17.463  22.619  1.00  0.00    -0.166 F 
ATOM     99  F   UNL A   1      33.928  17.574  24.147  1.00  0.00    -0.166 F 
ENDBRANCH  95  96
ENDBRANCH  85  90
ENDBRANCH  81  83
ENDBRANCH  80  81
ENDBRANCH  79  80
ENDBRANCH  78  79
ENDBRANCH  77  78
ENDBRANCH  76  77
ENDBRANCH   1  76
TORSDOF 22
ENDMDL
MODEL 3
REMARK VINA RESULT:     -10.1      6.197     10.351
REMARK SMILES O=C(OCCOCCOCCOC(=O)c1ccc(Cl)cc1-c1ccc(C(F)(F)F)cc1)c1ccc(-c2c3nc(c(-c4c(F)cc(S(=O)(=O)[O-])cc4F)c4ccc([nH]4)c(-c4c(F)cc(S(=O)(=O)[O-])cc4F)c4nc(c(-c5c(F)cc(S(=O)(=O)[O-])cc5F)c5ccc2[nH]5)C=C4)C=C3)cc1
REMARK SMILES IDX 7 1 6 2 5 3 4 4 3 5 2 6 1 7 32 8 33 9 97 10 34 11 96 12
REMARK SMILES IDX 35 13 36 14 37 15 90 16 38 17 95 18 89 19 91 20 39 21 94 22
REMARK SMILES IDX 88 23 87 24 40 26 74 27 53 28 73 29 54 30 57 31 72 32 92 33
REMARK SMILES IDX 55 34 56 35 71 37 93 38 58 39 41 40 42 41 51 42 43 43 44 44
REMARK SMILES IDX 50 45 52 46 45 47 46 48 47 49 48 50 49 51 75 52 76 53 85 54
REMARK SMILES IDX 77 55 78 56 84 57 86 58 79 59 80 60 81 61 82 62 83 63 59 64
REMARK SMILES IDX 60 65 69 66 61 67 62 68 68 69 70 70 63 71 64 72 65 73 66 74
REMARK SMILES IDX 67 75 8 76 9 77 10 78 11 79 12 80 13 81 14 82 15 83 16 84
REMARK SMILES IDX 21 85 17 86 20 87 18 88 19 89 22 90 23 91 31 92 24 93 30 94
REMARK SMILES IDX 25 95 26 96 27 97 28 98 29 99
REMARK H PARENT 91 25 57 36
REMARK Flexibility Score: inf
ROOT
ATOM      1  C   UNL A   1      35.299  32.824  28.518  1.00  0.00     0.188 C 
ENDROOT
BRANCH   1   2
ATOM      2  O   UNL A   1      34.965  34.149  28.116  1.00  0.00    -0.376 OA
BRANCH   2   3
ATOM      3  C   UNL A   1      33.582  34.440  27.986  1.00  0.00     0.202 C 
BRANCH   3   4
ATOM      4  C   UNL A   1      33.130  35.615  28.855  1.00  0.00     0.261 C 
BRANCH   4   5
ATOM      5  O   UNL A   1      32.488  35.152  30.055  1.00  0.00    -0.460 OA
BRANCH   5   6
ATOM      6  C   UNL A   1      33.007  35.167  31.307  1.00  0.00     0.338 C 
ATOM      7  O   UNL A   1      32.554  35.976  32.116  1.00  0.00    -0.246 OA
BRANCH   6   8
ATOM      8  C   UNL A   1      34.250  34.411  31.690  1.00  0.00     0.060 A 
ATOM      9  C   UNL A   1      34.308  33.098  32.159  1.00  0.00     0.016 A 
ATOM     10  C   UNL A   1      35.472  35.104  31.554  1.00  0.00     0.016 A 
ATOM     11  C   UNL A   1      35.520  32.502  32.505  1.00  0.00     0.010 A 
ATOM     12  C   UNL A   1      36.696  34.508  31.885  1.00  0.00     0.010 A 
ATOM     13  C   UNL A   1      36.717  33.208  32.396  1.00  0.00    -0.014 A 
BRANCH  13  14
ATOM     14  C   UNL A   1      37.927  32.625  33.014  1.00  0.00     0.031 A 
ATOM     15  C   UNL A   1      38.802  31.749  32.164  1.00  0.00     0.074 A 
ATOM     16  C   UNL A   1      38.315  32.993  34.249  1.00  0.00     0.049 A 
ATOM     17  N   UNL A   1      39.958  31.214  32.449  1.00  0.00    -0.248 NA
ATOM     18  C   UNL A   1      38.329  31.467  30.797  1.00  0.00     0.031 C 
ATOM     19  C   UNL A   1      37.595  33.919  35.123  1.00  0.00     0.029 A 
ATOM     20  N   UNL A   1      39.429  32.649  34.973  1.00  0.00    -0.354 N 
ATOM     21  C   UNL A   1      40.359  30.553  31.296  1.00  0.00     0.074 A 
ATOM     22  C   UNL A   1      39.312  30.724  30.315  1.00  0.00     0.031 C 
ATOM     23  C   UNL A   1      38.286  34.062  36.267  1.00  0.00     0.029 A 
ATOM     24  C   UNL A   1      39.469  33.211  36.225  1.00  0.00     0.049 A 
ATOM     25  H   UNL A   1      40.134  32.055  34.625  1.00  0.00     0.167 HD
ATOM     26  C   UNL A   1      41.510  29.878  31.069  1.00  0.00     0.037 A 
ATOM     27  C   UNL A   1      40.345  33.034  37.234  1.00  0.00     0.037 A 
ATOM     28  C   UNL A   1      42.542  29.703  32.052  1.00  0.00     0.049 A 
ATOM     29  C   UNL A   1      41.540  32.149  37.007  1.00  0.00     0.074 A 
ATOM     30  C   UNL A   1      43.742  29.028  31.927  1.00  0.00     0.029 A 
ATOM     31  N   UNL A   1      42.487  30.192  33.348  1.00  0.00    -0.354 N 
ATOM     32  N   UNL A   1      41.914  31.543  35.905  1.00  0.00    -0.248 NA
ATOM     33  C   UNL A   1      42.430  31.925  38.153  1.00  0.00     0.031 C 
ATOM     34  C   UNL A   1      44.392  29.065  33.165  1.00  0.00     0.029 A 
ATOM     35  C   UNL A   1      43.614  29.800  34.048  1.00  0.00     0.049 A 
ATOM     36  H   UNL A   1      41.755  30.738  33.716  1.00  0.00     0.167 HD
ATOM     37  C   UNL A   1      43.093  30.881  36.221  1.00  0.00     0.074 A 
ATOM     38  C   UNL A   1      43.377  31.172  37.611  1.00  0.00     0.031 C 
ATOM     39  C   UNL A   1      43.873  30.103  35.431  1.00  0.00     0.037 A 
BRANCH  26  40
ATOM     40  C   UNL A   1      41.688  29.254  29.720  1.00  0.00     0.058 A 
ATOM     41  C   UNL A   1      42.424  29.886  28.706  1.00  0.00     0.135 A 
ATOM     42  C   UNL A   1      41.133  27.994  29.445  1.00  0.00     0.135 A 
ATOM     43  F   UNL A   1      42.947  31.105  28.911  1.00  0.00    -0.206 F 
ATOM     44  C   UNL A   1      42.602  29.291  27.462  1.00  0.00     0.059 A 
ATOM     45  C   UNL A   1      41.311  27.373  28.215  1.00  0.00     0.059 A 
ATOM     46  F   UNL A   1      40.406  27.360  30.378  1.00  0.00    -0.206 F 
ATOM     47  C   UNL A   1      42.042  28.032  27.226  1.00  0.00     0.060 A 
BRANCH  47  48
ATOM     48  S   UNL A   1      42.299  27.263  25.614  1.00  0.00     0.124 S 
ATOM     49  O   UNL A   1      43.573  26.581  25.818  1.00  0.00    -0.237 OA
ATOM     50  O   UNL A   1      41.130  26.400  25.491  1.00  0.00    -0.237 OA
ATOM     51  O   UNL A   1      42.336  28.399  24.698  1.00  0.00    -0.744 OA
ENDBRANCH  47  48
ENDBRANCH  26  40
BRANCH  27  52
ATOM     52  C   UNL A   1      40.089  33.628  38.571  1.00  0.00     0.058 A 
ATOM     53  C   UNL A   1      39.068  33.165  39.413  1.00  0.00     0.135 A 
ATOM     54  C   UNL A   1      40.843  34.731  39.005  1.00  0.00     0.135 A 
ATOM     55  F   UNL A   1      38.307  32.128  39.035  1.00  0.00    -0.206 F 
ATOM     56  C   UNL A   1      38.791  33.786  40.629  1.00  0.00     0.059 A 
ATOM     57  C   UNL A   1      40.605  35.350  40.226  1.00  0.00     0.059 A 
ATOM     58  F   UNL A   1      41.824  35.215  38.230  1.00  0.00    -0.206 F 
ATOM     59  C   UNL A   1      39.563  34.881  41.025  1.00  0.00     0.060 A 
BRANCH  59  60
ATOM     60  S   UNL A   1      39.215  35.672  42.610  1.00  0.00     0.124 S 
ATOM     61  O   UNL A   1      37.806  35.346  42.797  1.00  0.00    -0.237 OA
ATOM     62  O   UNL A   1      40.153  34.999  43.503  1.00  0.00    -0.237 OA
ATOM     63  O   UNL A   1      39.513  37.078  42.349  1.00  0.00    -0.744 OA
ENDBRANCH  59  60
ENDBRANCH  27  52
BRANCH  39  64
ATOM     64  C   UNL A   1      45.112  29.527  36.047  1.00  0.00     0.058 A 
ATOM     65  C   UNL A   1      45.105  28.264  36.658  1.00  0.00     0.135 A 
ATOM     66  C   UNL A   1      46.332  30.219  35.971  1.00  0.00     0.135 A 
ATOM     67  F   UNL A   1      43.961  27.571  36.762  1.00  0.00    -0.206 F 
ATOM     68  C   UNL A   1      46.265  27.711  37.186  1.00  0.00     0.059 A 
ATOM     69  C   UNL A   1      47.508  29.674  36.471  1.00  0.00     0.059 A 
ATOM     70  F   UNL A   1      46.389  31.427  35.388  1.00  0.00    -0.206 F 
ATOM     71  C   UNL A   1      47.463  28.422  37.085  1.00  0.00     0.060 A 
BRANCH  71  72
ATOM     72  S   UNL A   1      48.972  27.674  37.730  1.00  0.00     0.124 S 
ATOM     73  O   UNL A   1      49.132  26.527  36.844  1.00  0.00    -0.237 OA
ATOM     74  O   UNL A   1      49.950  28.745  37.564  1.00  0.00    -0.237 OA
ATOM     75  O   UNL A   1      48.629  27.358  39.113  1.00  0.00    -0.744 OA
ENDBRANCH  71  72
ENDBRANCH  39  64
ENDBRANCH  13  14
ENDBRANCH   6   8
ENDBRANCH   5   6
ENDBRANCH   4   5
ENDBRANCH   3   4
ENDBRANCH   2   3
ENDBRANCH   1   2
BRANCH   1  76
ATOM     76  C   UNL A   1      34.267  31.725  28.235  1.00  0.00     0.188 C 
BRANCH  76  77
ATOM     77  O   UNL A   1      34.590  30.642  27.374  1.00  0.00    -0.376 OA
BRANCH  77  78
ATOM     78  C   UNL A   1      33.634  29.620  27.146  1.00  0.00     0.202 C 
BRANCH  78  79
ATOM     79  C   UNL A   1      34.140  28.252  26.687  1.00  0.00     0.261 C 
BRANCH  79  80
ATOM     80  O   UNL A   1      33.263  27.523  25.812  1.00  0.00    -0.460 OA
BRANCH  80  81
ATOM     81  C   UNL A   1      33.701  27.392  24.534  1.00  0.00     0.338 C 
ATOM     82  O   UNL A   1      34.145  28.265  23.812  1.00  0.00    -0.246 OA
BRANCH  81  83
ATOM     83  C   UNL A   1      33.439  26.018  24.062  1.00  0.00     0.068 A 
ATOM     84  C   UNL A   1      34.475  25.087  24.252  1.00  0.00     0.018 A 
ATOM     85  C   UNL A   1      32.182  25.611  23.572  1.00  0.00    -0.002 A 
ATOM     86  C   UNL A   1      34.259  23.734  23.985  1.00  0.00     0.021 A 
ATOM     87  C   UNL A   1      32.004  24.243  23.285  1.00  0.00     0.030 A 
ATOM     88  C   UNL A   1      33.024  23.317  23.504  1.00  0.00     0.041 A 
ATOM     89  Cl  UNL A   1      32.726  21.652  23.204  1.00  0.00    -0.084 Cl
BRANCH  85  90
ATOM     90  C   UNL A   1      31.046  26.514  23.344  1.00  0.00    -0.017 A 
ATOM     91  C   UNL A   1      31.191  27.699  22.612  1.00  0.00     0.009 A 
ATOM     92  C   UNL A   1      29.798  26.246  23.929  1.00  0.00     0.009 A 
ATOM     93  C   UNL A   1      30.113  28.576  22.443  1.00  0.00     0.014 A 
ATOM     94  C   UNL A   1      28.717  27.118  23.759  1.00  0.00     0.014 A 
ATOM     95  C   UNL A   1      28.860  28.287  23.002  1.00  0.00     0.056 A 
BRANCH  95  96
ATOM     96  C   UNL A   1      27.699  29.234  22.830  1.00  0.00     0.416 C 
ATOM     97  F   UNL A   1      27.817  30.351  23.600  1.00  0.00    -0.166 F 
ATOM     98  F   UNL A   1      27.556  29.680  21.548  1.00  0.00    -0.166 F 
ATOM     99  F   UNL A   1      26.500  28.677  23.157  1.00  0.00    -0.166 F 
ENDBRANCH  95  96
ENDBRANCH  85  90
ENDBRANCH  81  83
ENDBRANCH  80  81
ENDBRANCH  79  80
ENDBRANCH  78  79
ENDBRANCH  77  78
ENDBRANCH  76  77
ENDBRANCH   1  76
TORSDOF 22
ENDMDL
