MODEL 1
REMARK VINA RESULT:     -10.6      0.000      0.000
REMARK SMILES Cc1nn(C)c(C)c1[C@H](C)N1C(=O)CC[C@@H](C(=O)OCCOCCOCCOC(=O)c2ccc(-c3c4nc(c(-c5c(F)cc(S(=O)(=O)[O-])cc5F)c5ccc([nH]5)c(-c5c(F)cc(S(=O)(=O)[O-])cc5F)c5nc(c(-c6c(F)cc(S(=O)(=O)[O-])cc6F)c6ccc3[nH]6)C=C5)C=C4)cc2)[C@@H]1c1ccco1
REMARK SMILES IDX 24 1 23 2 22 3 21 4 20 5 19 6 17 7 18 8 16 9 11 10 12 11
REMARK SMILES IDX 97 12 13 13 14 14 15 15 9 16 10 17 8 18 1 19 2 20 3 21 4 22
REMARK SMILES IDX 6 23 5 24 7 25 98 26 99 27 102 28 100 29 101 30 25 31 26 32
REMARK SMILES IDX 27 33 28 34 29 35 30 36 31 37 32 38 96 39 33 40 95 41 34 42
REMARK SMILES IDX 35 43 36 44 89 45 37 46 94 47 88 48 90 49 38 50 93 51 87 52
REMARK SMILES IDX 86 53 39 55 73 56 52 57 72 58 53 59 56 60 71 61 91 62 54 63
REMARK SMILES IDX 55 64 70 66 92 67 57 68 40 69 41 70 50 71 42 72 43 73 49 74
REMARK SMILES IDX 51 75 44 76 45 77 46 78 47 79 48 80 74 81 75 82 84 83 76 84
REMARK SMILES IDX 77 85 83 86 85 87 78 88 79 89 80 90 81 91 82 92 58 93 59 94
REMARK SMILES IDX 68 95 60 96 61 97 67 98 69 99 62 100 63 101 64 102 65 103
REMARK SMILES IDX 66 104
REMARK H PARENT 90 54 56 65
REMARK Flexibility Score: inf
ROOT
ATOM      1  C   UNL A   1      34.550  32.854  28.132  1.00  0.00     0.188 C 
ENDROOT
BRANCH   1   2
ATOM      2  C   UNL A   1      34.761  31.418  27.628  1.00  0.00     0.188 C 
BRANCH   2   3
ATOM      3  O   UNL A   1      33.716  30.466  27.677  1.00  0.00    -0.376 OA
BRANCH   3   4
ATOM      4  C   UNL A   1      33.880  29.171  27.142  1.00  0.00     0.202 C 
BRANCH   4   5
ATOM      5  C   UNL A   1      32.754  28.133  27.226  1.00  0.00     0.261 C 
BRANCH   5   6
ATOM      6  O   UNL A   1      32.920  26.909  26.479  1.00  0.00    -0.463 OA
BRANCH   6   7
ATOM      7  C   UNL A   1      32.882  27.086  25.130  1.00  0.00     0.311 C 
ATOM      8  O   UNL A   1      32.009  27.751  24.591  1.00  0.00    -0.252 OA
BRANCH   7   9
ATOM      9  C   UNL A   1      34.003  26.358  24.379  1.00  0.00     0.130 C 
ATOM     10  N   UNL A   1      32.690  24.232  24.397  1.00  0.00    -0.325 N 
ATOM     11  C   UNL A   1      32.008  24.692  23.272  1.00  0.00     0.223 C 
ATOM     12  C   UNL A   1      33.957  24.875  24.798  1.00  0.00     0.166 C 
ATOM     13  O   UNL A   1      30.845  24.385  23.004  1.00  0.00    -0.275 OA
ATOM     14  C   UNL A   1      32.709  25.658  22.331  1.00  0.00     0.101 C 
ATOM     15  C   UNL A   1      33.928  26.391  22.859  1.00  0.00     0.028 C 
BRANCH  10  16
ATOM     16  C   UNL A   1      31.961  23.306  25.322  1.00  0.00     0.117 C 
ATOM     17  C   UNL A   1      30.442  23.409  25.129  1.00  0.00     0.036 C 
BRANCH  16  18
ATOM     18  C   UNL A   1      32.497  21.874  25.263  1.00  0.00     0.018 A 
ATOM     19  C   UNL A   1      33.812  21.468  27.548  1.00  0.00     0.069 C 
ATOM     20  C   UNL A   1      33.210  21.102  26.240  1.00  0.00     0.065 A 
ATOM     21  N   UNL A   1      33.342  19.824  25.861  1.00  0.00    -0.178 NA
ATOM     22  N   UNL A   1      32.785  19.772  24.650  1.00  0.00    -0.272 N 
ATOM     23  C   UNL A   1      32.392  20.993  24.180  1.00  0.00     0.040 A 
ATOM     24  C   UNL A   1      32.592  18.478  24.042  1.00  0.00     0.174 C 
ATOM     25  C   UNL A   1      31.873  21.174  22.798  1.00  0.00     0.067 C 
ENDBRANCH  16  18
ENDBRANCH  10  16
BRANCH  12  26
ATOM     26  C   UNL A   1      35.142  24.105  24.288  1.00  0.00     0.127 A 
ATOM     27  C   UNL A   1      35.327  23.316  23.168  1.00  0.00     0.048 A 
ATOM     28  O   UNL A   1      36.284  24.113  25.035  1.00  0.00    -0.467 OA
ATOM     29  C   UNL A   1      36.651  22.824  23.237  1.00  0.00     0.042 A 
ATOM     30  C   UNL A   1      37.194  23.349  24.385  1.00  0.00     0.195 A 
ENDBRANCH  12  26
ENDBRANCH   7   9
ENDBRANCH   6   7
ENDBRANCH   5   6
ENDBRANCH   4   5
ENDBRANCH   3   4
ENDBRANCH   2   3
ENDBRANCH   1   2
BRANCH   1  31
ATOM     31  O   UNL A   1      34.071  33.155  29.423  1.00  0.00    -0.376 OA
BRANCH  31  32
ATOM     32  C   UNL A   1      34.669  34.167  30.199  1.00  0.00     0.202 C 
BRANCH  32  33
ATOM     33  C   UNL A   1      35.649  33.856  31.338  1.00  0.00     0.261 C 
BRANCH  33  34
ATOM     34  O   UNL A   1      36.773  33.031  31.013  1.00  0.00    -0.460 OA
BRANCH  34  35
ATOM     35  C   UNL A   1      36.579  31.696  31.158  1.00  0.00     0.338 C 
ATOM     36  O   UNL A   1      35.545  31.145  31.510  1.00  0.00    -0.246 OA
BRANCH  35  37
ATOM     37  C   UNL A   1      37.753  30.963  30.636  1.00  0.00     0.060 A 
ATOM     38  C   UNL A   1      38.610  30.339  31.553  1.00  0.00     0.016 A 
ATOM     39  C   UNL A   1      38.033  30.909  29.270  1.00  0.00     0.016 A 
ATOM     40  C   UNL A   1      39.754  29.671  31.109  1.00  0.00     0.010 A 
ATOM     41  C   UNL A   1      39.200  30.270  28.829  1.00  0.00     0.010 A 
ATOM     42  C   UNL A   1      40.079  29.668  29.747  1.00  0.00    -0.014 A 
BRANCH  42  43
ATOM     43  C   UNL A   1      41.428  29.222  29.307  1.00  0.00     0.031 A 
ATOM     44  C   UNL A   1      42.543  30.236  29.291  1.00  0.00     0.074 A 
ATOM     45  C   UNL A   1      41.679  27.952  28.939  1.00  0.00     0.049 A 
ATOM     46  N   UNL A   1      43.778  30.109  28.880  1.00  0.00    -0.248 NA
ATOM     47  C   UNL A   1      42.216  31.573  29.811  1.00  0.00     0.031 C 
ATOM     48  C   UNL A   1      40.715  26.856  28.974  1.00  0.00     0.029 A 
ATOM     49  N   UNL A   1      42.829  27.372  28.458  1.00  0.00    -0.354 N 
ATOM     50  C   UNL A   1      44.374  31.347  29.086  1.00  0.00     0.074 A 
ATOM     51  C   UNL A   1      43.360  32.218  29.642  1.00  0.00     0.031 C 
ATOM     52  C   UNL A   1      41.309  25.738  28.518  1.00  0.00     0.029 A 
ATOM     53  C   UNL A   1      42.682  26.047  28.122  1.00  0.00     0.049 A 
ATOM     54  H   UNL A   1      43.679  27.861  28.363  1.00  0.00     0.167 HD
ATOM     55  C   UNL A   1      45.649  31.728  28.833  1.00  0.00     0.037 A 
ATOM     56  C   UNL A   1      43.546  25.189  27.538  1.00  0.00     0.037 A 
ATOM     57  C   UNL A   1      46.654  30.867  28.266  1.00  0.00     0.049 A 
ATOM     58  C   UNL A   1      44.935  25.665  27.176  1.00  0.00     0.074 A 
ATOM     59  C   UNL A   1      47.972  31.168  27.968  1.00  0.00     0.029 A 
ATOM     60  N   UNL A   1      46.453  29.545  27.896  1.00  0.00    -0.354 N 
ATOM     61  N   UNL A   1      45.490  26.836  27.380  1.00  0.00    -0.248 NA
ATOM     62  C   UNL A   1      45.816  24.699  26.500  1.00  0.00     0.031 C 
ATOM     63  C   UNL A   1      48.552  30.047  27.367  1.00  0.00     0.029 A 
ATOM     64  C   UNL A   1      47.615  29.026  27.348  1.00  0.00     0.049 A 
ATOM     65  H   UNL A   1      45.610  29.050  28.008  1.00  0.00     0.167 HD
ATOM     66  C   UNL A   1      46.790  26.736  26.889  1.00  0.00     0.074 A 
ATOM     67  C   UNL A   1      46.943  25.388  26.387  1.00  0.00     0.031 C 
ATOM     68  C   UNL A   1      47.768  27.677  26.861  1.00  0.00     0.037 A 
BRANCH  55  69
ATOM     69  C   UNL A   1      46.018  33.154  29.129  1.00  0.00     0.058 A 
ATOM     70  C   UNL A   1      46.613  33.530  30.342  1.00  0.00     0.135 A 
ATOM     71  C   UNL A   1      45.803  34.155  28.167  1.00  0.00     0.135 A 
ATOM     72  F   UNL A   1      46.822  32.618  31.306  1.00  0.00    -0.206 F 
ATOM     73  C   UNL A   1      46.962  34.852  30.601  1.00  0.00     0.059 A 
ATOM     74  C   UNL A   1      46.171  35.477  28.393  1.00  0.00     0.059 A 
ATOM     75  F   UNL A   1      45.232  33.849  26.991  1.00  0.00    -0.206 F 
ATOM     76  C   UNL A   1      46.738  35.818  29.618  1.00  0.00     0.060 A 
BRANCH  76  77
ATOM     77  S   UNL A   1      47.206  37.527  29.967  1.00  0.00     0.124 S 
ATOM     78  O   UNL A   1      48.512  37.609  29.319  1.00  0.00    -0.237 OA
ATOM     79  O   UNL A   1      46.133  38.280  29.326  1.00  0.00    -0.237 OA
ATOM     80  O   UNL A   1      47.226  37.583  31.425  1.00  0.00    -0.744 OA
ENDBRANCH  76  77
ENDBRANCH  55  69
BRANCH  56  81
ATOM     81  C   UNL A   1      43.126  23.795  27.220  1.00  0.00     0.058 A 
ATOM     82  C   UNL A   1      43.035  22.815  28.220  1.00  0.00     0.135 A 
ATOM     83  C   UNL A   1      42.845  23.404  25.901  1.00  0.00     0.135 A 
ATOM     84  F   UNL A   1      43.315  23.127  29.494  1.00  0.00    -0.206 F 
ATOM     85  C   UNL A   1      42.702  21.496  27.923  1.00  0.00     0.059 A 
ATOM     86  C   UNL A   1      42.480  22.099  25.582  1.00  0.00     0.059 A 
ATOM     87  F   UNL A   1      42.921  24.298  24.903  1.00  0.00    -0.206 F 
ATOM     88  C   UNL A   1      42.425  21.148  26.599  1.00  0.00     0.060 A 
BRANCH  88  89
ATOM     89  S   UNL A   1      41.969  19.438  26.229  1.00  0.00     0.124 S 
ATOM     90  O   UNL A   1      40.513  19.515  26.229  1.00  0.00    -0.237 OA
ATOM     91  O   UNL A   1      42.596  19.228  24.928  1.00  0.00    -0.237 OA
ATOM     92  O   UNL A   1      42.561  18.686  27.332  1.00  0.00    -0.744 OA
ENDBRANCH  88  89
ENDBRANCH  56  81
BRANCH  68  93
ATOM     93  C   UNL A   1      49.115  27.279  26.314  1.00  0.00     0.058 A 
ATOM     94  C   UNL A   1      50.178  26.904  27.150  1.00  0.00     0.135 A 
ATOM     95  C   UNL A   1      49.322  27.208  24.926  1.00  0.00     0.135 A 
ATOM     96  F   UNL A   1      50.039  26.956  28.485  1.00  0.00    -0.206 F 
ATOM     97  C   UNL A   1      51.403  26.495  26.632  1.00  0.00     0.059 A 
ATOM     98  C   UNL A   1      50.528  26.772  24.385  1.00  0.00     0.059 A 
ATOM     99  F   UNL A   1      48.338  27.542  24.077  1.00  0.00    -0.206 F 
ATOM    100  C   UNL A   1      51.569  26.428  25.246  1.00  0.00     0.060 A 
BRANCH 100 101
ATOM    101  S   UNL A   1      53.151  25.858  24.587  1.00  0.00     0.124 S 
ATOM    102  O   UNL A   1      54.094  26.703  25.311  1.00  0.00    -0.237 OA
ATOM    103  O   UNL A   1      53.152  24.445  24.957  1.00  0.00    -0.237 OA
ATOM    104  O   UNL A   1      53.039  26.124  23.156  1.00  0.00    -0.744 OA
ENDBRANCH 100 101
ENDBRANCH  68  93
ENDBRANCH  42  43
ENDBRANCH  35  37
ENDBRANCH  34  35
ENDBRANCH  33  34
ENDBRANCH  32  33
ENDBRANCH  31  32
ENDBRANCH   1  31
TORSDOF 23
ENDMDL
MODEL 2
REMARK VINA RESULT:     -10.5      1.806      2.843
REMARK SMILES Cc1nn(C)c(C)c1[C@H](C)N1C(=O)CC[C@@H](C(=O)OCCOCCOCCOC(=O)c2ccc(-c3c4nc(c(-c5c(F)cc(S(=O)(=O)[O-])cc5F)c5ccc([nH]5)c(-c5c(F)cc(S(=O)(=O)[O-])cc5F)c5nc(c(-c6c(F)cc(S(=O)(=O)[O-])cc6F)c6ccc3[nH]6)C=C5)C=C4)cc2)[C@@H]1c1ccco1
REMARK SMILES IDX 24 1 23 2 22 3 21 4 20 5 19 6 17 7 18 8 16 9 11 10 12 11
REMARK SMILES IDX 97 12 13 13 14 14 15 15 9 16 10 17 8 18 1 19 2 20 3 21 4 22
REMARK SMILES IDX 6 23 5 24 7 25 98 26 99 27 102 28 100 29 101 30 25 31 26 32
REMARK SMILES IDX 27 33 28 34 29 35 30 36 31 37 32 38 96 39 33 40 95 41 34 42
REMARK SMILES IDX 35 43 36 44 89 45 37 46 94 47 88 48 90 49 38 50 93 51 87 52
REMARK SMILES IDX 86 53 39 55 73 56 52 57 72 58 53 59 56 60 71 61 91 62 54 63
REMARK SMILES IDX 55 64 70 66 92 67 57 68 40 69 41 70 50 71 42 72 43 73 49 74
REMARK SMILES IDX 51 75 44 76 45 77 46 78 47 79 48 80 74 81 75 82 84 83 76 84
REMARK SMILES IDX 77 85 83 86 85 87 78 88 79 89 80 90 81 91 82 92 58 93 59 94
REMARK SMILES IDX 68 95 60 96 61 97 67 98 69 99 62 100 63 101 64 102 65 103
REMARK SMILES IDX 66 104
REMARK H PARENT 90 54 56 65
REMARK Flexibility Score: inf
ROOT
ATOM      1  C   UNL A   1      33.364  34.075  27.991  1.00  0.00     0.188 C 
ENDROOT
BRANCH   1   2
ATOM      2  C   UNL A   1      34.115  32.735  27.957  1.00  0.00     0.188 C 
BRANCH   2   3
ATOM      3  O   UNL A   1      33.456  31.539  27.586  1.00  0.00    -0.376 OA
BRANCH   3   4
ATOM      4  C   UNL A   1      34.104  30.289  27.671  1.00  0.00     0.202 C 
BRANCH   4   5
ATOM      5  C   UNL A   1      33.767  29.155  26.696  1.00  0.00     0.261 C 
BRANCH   5   6
ATOM      6  O   UNL A   1      33.244  27.930  27.253  1.00  0.00    -0.463 OA
BRANCH   6   7
ATOM      7  C   UNL A   1      31.943  27.697  26.925  1.00  0.00     0.311 C 
ATOM      8  O   UNL A   1      31.052  27.728  27.762  1.00  0.00    -0.252 OA
BRANCH   7   9
ATOM      9  C   UNL A   1      31.729  27.371  25.442  1.00  0.00     0.130 C 
ATOM     10  N   UNL A   1      32.269  24.966  25.851  1.00  0.00    -0.325 N 
ATOM     11  C   UNL A   1      30.948  24.780  26.255  1.00  0.00     0.223 C 
ATOM     12  C   UNL A   1      32.638  26.177  25.091  1.00  0.00     0.166 C 
ATOM     13  O   UNL A   1      30.598  23.938  27.084  1.00  0.00    -0.275 OA
ATOM     14  C   UNL A   1      29.870  25.684  25.681  1.00  0.00     0.101 C 
ATOM     15  C   UNL A   1      30.313  26.983  25.036  1.00  0.00     0.028 C 
BRANCH  10  16
ATOM     16  C   UNL A   1      33.313  24.080  26.458  1.00  0.00     0.117 C 
ATOM     17  C   UNL A   1      32.732  23.239  27.603  1.00  0.00     0.036 C 
BRANCH  16  18
ATOM     18  C   UNL A   1      34.071  23.261  25.412  1.00  0.00     0.018 A 
ATOM     19  C   UNL A   1      32.304  21.560  24.362  1.00  0.00     0.069 C 
ATOM     20  C   UNL A   1      33.609  22.259  24.494  1.00  0.00     0.065 A 
ATOM     21  N   UNL A   1      34.562  21.911  23.620  1.00  0.00    -0.178 NA
ATOM     22  N   UNL A   1      35.631  22.620  23.986  1.00  0.00    -0.272 N 
ATOM     23  C   UNL A   1      35.442  23.335  25.135  1.00  0.00     0.040 A 
ATOM     24  C   UNL A   1      36.783  22.617  23.117  1.00  0.00     0.174 C 
ATOM     25  C   UNL A   1      36.549  24.083  25.787  1.00  0.00     0.067 C 
ENDBRANCH  16  18
ENDBRANCH  10  16
BRANCH  12  26
ATOM     26  C   UNL A   1      32.670  25.903  23.615  1.00  0.00     0.127 A 
ATOM     27  C   UNL A   1      32.221  24.839  22.856  1.00  0.00     0.048 A 
ATOM     28  O   UNL A   1      33.266  26.824  22.803  1.00  0.00    -0.467 OA
ATOM     29  C   UNL A   1      32.560  25.130  21.514  1.00  0.00     0.042 A 
ATOM     30  C   UNL A   1      33.183  26.355  21.535  1.00  0.00     0.195 A 
ENDBRANCH  12  26
ENDBRANCH   7   9
ENDBRANCH   6   7
ENDBRANCH   5   6
ENDBRANCH   4   5
ENDBRANCH   3   4
ENDBRANCH   2   3
ENDBRANCH   1   2
BRANCH   1  31
ATOM     31  O   UNL A   1      32.648  34.528  29.118  1.00  0.00    -0.376 OA
BRANCH  31  32
ATOM     32  C   UNL A   1      33.282  35.282  30.124  1.00  0.00     0.202 C 
BRANCH  32  33
ATOM     33  C   UNL A   1      34.016  34.627  31.301  1.00  0.00     0.261 C 
BRANCH  33  34
ATOM     34  O   UNL A   1      34.365  33.247  31.155  1.00  0.00    -0.460 OA
BRANCH  34  35
ATOM     35  C   UNL A   1      35.088  32.716  32.173  1.00  0.00     0.338 C 
ATOM     36  O   UNL A   1      34.757  32.662  33.350  1.00  0.00    -0.246 OA
BRANCH  35  37
ATOM     37  C   UNL A   1      36.277  32.022  31.631  1.00  0.00     0.060 A 
ATOM     38  C   UNL A   1      37.057  31.256  32.507  1.00  0.00     0.016 A 
ATOM     39  C   UNL A   1      36.644  32.141  30.290  1.00  0.00     0.016 A 
ATOM     40  C   UNL A   1      38.212  30.617  32.049  1.00  0.00     0.010 A 
ATOM     41  C   UNL A   1      37.822  31.530  29.840  1.00  0.00     0.010 A 
ATOM     42  C   UNL A   1      38.625  30.784  30.721  1.00  0.00    -0.014 A 
BRANCH  42  43
ATOM     43  C   UNL A   1      39.990  30.359  30.310  1.00  0.00     0.031 A 
ATOM     44  C   UNL A   1      41.107  31.365  30.399  1.00  0.00     0.074 A 
ATOM     45  C   UNL A   1      40.251  29.111  29.877  1.00  0.00     0.049 A 
ATOM     46  N   UNL A   1      42.358  31.257  30.031  1.00  0.00    -0.248 NA
ATOM     47  C   UNL A   1      40.763  32.671  30.985  1.00  0.00     0.031 C 
ATOM     48  C   UNL A   1      39.284  28.020  29.807  1.00  0.00     0.029 A 
ATOM     49  N   UNL A   1      41.419  28.555  29.408  1.00  0.00    -0.354 N 
ATOM     50  C   UNL A   1      42.948  32.477  30.335  1.00  0.00     0.074 A 
ATOM     51  C   UNL A   1      41.915  33.319  30.900  1.00  0.00     0.031 C 
ATOM     52  C   UNL A   1      39.893  26.928  29.309  1.00  0.00     0.029 A 
ATOM     53  C   UNL A   1      41.282  27.253  28.988  1.00  0.00     0.049 A 
ATOM     54  H   UNL A   1      42.273  29.044  29.376  1.00  0.00     0.167 HD
ATOM     55  C   UNL A   1      44.233  32.866  30.156  1.00  0.00     0.037 A 
ATOM     56  C   UNL A   1      42.166  26.428  28.389  1.00  0.00     0.037 A 
ATOM     57  C   UNL A   1      45.258  32.035  29.579  1.00  0.00     0.049 A 
ATOM     58  C   UNL A   1      43.569  26.917  28.111  1.00  0.00     0.074 A 
ATOM     59  C   UNL A   1      46.588  32.346  29.352  1.00  0.00     0.029 A 
ATOM     60  N   UNL A   1      45.069  30.739  29.122  1.00  0.00    -0.354 N 
ATOM     61  N   UNL A   1      44.119  28.071  28.407  1.00  0.00    -0.248 NA
ATOM     62  C   UNL A   1      44.474  25.988  27.414  1.00  0.00     0.031 C 
ATOM     63  C   UNL A   1      47.188  31.261  28.709  1.00  0.00     0.029 A 
ATOM     64  C   UNL A   1      46.250  30.247  28.592  1.00  0.00     0.049 A 
ATOM     65  H   UNL A   1      44.220  30.242  29.171  1.00  0.00     0.167 HD
ATOM     66  C   UNL A   1      45.438  27.993  27.964  1.00  0.00     0.074 A 
ATOM     67  C   UNL A   1      45.607  26.677  27.388  1.00  0.00     0.031 C 
ATOM     68  C   UNL A   1      46.418  28.929  28.031  1.00  0.00     0.037 A 
BRANCH  55  69
ATOM     69  C   UNL A   1      44.594  34.270  30.552  1.00  0.00     0.058 A 
ATOM     70  C   UNL A   1      44.491  35.344  29.656  1.00  0.00     0.135 A 
ATOM     71  C   UNL A   1      45.018  34.548  31.862  1.00  0.00     0.135 A 
ATOM     72  F   UNL A   1      44.111  35.132  28.385  1.00  0.00    -0.206 F 
ATOM     73  C   UNL A   1      44.816  36.642  30.037  1.00  0.00     0.059 A 
ATOM     74  C   UNL A   1      45.320  35.841  32.274  1.00  0.00     0.059 A 
ATOM     75  F   UNL A   1      45.140  33.555  32.758  1.00  0.00    -0.206 F 
ATOM     76  C   UNL A   1      45.228  36.880  31.350  1.00  0.00     0.060 A 
BRANCH  76  77
ATOM     77  S   UNL A   1      45.637  38.572  31.832  1.00  0.00     0.124 S 
ATOM     78  O   UNL A   1      47.093  38.510  31.905  1.00  0.00    -0.237 OA
ATOM     79  O   UNL A   1      45.090  39.350  30.725  1.00  0.00    -0.237 OA
ATOM     80  O   UNL A   1      44.952  38.737  33.110  1.00  0.00    -0.744 OA
ENDBRANCH  76  77
ENDBRANCH  55  69
BRANCH  56  81
ATOM     81  C   UNL A   1      41.755  25.057  27.971  1.00  0.00     0.058 A 
ATOM     82  C   UNL A   1      42.133  23.925  28.710  1.00  0.00     0.135 A 
ATOM     83  C   UNL A   1      41.008  24.847  26.800  1.00  0.00     0.135 A 
ATOM     84  F   UNL A   1      42.867  24.065  29.824  1.00  0.00    -0.206 F 
ATOM     85  C   UNL A   1      41.805  22.637  28.294  1.00  0.00     0.059 A 
ATOM     86  C   UNL A   1      40.642  23.572  26.380  1.00  0.00     0.059 A 
ATOM     87  F   UNL A   1      40.624  25.893  26.051  1.00  0.00    -0.206 F 
ATOM     88  C   UNL A   1      41.057  22.471  27.126  1.00  0.00     0.060 A 
BRANCH  88  89
ATOM     89  S   UNL A   1      40.615  20.797  26.610  1.00  0.00     0.124 S 
ATOM     90  O   UNL A   1      41.642  20.515  25.614  1.00  0.00    -0.237 OA
ATOM     91  O   UNL A   1      40.719  20.052  27.861  1.00  0.00    -0.237 OA
ATOM     92  O   UNL A   1      39.259  20.951  26.091  1.00  0.00    -0.744 OA
ENDBRANCH  88  89
ENDBRANCH  56  81
BRANCH  68  93
ATOM     93  C   UNL A   1      47.786  28.558  27.515  1.00  0.00     0.058 A 
ATOM     94  C   UNL A   1      48.837  28.208  28.376  1.00  0.00     0.135 A 
ATOM     95  C   UNL A   1      48.025  28.486  26.132  1.00  0.00     0.135 A 
ATOM     96  F   UNL A   1      48.668  28.262  29.707  1.00  0.00    -0.206 F 
ATOM     97  C   UNL A   1      50.082  27.823  27.887  1.00  0.00     0.059 A 
ATOM     98  C   UNL A   1      49.251  28.073  25.620  1.00  0.00     0.059 A 
ATOM     99  F   UNL A   1      47.052  28.795  25.260  1.00  0.00    -0.206 F 
ATOM    100  C   UNL A   1      50.279  27.754  26.505  1.00  0.00     0.060 A 
BRANCH 100 101
ATOM    101  S   UNL A   1      51.887  27.215  25.884  1.00  0.00     0.124 S 
ATOM    102  O   UNL A   1      51.547  25.950  25.242  1.00  0.00    -0.237 OA
ATOM    103  O   UNL A   1      52.256  28.305  24.984  1.00  0.00    -0.237 OA
ATOM    104  O   UNL A   1      52.700  27.107  27.092  1.00  0.00    -0.744 OA
ENDBRANCH 100 101
ENDBRANCH  68  93
ENDBRANCH  42  43
ENDBRANCH  35  37
ENDBRANCH  34  35
ENDBRANCH  33  34
ENDBRANCH  32  33
ENDBRANCH  31  32
ENDBRANCH   1  31
TORSDOF 23
ENDMDL
MODEL 3
REMARK VINA RESULT:     -10.4      0.727      7.855
REMARK SMILES Cc1nn(C)c(C)c1[C@H](C)N1C(=O)CC[C@@H](C(=O)OCCOCCOCCOC(=O)c2ccc(-c3c4nc(c(-c5c(F)cc(S(=O)(=O)[O-])cc5F)c5ccc([nH]5)c(-c5c(F)cc(S(=O)(=O)[O-])cc5F)c5nc(c(-c6c(F)cc(S(=O)(=O)[O-])cc6F)c6ccc3[nH]6)C=C5)C=C4)cc2)[C@@H]1c1ccco1
REMARK SMILES IDX 24 1 23 2 22 3 21 4 20 5 19 6 17 7 18 8 16 9 11 10 12 11
REMARK SMILES IDX 97 12 13 13 14 14 15 15 9 16 10 17 8 18 1 19 2 20 3 21 4 22
REMARK SMILES IDX 6 23 5 24 7 25 98 26 99 27 102 28 100 29 101 30 25 31 26 32
REMARK SMILES IDX 27 33 28 34 29 35 30 36 31 37 32 38 96 39 33 40 95 41 34 42
REMARK SMILES IDX 35 43 36 44 89 45 37 46 94 47 88 48 90 49 38 50 93 51 87 52
REMARK SMILES IDX 86 53 39 55 73 56 52 57 72 58 53 59 56 60 71 61 91 62 54 63
REMARK SMILES IDX 55 64 70 66 92 67 57 68 40 69 41 70 50 71 42 72 43 73 49 74
REMARK SMILES IDX 51 75 44 76 45 77 46 78 47 79 48 80 74 81 75 82 84 83 76 84
REMARK SMILES IDX 77 85 83 86 85 87 78 88 79 89 80 90 81 91 82 92 58 93 59 94
REMARK SMILES IDX 68 95 60 96 61 97 67 98 69 99 62 100 63 101 64 102 65 103
REMARK SMILES IDX 66 104
REMARK H PARENT 90 54 56 65
REMARK Flexibility Score: inf
ROOT
ATOM      1  C   UNL A   1      34.762  32.817  28.686  1.00  0.00     0.188 C 
ENDROOT
BRANCH   1   2
ATOM      2  C   UNL A   1      34.860  31.492  27.914  1.00  0.00     0.188 C 
BRANCH   2   3
ATOM      3  O   UNL A   1      33.797  30.559  27.927  1.00  0.00    -0.376 OA
BRANCH   3   4
ATOM      4  C   UNL A   1      33.922  29.299  27.306  1.00  0.00     0.202 C 
BRANCH   4   5
ATOM      5  C   UNL A   1      32.740  28.324  27.250  1.00  0.00     0.261 C 
BRANCH   5   6
ATOM      6  O   UNL A   1      32.952  27.054  26.597  1.00  0.00    -0.463 OA
BRANCH   6   7
ATOM      7  C   UNL A   1      32.851  27.117  25.241  1.00  0.00     0.311 C 
ATOM      8  O   UNL A   1      31.914  27.676  24.690  1.00  0.00    -0.252 OA
BRANCH   7   9
ATOM      9  C   UNL A   1      33.991  26.406  24.503  1.00  0.00     0.130 C 
ATOM     10  N   UNL A   1      32.671  24.286  24.421  1.00  0.00    -0.325 N 
ATOM     11  C   UNL A   1      32.023  24.781  23.291  1.00  0.00     0.223 C 
ATOM     12  C   UNL A   1      33.928  24.912  24.877  1.00  0.00     0.166 C 
ATOM     13  O   UNL A   1      30.867  24.487  22.981  1.00  0.00    -0.275 OA
ATOM     14  C   UNL A   1      32.754  25.771  22.399  1.00  0.00     0.101 C 
ATOM     15  C   UNL A   1      33.960  26.483  22.983  1.00  0.00     0.028 C 
BRANCH  10  16
ATOM     16  C   UNL A   1      31.912  23.336  25.298  1.00  0.00     0.117 C 
ATOM     17  C   UNL A   1      30.405  23.401  25.015  1.00  0.00     0.036 C 
BRANCH  16  18
ATOM     18  C   UNL A   1      32.488  21.920  25.266  1.00  0.00     0.018 A 
ATOM     19  C   UNL A   1      33.835  21.604  27.547  1.00  0.00     0.069 C 
ATOM     20  C   UNL A   1      33.231  21.190  26.254  1.00  0.00     0.065 A 
ATOM     21  N   UNL A   1      33.397  19.909  25.902  1.00  0.00    -0.178 NA
ATOM     22  N   UNL A   1      32.829  19.813  24.698  1.00  0.00    -0.272 N 
ATOM     23  C   UNL A   1      32.398  21.012  24.204  1.00  0.00     0.040 A 
ATOM     24  C   UNL A   1      32.668  18.500  24.121  1.00  0.00     0.174 C 
ATOM     25  C   UNL A   1      31.861  21.146  22.824  1.00  0.00     0.067 C 
ENDBRANCH  16  18
ENDBRANCH  10  16
BRANCH  12  26
ATOM     26  C   UNL A   1      35.124  24.152  24.380  1.00  0.00     0.127 A 
ATOM     27  C   UNL A   1      35.310  23.314  23.296  1.00  0.00     0.048 A 
ATOM     28  O   UNL A   1      36.281  24.230  25.099  1.00  0.00    -0.467 OA
ATOM     29  C   UNL A   1      36.649  22.864  23.359  1.00  0.00     0.042 A 
ATOM     30  C   UNL A   1      37.200  23.461  24.468  1.00  0.00     0.195 A 
ENDBRANCH  12  26
ENDBRANCH   7   9
ENDBRANCH   6   7
ENDBRANCH   5   6
ENDBRANCH   4   5
ENDBRANCH   3   4
ENDBRANCH   2   3
ENDBRANCH   1   2
BRANCH   1  31
ATOM     31  O   UNL A   1      34.506  32.884  30.071  1.00  0.00    -0.376 OA
BRANCH  31  32
ATOM     32  C   UNL A   1      35.310  33.671  30.919  1.00  0.00     0.202 C 
BRANCH  32  33
ATOM     33  C   UNL A   1      36.188  33.058  32.017  1.00  0.00     0.261 C 
BRANCH  33  34
ATOM     34  O   UNL A   1      37.350  32.340  31.588  1.00  0.00    -0.460 OA
BRANCH  34  35
ATOM     35  C   UNL A   1      37.194  30.997  31.468  1.00  0.00     0.338 C 
ATOM     36  O   UNL A   1      36.184  30.356  31.721  1.00  0.00    -0.246 OA
BRANCH  35  37
ATOM     37  C   UNL A   1      38.376  30.417  30.791  1.00  0.00     0.060 A 
ATOM     38  C   UNL A   1      39.452  29.990  31.581  1.00  0.00     0.016 A 
ATOM     39  C   UNL A   1      38.446  30.320  29.401  1.00  0.00     0.016 A 
ATOM     40  C   UNL A   1      40.605  29.476  30.983  1.00  0.00     0.010 A 
ATOM     41  C   UNL A   1      39.618  29.837  28.802  1.00  0.00     0.010 A 
ATOM     42  C   UNL A   1      40.712  29.435  29.587  1.00  0.00    -0.014 A 
BRANCH  42  43
ATOM     43  C   UNL A   1      42.031  29.171  28.952  1.00  0.00     0.031 A 
ATOM     44  C   UNL A   1      42.316  27.779  28.452  1.00  0.00     0.074 A 
ATOM     45  C   UNL A   1      42.961  30.134  28.805  1.00  0.00     0.049 A 
ATOM     46  N   UNL A   1      43.412  27.287  27.934  1.00  0.00    -0.248 NA
ATOM     47  C   UNL A   1      41.210  26.812  28.550  1.00  0.00     0.031 C 
ATOM     48  C   UNL A   1      42.793  31.535  29.179  1.00  0.00     0.029 A 
ATOM     49  N   UNL A   1      44.239  30.071  28.302  1.00  0.00    -0.354 N 
ATOM     50  C   UNL A   1      43.131  25.957  27.649  1.00  0.00     0.074 A 
ATOM     51  C   UNL A   1      41.768  25.712  28.068  1.00  0.00     0.031 C 
ATOM     52  C   UNL A   1      43.931  32.199  28.906  1.00  0.00     0.029 A 
ATOM     53  C   UNL A   1      44.922  31.262  28.377  1.00  0.00     0.049 A 
ATOM     54  H   UNL A   1      44.629  29.250  27.924  1.00  0.00     0.167 HD
ATOM     55  C   UNL A   1      43.937  25.021  27.092  1.00  0.00     0.037 A 
ATOM     56  C   UNL A   1      46.205  31.557  28.077  1.00  0.00     0.037 A 
ATOM     57  C   UNL A   1      45.298  25.259  26.689  1.00  0.00     0.049 A 
ATOM     58  C   UNL A   1      47.113  30.472  27.546  1.00  0.00     0.074 A 
ATOM     59  C   UNL A   1      46.192  24.368  26.121  1.00  0.00     0.029 A 
ATOM     60  N   UNL A   1      45.968  26.466  26.823  1.00  0.00    -0.354 N 
ATOM     61  N   UNL A   1      46.837  29.218  27.276  1.00  0.00    -0.248 NA
ATOM     62  C   UNL A   1      48.513  30.843  27.282  1.00  0.00     0.031 C 
ATOM     63  C   UNL A   1      47.419  25.020  25.964  1.00  0.00     0.029 A 
ATOM     64  C   UNL A   1      47.272  26.335  26.374  1.00  0.00     0.049 A 
ATOM     65  H   UNL A   1      45.574  27.293  27.184  1.00  0.00     0.167 HD
ATOM     66  C   UNL A   1      48.015  28.663  26.780  1.00  0.00     0.074 A 
ATOM     67  C   UNL A   1      49.005  29.718  26.779  1.00  0.00     0.031 C 
ATOM     68  C   UNL A   1      48.251  27.394  26.362  1.00  0.00     0.037 A 
BRANCH  55  69
ATOM     69  C   UNL A   1      43.376  23.636  26.924  1.00  0.00     0.058 A 
ATOM     70  C   UNL A   1      42.972  23.145  25.674  1.00  0.00     0.135 A 
ATOM     71  C   UNL A   1      43.276  22.775  28.030  1.00  0.00     0.135 A 
ATOM     72  F   UNL A   1      43.026  23.933  24.587  1.00  0.00    -0.206 F 
ATOM     73  C   UNL A   1      42.466  21.857  25.528  1.00  0.00     0.059 A 
ATOM     74  C   UNL A   1      42.801  21.475  27.903  1.00  0.00     0.059 A 
ATOM     75  F   UNL A   1      43.644  23.197  29.250  1.00  0.00    -0.206 F 
ATOM     76  C   UNL A   1      42.387  21.029  26.650  1.00  0.00     0.060 A 
BRANCH  76  77
ATOM     77  S   UNL A   1      41.737  19.357  26.442  1.00  0.00     0.124 S 
ATOM     78  O   UNL A   1      41.997  18.778  27.756  1.00  0.00    -0.237 OA
ATOM     79  O   UNL A   1      40.335  19.605  26.124  1.00  0.00    -0.237 OA
ATOM     80  O   UNL A   1      42.539  18.814  25.349  1.00  0.00    -0.744 OA
ENDBRANCH  76  77
ENDBRANCH  55  69
BRANCH  56  81
ATOM     81  C   UNL A   1      46.734  32.933  28.300  1.00  0.00     0.058 A 
ATOM     82  C   UNL A   1      47.262  33.319  29.543  1.00  0.00     0.135 A 
ATOM     83  C   UNL A   1      46.686  33.904  27.287  1.00  0.00     0.135 A 
ATOM     84  F   UNL A   1      47.310  32.438  30.553  1.00  0.00    -0.206 F 
ATOM     85  C   UNL A   1      47.702  34.618  29.778  1.00  0.00     0.059 A 
ATOM     86  C   UNL A   1      47.148  35.201  27.489  1.00  0.00     0.059 A 
ATOM     87  F   UNL A   1      46.186  33.593  26.081  1.00  0.00    -0.206 F 
ATOM     88  C   UNL A   1      47.642  35.554  28.743  1.00  0.00     0.060 A 
BRANCH  88  89
ATOM     89  S   UNL A   1      48.240  37.230  29.053  1.00  0.00     0.124 S 
ATOM     90  O   UNL A   1      47.131  38.036  28.556  1.00  0.00    -0.237 OA
ATOM     91  O   UNL A   1      48.427  37.227  30.500  1.00  0.00    -0.237 OA
ATOM     92  O   UNL A   1      49.470  37.300  28.269  1.00  0.00    -0.744 OA
ENDBRANCH  88  89
ENDBRANCH  56  81
BRANCH  68  93
ATOM     93  C   UNL A   1      49.621  27.073  25.817  1.00  0.00     0.058 A 
ATOM     94  C   UNL A   1      49.942  27.242  24.462  1.00  0.00     0.135 A 
ATOM     95  C   UNL A   1      50.646  26.655  26.683  1.00  0.00     0.135 A 
ATOM     96  F   UNL A   1      49.001  27.637  23.588  1.00  0.00    -0.206 F 
ATOM     97  C   UNL A   1      51.222  26.987  23.979  1.00  0.00     0.059 A 
ATOM     98  C   UNL A   1      51.941  26.424  26.228  1.00  0.00     0.059 A 
ATOM     99  F   UNL A   1      50.401  26.490  27.992  1.00  0.00    -0.206 F 
ATOM    100  C   UNL A   1      52.218  26.581  24.871  1.00  0.00     0.060 A 
BRANCH 100 101
ATOM    101  S   UNL A   1      53.885  26.291  24.238  1.00  0.00     0.124 S 
ATOM    102  O   UNL A   1      54.566  27.523  24.623  1.00  0.00    -0.237 OA
ATOM    103  O   UNL A   1      54.289  25.089  24.963  1.00  0.00    -0.237 OA
ATOM    104  O   UNL A   1      53.677  26.110  22.804  1.00  0.00    -0.744 OA
ENDBRANCH 100 101
ENDBRANCH  68  93
ENDBRANCH  42  43
ENDBRANCH  35  37
ENDBRANCH  34  35
ENDBRANCH  33  34
ENDBRANCH  32  33
ENDBRANCH  31  32
ENDBRANCH   1  31
TORSDOF 23
ENDMDL
