MODEL 1
REMARK VINA RESULT:      -8.6      0.000      0.000
REMARK SMILES [NH3+]CCOCC(=O)N[C@H](C(=O)OCCOCCOCCOC(=O)c1ccc(-c2c3nc(c(-c4c(F)cc(S(=O)(=O)[O-])cc4F)c4ccc([nH]4)c(-c4c(F)cc(S(=O)(=O)[O-])cc4F)c4nc(c(-c5c(F)cc(S(=O)(=O)[O-])cc5F)c5ccc2[nH]5)C=C4)C=C3)cc1)C1CCCCC1
REMARK SMILES IDX 15 1 14 2 13 3 12 4 10 5 11 6 9 7 8 8 6 9 7 10 5 12 4 13
REMARK SMILES IDX 3 14 2 15 1 16 90 20 91 21 95 22 92 23 94 24 93 25 16 26
REMARK SMILES IDX 17 27 18 28 19 29 20 30 21 31 22 32 23 33 24 34 25 35 89 36
REMARK SMILES IDX 26 37 88 38 27 39 28 40 29 41 82 42 30 43 87 44 81 45 83 46
REMARK SMILES IDX 31 47 86 48 80 49 79 50 32 52 66 53 45 54 65 55 46 56 49 57
REMARK SMILES IDX 64 58 84 59 47 60 48 61 63 63 85 64 50 65 33 66 34 67 43 68
REMARK SMILES IDX 35 69 36 70 42 71 44 72 37 73 38 74 39 75 40 76 41 77 67 78
REMARK SMILES IDX 68 79 77 80 69 81 70 82 76 83 78 84 71 85 72 86 73 87 74 88
REMARK SMILES IDX 75 89 51 90 52 91 61 92 53 93 54 94 60 95 62 96 55 97 56 98
REMARK SMILES IDX 57 99 58 100 59 101
REMARK H PARENT 8 11 1 17 1 18 1 19 83 51 49 62
REMARK Flexibility Score: inf
ROOT
ATOM      1  O   UNL A   1      34.454  31.562  27.648  1.00  0.00    -0.376 OA
ENDROOT
BRANCH   1   2
ATOM      2  C   UNL A   1      34.797  30.212  27.921  1.00  0.00     0.202 C 
BRANCH   2   3
ATOM      3  C   UNL A   1      34.702  29.063  26.908  1.00  0.00     0.261 C 
BRANCH   3   4
ATOM      4  O   UNL A   1      33.450  28.927  26.230  1.00  0.00    -0.462 OA
BRANCH   4   5
ATOM      5  C   UNL A   1      33.476  28.198  25.082  1.00  0.00     0.329 C 
ATOM      6  O   UNL A   1      34.323  28.314  24.205  1.00  0.00    -0.250 OA
BRANCH   5   7
ATOM      7  C   UNL A   1      32.345  27.147  25.060  1.00  0.00     0.195 C 
BRANCH   7   8
ATOM      8  N   UNL A   1      31.646  26.867  23.800  1.00  0.00    -0.340 N 
ATOM      9  C   UNL A   1      31.241  27.640  22.761  1.00  0.00     0.246 C 
ATOM     10  O   UNL A   1      30.875  27.064  21.730  1.00  0.00    -0.272 OA
ATOM     11  H   UNL A   1      31.424  25.915  23.685  1.00  0.00     0.164 HD
BRANCH   9  12
ATOM     12  C   UNL A   1      31.116  29.164  22.874  1.00  0.00     0.260 C 
BRANCH  12  13
ATOM     13  O   UNL A   1      29.869  29.761  23.195  1.00  0.00    -0.366 OA
BRANCH  13  14
ATOM     14  C   UNL A   1      28.781  29.477  22.308  1.00  0.00     0.222 C 
BRANCH  14  15
ATOM     15  C   UNL A   1      27.440  29.651  23.030  1.00  0.00     0.287 C 
BRANCH  15  16
ATOM     16  N   UNL A   1      26.712  28.382  23.150  1.00  0.00    -0.356 N 
ATOM     17  H   UNL A   1      26.174  28.217  22.300  1.00  0.00     0.344 HD
ATOM     18  H   UNL A   1      26.080  28.429  23.949  1.00  0.00     0.344 HD
ATOM     19  H   UNL A   1      27.376  27.621  23.286  1.00  0.00     0.344 HD
ENDBRANCH  15  16
ENDBRANCH  14  15
ENDBRANCH  13  14
ENDBRANCH  12  13
ENDBRANCH   9  12
ENDBRANCH   7   8
BRANCH   7  20
ATOM     20  C   UNL A   1      32.763  25.893  25.884  1.00  0.00     0.023 C 
ATOM     21  C   UNL A   1      31.520  24.987  26.086  1.00  0.00     0.006 C 
ATOM     22  C   UNL A   1      33.890  25.046  25.278  1.00  0.00     0.006 C 
ATOM     23  C   UNL A   1      31.820  23.793  26.982  1.00  0.00     0.000 C 
ATOM     24  C   UNL A   1      34.226  23.869  26.197  1.00  0.00     0.000 C 
ATOM     25  C   UNL A   1      33.010  22.988  26.474  1.00  0.00     0.000 C 
ENDBRANCH   7  20
ENDBRANCH   5   7
ENDBRANCH   4   5
ENDBRANCH   3   4
ENDBRANCH   2   3
ENDBRANCH   1   2
BRANCH   1  26
ATOM     26  C   UNL A   1      34.588  32.552  28.642  1.00  0.00     0.188 C 
BRANCH  26  27
ATOM     27  C   UNL A   1      34.283  34.012  28.234  1.00  0.00     0.188 C 
BRANCH  27  28
ATOM     28  O   UNL A   1      33.181  34.705  28.781  1.00  0.00    -0.376 OA
BRANCH  28  29
ATOM     29  C   UNL A   1      33.301  36.085  29.084  1.00  0.00     0.202 C 
BRANCH  29  30
ATOM     30  C   UNL A   1      32.677  36.736  30.335  1.00  0.00     0.261 C 
BRANCH  30  31
ATOM     31  O   UNL A   1      33.383  36.564  31.570  1.00  0.00    -0.460 OA
BRANCH  31  32
ATOM     32  C   UNL A   1      33.115  35.415  32.240  1.00  0.00     0.338 C 
ATOM     33  O   UNL A   1      32.014  34.939  32.469  1.00  0.00    -0.246 OA
BRANCH  32  34
ATOM     34  C   UNL A   1      34.374  34.671  32.446  1.00  0.00     0.060 A 
ATOM     35  C   UNL A   1      34.313  33.426  33.092  1.00  0.00     0.016 A 
ATOM     36  C   UNL A   1      35.596  35.180  32.006  1.00  0.00     0.016 A 
ATOM     37  C   UNL A   1      35.478  32.697  33.322  1.00  0.00     0.010 A 
ATOM     38  C   UNL A   1      36.768  34.464  32.267  1.00  0.00     0.010 A 
ATOM     39  C   UNL A   1      36.716  33.237  32.956  1.00  0.00    -0.014 A 
BRANCH  39  40
ATOM     40  C   UNL A   1      37.957  32.637  33.500  1.00  0.00     0.031 A 
ATOM     41  C   UNL A   1      38.601  31.523  32.718  1.00  0.00     0.074 A 
ATOM     42  C   UNL A   1      38.517  33.081  34.639  1.00  0.00     0.049 A 
ATOM     43  N   UNL A   1      39.661  30.813  33.000  1.00  0.00    -0.248 NA
ATOM     44  C   UNL A   1      37.956  31.163  31.443  1.00  0.00     0.031 C 
ATOM     45  C   UNL A   1      38.013  34.181  35.460  1.00  0.00     0.029 A 
ATOM     46  N   UNL A   1      39.636  32.647  35.307  1.00  0.00    -0.354 N 
ATOM     47  C   UNL A   1      39.807  29.919  31.944  1.00  0.00     0.074 A 
ATOM     48  C   UNL A   1      38.709  30.154  31.033  1.00  0.00     0.031 C 
ATOM     49  C   UNL A   1      38.812  34.324  36.533  1.00  0.00     0.029 A 
ATOM     50  C   UNL A   1      39.863  33.310  36.491  1.00  0.00     0.049 A 
ATOM     51  H   UNL A   1      40.220  31.931  34.970  1.00  0.00     0.167 HD
ATOM     52  C   UNL A   1      40.772  28.991  31.749  1.00  0.00     0.037 A 
ATOM     53  C   UNL A   1      40.800  33.099  37.438  1.00  0.00     0.037 A 
ATOM     54  C   UNL A   1      41.857  28.756  32.665  1.00  0.00     0.049 A 
ATOM     55  C   UNL A   1      41.824  32.009  37.235  1.00  0.00     0.074 A 
ATOM     56  C   UNL A   1      42.893  27.847  32.555  1.00  0.00     0.029 A 
ATOM     57  N   UNL A   1      42.039  29.427  33.866  1.00  0.00    -0.354 N 
ATOM     58  N   UNL A   1      41.966  31.185  36.222  1.00  0.00    -0.248 NA
ATOM     59  C   UNL A   1      42.819  31.822  38.300  1.00  0.00     0.031 C 
ATOM     60  C   UNL A   1      43.671  27.930  33.715  1.00  0.00     0.029 A 
ATOM     61  C   UNL A   1      43.156  28.935  34.519  1.00  0.00     0.049 A 
ATOM     62  H   UNL A   1      41.458  30.148  34.204  1.00  0.00     0.167 HD
ATOM     63  C   UNL A   1      43.085  30.409  36.514  1.00  0.00     0.074 A 
ATOM     64  C   UNL A   1      43.586  30.868  37.793  1.00  0.00     0.031 C 
ATOM     65  C   UNL A   1      43.648  29.409  35.789  1.00  0.00     0.037 A 
BRANCH  52  66
ATOM     66  C   UNL A   1      40.678  28.140  30.513  1.00  0.00     0.058 A 
ATOM     67  C   UNL A   1      39.666  27.180  30.348  1.00  0.00     0.135 A 
ATOM     68  C   UNL A   1      41.601  28.303  29.467  1.00  0.00     0.135 A 
ATOM     69  F   UNL A   1      38.771  26.965  31.326  1.00  0.00    -0.206 F 
ATOM     70  C   UNL A   1      39.588  26.395  29.202  1.00  0.00     0.059 A 
ATOM     71  C   UNL A   1      41.523  27.551  28.300  1.00  0.00     0.059 A 
ATOM     72  F   UNL A   1      42.592  29.201  29.575  1.00  0.00    -0.206 F 
ATOM     73  C   UNL A   1      40.521  26.589  28.183  1.00  0.00     0.060 A 
BRANCH  73  74
ATOM     74  S   UNL A   1      40.400  25.568  26.698  1.00  0.00     0.124 S 
ATOM     75  O   UNL A   1      40.767  26.524  25.658  1.00  0.00    -0.237 OA
ATOM     76  O   UNL A   1      41.375  24.516  26.964  1.00  0.00    -0.237 OA
ATOM     77  O   UNL A   1      39.004  25.140  26.692  1.00  0.00    -0.744 OA
ENDBRANCH  73  74
ENDBRANCH  52  66
BRANCH  53  78
ATOM     78  C   UNL A   1      40.812  33.929  38.674  1.00  0.00     0.058 A 
ATOM     79  C   UNL A   1      41.618  35.072  38.775  1.00  0.00     0.135 A 
ATOM     80  C   UNL A   1      40.024  33.588  39.785  1.00  0.00     0.135 A 
ATOM     81  F   UNL A   1      42.401  35.433  37.746  1.00  0.00    -0.206 F 
ATOM     82  C   UNL A   1      41.656  35.840  39.935  1.00  0.00     0.059 A 
ATOM     83  C   UNL A   1      40.022  34.356  40.946  1.00  0.00     0.059 A 
ATOM     84  F   UNL A   1      39.228  32.508  39.740  1.00  0.00    -0.206 F 
ATOM     85  C   UNL A   1      40.850  35.475  41.015  1.00  0.00     0.060 A 
BRANCH  85  86
ATOM     86  S   UNL A   1      40.869  36.509  42.497  1.00  0.00     0.124 S 
ATOM     87  O   UNL A   1      41.052  35.514  43.547  1.00  0.00    -0.237 OA
ATOM     88  O   UNL A   1      42.007  37.385  42.241  1.00  0.00    -0.237 OA
ATOM     89  O   UNL A   1      39.563  37.162  42.466  1.00  0.00    -0.744 OA
ENDBRANCH  85  86
ENDBRANCH  53  78
BRANCH  65  90
ATOM     90  C   UNL A   1      44.899  28.770  36.333  1.00  0.00     0.058 A 
ATOM     91  C   UNL A   1      46.173  29.311  36.100  1.00  0.00     0.135 A 
ATOM     92  C   UNL A   1      44.813  27.626  37.146  1.00  0.00     0.135 A 
ATOM     93  F   UNL A   1      46.313  30.401  35.329  1.00  0.00    -0.206 F 
ATOM     94  C   UNL A   1      47.319  28.724  36.628  1.00  0.00     0.059 A 
ATOM     95  C   UNL A   1      45.943  27.043  37.709  1.00  0.00     0.059 A 
ATOM     96  F   UNL A   1      43.619  27.075  37.413  1.00  0.00    -0.206 F 
ATOM     97  C   UNL A   1      47.193  27.590  37.432  1.00  0.00     0.060 A 
BRANCH  97  98
ATOM     98  S   UNL A   1      48.687  26.852  38.129  1.00  0.00     0.124 S 
ATOM     99  O   UNL A   1      48.132  25.974  39.152  1.00  0.00    -0.237 OA
ATOM    100  O   UNL A   1      49.274  26.184  36.971  1.00  0.00    -0.237 OA
ATOM    101  O   UNL A   1      49.435  28.002  38.626  1.00  0.00    -0.744 OA
ENDBRANCH  97  98
ENDBRANCH  65  90
ENDBRANCH  39  40
ENDBRANCH  32  34
ENDBRANCH  31  32
ENDBRANCH  30  31
ENDBRANCH  29  30
ENDBRANCH  28  29
ENDBRANCH  27  28
ENDBRANCH  26  27
ENDBRANCH   1  26
TORSDOF 27
ENDMDL
MODEL 2
REMARK VINA RESULT:      -8.5      0.988      2.018
REMARK SMILES [NH3+]CCOCC(=O)N[C@H](C(=O)OCCOCCOCCOC(=O)c1ccc(-c2c3nc(c(-c4c(F)cc(S(=O)(=O)[O-])cc4F)c4ccc([nH]4)c(-c4c(F)cc(S(=O)(=O)[O-])cc4F)c4nc(c(-c5c(F)cc(S(=O)(=O)[O-])cc5F)c5ccc2[nH]5)C=C4)C=C3)cc1)C1CCCCC1
REMARK SMILES IDX 15 1 14 2 13 3 12 4 10 5 11 6 9 7 8 8 6 9 7 10 5 12 4 13
REMARK SMILES IDX 3 14 2 15 1 16 90 20 91 21 95 22 92 23 94 24 93 25 16 26
REMARK SMILES IDX 17 27 18 28 19 29 20 30 21 31 22 32 23 33 24 34 25 35 89 36
REMARK SMILES IDX 26 37 88 38 27 39 28 40 29 41 82 42 30 43 87 44 81 45 83 46
REMARK SMILES IDX 31 47 86 48 80 49 79 50 32 52 66 53 45 54 65 55 46 56 49 57
REMARK SMILES IDX 64 58 84 59 47 60 48 61 63 63 85 64 50 65 33 66 34 67 43 68
REMARK SMILES IDX 35 69 36 70 42 71 44 72 37 73 38 74 39 75 40 76 41 77 67 78
REMARK SMILES IDX 68 79 77 80 69 81 70 82 76 83 78 84 71 85 72 86 73 87 74 88
REMARK SMILES IDX 75 89 51 90 52 91 61 92 53 93 54 94 60 95 62 96 55 97 56 98
REMARK SMILES IDX 57 99 58 100 59 101
REMARK H PARENT 8 11 1 17 1 18 1 19 83 51 49 62
REMARK Flexibility Score: inf
ROOT
ATOM      1  O   UNL A   1      34.088  31.476  27.335  1.00  0.00    -0.376 OA
ENDROOT
BRANCH   1   2
ATOM      2  C   UNL A   1      34.352  30.100  27.558  1.00  0.00     0.202 C 
BRANCH   2   3
ATOM      3  C   UNL A   1      33.998  28.971  26.579  1.00  0.00     0.261 C 
BRANCH   3   4
ATOM      4  O   UNL A   1      32.644  28.942  26.120  1.00  0.00    -0.462 OA
BRANCH   4   5
ATOM      5  C   UNL A   1      32.479  28.819  24.775  1.00  0.00     0.329 C 
ATOM      6  O   UNL A   1      33.243  29.280  23.937  1.00  0.00    -0.250 OA
BRANCH   5   7
ATOM      7  C   UNL A   1      31.244  27.955  24.439  1.00  0.00     0.195 C 
BRANCH   7   8
ATOM      8  N   UNL A   1      30.469  28.247  23.227  1.00  0.00    -0.340 N 
ATOM      9  C   UNL A   1      29.926  29.378  22.712  1.00  0.00     0.246 C 
ATOM     10  O   UNL A   1      29.521  29.337  21.545  1.00  0.00    -0.272 OA
ATOM     11  H   UNL A   1      30.310  27.451  22.670  1.00  0.00     0.164 HD
BRANCH   9  12
ATOM     12  C   UNL A   1      29.697  30.636  23.559  1.00  0.00     0.260 C 
BRANCH  12  13
ATOM     13  O   UNL A   1      28.380  31.066  23.866  1.00  0.00    -0.366 OA
BRANCH  13  14
ATOM     14  C   UNL A   1      27.587  31.524  22.764  1.00  0.00     0.222 C 
BRANCH  14  15
ATOM     15  C   UNL A   1      28.361  32.558  21.938  1.00  0.00     0.287 C 
BRANCH  15  16
ATOM     16  N   UNL A   1      28.483  32.158  20.531  1.00  0.00    -0.356 N 
ATOM     17  H   UNL A   1      27.638  32.425  20.027  1.00  0.00     0.344 HD
ATOM     18  H   UNL A   1      28.607  31.147  20.476  1.00  0.00     0.344 HD
ATOM     19  H   UNL A   1      29.290  32.622  20.115  1.00  0.00     0.344 HD
ENDBRANCH  15  16
ENDBRANCH  14  15
ENDBRANCH  13  14
ENDBRANCH  12  13
ENDBRANCH   9  12
ENDBRANCH   7   8
BRANCH   7  20
ATOM     20  C   UNL A   1      31.562  26.450  24.682  1.00  0.00     0.023 C 
ATOM     21  C   UNL A   1      31.002  26.035  26.068  1.00  0.00     0.006 C 
ATOM     22  C   UNL A   1      31.018  25.477  23.626  1.00  0.00     0.006 C 
ATOM     23  C   UNL A   1      31.372  24.604  26.431  1.00  0.00     0.000 C 
ATOM     24  C   UNL A   1      31.426  24.041  23.963  1.00  0.00     0.000 C 
ATOM     25  C   UNL A   1      30.949  23.616  25.350  1.00  0.00     0.000 C 
ENDBRANCH   7  20
ENDBRANCH   5   7
ENDBRANCH   4   5
ENDBRANCH   3   4
ENDBRANCH   2   3
ENDBRANCH   1   2
BRANCH   1  26
ATOM     26  C   UNL A   1      34.338  32.427  28.345  1.00  0.00     0.188 C 
BRANCH  26  27
ATOM     27  C   UNL A   1      33.975  33.898  28.038  1.00  0.00     0.188 C 
BRANCH  27  28
ATOM     28  O   UNL A   1      32.933  34.552  28.732  1.00  0.00    -0.376 OA
BRANCH  28  29
ATOM     29  C   UNL A   1      32.978  35.959  28.902  1.00  0.00     0.202 C 
BRANCH  29  30
ATOM     30  C   UNL A   1      32.604  36.666  30.220  1.00  0.00     0.261 C 
BRANCH  30  31
ATOM     31  O   UNL A   1      33.472  36.444  31.338  1.00  0.00    -0.460 OA
BRANCH  31  32
ATOM     32  C   UNL A   1      33.177  35.359  32.099  1.00  0.00     0.338 C 
ATOM     33  O   UNL A   1      32.065  34.954  32.401  1.00  0.00    -0.246 OA
BRANCH  32  34
ATOM     34  C   UNL A   1      34.408  34.571  32.314  1.00  0.00     0.060 A 
ATOM     35  C   UNL A   1      34.345  33.459  33.168  1.00  0.00     0.016 A 
ATOM     36  C   UNL A   1      35.604  34.910  31.681  1.00  0.00     0.016 A 
ATOM     37  C   UNL A   1      35.485  32.697  33.413  1.00  0.00     0.010 A 
ATOM     38  C   UNL A   1      36.756  34.166  31.954  1.00  0.00     0.010 A 
ATOM     39  C   UNL A   1      36.707  33.077  32.847  1.00  0.00    -0.014 A 
BRANCH  39  40
ATOM     40  C   UNL A   1      37.963  32.489  33.370  1.00  0.00     0.031 A 
ATOM     41  C   UNL A   1      38.599  31.376  32.581  1.00  0.00     0.074 A 
ATOM     42  C   UNL A   1      38.541  32.943  34.496  1.00  0.00     0.049 A 
ATOM     43  N   UNL A   1      39.669  30.675  32.846  1.00  0.00    -0.248 NA
ATOM     44  C   UNL A   1      37.932  31.004  31.321  1.00  0.00     0.031 C 
ATOM     45  C   UNL A   1      38.045  34.043  35.320  1.00  0.00     0.029 A 
ATOM     46  N   UNL A   1      39.676  32.521  35.144  1.00  0.00    -0.354 N 
ATOM     47  C   UNL A   1      39.801  29.776  31.793  1.00  0.00     0.074 A 
ATOM     48  C   UNL A   1      38.684  29.998  30.902  1.00  0.00     0.031 C 
ATOM     49  C   UNL A   1      38.863  34.198  36.377  1.00  0.00     0.029 A 
ATOM     50  C   UNL A   1      39.921  33.191  36.320  1.00  0.00     0.049 A 
ATOM     51  H   UNL A   1      40.258  31.806  34.800  1.00  0.00     0.167 HD
ATOM     52  C   UNL A   1      40.768  28.854  31.584  1.00  0.00     0.037 A 
ATOM     53  C   UNL A   1      40.877  32.991  37.250  1.00  0.00     0.037 A 
ATOM     54  C   UNL A   1      41.872  28.631  32.480  1.00  0.00     0.049 A 
ATOM     55  C   UNL A   1      41.905  31.907  37.033  1.00  0.00     0.074 A 
ATOM     56  C   UNL A   1      42.913  27.729  32.354  1.00  0.00     0.029 A 
ATOM     57  N   UNL A   1      42.073  29.310  33.673  1.00  0.00    -0.354 N 
ATOM     58  N   UNL A   1      42.033  31.080  36.021  1.00  0.00    -0.248 NA
ATOM     59  C   UNL A   1      42.921  31.734  38.080  1.00  0.00     0.031 C 
ATOM     60  C   UNL A   1      43.712  27.823  33.499  1.00  0.00     0.029 A 
ATOM     61  C   UNL A   1      43.205  28.829  34.307  1.00  0.00     0.049 A 
ATOM     62  H   UNL A   1      41.493  30.028  34.019  1.00  0.00     0.167 HD
ATOM     63  C   UNL A   1      43.163  30.312  36.296  1.00  0.00     0.074 A 
ATOM     64  C   UNL A   1      43.685  30.782  37.562  1.00  0.00     0.031 C 
ATOM     65  C   UNL A   1      43.719  29.313  35.565  1.00  0.00     0.037 A 
BRANCH  52  66
ATOM     66  C   UNL A   1      40.657  27.995  30.354  1.00  0.00     0.058 A 
ATOM     67  C   UNL A   1      41.567  28.101  29.290  1.00  0.00     0.135 A 
ATOM     68  C   UNL A   1      39.636  27.036  30.248  1.00  0.00     0.135 A 
ATOM     69  F   UNL A   1      42.548  29.017  29.328  1.00  0.00    -0.206 F 
ATOM     70  C   UNL A   1      41.455  27.305  28.155  1.00  0.00     0.059 A 
ATOM     71  C   UNL A   1      39.524  26.208  29.136  1.00  0.00     0.059 A 
ATOM     72  F   UNL A   1      38.735  26.897  31.232  1.00  0.00    -0.206 F 
ATOM     73  C   UNL A   1      40.430  26.360  28.088  1.00  0.00     0.060 A 
BRANCH  73  74
ATOM     74  S   UNL A   1      40.305  25.328  26.612  1.00  0.00     0.124 S 
ATOM     75  O   UNL A   1      38.879  25.013  26.597  1.00  0.00    -0.237 OA
ATOM     76  O   UNL A   1      40.765  26.230  25.562  1.00  0.00    -0.237 OA
ATOM     77  O   UNL A   1      41.191  24.206  26.904  1.00  0.00    -0.744 OA
ENDBRANCH  73  74
ENDBRANCH  52  66
BRANCH  53  78
ATOM     78  C   UNL A   1      40.907  33.828  38.481  1.00  0.00     0.058 A 
ATOM     79  C   UNL A   1      40.090  33.530  39.583  1.00  0.00     0.135 A 
ATOM     80  C   UNL A   1      41.744  34.951  38.576  1.00  0.00     0.135 A 
ATOM     81  F   UNL A   1      39.261  32.476  39.537  1.00  0.00    -0.206 F 
ATOM     82  C   UNL A   1      40.091  34.322  40.728  1.00  0.00     0.059 A 
ATOM     83  C   UNL A   1      41.784  35.741  39.721  1.00  0.00     0.059 A 
ATOM     84  F   UNL A   1      42.551  35.278  37.554  1.00  0.00    -0.206 F 
ATOM     85  C   UNL A   1      40.945  35.424  40.789  1.00  0.00     0.060 A 
BRANCH  85  86
ATOM     86  S   UNL A   1      40.975  36.413  42.300  1.00  0.00     0.124 S 
ATOM     87  O   UNL A   1      40.964  37.769  41.764  1.00  0.00    -0.237 OA
ATOM     88  O   UNL A   1      39.753  35.980  42.970  1.00  0.00    -0.237 OA
ATOM     89  O   UNL A   1      42.217  36.000  42.947  1.00  0.00    -0.744 OA
ENDBRANCH  85  86
ENDBRANCH  53  78
BRANCH  65  90
ATOM     90  C   UNL A   1      44.984  28.685  36.088  1.00  0.00     0.058 A 
ATOM     91  C   UNL A   1      44.966  27.547  36.909  1.00  0.00     0.135 A 
ATOM     92  C   UNL A   1      46.237  29.204  35.717  1.00  0.00     0.135 A 
ATOM     93  F   UNL A   1      43.798  27.012  37.298  1.00  0.00    -0.206 F 
ATOM     94  C   UNL A   1      46.144  26.963  37.368  1.00  0.00     0.059 A 
ATOM     95  C   UNL A   1      47.426  28.616  36.136  1.00  0.00     0.059 A 
ATOM     96  F   UNL A   1      46.314  30.282  34.922  1.00  0.00    -0.206 F 
ATOM     97  C   UNL A   1      47.369  27.505  36.974  1.00  0.00     0.060 A 
BRANCH  97  98
ATOM     98  S   UNL A   1      48.889  26.723  37.558  1.00  0.00     0.124 S 
ATOM     99  O   UNL A   1      49.877  27.282  36.642  1.00  0.00    -0.237 OA
ATOM    100  O   UNL A   1      48.969  27.188  38.939  1.00  0.00    -0.237 OA
ATOM    101  O   UNL A   1      48.621  25.297  37.399  1.00  0.00    -0.744 OA
ENDBRANCH  97  98
ENDBRANCH  65  90
ENDBRANCH  39  40
ENDBRANCH  32  34
ENDBRANCH  31  32
ENDBRANCH  30  31
ENDBRANCH  29  30
ENDBRANCH  28  29
ENDBRANCH  27  28
ENDBRANCH  26  27
ENDBRANCH   1  26
TORSDOF 27
ENDMDL
MODEL 3
REMARK VINA RESULT:      -8.3      1.496      8.249
REMARK SMILES [NH3+]CCOCC(=O)N[C@H](C(=O)OCCOCCOCCOC(=O)c1ccc(-c2c3nc(c(-c4c(F)cc(S(=O)(=O)[O-])cc4F)c4ccc([nH]4)c(-c4c(F)cc(S(=O)(=O)[O-])cc4F)c4nc(c(-c5c(F)cc(S(=O)(=O)[O-])cc5F)c5ccc2[nH]5)C=C4)C=C3)cc1)C1CCCCC1
REMARK SMILES IDX 15 1 14 2 13 3 12 4 10 5 11 6 9 7 8 8 6 9 7 10 5 12 4 13
REMARK SMILES IDX 3 14 2 15 1 16 90 20 91 21 95 22 92 23 94 24 93 25 16 26
REMARK SMILES IDX 17 27 18 28 19 29 20 30 21 31 22 32 23 33 24 34 25 35 89 36
REMARK SMILES IDX 26 37 88 38 27 39 28 40 29 41 82 42 30 43 87 44 81 45 83 46
REMARK SMILES IDX 31 47 86 48 80 49 79 50 32 52 66 53 45 54 65 55 46 56 49 57
REMARK SMILES IDX 64 58 84 59 47 60 48 61 63 63 85 64 50 65 33 66 34 67 43 68
REMARK SMILES IDX 35 69 36 70 42 71 44 72 37 73 38 74 39 75 40 76 41 77 67 78
REMARK SMILES IDX 68 79 77 80 69 81 70 82 76 83 78 84 71 85 72 86 73 87 74 88
REMARK SMILES IDX 75 89 51 90 52 91 61 92 53 93 54 94 60 95 62 96 55 97 56 98
REMARK SMILES IDX 57 99 58 100 59 101
REMARK H PARENT 8 11 1 17 1 18 1 19 83 51 49 62
REMARK Flexibility Score: inf
ROOT
ATOM      1  O   UNL A   1      35.327  29.989  28.083  1.00  0.00    -0.376 OA
ENDROOT
BRANCH   1   2
ATOM      2  C   UNL A   1      34.199  29.912  27.227  1.00  0.00     0.202 C 
BRANCH   2   3
ATOM      3  C   UNL A   1      33.229  28.723  27.163  1.00  0.00     0.261 C 
BRANCH   3   4
ATOM      4  O   UNL A   1      33.736  27.533  26.554  1.00  0.00    -0.462 OA
BRANCH   4   5
ATOM      5  C   UNL A   1      32.804  26.602  26.211  1.00  0.00     0.329 C 
ATOM      6  O   UNL A   1      31.856  26.277  26.915  1.00  0.00    -0.250 OA
BRANCH   5   7
ATOM      7  C   UNL A   1      33.050  26.062  24.786  1.00  0.00     0.195 C 
BRANCH   7   8
ATOM      8  N   UNL A   1      33.644  26.943  23.774  1.00  0.00    -0.340 N 
ATOM      9  C   UNL A   1      33.295  28.149  23.259  1.00  0.00     0.246 C 
ATOM     10  O   UNL A   1      34.135  28.743  22.575  1.00  0.00    -0.272 OA
ATOM     11  H   UNL A   1      34.475  26.583  23.387  1.00  0.00     0.164 HD
BRANCH   9  12
ATOM     12  C   UNL A   1      31.879  28.720  23.401  1.00  0.00     0.260 C 
BRANCH  12  13
ATOM     13  O   UNL A   1      30.809  27.890  23.827  1.00  0.00    -0.366 OA
BRANCH  13  14
ATOM     14  C   UNL A   1      30.398  26.864  22.917  1.00  0.00     0.222 C 
BRANCH  14  15
ATOM     15  C   UNL A   1      29.766  25.692  23.676  1.00  0.00     0.287 C 
BRANCH  15  16
ATOM     16  N   UNL A   1      30.151  24.396  23.107  1.00  0.00    -0.356 N 
ATOM     17  H   UNL A   1      30.248  24.485  22.095  1.00  0.00     0.344 HD
ATOM     18  H   UNL A   1      29.431  23.705  23.319  1.00  0.00     0.344 HD
ATOM     19  H   UNL A   1      31.038  24.097  23.509  1.00  0.00     0.344 HD
ENDBRANCH  15  16
ENDBRANCH  14  15
ENDBRANCH  13  14
ENDBRANCH  12  13
ENDBRANCH   9  12
ENDBRANCH   7   8
BRANCH   7  20
ATOM     20  C   UNL A   1      33.648  24.625  24.854  1.00  0.00     0.023 C 
ATOM     21  C   UNL A   1      34.551  24.398  23.613  1.00  0.00     0.006 C 
ATOM     22  C   UNL A   1      34.464  24.305  26.114  1.00  0.00     0.006 C 
ATOM     23  C   UNL A   1      35.085  22.973  23.545  1.00  0.00     0.000 C 
ATOM     24  C   UNL A   1      34.965  22.859  26.072  1.00  0.00     0.000 C 
ATOM     25  C   UNL A   1      35.805  22.576  24.828  1.00  0.00     0.000 C 
ENDBRANCH   7  20
ENDBRANCH   5   7
ENDBRANCH   4   5
ENDBRANCH   3   4
ENDBRANCH   2   3
ENDBRANCH   1   2
BRANCH   1  26
ATOM     26  C   UNL A   1      36.202  31.093  28.020  1.00  0.00     0.188 C 
BRANCH  26  27
ATOM     27  C   UNL A   1      35.673  32.448  28.543  1.00  0.00     0.188 C 
BRANCH  27  28
ATOM     28  O   UNL A   1      34.928  33.311  27.709  1.00  0.00    -0.376 OA
BRANCH  28  29
ATOM     29  C   UNL A   1      34.757  34.669  28.080  1.00  0.00     0.202 C 
BRANCH  29  30
ATOM     30  C   UNL A   1      33.483  35.208  28.761  1.00  0.00     0.261 C 
BRANCH  30  31
ATOM     31  O   UNL A   1      32.978  34.454  29.870  1.00  0.00    -0.460 OA
BRANCH  31  32
ATOM     32  C   UNL A   1      33.093  35.053  31.083  1.00  0.00     0.338 C 
ATOM     33  O   UNL A   1      32.279  35.790  31.616  1.00  0.00    -0.246 OA
BRANCH  32  34
ATOM     34  C   UNL A   1      34.254  34.483  31.796  1.00  0.00     0.060 A 
ATOM     35  C   UNL A   1      35.396  35.284  31.954  1.00  0.00     0.016 A 
ATOM     36  C   UNL A   1      34.222  33.186  32.310  1.00  0.00     0.016 A 
ATOM     37  C   UNL A   1      36.520  34.781  32.606  1.00  0.00     0.010 A 
ATOM     38  C   UNL A   1      35.363  32.671  32.933  1.00  0.00     0.010 A 
ATOM     39  C   UNL A   1      36.526  33.455  33.053  1.00  0.00    -0.014 A 
BRANCH  39  40
ATOM     40  C   UNL A   1      37.813  32.822  33.426  1.00  0.00     0.031 A 
ATOM     41  C   UNL A   1      38.333  33.055  34.820  1.00  0.00     0.074 A 
ATOM     42  C   UNL A   1      38.492  32.040  32.568  1.00  0.00     0.049 A 
ATOM     43  N   UNL A   1      39.445  32.649  35.372  1.00  0.00    -0.248 NA
ATOM     44  C   UNL A   1      37.478  33.860  35.710  1.00  0.00     0.031 C 
ATOM     45  C   UNL A   1      38.068  31.705  31.210  1.00  0.00     0.029 A 
ATOM     46  N   UNL A   1      39.694  31.393  32.717  1.00  0.00    -0.354 N 
ATOM     47  C   UNL A   1      39.428  33.152  36.669  1.00  0.00     0.074 A 
ATOM     48  C   UNL A   1      38.212  33.921  36.810  1.00  0.00     0.031 C 
ATOM     49  C   UNL A   1      39.007  30.925  30.642  1.00  0.00     0.029 A 
ATOM     50  C   UNL A   1      40.109  30.733  31.584  1.00  0.00     0.049 A 
ATOM     51  H   UNL A   1      40.209  31.400  33.555  1.00  0.00     0.167 HD
ATOM     52  C   UNL A   1      40.339  32.983  37.654  1.00  0.00     0.037 A 
ATOM     53  C   UNL A   1      41.259  30.073  31.335  1.00  0.00     0.037 A 
ATOM     54  C   UNL A   1      41.553  32.224  37.503  1.00  0.00     0.049 A 
ATOM     55  C   UNL A   1      42.296  29.959  32.425  1.00  0.00     0.074 A 
ATOM     56  C   UNL A   1      42.538  31.983  38.443  1.00  0.00     0.029 A 
ATOM     57  N   UNL A   1      41.952  31.594  36.333  1.00  0.00    -0.354 N 
ATOM     58  N   UNL A   1      42.258  30.419  33.655  1.00  0.00    -0.248 NA
ATOM     59  C   UNL A   1      43.530  29.232  32.097  1.00  0.00     0.031 C 
ATOM     60  C   UNL A   1      43.560  31.253  37.826  1.00  0.00     0.029 A 
ATOM     61  C   UNL A   1      43.182  30.985  36.520  1.00  0.00     0.049 A 
ATOM     62  H   UNL A   1      41.437  31.582  35.494  1.00  0.00     0.167 HD
ATOM     63  C   UNL A   1      43.446  30.007  34.254  1.00  0.00     0.074 A 
ATOM     64  C   UNL A   1      44.175  29.253  33.255  1.00  0.00     0.031 C 
ATOM     65  C   UNL A   1      43.891  30.229  35.517  1.00  0.00     0.037 A 
BRANCH  52  66
ATOM     66  C   UNL A   1      40.073  33.659  38.971  1.00  0.00     0.058 A 
ATOM     67  C   UNL A   1      40.637  34.904  39.294  1.00  0.00     0.135 A 
ATOM     68  C   UNL A   1      39.222  33.062  39.915  1.00  0.00     0.135 A 
ATOM     69  F   UNL A   1      41.477  35.508  38.438  1.00  0.00    -0.206 F 
ATOM     70  C   UNL A   1      40.388  35.520  40.515  1.00  0.00     0.059 A 
ATOM     71  C   UNL A   1      38.934  33.675  41.130  1.00  0.00     0.059 A 
ATOM     72  F   UNL A   1      38.661  31.870  39.661  1.00  0.00    -0.206 F 
ATOM     73  C   UNL A   1      39.533  34.898  41.427  1.00  0.00     0.060 A 
BRANCH  73  74
ATOM     74  S   UNL A   1      39.212  35.716  43.004  1.00  0.00     0.124 S 
ATOM     75  O   UNL A   1      40.071  34.955  43.906  1.00  0.00    -0.237 OA
ATOM     76  O   UNL A   1      39.634  37.087  42.734  1.00  0.00    -0.237 OA
ATOM     77  O   UNL A   1      37.778  35.531  43.199  1.00  0.00    -0.744 OA
ENDBRANCH  73  74
ENDBRANCH  52  66
BRANCH  53  78
ATOM     78  C   UNL A   1      41.501  29.475  29.993  1.00  0.00     0.058 A 
ATOM     79  C   UNL A   1      42.239  30.159  29.015  1.00  0.00     0.135 A 
ATOM     80  C   UNL A   1      40.987  28.213  29.657  1.00  0.00     0.135 A 
ATOM     81  F   UNL A   1      42.739  31.375  29.281  1.00  0.00    -0.206 F 
ATOM     82  C   UNL A   1      42.447  29.620  27.748  1.00  0.00     0.059 A 
ATOM     83  C   UNL A   1      41.206  27.641  28.408  1.00  0.00     0.059 A 
ATOM     84  F   UNL A   1      40.279  27.513  30.558  1.00  0.00    -0.206 F 
ATOM     85  C   UNL A   1      41.930  28.357  27.456  1.00  0.00     0.060 A 
BRANCH  85  86
ATOM     86  S   UNL A   1      42.252  27.646  25.827  1.00  0.00     0.124 S 
ATOM     87  O   UNL A   1      42.233  28.833  24.979  1.00  0.00    -0.237 OA
ATOM     88  O   UNL A   1      43.555  27.019  26.021  1.00  0.00    -0.237 OA
ATOM     89  O   UNL A   1      41.140  26.719  25.640  1.00  0.00    -0.744 OA
ENDBRANCH  85  86
ENDBRANCH  53  78
BRANCH  65  90
ATOM     90  C   UNL A   1      45.208  29.613  35.912  1.00  0.00     0.058 A 
ATOM     91  C   UNL A   1      45.295  28.312  36.431  1.00  0.00     0.135 A 
ATOM     92  C   UNL A   1      46.407  30.321  35.718  1.00  0.00     0.135 A 
ATOM     93  F   UNL A   1      44.181  27.592  36.640  1.00  0.00    -0.206 F 
ATOM     94  C   UNL A   1      46.520  27.745  36.771  1.00  0.00     0.059 A 
ATOM     95  C   UNL A   1      47.644  29.761  36.020  1.00  0.00     0.059 A 
ATOM     96  F   UNL A   1      46.384  31.563  35.212  1.00  0.00    -0.206 F 
ATOM     97  C   UNL A   1      47.689  28.478  36.561  1.00  0.00     0.060 A 
BRANCH  97  98
ATOM     98  S   UNL A   1      49.274  27.722  36.985  1.00  0.00     0.124 S 
ATOM     99  O   UNL A   1      48.868  26.719  37.963  1.00  0.00    -0.237 OA
ATOM    100  O   UNL A   1      49.727  27.206  35.697  1.00  0.00    -0.237 OA
ATOM    101  O   UNL A   1      50.052  28.837  37.515  1.00  0.00    -0.744 OA
ENDBRANCH  97  98
ENDBRANCH  65  90
ENDBRANCH  39  40
ENDBRANCH  32  34
ENDBRANCH  31  32
ENDBRANCH  30  31
ENDBRANCH  29  30
ENDBRANCH  28  29
ENDBRANCH  27  28
ENDBRANCH  26  27
ENDBRANCH   1  26
TORSDOF 27
ENDMDL
