MODEL 1
REMARK VINA RESULT:     -11.1      0.000      0.000
REMARK SMILES O=C(OCCOCCOCCOC(=O)[C@H](c1c[nH]c2cc(F)ccc12)[NH+]1CC[NH+](CC(=O)N2CCOCC2)CC1)c1ccc(-c2c3nc(c(-c4c(F)cc(S(=O)(=O)[O-])cc4F)c4ccc([nH]4)c(-c4c(F)cc(S(=O)(=O)[O-])cc4F)c4nc(c(-c5c(F)cc(S(=O)(=O)[O-])cc5F)c5ccc2[nH]5)C=C4)C=C3)cc1
REMARK SMILES IDX 7 1 6 2 5 3 4 4 3 5 2 6 1 7 41 8 42 9 106 10 43 11 105 12
REMARK SMILES IDX 44 13 45 14 46 15 99 16 47 17 104 18 98 19 100 20 48 21
REMARK SMILES IDX 103 22 97 23 96 24 49 26 83 27 62 28 82 29 63 30 66 31 81 32
REMARK SMILES IDX 101 33 64 34 65 35 80 37 102 38 67 39 50 40 51 41 60 42
REMARK SMILES IDX 52 43 53 44 59 45 61 46 54 47 55 48 56 49 57 50 58 51 84 52
REMARK SMILES IDX 85 53 94 54 86 55 87 56 93 57 95 58 88 59 89 60 90 61 91 62
REMARK SMILES IDX 92 63 68 64 69 65 78 66 70 67 71 68 77 69 79 70 72 71 73 72
REMARK SMILES IDX 74 73 75 74 76 75 8 76 9 77 10 78 11 79 12 80 13 81 14 82
REMARK SMILES IDX 15 83 26 84 27 85 40 86 28 88 39 89 29 90 30 92 31 93 32 94
REMARK SMILES IDX 33 95 34 96 38 97 35 98 37 99 36 100 16 101 17 102 25 103
REMARK SMILES IDX 18 104 19 105 24 106 20 108 23 109 21 110 22 111
REMARK H PARENT 100 25 66 36 26 87 29 91 18 107
REMARK Flexibility Score: inf
ROOT
ATOM      1  C   UNL A   1      40.039  20.862  26.501  1.00  0.00     0.188 C 
ENDROOT
BRANCH   1   2
ATOM      2  O   UNL A   1      40.569  19.623  26.028  1.00  0.00    -0.376 OA
BRANCH   2   3
ATOM      3  C   UNL A   1      41.997  19.602  25.978  1.00  0.00     0.202 C 
BRANCH   3   4
ATOM      4  C   UNL A   1      42.667  20.802  26.665  1.00  0.00     0.261 C 
BRANCH   4   5
ATOM      5  O   UNL A   1      43.487  21.564  25.776  1.00  0.00    -0.460 OA
BRANCH   5   6
ATOM      6  C   UNL A   1      43.217  22.775  25.239  1.00  0.00     0.338 C 
ATOM      7  O   UNL A   1      43.472  22.934  24.043  1.00  0.00    -0.246 OA
BRANCH   6   8
ATOM      8  C   UNL A   1      42.647  23.952  25.983  1.00  0.00     0.060 A 
ATOM      9  C   UNL A   1      41.515  23.982  26.818  1.00  0.00     0.016 A 
ATOM     10  C   UNL A   1      43.442  25.099  25.961  1.00  0.00     0.016 A 
ATOM     11  C   UNL A   1      41.230  25.065  27.682  1.00  0.00     0.010 A 
ATOM     12  C   UNL A   1      43.184  26.151  26.846  1.00  0.00     0.010 A 
ATOM     13  C   UNL A   1      42.101  26.139  27.769  1.00  0.00    -0.014 A 
BRANCH  13  14
ATOM     14  C   UNL A   1      41.982  27.280  28.754  1.00  0.00     0.031 A 
ATOM     15  C   UNL A   1      42.726  27.048  30.043  1.00  0.00     0.074 A 
ATOM     16  C   UNL A   1      41.144  28.353  28.647  1.00  0.00     0.049 A 
ATOM     17  N   UNL A   1      42.522  27.540  31.231  1.00  0.00    -0.248 NA
ATOM     18  C   UNL A   1      43.782  26.006  29.997  1.00  0.00     0.031 C 
ATOM     19  C   UNL A   1      40.351  28.749  27.478  1.00  0.00     0.029 A 
ATOM     20  N   UNL A   1      40.725  29.270  29.604  1.00  0.00    -0.354 N 
ATOM     21  C   UNL A   1      43.454  26.887  32.023  1.00  0.00     0.074 A 
ATOM     22  C   UNL A   1      43.939  25.750  31.283  1.00  0.00     0.031 C 
ATOM     23  C   UNL A   1      39.458  29.704  27.820  1.00  0.00     0.029 A 
ATOM     24  C   UNL A   1      39.625  30.039  29.225  1.00  0.00     0.049 A 
ATOM     25  H   UNL A   1      41.169  29.369  30.477  1.00  0.00     0.167 HD
ATOM     26  C   UNL A   1      44.060  27.336  33.142  1.00  0.00     0.037 A 
ATOM     27  C   UNL A   1      38.849  30.889  29.946  1.00  0.00     0.037 A 
ATOM     28  C   UNL A   1      43.676  28.551  33.782  1.00  0.00     0.049 A 
ATOM     29  C   UNL A   1      39.328  31.209  31.343  1.00  0.00     0.074 A 
ATOM     30  C   UNL A   1      44.276  29.201  34.840  1.00  0.00     0.029 A 
ATOM     31  N   UNL A   1      42.583  29.313  33.392  1.00  0.00    -0.354 N 
ATOM     32  N   UNL A   1      40.322  30.679  32.017  1.00  0.00    -0.248 NA
ATOM     33  C   UNL A   1      38.654  32.317  32.037  1.00  0.00     0.031 C 
ATOM     34  C   UNL A   1      43.521  30.347  35.112  1.00  0.00     0.029 A 
ATOM     35  C   UNL A   1      42.479  30.426  34.198  1.00  0.00     0.049 A 
ATOM     36  H   UNL A   1      41.974  29.090  32.652  1.00  0.00     0.167 HD
ATOM     37  C   UNL A   1      40.478  31.473  33.146  1.00  0.00     0.074 A 
ATOM     38  C   UNL A   1      39.421  32.464  33.108  1.00  0.00     0.031 C 
ATOM     39  C   UNL A   1      41.449  31.428  34.090  1.00  0.00     0.037 A 
BRANCH  26  40
ATOM     40  C   UNL A   1      45.287  26.585  33.571  1.00  0.00     0.058 A 
ATOM     41  C   UNL A   1      46.523  26.806  32.926  1.00  0.00     0.135 A 
ATOM     42  C   UNL A   1      45.228  25.581  34.543  1.00  0.00     0.135 A 
ATOM     43  F   UNL A   1      46.629  27.739  31.965  1.00  0.00    -0.206 F 
ATOM     44  C   UNL A   1      47.629  26.007  33.174  1.00  0.00     0.059 A 
ATOM     45  C   UNL A   1      46.341  24.797  34.840  1.00  0.00     0.059 A 
ATOM     46  F   UNL A   1      44.077  25.325  35.184  1.00  0.00    -0.206 F 
ATOM     47  C   UNL A   1      47.526  24.999  34.131  1.00  0.00     0.060 A 
BRANCH  47  48
ATOM     48  S   UNL A   1      48.972  23.961  34.419  1.00  0.00     0.124 S 
ATOM     49  O   UNL A   1      49.959  24.586  33.544  1.00  0.00    -0.237 OA
ATOM     50  O   UNL A   1      49.195  24.120  35.845  1.00  0.00    -0.237 OA
ATOM     51  O   UNL A   1      48.518  22.632  33.998  1.00  0.00    -0.744 OA
ENDBRANCH  47  48
ENDBRANCH  26  40
BRANCH  27  52
ATOM     52  C   UNL A   1      37.613  31.594  29.437  1.00  0.00     0.058 A 
ATOM     53  C   UNL A   1      37.636  32.915  28.965  1.00  0.00     0.135 A 
ATOM     54  C   UNL A   1      36.334  31.038  29.610  1.00  0.00     0.135 A 
ATOM     55  F   UNL A   1      38.801  33.573  28.892  1.00  0.00    -0.206 F 
ATOM     56  C   UNL A   1      36.460  33.621  28.654  1.00  0.00     0.059 A 
ATOM     57  C   UNL A   1      35.151  31.686  29.247  1.00  0.00     0.059 A 
ATOM     58  F   UNL A   1      36.197  29.888  30.269  1.00  0.00    -0.206 F 
ATOM     59  C   UNL A   1      35.220  32.991  28.785  1.00  0.00     0.060 A 
BRANCH  59  60
ATOM     60  S   UNL A   1      33.696  33.887  28.391  1.00  0.00     0.124 S 
ATOM     61  O   UNL A   1      33.180  34.195  29.719  1.00  0.00    -0.237 OA
ATOM     62  O   UNL A   1      34.192  35.021  27.618  1.00  0.00    -0.237 OA
ATOM     63  O   UNL A   1      32.923  32.910  27.627  1.00  0.00    -0.744 OA
ENDBRANCH  59  60
ENDBRANCH  27  52
BRANCH  39  64
ATOM     64  C   UNL A   1      41.518  32.561  35.065  1.00  0.00     0.058 A 
ATOM     65  C   UNL A   1      42.115  33.785  34.747  1.00  0.00     0.135 A 
ATOM     66  C   UNL A   1      40.866  32.437  36.305  1.00  0.00     0.135 A 
ATOM     67  F   UNL A   1      42.760  33.942  33.580  1.00  0.00    -0.206 F 
ATOM     68  C   UNL A   1      42.062  34.858  35.628  1.00  0.00     0.059 A 
ATOM     69  C   UNL A   1      40.772  33.506  37.184  1.00  0.00     0.059 A 
ATOM     70  F   UNL A   1      40.273  31.282  36.647  1.00  0.00    -0.206 F 
ATOM     71  C   UNL A   1      41.376  34.711  36.836  1.00  0.00     0.060 A 
BRANCH  71  72
ATOM     72  S   UNL A   1      41.239  36.139  37.930  1.00  0.00     0.124 S 
ATOM     73  O   UNL A   1      42.506  36.819  37.685  1.00  0.00    -0.237 OA
ATOM     74  O   UNL A   1      40.048  36.809  37.416  1.00  0.00    -0.237 OA
ATOM     75  O   UNL A   1      41.091  35.540  39.253  1.00  0.00    -0.744 OA
ENDBRANCH  71  72
ENDBRANCH  39  64
ENDBRANCH  13  14
ENDBRANCH   6   8
ENDBRANCH   5   6
ENDBRANCH   4   5
ENDBRANCH   3   4
ENDBRANCH   2   3
ENDBRANCH   1   2
BRANCH   1  76
ATOM     76  C   UNL A   1      38.832  21.441  25.747  1.00  0.00     0.188 C 
BRANCH  76  77
ATOM     77  O   UNL A   1      37.967  20.544  25.074  1.00  0.00    -0.376 OA
BRANCH  77  78
ATOM     78  C   UNL A   1      36.701  21.042  24.652  1.00  0.00     0.202 C 
BRANCH  78  79
ATOM     79  C   UNL A   1      36.612  22.281  23.742  1.00  0.00     0.261 C 
BRANCH  79  80
ATOM     80  O   UNL A   1      35.354  23.003  23.713  1.00  0.00    -0.459 OA
BRANCH  80  81
ATOM     81  C   UNL A   1      35.049  23.655  24.873  1.00  0.00     0.370 C 
ATOM     82  O   UNL A   1      35.827  24.463  25.391  1.00  0.00    -0.245 OA
BRANCH  81  83
ATOM     83  C   UNL A   1      33.695  23.357  25.544  1.00  0.00     0.328 C 
BRANCH  83  84
ATOM     84  N   UNL A   1      32.628  24.182  24.902  1.00  0.00    -0.310 N 
ATOM     85  C   UNL A   1      31.731  25.039  25.710  1.00  0.00     0.325 C 
ATOM     86  C   UNL A   1      33.122  24.825  23.696  1.00  0.00     0.325 C 
ATOM     87  H   UNL A   1      31.941  23.462  24.678  1.00  0.00     0.349 HD
ATOM     88  C   UNL A   1      31.852  26.591  25.589  1.00  0.00     0.325 C 
ATOM     89  C   UNL A   1      33.261  26.350  23.660  1.00  0.00     0.325 C 
ATOM     90  N   UNL A   1      32.164  27.095  24.256  1.00  0.00    -0.318 N 
ATOM     91  H   UNL A   1      32.498  28.047  24.404  1.00  0.00     0.348 HD
BRANCH  90  92
ATOM     92  C   UNL A   1      31.041  27.406  23.372  1.00  0.00     0.364 C 
BRANCH  92  93
ATOM     93  C   UNL A   1      30.990  28.812  22.765  1.00  0.00     0.277 C 
ATOM     94  O   UNL A   1      32.028  29.334  22.336  1.00  0.00    -0.268 OA
ATOM     95  N   UNL A   1      29.760  29.436  22.592  1.00  0.00    -0.333 N 
ATOM     96  C   UNL A   1      28.626  29.308  23.501  1.00  0.00     0.148 C 
ATOM     97  C   UNL A   1      29.721  30.653  21.794  1.00  0.00     0.148 C 
ATOM     98  C   UNL A   1      27.267  29.655  22.902  1.00  0.00     0.181 C 
ATOM     99  C   UNL A   1      28.336  30.835  21.172  1.00  0.00     0.181 C 
ATOM    100  O   UNL A   1      27.314  30.888  22.177  1.00  0.00    -0.378 OA
ENDBRANCH  92  93
ENDBRANCH  90  92
ENDBRANCH  83  84
BRANCH  83 101
ATOM    101  C   UNL A   1      33.133  21.997  25.734  1.00  0.00     0.046 A 
ATOM    102  C   UNL A   1      33.310  21.235  26.863  1.00  0.00     0.094 A 
ATOM    103  C   UNL A   1      32.694  21.090  24.688  1.00  0.00     0.009 A 
ATOM    104  N   UNL A   1      33.526  19.984  26.377  1.00  0.00    -0.361 N 
ATOM    105  C   UNL A   1      32.949  19.806  25.158  1.00  0.00     0.049 A 
ATOM    106  C   UNL A   1      32.283  21.203  23.344  1.00  0.00     0.014 A 
ATOM    107  H   UNL A   1      34.039  19.290  26.850  1.00  0.00     0.166 HD
ATOM    108  C   UNL A   1      32.750  18.627  24.435  1.00  0.00     0.065 A 
ATOM    109  C   UNL A   1      32.153  20.031  22.574  1.00  0.00     0.040 A 
ATOM    110  C   UNL A   1      32.330  18.774  23.128  1.00  0.00     0.125 A 
ATOM    111  F   UNL A   1      32.148  17.684  22.372  1.00  0.00    -0.207 F 
ENDBRANCH  83 101
ENDBRANCH  81  83
ENDBRANCH  80  81
ENDBRANCH  79  80
ENDBRANCH  78  79
ENDBRANCH  77  78
ENDBRANCH  76  77
ENDBRANCH   1  76
TORSDOF 24
ENDMDL
MODEL 2
REMARK VINA RESULT:     -10.9      4.930     10.336
REMARK SMILES O=C(OCCOCCOCCOC(=O)[C@H](c1c[nH]c2cc(F)ccc12)[NH+]1CC[NH+](CC(=O)N2CCOCC2)CC1)c1ccc(-c2c3nc(c(-c4c(F)cc(S(=O)(=O)[O-])cc4F)c4ccc([nH]4)c(-c4c(F)cc(S(=O)(=O)[O-])cc4F)c4nc(c(-c5c(F)cc(S(=O)(=O)[O-])cc5F)c5ccc2[nH]5)C=C4)C=C3)cc1
REMARK SMILES IDX 7 1 6 2 5 3 4 4 3 5 2 6 1 7 41 8 42 9 106 10 43 11 105 12
REMARK SMILES IDX 44 13 45 14 46 15 99 16 47 17 104 18 98 19 100 20 48 21
REMARK SMILES IDX 103 22 97 23 96 24 49 26 83 27 62 28 82 29 63 30 66 31 81 32
REMARK SMILES IDX 101 33 64 34 65 35 80 37 102 38 67 39 50 40 51 41 60 42
REMARK SMILES IDX 52 43 53 44 59 45 61 46 54 47 55 48 56 49 57 50 58 51 84 52
REMARK SMILES IDX 85 53 94 54 86 55 87 56 93 57 95 58 88 59 89 60 90 61 91 62
REMARK SMILES IDX 92 63 68 64 69 65 78 66 70 67 71 68 77 69 79 70 72 71 73 72
REMARK SMILES IDX 74 73 75 74 76 75 8 76 9 77 10 78 11 79 12 80 13 81 14 82
REMARK SMILES IDX 15 83 26 84 27 85 40 86 28 88 39 89 29 90 30 92 31 93 32 94
REMARK SMILES IDX 33 95 34 96 38 97 35 98 37 99 36 100 16 101 17 102 25 103
REMARK SMILES IDX 18 104 19 105 24 106 20 108 23 109 21 110 22 111
REMARK H PARENT 100 25 66 36 26 87 29 91 18 107
REMARK Flexibility Score: inf
ROOT
ATOM      1  C   UNL A   1      32.477  30.765  27.166  1.00  0.00     0.188 C 
ENDROOT
BRANCH   1   2
ATOM      2  O   UNL A   1      33.103  32.046  27.102  1.00  0.00    -0.376 OA
BRANCH   2   3
ATOM      3  C   UNL A   1      33.791  32.399  28.304  1.00  0.00     0.202 C 
BRANCH   3   4
ATOM      4  C   UNL A   1      35.271  31.985  28.325  1.00  0.00     0.261 C 
BRANCH   4   5
ATOM      5  O   UNL A   1      35.555  30.986  29.306  1.00  0.00    -0.460 OA
BRANCH   5   6
ATOM      6  C   UNL A   1      36.531  31.001  30.241  1.00  0.00     0.338 C 
ATOM      7  O   UNL A   1      36.189  31.162  31.415  1.00  0.00    -0.246 OA
BRANCH   6   8
ATOM      8  C   UNL A   1      38.004  30.854  29.967  1.00  0.00     0.060 A 
ATOM      9  C   UNL A   1      39.072  31.014  30.868  1.00  0.00     0.016 A 
ATOM     10  C   UNL A   1      38.315  30.338  28.707  1.00  0.00     0.016 A 
ATOM     11  C   UNL A   1      40.388  30.584  30.578  1.00  0.00     0.010 A 
ATOM     12  C   UNL A   1      39.606  29.875  28.438  1.00  0.00     0.010 A 
ATOM     13  C   UNL A   1      40.666  29.936  29.386  1.00  0.00    -0.014 A 
BRANCH  13  14
ATOM     14  C   UNL A   1      41.992  29.305  29.025  1.00  0.00     0.031 A 
ATOM     15  C   UNL A   1      43.048  30.302  28.626  1.00  0.00     0.074 A 
ATOM     16  C   UNL A   1      42.232  27.972  28.858  1.00  0.00     0.049 A 
ATOM     17  N   UNL A   1      44.097  30.158  27.868  1.00  0.00    -0.248 NA
ATOM     18  C   UNL A   1      42.805  31.703  29.053  1.00  0.00     0.031 C 
ATOM     19  C   UNL A   1      41.339  26.859  29.198  1.00  0.00     0.029 A 
ATOM     20  N   UNL A   1      43.288  27.315  28.237  1.00  0.00    -0.354 N 
ATOM     21  C   UNL A   1      44.625  31.436  27.787  1.00  0.00     0.074 A 
ATOM     22  C   UNL A   1      43.616  32.358  28.243  1.00  0.00     0.031 C 
ATOM     23  C   UNL A   1      41.802  25.707  28.663  1.00  0.00     0.029 A 
ATOM     24  C   UNL A   1      43.054  25.967  27.970  1.00  0.00     0.049 A 
ATOM     25  H   UNL A   1      44.133  27.765  28.006  1.00  0.00     0.167 HD
ATOM     26  C   UNL A   1      45.915  31.799  27.619  1.00  0.00     0.037 A 
ATOM     27  C   UNL A   1      43.766  25.073  27.235  1.00  0.00     0.037 A 
ATOM     28  C   UNL A   1      46.941  30.852  27.324  1.00  0.00     0.049 A 
ATOM     29  C   UNL A   1      45.124  25.532  26.758  1.00  0.00     0.074 A 
ATOM     30  C   UNL A   1      48.304  31.044  27.255  1.00  0.00     0.029 A 
ATOM     31  N   UNL A   1      46.696  29.510  27.066  1.00  0.00    -0.354 N 
ATOM     32  N   UNL A   1      45.667  26.725  26.836  1.00  0.00    -0.248 NA
ATOM     33  C   UNL A   1      46.010  24.504  26.193  1.00  0.00     0.031 C 
ATOM     34  C   UNL A   1      48.885  29.817  26.922  1.00  0.00     0.029 A 
ATOM     35  C   UNL A   1      47.885  28.858  26.823  1.00  0.00     0.049 A 
ATOM     36  H   UNL A   1      45.807  29.089  27.057  1.00  0.00     0.167 HD
ATOM     37  C   UNL A   1      46.994  26.560  26.460  1.00  0.00     0.074 A 
ATOM     38  C   UNL A   1      47.148  25.173  26.071  1.00  0.00     0.031 C 
ATOM     39  C   UNL A   1      48.007  27.458  26.501  1.00  0.00     0.037 A 
BRANCH  26  40
ATOM     40  C   UNL A   1      46.245  33.226  27.947  1.00  0.00     0.058 A 
ATOM     41  C   UNL A   1      46.268  34.206  26.933  1.00  0.00     0.135 A 
ATOM     42  C   UNL A   1      46.634  33.610  29.235  1.00  0.00     0.135 A 
ATOM     43  F   UNL A   1      45.930  33.886  25.672  1.00  0.00    -0.206 F 
ATOM     44  C   UNL A   1      46.739  35.489  27.167  1.00  0.00     0.059 A 
ATOM     45  C   UNL A   1      47.068  34.906  29.501  1.00  0.00     0.059 A 
ATOM     46  F   UNL A   1      46.635  32.716  30.236  1.00  0.00    -0.206 F 
ATOM     47  C   UNL A   1      47.143  35.828  28.457  1.00  0.00     0.060 A 
BRANCH  47  48
ATOM     48  S   UNL A   1      47.773  37.496  28.730  1.00  0.00     0.124 S 
ATOM     49  O   UNL A   1      47.706  37.599  30.184  1.00  0.00    -0.237 OA
ATOM     50  O   UNL A   1      49.106  37.427  28.158  1.00  0.00    -0.237 OA
ATOM     51  O   UNL A   1      46.819  38.337  27.999  1.00  0.00    -0.744 OA
ENDBRANCH  47  48
ENDBRANCH  26  40
BRANCH  27  52
ATOM     52  C   UNL A   1      43.348  23.652  26.939  1.00  0.00     0.058 A 
ATOM     53  C   UNL A   1      43.450  22.620  27.884  1.00  0.00     0.135 A 
ATOM     54  C   UNL A   1      43.038  23.241  25.631  1.00  0.00     0.135 A 
ATOM     55  F   UNL A   1      43.869  22.898  29.127  1.00  0.00    -0.206 F 
ATOM     56  C   UNL A   1      43.223  21.273  27.551  1.00  0.00     0.059 A 
ATOM     57  C   UNL A   1      42.740  21.922  25.282  1.00  0.00     0.059 A 
ATOM     58  F   UNL A   1      43.150  24.106  24.623  1.00  0.00    -0.206 F 
ATOM     59  C   UNL A   1      42.853  20.935  26.248  1.00  0.00     0.060 A 
BRANCH  59  60
ATOM     60  S   UNL A   1      42.559  19.203  25.803  1.00  0.00     0.124 S 
ATOM     61  O   UNL A   1      41.130  19.208  25.518  1.00  0.00    -0.237 OA
ATOM     62  O   UNL A   1      43.440  19.023  24.654  1.00  0.00    -0.237 OA
ATOM     63  O   UNL A   1      42.958  18.478  27.007  1.00  0.00    -0.744 OA
ENDBRANCH  59  60
ENDBRANCH  27  52
BRANCH  39  64
ATOM     64  C   UNL A   1      49.394  26.946  26.274  1.00  0.00     0.058 A 
ATOM     65  C   UNL A   1      50.108  26.257  27.260  1.00  0.00     0.135 A 
ATOM     66  C   UNL A   1      49.965  27.061  24.993  1.00  0.00     0.135 A 
ATOM     67  F   UNL A   1      49.607  26.137  28.499  1.00  0.00    -0.206 F 
ATOM     68  C   UNL A   1      51.346  25.692  26.984  1.00  0.00     0.059 A 
ATOM     69  C   UNL A   1      51.184  26.474  24.687  1.00  0.00     0.059 A 
ATOM     70  F   UNL A   1      49.310  27.707  24.015  1.00  0.00    -0.206 F 
ATOM     71  C   UNL A   1      51.868  25.794  25.692  1.00  0.00     0.060 A 
BRANCH  71  72
ATOM     72  S   UNL A   1      53.433  24.978  25.326  1.00  0.00     0.124 S 
ATOM     73  O   UNL A   1      53.724  25.486  23.990  1.00  0.00    -0.237 OA
ATOM     74  O   UNL A   1      54.298  25.470  26.394  1.00  0.00    -0.237 OA
ATOM     75  O   UNL A   1      53.102  23.558  25.401  1.00  0.00    -0.744 OA
ENDBRANCH  71  72
ENDBRANCH  39  64
ENDBRANCH  13  14
ENDBRANCH   6   8
ENDBRANCH   5   6
ENDBRANCH   4   5
ENDBRANCH   3   4
ENDBRANCH   2   3
ENDBRANCH   1   2
BRANCH   1  76
ATOM     76  C   UNL A   1      32.691  29.819  25.974  1.00  0.00     0.188 C 
BRANCH  76  77
ATOM     77  O   UNL A   1      33.772  28.906  26.027  1.00  0.00    -0.376 OA
BRANCH  77  78
ATOM     78  C   UNL A   1      33.515  27.612  26.564  1.00  0.00     0.202 C 
BRANCH  78  79
ATOM     79  C   UNL A   1      34.255  26.377  26.019  1.00  0.00     0.261 C 
BRANCH  79  80
ATOM     80  O   UNL A   1      33.549  25.110  26.034  1.00  0.00    -0.459 OA
BRANCH  80  81
ATOM     81  C   UNL A   1      33.786  24.316  24.949  1.00  0.00     0.370 C 
ATOM     82  O   UNL A   1      34.905  24.240  24.429  1.00  0.00    -0.245 OA
BRANCH  81  83
ATOM     83  C   UNL A   1      32.614  23.504  24.367  1.00  0.00     0.328 C 
BRANCH  83  84
ATOM     84  N   UNL A   1      31.676  24.422  23.655  1.00  0.00    -0.310 N 
ATOM     85  C   UNL A   1      30.586  25.117  24.377  1.00  0.00     0.325 C 
ATOM     86  C   UNL A   1      32.392  25.273  22.718  1.00  0.00     0.325 C 
ATOM     87  H   UNL A   1      31.089  23.749  23.163  1.00  0.00     0.349 HD
ATOM     88  C   UNL A   1      30.660  26.667  24.554  1.00  0.00     0.325 C 
ATOM     89  C   UNL A   1      32.466  26.781  22.977  1.00  0.00     0.325 C 
ATOM     90  N   UNL A   1      31.231  27.401  23.431  1.00  0.00    -0.318 N 
ATOM     91  H   UNL A   1      31.481  28.314  23.811  1.00  0.00     0.348 HD
BRANCH  90  92
ATOM     92  C   UNL A   1      30.316  27.856  22.385  1.00  0.00     0.364 C 
BRANCH  92  93
ATOM     93  C   UNL A   1      28.925  28.329  22.822  1.00  0.00     0.277 C 
ATOM     94  O   UNL A   1      28.145  27.531  23.356  1.00  0.00    -0.268 OA
ATOM     95  N   UNL A   1      28.602  29.677  22.723  1.00  0.00    -0.333 N 
ATOM     96  C   UNL A   1      29.055  30.568  21.660  1.00  0.00     0.148 C 
ATOM     97  C   UNL A   1      27.378  30.132  23.369  1.00  0.00     0.148 C 
ATOM     98  C   UNL A   1      29.002  32.056  21.988  1.00  0.00     0.181 C 
ATOM     99  C   UNL A   1      27.490  31.613  23.733  1.00  0.00     0.181 C 
ATOM    100  O   UNL A   1      27.747  32.418  22.574  1.00  0.00    -0.378 OA
ENDBRANCH  92  93
ENDBRANCH  90  92
ENDBRANCH  83  84
BRANCH  83 101
ATOM    101  C   UNL A   1      32.768  22.299  23.516  1.00  0.00     0.046 A 
ATOM    102  C   UNL A   1      32.397  22.229  22.195  1.00  0.00     0.094 A 
ATOM    103  C   UNL A   1      32.916  20.929  23.976  1.00  0.00     0.009 A 
ATOM    104  N   UNL A   1      31.827  21.000  22.086  1.00  0.00    -0.361 N 
ATOM    105  C   UNL A   1      32.313  20.130  23.011  1.00  0.00     0.049 A 
ATOM    106  C   UNL A   1      33.325  20.290  25.165  1.00  0.00     0.014 A 
ATOM    107  H   UNL A   1      31.144  20.766  21.416  1.00  0.00     0.166 HD
ATOM    108  C   UNL A   1      32.159  18.744  23.093  1.00  0.00     0.065 A 
ATOM    109  C   UNL A   1      33.106  18.905  25.300  1.00  0.00     0.040 A 
ATOM    110  C   UNL A   1      32.585  18.148  24.263  1.00  0.00     0.125 A 
ATOM    111  F   UNL A   1      32.440  16.825  24.416  1.00  0.00    -0.207 F 
ENDBRANCH  83 101
ENDBRANCH  81  83
ENDBRANCH  80  81
ENDBRANCH  79  80
ENDBRANCH  78  79
ENDBRANCH  77  78
ENDBRANCH  76  77
ENDBRANCH   1  76
TORSDOF 24
ENDMDL
MODEL 3
REMARK VINA RESULT:     -10.6      5.002      8.985
REMARK SMILES O=C(OCCOCCOCCOC(=O)[C@H](c1c[nH]c2cc(F)ccc12)[NH+]1CC[NH+](CC(=O)N2CCOCC2)CC1)c1ccc(-c2c3nc(c(-c4c(F)cc(S(=O)(=O)[O-])cc4F)c4ccc([nH]4)c(-c4c(F)cc(S(=O)(=O)[O-])cc4F)c4nc(c(-c5c(F)cc(S(=O)(=O)[O-])cc5F)c5ccc2[nH]5)C=C4)C=C3)cc1
REMARK SMILES IDX 7 1 6 2 5 3 4 4 3 5 2 6 1 7 41 8 42 9 106 10 43 11 105 12
REMARK SMILES IDX 44 13 45 14 46 15 99 16 47 17 104 18 98 19 100 20 48 21
REMARK SMILES IDX 103 22 97 23 96 24 49 26 83 27 62 28 82 29 63 30 66 31 81 32
REMARK SMILES IDX 101 33 64 34 65 35 80 37 102 38 67 39 50 40 51 41 60 42
REMARK SMILES IDX 52 43 53 44 59 45 61 46 54 47 55 48 56 49 57 50 58 51 84 52
REMARK SMILES IDX 85 53 94 54 86 55 87 56 93 57 95 58 88 59 89 60 90 61 91 62
REMARK SMILES IDX 92 63 68 64 69 65 78 66 70 67 71 68 77 69 79 70 72 71 73 72
REMARK SMILES IDX 74 73 75 74 76 75 8 76 9 77 10 78 11 79 12 80 13 81 14 82
REMARK SMILES IDX 15 83 26 84 27 85 40 86 28 88 39 89 29 90 30 92 31 93 32 94
REMARK SMILES IDX 33 95 34 96 38 97 35 98 37 99 36 100 16 101 17 102 25 103
REMARK SMILES IDX 18 104 19 105 24 106 20 108 23 109 21 110 22 111
REMARK H PARENT 100 25 66 36 26 87 29 91 18 107
REMARK Flexibility Score: inf
ROOT
ATOM      1  C   UNL A   1      40.382  22.318  26.584  1.00  0.00     0.188 C 
ENDROOT
BRANCH   1   2
ATOM      2  O   UNL A   1      40.375  21.007  27.149  1.00  0.00    -0.376 OA
BRANCH   2   3
ATOM      3  C   UNL A   1      40.367  19.969  26.166  1.00  0.00     0.202 C 
BRANCH   3   4
ATOM      4  C   UNL A   1      41.600  19.052  26.210  1.00  0.00     0.261 C 
BRANCH   4   5
ATOM      5  O   UNL A   1      42.536  19.328  25.165  1.00  0.00    -0.460 OA
BRANCH   5   6
ATOM      6  C   UNL A   1      43.656  20.081  25.239  1.00  0.00     0.338 C 
ATOM      7  O   UNL A   1      44.689  19.606  24.763  1.00  0.00    -0.246 OA
BRANCH   6   8
ATOM      8  C   UNL A   1      43.751  21.445  25.868  1.00  0.00     0.060 A 
ATOM      9  C   UNL A   1      43.782  21.766  27.237  1.00  0.00     0.016 A 
ATOM     10  C   UNL A   1      44.002  22.485  24.972  1.00  0.00     0.016 A 
ATOM     11  C   UNL A   1      44.150  23.045  27.715  1.00  0.00     0.010 A 
ATOM     12  C   UNL A   1      44.407  23.737  25.445  1.00  0.00     0.010 A 
ATOM     13  C   UNL A   1      44.544  24.036  26.830  1.00  0.00    -0.014 A 
BRANCH  13  14
ATOM     14  C   UNL A   1      45.094  25.388  27.224  1.00  0.00     0.031 A 
ATOM     15  C   UNL A   1      44.032  26.432  27.450  1.00  0.00     0.074 A 
ATOM     16  C   UNL A   1      46.407  25.762  27.204  1.00  0.00     0.049 A 
ATOM     17  N   UNL A   1      44.096  27.729  27.363  1.00  0.00    -0.248 NA
ATOM     18  C   UNL A   1      42.662  25.914  27.690  1.00  0.00     0.031 C 
ATOM     19  C   UNL A   1      47.575  24.895  27.014  1.00  0.00     0.029 A 
ATOM     20  N   UNL A   1      46.987  27.024  27.234  1.00  0.00    -0.354 N 
ATOM     21  C   UNL A   1      42.791  28.140  27.580  1.00  0.00     0.074 A 
ATOM     22  C   UNL A   1      41.938  26.988  27.435  1.00  0.00     0.031 C 
ATOM     23  C   UNL A   1      48.682  25.640  26.799  1.00  0.00     0.029 A 
ATOM     24  C   UNL A   1      48.335  27.050  26.877  1.00  0.00     0.049 A 
ATOM     25  H   UNL A   1      46.487  27.834  27.488  1.00  0.00     0.167 HD
ATOM     26  C   UNL A   1      42.359  29.298  28.122  1.00  0.00     0.037 A 
ATOM     27  C   UNL A   1      49.164  28.097  26.627  1.00  0.00     0.037 A 
ATOM     28  C   UNL A   1      43.241  30.381  28.411  1.00  0.00     0.049 A 
ATOM     29  C   UNL A   1      48.621  29.470  26.944  1.00  0.00     0.074 A 
ATOM     30  C   UNL A   1      42.980  31.560  29.077  1.00  0.00     0.029 A 
ATOM     31  N   UNL A   1      44.584  30.394  28.057  1.00  0.00    -0.354 N 
ATOM     32  N   UNL A   1      47.407  29.815  27.304  1.00  0.00    -0.248 NA
ATOM     33  C   UNL A   1      49.583  30.583  26.930  1.00  0.00     0.031 C 
ATOM     34  C   UNL A   1      44.163  32.304  29.096  1.00  0.00     0.029 A 
ATOM     35  C   UNL A   1      45.166  31.569  28.478  1.00  0.00     0.049 A 
ATOM     36  H   UNL A   1      45.048  29.671  27.577  1.00  0.00     0.167 HD
ATOM     37  C   UNL A   1      47.491  31.147  27.688  1.00  0.00     0.074 A 
ATOM     38  C   UNL A   1      48.854  31.569  27.433  1.00  0.00     0.031 C 
ATOM     39  C   UNL A   1      46.545  31.928  28.264  1.00  0.00     0.037 A 
BRANCH  26  40
ATOM     40  C   UNL A   1      40.930  29.316  28.582  1.00  0.00     0.058 A 
ATOM     41  C   UNL A   1      39.880  29.472  27.652  1.00  0.00     0.135 A 
ATOM     42  C   UNL A   1      40.598  29.281  29.940  1.00  0.00     0.135 A 
ATOM     43  F   UNL A   1      40.146  29.539  26.335  1.00  0.00    -0.206 F 
ATOM     44  C   UNL A   1      38.569  29.670  28.055  1.00  0.00     0.059 A 
ATOM     45  C   UNL A   1      39.280  29.434  30.366  1.00  0.00     0.059 A 
ATOM     46  F   UNL A   1      41.557  29.140  30.869  1.00  0.00    -0.206 F 
ATOM     47  C   UNL A   1      38.279  29.656  29.418  1.00  0.00     0.060 A 
BRANCH  47  48
ATOM     48  S   UNL A   1      36.570  29.938  29.918  1.00  0.00     0.124 S 
ATOM     49  O   UNL A   1      36.540  31.391  30.050  1.00  0.00    -0.237 OA
ATOM     50  O   UNL A   1      35.820  29.386  28.803  1.00  0.00    -0.237 OA
ATOM     51  O   UNL A   1      36.463  29.194  31.177  1.00  0.00    -0.744 OA
ENDBRANCH  47  48
ENDBRANCH  26  40
BRANCH  27  52
ATOM     52  C   UNL A   1      50.593  27.988  26.148  1.00  0.00     0.058 A 
ATOM     53  C   UNL A   1      50.927  27.819  24.795  1.00  0.00     0.135 A 
ATOM     54  C   UNL A   1      51.656  27.832  27.053  1.00  0.00     0.135 A 
ATOM     55  F   UNL A   1      49.958  27.820  23.868  1.00  0.00    -0.206 F 
ATOM     56  C   UNL A   1      52.241  27.548  24.375  1.00  0.00     0.059 A 
ATOM     57  C   UNL A   1      52.982  27.630  26.666  1.00  0.00     0.059 A 
ATOM     58  F   UNL A   1      51.404  27.738  28.359  1.00  0.00    -0.206 F 
ATOM     59  C   UNL A   1      53.267  27.469  25.319  1.00  0.00     0.060 A 
BRANCH  59  60
ATOM     60  S   UNL A   1      54.965  27.118  24.793  1.00  0.00     0.124 S 
ATOM     61  O   UNL A   1      55.111  28.007  23.648  1.00  0.00    -0.237 OA
ATOM     62  O   UNL A   1      55.737  27.471  25.980  1.00  0.00    -0.237 OA
ATOM     63  O   UNL A   1      54.928  25.691  24.482  1.00  0.00    -0.744 OA
ENDBRANCH  59  60
ENDBRANCH  27  52
BRANCH  39  64
ATOM     64  C   UNL A   1      46.979  33.254  28.804  1.00  0.00     0.058 A 
ATOM     65  C   UNL A   1      46.861  34.437  28.066  1.00  0.00     0.135 A 
ATOM     66  C   UNL A   1      47.420  33.340  30.137  1.00  0.00     0.135 A 
ATOM     67  F   UNL A   1      46.458  34.399  26.786  1.00  0.00    -0.206 F 
ATOM     68  C   UNL A   1      47.162  35.668  28.633  1.00  0.00     0.059 A 
ATOM     69  C   UNL A   1      47.692  34.563  30.733  1.00  0.00     0.059 A 
ATOM     70  F   UNL A   1      47.539  32.230  30.884  1.00  0.00    -0.206 F 
ATOM     71  C   UNL A   1      47.563  35.720  29.970  1.00  0.00     0.060 A 
BRANCH  71  72
ATOM     72  S   UNL A   1      47.863  37.333  30.719  1.00  0.00     0.124 S 
ATOM     73  O   UNL A   1      46.717  38.097  30.241  1.00  0.00    -0.237 OA
ATOM     74  O   UNL A   1      47.867  37.018  32.145  1.00  0.00    -0.237 OA
ATOM     75  O   UNL A   1      49.157  37.727  30.169  1.00  0.00    -0.744 OA
ENDBRANCH  71  72
ENDBRANCH  39  64
ENDBRANCH  13  14
ENDBRANCH   6   8
ENDBRANCH   5   6
ENDBRANCH   4   5
ENDBRANCH   3   4
ENDBRANCH   2   3
ENDBRANCH   1   2
BRANCH   1  76
ATOM     76  C   UNL A   1      39.227  23.254  26.971  1.00  0.00     0.188 C 
BRANCH  76  77
ATOM     77  O   UNL A   1      38.222  23.514  26.008  1.00  0.00    -0.376 OA
BRANCH  77  78
ATOM     78  C   UNL A   1      37.528  22.397  25.461  1.00  0.00     0.202 C 
BRANCH  78  79
ATOM     79  C   UNL A   1      37.133  22.374  23.973  1.00  0.00     0.261 C 
BRANCH  79  80
ATOM     80  O   UNL A   1      35.816  21.866  23.637  1.00  0.00    -0.459 OA
BRANCH  80  81
ATOM     81  C   UNL A   1      34.834  22.813  23.607  1.00  0.00     0.370 C 
ATOM     82  O   UNL A   1      34.670  23.552  22.630  1.00  0.00    -0.245 OA
BRANCH  81  83
ATOM     83  C   UNL A   1      33.919  22.956  24.838  1.00  0.00     0.328 C 
BRANCH  83  84
ATOM     84  N   UNL A   1      32.875  23.989  24.567  1.00  0.00    -0.310 N 
ATOM     85  C   UNL A   1      31.434  23.661  24.642  1.00  0.00     0.325 C 
ATOM     86  C   UNL A   1      33.220  25.255  25.193  1.00  0.00     0.325 C 
ATOM     87  H   UNL A   1      32.933  24.055  23.550  1.00  0.00     0.349 HD
ATOM     88  C   UNL A   1      30.572  24.280  25.788  1.00  0.00     0.325 C 
ATOM     89  C   UNL A   1      32.359  25.783  26.345  1.00  0.00     0.325 C 
ATOM     90  N   UNL A   1      30.922  25.643  26.170  1.00  0.00    -0.318 N 
ATOM     91  H   UNL A   1      30.498  25.779  27.088  1.00  0.00     0.348 HD
BRANCH  90  92
ATOM     92  C   UNL A   1      30.250  26.736  25.469  1.00  0.00     0.364 C 
BRANCH  92  93
ATOM     93  C   UNL A   1      31.133  27.785  24.786  1.00  0.00     0.277 C 
ATOM     94  O   UNL A   1      31.344  28.868  25.345  1.00  0.00    -0.268 OA
ATOM     95  N   UNL A   1      31.785  27.461  23.601  1.00  0.00    -0.333 N 
ATOM     96  C   UNL A   1      31.239  26.599  22.558  1.00  0.00     0.148 C 
ATOM     97  C   UNL A   1      32.802  28.380  23.111  1.00  0.00     0.148 C 
ATOM     98  C   UNL A   1      32.266  25.993  21.608  1.00  0.00     0.181 C 
ATOM     99  C   UNL A   1      33.823  27.633  22.253  1.00  0.00     0.181 C 
ATOM    100  O   UNL A   1      33.194  26.979  21.142  1.00  0.00    -0.378 OA
ENDBRANCH  92  93
ENDBRANCH  90  92
ENDBRANCH  83  84
BRANCH  83 101
ATOM    101  C   UNL A   1      33.240  21.824  25.516  1.00  0.00     0.046 A 
ATOM    102  C   UNL A   1      33.228  21.628  26.875  1.00  0.00     0.094 A 
ATOM    103  C   UNL A   1      32.860  20.559  24.912  1.00  0.00     0.009 A 
ATOM    104  N   UNL A   1      33.407  20.287  27.008  1.00  0.00    -0.361 N 
ATOM    105  C   UNL A   1      32.964  19.605  25.919  1.00  0.00     0.049 A 
ATOM    106  C   UNL A   1      32.618  20.082  23.608  1.00  0.00     0.014 A 
ATOM    107  H   UNL A   1      33.808  19.861  27.799  1.00  0.00     0.166 HD
ATOM    108  C   UNL A   1      32.763  18.232  25.753  1.00  0.00     0.065 A 
ATOM    109  C   UNL A   1      32.492  18.693  23.406  1.00  0.00     0.040 A 
ATOM    110  C   UNL A   1      32.510  17.801  24.466  1.00  0.00     0.125 A 
ATOM    111  F   UNL A   1      32.337  16.493  24.235  1.00  0.00    -0.207 F 
ENDBRANCH  83 101
ENDBRANCH  81  83
ENDBRANCH  80  81
ENDBRANCH  79  80
ENDBRANCH  78  79
ENDBRANCH  77  78
ENDBRANCH  76  77
ENDBRANCH   1  76
TORSDOF 24
ENDMDL
