MODEL 1
REMARK VINA RESULT:     -10.0      0.000      0.000
REMARK SMILES NC(=O)c1ccsc1NS(=O)(=O)c1ccc(C(=O)OCCOCCOCCOC(=O)c2ccc(-c3c4nc(c(-c5c(F)cc(S(=O)(=O)[O-])cc5F)c5ccc([nH]5)c(-c5c(F)cc(S(=O)(=O)[O-])cc5F)c5nc(c(-c6c(F)cc(S(=O)(=O)[O-])cc6F)c6ccc3[nH]6)C=C5)C=C4)cc2)cc1
REMARK SMILES IDX 23 1 22 2 21 3 20 4 19 5 17 6 18 7 16 8 13 9 14 10 98 11
REMARK SMILES IDX 15 12 97 13 10 14 11 15 12 16 9 17 8 19 4 20 5 21 6 22 7 23
REMARK SMILES IDX 2 24 1 25 3 28 24 29 25 30 26 31 27 32 28 33 29 34 30 35
REMARK SMILES IDX 31 36 32 37 96 38 33 39 95 40 34 41 35 42 36 43 89 44 37 45
REMARK SMILES IDX 94 46 88 47 90 48 38 49 93 50 87 51 86 52 39 54 73 55 52 56
REMARK SMILES IDX 72 57 53 58 56 59 71 60 91 61 54 62 55 63 70 65 92 66 57 67
REMARK SMILES IDX 40 68 41 69 50 70 42 71 43 72 49 73 51 74 44 75 45 76 46 77
REMARK SMILES IDX 47 78 48 79 74 80 75 81 84 82 76 83 77 84 83 85 85 86 78 87
REMARK SMILES IDX 79 88 80 89 81 90 82 91 58 92 59 93 68 94 60 95 61 96 67 97
REMARK SMILES IDX 69 98 62 99 63 100 64 101 65 102 66 103
REMARK H PARENT 9 18 1 26 1 27 90 53 56 64
REMARK Flexibility Score: inf
ROOT
ATOM      1  C   UNL A   1      34.449  31.150  27.926  1.00  0.00     0.188 C 
ENDROOT
BRANCH   1   2
ATOM      2  O   UNL A   1      33.349  31.801  27.325  1.00  0.00    -0.376 OA
BRANCH   2   3
ATOM      3  C   UNL A   1      32.187  31.080  26.952  1.00  0.00     0.202 C 
BRANCH   3   4
ATOM      4  C   UNL A   1      32.202  29.683  26.312  1.00  0.00     0.261 C 
BRANCH   4   5
ATOM      5  O   UNL A   1      31.814  29.628  24.936  1.00  0.00    -0.460 OA
BRANCH   5   6
ATOM      6  C   UNL A   1      32.689  28.975  24.136  1.00  0.00     0.338 C 
ATOM      7  O   UNL A   1      33.602  29.470  23.495  1.00  0.00    -0.246 OA
BRANCH   6   8
ATOM      8  C   UNL A   1      32.508  27.510  24.239  1.00  0.00     0.060 A 
ATOM      9  C   UNL A   1      32.382  24.750  24.050  1.00  0.00     0.087 A 
ATOM     10  C   UNL A   1      33.605  25.362  24.351  1.00  0.00     0.023 A 
ATOM     11  C   UNL A   1      31.192  25.488  24.021  1.00  0.00     0.023 A 
ATOM     12  C   UNL A   1      33.667  26.747  24.435  1.00  0.00     0.017 A 
ATOM     13  C   UNL A   1      31.259  26.885  24.100  1.00  0.00     0.017 A 
BRANCH   9  14
ATOM     14  S   UNL A   1      32.418  23.067  23.485  1.00  0.00     0.262 S 
ATOM     15  O   UNL A   1      33.532  22.981  22.558  1.00  0.00    -0.201 OA
ATOM     16  O   UNL A   1      31.084  22.705  23.068  1.00  0.00    -0.201 OA
BRANCH  14  17
ATOM     17  N   UNL A   1      32.814  22.071  24.772  1.00  0.00    -0.270 N 
ATOM     18  H   UNL A   1      32.104  21.918  25.436  1.00  0.00     0.181 HD
BRANCH  17  19
ATOM     19  C   UNL A   1      34.060  21.416  25.021  1.00  0.00     0.115 A 
ATOM     20  C   UNL A   1      34.142  20.031  25.095  1.00  0.00     0.074 A 
ATOM     21  C   UNL A   1      35.511  19.593  24.987  1.00  0.00     0.028 A 
ATOM     22  C   UNL A   1      36.396  20.643  25.034  1.00  0.00     0.068 A 
ATOM     23  S   UNL A   1      35.577  22.094  25.398  1.00  0.00    -0.125 S 
BRANCH  20  24
ATOM     24  C   UNL A   1      32.988  19.162  25.226  1.00  0.00     0.251 C 
ATOM     25  N   UNL A   1      32.965  18.430  26.374  1.00  0.00    -0.366 N 
ATOM     26  H   UNL A   1      32.218  17.812  26.550  1.00  0.00     0.159 HD
ATOM     27  H   UNL A   1      33.693  18.519  27.030  1.00  0.00     0.159 HD
ATOM     28  O   UNL A   1      32.060  19.133  24.417  1.00  0.00    -0.269 OA
ENDBRANCH  20  24
ENDBRANCH  17  19
ENDBRANCH  14  17
ENDBRANCH   9  14
ENDBRANCH   6   8
ENDBRANCH   5   6
ENDBRANCH   4   5
ENDBRANCH   3   4
ENDBRANCH   2   3
ENDBRANCH   1   2
BRANCH   1  29
ATOM     29  C   UNL A   1      35.279  31.894  28.990  1.00  0.00     0.188 C 
BRANCH  29  30
ATOM     30  O   UNL A   1      34.630  32.565  30.046  1.00  0.00    -0.376 OA
BRANCH  30  31
ATOM     31  C   UNL A   1      34.931  32.227  31.390  1.00  0.00     0.202 C 
BRANCH  31  32
ATOM     32  C   UNL A   1      36.194  31.479  31.858  1.00  0.00     0.261 C 
BRANCH  32  33
ATOM     33  O   UNL A   1      36.373  30.130  31.420  1.00  0.00    -0.460 OA
BRANCH  33  34
ATOM     34  C   UNL A   1      37.292  29.415  32.119  1.00  0.00     0.338 C 
ATOM     35  O   UNL A   1      37.083  28.670  33.062  1.00  0.00    -0.246 OA
BRANCH  34  36
ATOM     36  C   UNL A   1      38.598  29.525  31.444  1.00  0.00     0.060 A 
ATOM     37  C   UNL A   1      38.629  29.661  30.048  1.00  0.00     0.016 A 
ATOM     38  C   UNL A   1      39.779  29.443  32.179  1.00  0.00     0.016 A 
ATOM     39  C   UNL A   1      39.852  29.696  29.378  1.00  0.00     0.010 A 
ATOM     40  C   UNL A   1      41.002  29.452  31.503  1.00  0.00     0.010 A 
ATOM     41  C   UNL A   1      41.042  29.549  30.099  1.00  0.00    -0.014 A 
BRANCH  41  42
ATOM     42  C   UNL A   1      42.318  29.299  29.386  1.00  0.00     0.031 A 
ATOM     43  C   UNL A   1      42.554  27.929  28.809  1.00  0.00     0.074 A 
ATOM     44  C   UNL A   1      43.249  30.261  29.257  1.00  0.00     0.049 A 
ATOM     45  N   UNL A   1      43.625  27.440  28.244  1.00  0.00    -0.248 NA
ATOM     46  C   UNL A   1      41.429  26.983  28.893  1.00  0.00     0.031 C 
ATOM     47  C   UNL A   1      43.115  31.637  29.729  1.00  0.00     0.029 A 
ATOM     48  N   UNL A   1      44.504  30.215  28.703  1.00  0.00    -0.354 N 
ATOM     49  C   UNL A   1      43.310  26.126  27.915  1.00  0.00     0.074 A 
ATOM     50  C   UNL A   1      41.958  25.888  28.369  1.00  0.00     0.031 C 
ATOM     51  C   UNL A   1      44.254  32.301  29.464  1.00  0.00     0.029 A 
ATOM     52  C   UNL A   1      45.210  31.386  28.839  1.00  0.00     0.049 A 
ATOM     53  H   UNL A   1      44.864  29.418  28.250  1.00  0.00     0.167 HD
ATOM     54  C   UNL A   1      44.079  25.204  27.288  1.00  0.00     0.037 A 
ATOM     55  C   UNL A   1      46.489  31.674  28.524  1.00  0.00     0.037 A 
ATOM     56  C   UNL A   1      45.424  25.450  26.840  1.00  0.00     0.049 A 
ATOM     57  C   UNL A   1      47.351  30.609  27.893  1.00  0.00     0.074 A 
ATOM     58  C   UNL A   1      46.283  24.587  26.183  1.00  0.00     0.029 A 
ATOM     59  N   UNL A   1      46.112  26.643  27.013  1.00  0.00    -0.354 N 
ATOM     60  N   UNL A   1      47.042  29.374  27.576  1.00  0.00    -0.248 NA
ATOM     61  C   UNL A   1      48.740  30.976  27.580  1.00  0.00     0.031 C 
ATOM     62  C   UNL A   1      47.507  25.239  26.007  1.00  0.00     0.029 A 
ATOM     63  C   UNL A   1      47.393  26.530  26.498  1.00  0.00     0.049 A 
ATOM     64  H   UNL A   1      45.743  27.450  27.438  1.00  0.00     0.167 HD
ATOM     65  C   UNL A   1      48.184  28.829  26.995  1.00  0.00     0.074 A 
ATOM     66  C   UNL A   1      49.189  29.871  26.999  1.00  0.00     0.031 C 
ATOM     67  C   UNL A   1      48.381  27.580  26.500  1.00  0.00     0.037 A 
BRANCH  54  68
ATOM     68  C   UNL A   1      43.492  23.836  27.080  1.00  0.00     0.058 A 
ATOM     69  C   UNL A   1      43.062  23.395  25.818  1.00  0.00     0.135 A 
ATOM     70  C   UNL A   1      43.384  22.938  28.156  1.00  0.00     0.135 A 
ATOM     71  F   UNL A   1      43.122  24.218  24.758  1.00  0.00    -0.206 F 
ATOM     72  C   UNL A   1      42.521  22.127  25.634  1.00  0.00     0.059 A 
ATOM     73  C   UNL A   1      42.874  21.654  27.989  1.00  0.00     0.059 A 
ATOM     74  F   UNL A   1      43.776  23.308  29.385  1.00  0.00    -0.206 F 
ATOM     75  C   UNL A   1      42.432  21.262  26.727  1.00  0.00     0.060 A 
BRANCH  75  76
ATOM     76  S   UNL A   1      41.735  19.618  26.472  1.00  0.00     0.124 S 
ATOM     77  O   UNL A   1      42.248  18.900  27.634  1.00  0.00    -0.237 OA
ATOM     78  O   UNL A   1      40.301  19.883  26.473  1.00  0.00    -0.237 OA
ATOM     79  O   UNL A   1      42.292  19.207  25.186  1.00  0.00    -0.744 OA
ENDBRANCH  75  76
ENDBRANCH  54  68
BRANCH  55  80
ATOM     80  C   UNL A   1      47.044  33.024  28.816  1.00  0.00     0.058 A 
ATOM     81  C   UNL A   1      47.019  34.042  27.851  1.00  0.00     0.135 A 
ATOM     82  C   UNL A   1      47.618  33.321  30.062  1.00  0.00     0.135 A 
ATOM     83  F   UNL A   1      46.494  33.805  26.640  1.00  0.00    -0.206 F 
ATOM     84  C   UNL A   1      47.556  35.301  28.105  1.00  0.00     0.059 A 
ATOM     85  C   UNL A   1      48.137  34.580  30.349  1.00  0.00     0.059 A 
ATOM     86  F   UNL A   1      47.664  32.385  31.023  1.00  0.00    -0.206 F 
ATOM     87  C   UNL A   1      48.110  35.561  29.360  1.00  0.00     0.060 A 
BRANCH  87  88
ATOM     88  S   UNL A   1      48.763  37.213  29.692  1.00  0.00     0.124 S 
ATOM     89  O   UNL A   1      50.194  37.008  29.499  1.00  0.00    -0.237 OA
ATOM     90  O   UNL A   1      48.090  38.017  28.678  1.00  0.00    -0.237 OA
ATOM     91  O   UNL A   1      48.343  37.469  31.067  1.00  0.00    -0.744 OA
ENDBRANCH  87  88
ENDBRANCH  55  80
BRANCH  67  92
ATOM     92  C   UNL A   1      49.720  27.279  25.878  1.00  0.00     0.058 A 
ATOM     93  C   UNL A   1      49.931  27.358  24.493  1.00  0.00     0.135 A 
ATOM     94  C   UNL A   1      50.823  26.967  26.690  1.00  0.00     0.135 A 
ATOM     95  F   UNL A   1      48.910  27.648  23.669  1.00  0.00    -0.206 F 
ATOM     96  C   UNL A   1      51.181  27.115  23.933  1.00  0.00     0.059 A 
ATOM     97  C   UNL A   1      52.090  26.750  26.154  1.00  0.00     0.059 A 
ATOM     98  F   UNL A   1      50.683  26.891  28.024  1.00  0.00    -0.206 F 
ATOM     99  C   UNL A   1      52.256  26.815  24.772  1.00  0.00     0.060 A 
BRANCH  99 100
ATOM    100  S   UNL A   1      53.881  26.537  24.034  1.00  0.00     0.124 S 
ATOM    101  O   UNL A   1      53.625  26.850  22.632  1.00  0.00    -0.237 OA
ATOM    102  O   UNL A   1      54.718  27.491  24.755  1.00  0.00    -0.237 OA
ATOM    103  O   UNL A   1      54.150  25.132  24.324  1.00  0.00    -0.744 OA
ENDBRANCH  99 100
ENDBRANCH  67  92
ENDBRANCH  41  42
ENDBRANCH  34  36
ENDBRANCH  33  34
ENDBRANCH  32  33
ENDBRANCH  31  32
ENDBRANCH  30  31
ENDBRANCH  29  30
ENDBRANCH   1  29
TORSDOF 24
ENDMDL
MODEL 2
REMARK VINA RESULT:      -9.9      1.344      8.181
REMARK SMILES NC(=O)c1ccsc1NS(=O)(=O)c1ccc(C(=O)OCCOCCOCCOC(=O)c2ccc(-c3c4nc(c(-c5c(F)cc(S(=O)(=O)[O-])cc5F)c5ccc([nH]5)c(-c5c(F)cc(S(=O)(=O)[O-])cc5F)c5nc(c(-c6c(F)cc(S(=O)(=O)[O-])cc6F)c6ccc3[nH]6)C=C5)C=C4)cc2)cc1
REMARK SMILES IDX 23 1 22 2 21 3 20 4 19 5 17 6 18 7 16 8 13 9 14 10 98 11
REMARK SMILES IDX 15 12 97 13 10 14 11 15 12 16 9 17 8 19 4 20 5 21 6 22 7 23
REMARK SMILES IDX 2 24 1 25 3 28 24 29 25 30 26 31 27 32 28 33 29 34 30 35
REMARK SMILES IDX 31 36 32 37 96 38 33 39 95 40 34 41 35 42 36 43 89 44 37 45
REMARK SMILES IDX 94 46 88 47 90 48 38 49 93 50 87 51 86 52 39 54 73 55 52 56
REMARK SMILES IDX 72 57 53 58 56 59 71 60 91 61 54 62 55 63 70 65 92 66 57 67
REMARK SMILES IDX 40 68 41 69 50 70 42 71 43 72 49 73 51 74 44 75 45 76 46 77
REMARK SMILES IDX 47 78 48 79 74 80 75 81 84 82 76 83 77 84 83 85 85 86 78 87
REMARK SMILES IDX 79 88 80 89 81 90 82 91 58 92 59 93 68 94 60 95 61 96 67 97
REMARK SMILES IDX 69 98 62 99 63 100 64 101 65 102 66 103
REMARK H PARENT 9 18 1 26 1 27 90 53 56 64
REMARK Flexibility Score: inf
ROOT
ATOM      1  C   UNL A   1      32.972  30.013  25.992  1.00  0.00     0.188 C 
ENDROOT
BRANCH   1   2
ATOM      2  O   UNL A   1      31.748  30.682  25.771  1.00  0.00    -0.376 OA
BRANCH   2   3
ATOM      3  C   UNL A   1      30.819  30.206  24.812  1.00  0.00     0.202 C 
BRANCH   3   4
ATOM      4  C   UNL A   1      31.179  29.275  23.644  1.00  0.00     0.261 C 
BRANCH   4   5
ATOM      5  O   UNL A   1      30.854  27.894  23.830  1.00  0.00    -0.460 OA
BRANCH   5   6
ATOM      6  C   UNL A   1      31.329  27.074  22.863  1.00  0.00     0.338 C 
ATOM      7  O   UNL A   1      30.899  26.962  21.726  1.00  0.00    -0.246 OA
BRANCH   6   8
ATOM      8  C   UNL A   1      32.574  26.406  23.301  1.00  0.00     0.060 A 
ATOM      9  C   UNL A   1      34.665  24.789  24.126  1.00  0.00     0.087 A 
ATOM     10  C   UNL A   1      34.207  24.697  22.807  1.00  0.00     0.023 A 
ATOM     11  C   UNL A   1      34.210  25.802  24.981  1.00  0.00     0.023 A 
ATOM     12  C   UNL A   1      33.151  25.502  22.398  1.00  0.00     0.017 A 
ATOM     13  C   UNL A   1      33.142  26.608  24.568  1.00  0.00     0.017 A 
BRANCH   9  14
ATOM     14  S   UNL A   1      35.657  23.456  24.751  1.00  0.00     0.262 S 
ATOM     15  O   UNL A   1      36.604  24.059  25.671  1.00  0.00    -0.201 OA
ATOM     16  O   UNL A   1      36.119  22.675  23.627  1.00  0.00    -0.201 OA
BRANCH  14  17
ATOM     17  N   UNL A   1      34.692  22.450  25.678  1.00  0.00    -0.270 N 
ATOM     18  H   UNL A   1      34.593  22.697  26.626  1.00  0.00     0.181 HD
BRANCH  17  19
ATOM     19  C   UNL A   1      33.995  21.274  25.260  1.00  0.00     0.115 A 
ATOM     20  C   UNL A   1      32.613  21.270  25.118  1.00  0.00     0.074 A 
ATOM     21  C   UNL A   1      32.180  20.127  24.353  1.00  0.00     0.028 A 
ATOM     22  C   UNL A   1      33.203  19.239  24.127  1.00  0.00     0.068 A 
ATOM     23  S   UNL A   1      34.596  19.702  24.995  1.00  0.00    -0.125 S 
BRANCH  20  24
ATOM     24  C   UNL A   1      31.746  22.307  25.645  1.00  0.00     0.251 C 
ATOM     25  N   UNL A   1      30.665  21.840  26.329  1.00  0.00    -0.366 N 
ATOM     26  H   UNL A   1      30.021  22.472  26.724  1.00  0.00     0.159 HD
ATOM     27  H   UNL A   1      30.527  20.870  26.431  1.00  0.00     0.159 HD
ATOM     28  O   UNL A   1      31.992  23.511  25.560  1.00  0.00    -0.269 OA
ENDBRANCH  20  24
ENDBRANCH  17  19
ENDBRANCH  14  17
ENDBRANCH   9  14
ENDBRANCH   6   8
ENDBRANCH   5   6
ENDBRANCH   4   5
ENDBRANCH   3   4
ENDBRANCH   2   3
ENDBRANCH   1   2
BRANCH   1  29
ATOM     29  C   UNL A   1      33.829  30.391  27.217  1.00  0.00     0.188 C 
BRANCH  29  30
ATOM     30  O   UNL A   1      33.667  31.650  27.828  1.00  0.00    -0.376 OA
BRANCH  30  31
ATOM     31  C   UNL A   1      34.787  32.316  28.386  1.00  0.00     0.202 C 
BRANCH  31  32
ATOM     32  C   UNL A   1      35.145  32.354  29.885  1.00  0.00     0.261 C 
BRANCH  32  33
ATOM     33  O   UNL A   1      35.972  31.308  30.401  1.00  0.00    -0.460 OA
BRANCH  33  34
ATOM     34  C   UNL A   1      37.093  31.725  31.044  1.00  0.00     0.338 C 
ATOM     35  O   UNL A   1      37.156  32.497  31.987  1.00  0.00    -0.246 OA
BRANCH  34  36
ATOM     36  C   UNL A   1      38.245  30.951  30.549  1.00  0.00     0.060 A 
ATOM     37  C   UNL A   1      39.171  30.447  31.475  1.00  0.00     0.016 A 
ATOM     38  C   UNL A   1      38.434  30.767  29.180  1.00  0.00     0.016 A 
ATOM     39  C   UNL A   1      40.306  29.772  31.029  1.00  0.00     0.010 A 
ATOM     40  C   UNL A   1      39.585  30.114  28.735  1.00  0.00     0.010 A 
ATOM     41  C   UNL A   1      40.540  29.640  29.655  1.00  0.00    -0.014 A 
BRANCH  41  42
ATOM     42  C   UNL A   1      41.863  29.185  29.166  1.00  0.00     0.031 A 
ATOM     43  C   UNL A   1      42.970  30.200  29.059  1.00  0.00     0.074 A 
ATOM     44  C   UNL A   1      42.080  27.904  28.817  1.00  0.00     0.049 A 
ATOM     45  N   UNL A   1      44.170  30.070  28.560  1.00  0.00    -0.248 NA
ATOM     46  C   UNL A   1      42.673  31.545  29.579  1.00  0.00     0.031 C 
ATOM     47  C   UNL A   1      41.104  26.822  28.922  1.00  0.00     0.029 A 
ATOM     48  N   UNL A   1      43.194  27.304  28.284  1.00  0.00    -0.354 N 
ATOM     49  C   UNL A   1      44.769  31.318  28.693  1.00  0.00     0.074 A 
ATOM     50  C   UNL A   1      43.790  32.197  29.294  1.00  0.00     0.031 C 
ATOM     51  C   UNL A   1      41.655  25.692  28.446  1.00  0.00     0.029 A 
ATOM     52  C   UNL A   1      43.008  25.980  27.969  1.00  0.00     0.049 A 
ATOM     53  H   UNL A   1      44.045  27.778  28.143  1.00  0.00     0.167 HD
ATOM     54  C   UNL A   1      46.023  31.695  28.348  1.00  0.00     0.037 A 
ATOM     55  C   UNL A   1      43.825  25.111  27.338  1.00  0.00     0.037 A 
ATOM     56  C   UNL A   1      46.991  30.813  27.749  1.00  0.00     0.049 A 
ATOM     57  C   UNL A   1      45.191  25.572  26.896  1.00  0.00     0.074 A 
ATOM     58  C   UNL A   1      48.293  31.093  27.375  1.00  0.00     0.029 A 
ATOM     59  N   UNL A   1      46.759  29.483  27.428  1.00  0.00    -0.354 N 
ATOM     60  N   UNL A   1      45.753  26.750  27.036  1.00  0.00    -0.248 NA
ATOM     61  C   UNL A   1      46.036  24.586  26.206  1.00  0.00     0.031 C 
ATOM     62  C   UNL A   1      48.831  29.949  26.777  1.00  0.00     0.029 A 
ATOM     63  C   UNL A   1      47.886  28.936  26.835  1.00  0.00     0.049 A 
ATOM     64  H   UNL A   1      45.919  29.000  27.596  1.00  0.00     0.167 HD
ATOM     65  C   UNL A   1      47.027  26.635  26.484  1.00  0.00     0.074 A 
ATOM     66  C   UNL A   1      47.154  25.272  26.014  1.00  0.00     0.031 C 
ATOM     67  C   UNL A   1      48.002  27.573  26.379  1.00  0.00     0.037 A 
BRANCH  54  68
ATOM     68  C   UNL A   1      46.407  33.130  28.581  1.00  0.00     0.058 A 
ATOM     69  C   UNL A   1      47.008  33.554  29.777  1.00  0.00     0.135 A 
ATOM     70  C   UNL A   1      46.197  34.092  27.579  1.00  0.00     0.135 A 
ATOM     71  F   UNL A   1      47.215  32.681  30.777  1.00  0.00    -0.206 F 
ATOM     72  C   UNL A   1      47.361  34.884  29.983  1.00  0.00     0.059 A 
ATOM     73  C   UNL A   1      46.569  35.422  27.752  1.00  0.00     0.059 A 
ATOM     74  F   UNL A   1      45.621  33.743  26.417  1.00  0.00    -0.206 F 
ATOM     75  C   UNL A   1      47.138  35.811  28.963  1.00  0.00     0.060 A 
BRANCH  75  76
ATOM     76  S   UNL A   1      47.608  37.530  29.243  1.00  0.00     0.124 S 
ATOM     77  O   UNL A   1      46.692  38.232  28.349  1.00  0.00    -0.237 OA
ATOM     78  O   UNL A   1      47.352  37.696  30.669  1.00  0.00    -0.237 OA
ATOM     79  O   UNL A   1      49.014  37.568  28.853  1.00  0.00    -0.744 OA
ENDBRANCH  75  76
ENDBRANCH  54  68
BRANCH  55  80
ATOM     80  C   UNL A   1      43.369  23.720  27.069  1.00  0.00     0.058 A 
ATOM     81  C   UNL A   1      42.996  23.316  25.778  1.00  0.00     0.135 A 
ATOM     82  C   UNL A   1      43.288  22.768  28.098  1.00  0.00     0.135 A 
ATOM     83  F   UNL A   1      43.041  24.191  24.762  1.00  0.00    -0.206 F 
ATOM     84  C   UNL A   1      42.545  22.025  25.519  1.00  0.00     0.059 A 
ATOM     85  C   UNL A   1      42.866  21.464  27.859  1.00  0.00     0.059 A 
ATOM     86  F   UNL A   1      43.637  23.100  29.351  1.00  0.00    -0.206 F 
ATOM     87  C   UNL A   1      42.487  21.104  26.567  1.00  0.00     0.060 A 
BRANCH  87  88
ATOM     88  S   UNL A   1      41.944  19.419  26.210  1.00  0.00     0.124 S 
ATOM     89  O   UNL A   1      40.522  19.616  25.952  1.00  0.00    -0.237 OA
ATOM     90  O   UNL A   1      42.762  19.074  25.051  1.00  0.00    -0.237 OA
ATOM     91  O   UNL A   1      42.268  18.695  27.435  1.00  0.00    -0.744 OA
ENDBRANCH  87  88
ENDBRANCH  55  80
BRANCH  67  92
ATOM     92  C   UNL A   1      49.315  27.151  25.773  1.00  0.00     0.058 A 
ATOM     93  C   UNL A   1      49.591  27.318  24.407  1.00  0.00     0.135 A 
ATOM     94  C   UNL A   1      50.335  26.629  26.586  1.00  0.00     0.135 A 
ATOM     95  F   UNL A   1      48.651  27.809  23.583  1.00  0.00    -0.206 F 
ATOM     96  C   UNL A   1      50.821  26.961  23.864  1.00  0.00     0.059 A 
ATOM     97  C   UNL A   1      51.584  26.293  26.070  1.00  0.00     0.059 A 
ATOM     98  F   UNL A   1      50.132  26.459  27.903  1.00  0.00    -0.206 F 
ATOM     99  C   UNL A   1      51.813  26.452  24.705  1.00  0.00     0.060 A 
BRANCH  99 100
ATOM    100  S   UNL A   1      53.417  26.024  23.993  1.00  0.00     0.124 S 
ATOM    101  O   UNL A   1      53.759  24.818  24.740  1.00  0.00    -0.237 OA
ATOM    102  O   UNL A   1      53.090  25.827  22.584  1.00  0.00    -0.237 OA
ATOM    103  O   UNL A   1      54.240  27.195  24.281  1.00  0.00    -0.744 OA
ENDBRANCH  99 100
ENDBRANCH  67  92
ENDBRANCH  41  42
ENDBRANCH  34  36
ENDBRANCH  33  34
ENDBRANCH  32  33
ENDBRANCH  31  32
ENDBRANCH  30  31
ENDBRANCH  29  30
ENDBRANCH   1  29
TORSDOF 24
ENDMDL
MODEL 3
REMARK VINA RESULT:      -9.8      5.825      8.607
REMARK SMILES NC(=O)c1ccsc1NS(=O)(=O)c1ccc(C(=O)OCCOCCOCCOC(=O)c2ccc(-c3c4nc(c(-c5c(F)cc(S(=O)(=O)[O-])cc5F)c5ccc([nH]5)c(-c5c(F)cc(S(=O)(=O)[O-])cc5F)c5nc(c(-c6c(F)cc(S(=O)(=O)[O-])cc6F)c6ccc3[nH]6)C=C5)C=C4)cc2)cc1
REMARK SMILES IDX 23 1 22 2 21 3 20 4 19 5 17 6 18 7 16 8 13 9 14 10 98 11
REMARK SMILES IDX 15 12 97 13 10 14 11 15 12 16 9 17 8 19 4 20 5 21 6 22 7 23
REMARK SMILES IDX 2 24 1 25 3 28 24 29 25 30 26 31 27 32 28 33 29 34 30 35
REMARK SMILES IDX 31 36 32 37 96 38 33 39 95 40 34 41 35 42 36 43 89 44 37 45
REMARK SMILES IDX 94 46 88 47 90 48 38 49 93 50 87 51 86 52 39 54 73 55 52 56
REMARK SMILES IDX 72 57 53 58 56 59 71 60 91 61 54 62 55 63 70 65 92 66 57 67
REMARK SMILES IDX 40 68 41 69 50 70 42 71 43 72 49 73 51 74 44 75 45 76 46 77
REMARK SMILES IDX 47 78 48 79 74 80 75 81 84 82 76 83 77 84 83 85 85 86 78 87
REMARK SMILES IDX 79 88 80 89 81 90 82 91 58 92 59 93 68 94 60 95 61 96 67 97
REMARK SMILES IDX 69 98 62 99 63 100 64 101 65 102 66 103
REMARK H PARENT 9 18 1 26 1 27 90 53 56 64
REMARK Flexibility Score: inf
ROOT
ATOM      1  C   UNL A   1      32.320  27.928  25.314  1.00  0.00     0.188 C 
ENDROOT
BRANCH   1   2
ATOM      2  O   UNL A   1      30.991  27.555  25.016  1.00  0.00    -0.376 OA
BRANCH   2   3
ATOM      3  C   UNL A   1      30.397  27.897  23.775  1.00  0.00     0.202 C 
BRANCH   3   4
ATOM      4  C   UNL A   1      31.170  28.039  22.454  1.00  0.00     0.261 C 
BRANCH   4   5
ATOM      5  O   UNL A   1      31.325  26.836  21.695  1.00  0.00    -0.460 OA
BRANCH   5   6
ATOM      6  C   UNL A   1      32.553  26.274  21.785  1.00  0.00     0.338 C 
ATOM      7  O   UNL A   1      33.573  26.655  21.234  1.00  0.00    -0.246 OA
BRANCH   6   8
ATOM      8  C   UNL A   1      32.563  25.185  22.787  1.00  0.00     0.060 A 
ATOM      9  C   UNL A   1      32.240  23.353  24.837  1.00  0.00     0.087 A 
ATOM     10  C   UNL A   1      31.318  23.373  23.784  1.00  0.00     0.023 A 
ATOM     11  C   UNL A   1      33.415  24.114  24.785  1.00  0.00     0.023 A 
ATOM     12  C   UNL A   1      31.478  24.300  22.761  1.00  0.00     0.017 A 
ATOM     13  C   UNL A   1      33.569  25.052  23.756  1.00  0.00     0.017 A 
BRANCH   9  14
ATOM     14  S   UNL A   1      31.767  22.519  26.332  1.00  0.00     0.262 S 
ATOM     15  O   UNL A   1      30.455  21.952  26.076  1.00  0.00    -0.201 OA
ATOM     16  O   UNL A   1      31.974  23.425  27.437  1.00  0.00    -0.201 OA
BRANCH  14  17
ATOM     17  N   UNL A   1      32.791  21.216  26.573  1.00  0.00    -0.270 N 
ATOM     18  H   UNL A   1      33.092  21.066  27.498  1.00  0.00     0.181 HD
BRANCH  17  19
ATOM     19  C   UNL A   1      33.281  20.294  25.596  1.00  0.00     0.115 A 
ATOM     20  C   UNL A   1      34.634  20.222  25.290  1.00  0.00     0.074 A 
ATOM     21  C   UNL A   1      34.934  19.008  24.574  1.00  0.00     0.028 A 
ATOM     22  C   UNL A   1      33.796  18.329  24.208  1.00  0.00     0.068 A 
ATOM     23  S   UNL A   1      32.410  19.258  24.561  1.00  0.00    -0.125 S 
BRANCH  20  24
ATOM     24  C   UNL A   1      35.603  21.229  25.681  1.00  0.00     0.251 C 
ATOM     25  N   UNL A   1      36.754  21.213  24.952  1.00  0.00    -0.366 N 
ATOM     26  H   UNL A   1      37.469  21.862  25.146  1.00  0.00     0.159 HD
ATOM     27  H   UNL A   1      36.871  20.554  24.231  1.00  0.00     0.159 HD
ATOM     28  O   UNL A   1      35.389  22.084  26.541  1.00  0.00    -0.269 OA
ENDBRANCH  20  24
ENDBRANCH  17  19
ENDBRANCH  14  17
ENDBRANCH   9  14
ENDBRANCH   6   8
ENDBRANCH   5   6
ENDBRANCH   4   5
ENDBRANCH   3   4
ENDBRANCH   2   3
ENDBRANCH   1   2
BRANCH   1  29
ATOM     29  C   UNL A   1      32.631  29.393  25.679  1.00  0.00     0.188 C 
BRANCH  29  30
ATOM     30  O   UNL A   1      31.592  30.250  26.096  1.00  0.00    -0.376 OA
BRANCH  30  31
ATOM     31  C   UNL A   1      31.897  31.543  26.590  1.00  0.00     0.202 C 
BRANCH  31  32
ATOM     32  C   UNL A   1      33.176  31.923  27.360  1.00  0.00     0.261 C 
BRANCH  32  33
ATOM     33  O   UNL A   1      33.098  33.002  28.295  1.00  0.00    -0.460 OA
BRANCH  33  34
ATOM     34  C   UNL A   1      34.067  33.945  28.168  1.00  0.00     0.338 C 
ATOM     35  O   UNL A   1      34.039  34.938  27.461  1.00  0.00    -0.246 OA
BRANCH  34  36
ATOM     36  C   UNL A   1      35.115  33.692  29.173  1.00  0.00     0.060 A 
ATOM     37  C   UNL A   1      36.397  34.221  28.963  1.00  0.00     0.016 A 
ATOM     38  C   UNL A   1      34.846  32.897  30.286  1.00  0.00     0.016 A 
ATOM     39  C   UNL A   1      37.425  33.938  29.862  1.00  0.00     0.010 A 
ATOM     40  C   UNL A   1      35.883  32.593  31.171  1.00  0.00     0.010 A 
ATOM     41  C   UNL A   1      37.182  33.087  30.947  1.00  0.00    -0.014 A 
BRANCH  41  42
ATOM     42  C   UNL A   1      38.315  32.552  31.739  1.00  0.00     0.031 A 
ATOM     43  C   UNL A   1      39.096  31.396  31.174  1.00  0.00     0.074 A 
ATOM     44  C   UNL A   1      38.642  33.072  32.936  1.00  0.00     0.049 A 
ATOM     45  N   UNL A   1      40.049  30.690  31.722  1.00  0.00    -0.248 NA
ATOM     46  C   UNL A   1      38.743  30.976  29.808  1.00  0.00     0.031 C 
ATOM     47  C   UNL A   1      37.993  34.220  33.565  1.00  0.00     0.029 A 
ATOM     48  N   UNL A   1      39.595  32.684  33.844  1.00  0.00    -0.354 N 
ATOM     49  C   UNL A   1      40.402  29.736  30.775  1.00  0.00     0.074 A 
ATOM     50  C   UNL A   1      39.542  29.936  29.630  1.00  0.00     0.031 C 
ATOM     51  C   UNL A   1      38.553  34.431  34.769  1.00  0.00     0.029 A 
ATOM     52  C   UNL A   1      39.572  33.409  35.011  1.00  0.00     0.049 A 
ATOM     53  H   UNL A   1      40.235  31.954  33.675  1.00  0.00     0.167 HD
ATOM     54  C   UNL A   1      41.359  28.781  30.854  1.00  0.00     0.037 A 
ATOM     55  C   UNL A   1      40.271  33.246  36.153  1.00  0.00     0.037 A 
ATOM     56  C   UNL A   1      42.210  28.588  31.999  1.00  0.00     0.049 A 
ATOM     57  C   UNL A   1      41.281  32.129  36.245  1.00  0.00     0.074 A 
ATOM     58  C   UNL A   1      43.220  27.659  32.173  1.00  0.00     0.029 A 
ATOM     59  N   UNL A   1      42.145  29.331  33.169  1.00  0.00    -0.354 N 
ATOM     60  N   UNL A   1      41.617  31.239  35.341  1.00  0.00    -0.248 NA
ATOM     61  C   UNL A   1      42.008  31.993  37.516  1.00  0.00     0.031 C 
ATOM     62  C   UNL A   1      43.728  27.803  33.468  1.00  0.00     0.029 A 
ATOM     63  C   UNL A   1      43.078  28.864  34.080  1.00  0.00     0.049 A 
ATOM     64  H   UNL A   1      41.526  30.080  33.329  1.00  0.00     0.167 HD
ATOM     65  C   UNL A   1      42.615  30.461  35.921  1.00  0.00     0.074 A 
ATOM     66  C   UNL A   1      42.834  30.989  37.251  1.00  0.00     0.031 C 
ATOM     67  C   UNL A   1      43.292  29.406  35.399  1.00  0.00     0.037 A 
BRANCH  54  68
ATOM     68  C   UNL A   1      41.514  27.853  29.681  1.00  0.00     0.058 A 
ATOM     69  C   UNL A   1      42.615  27.929  28.813  1.00  0.00     0.135 A 
ATOM     70  C   UNL A   1      40.559  26.852  29.438  1.00  0.00     0.135 A 
ATOM     71  F   UNL A   1      43.548  28.879  28.985  1.00  0.00    -0.206 F 
ATOM     72  C   UNL A   1      42.750  27.065  27.730  1.00  0.00     0.059 A 
ATOM     73  C   UNL A   1      40.688  25.958  28.379  1.00  0.00     0.059 A 
ATOM     74  F   UNL A   1      39.483  26.736  30.233  1.00  0.00    -0.206 F 
ATOM     75  C   UNL A   1      41.781  26.081  27.523  1.00  0.00     0.060 A 
BRANCH  75  76
ATOM     76  S   UNL A   1      41.974  24.964  26.119  1.00  0.00     0.124 S 
ATOM     77  O   UNL A   1      43.416  24.738  26.121  1.00  0.00    -0.237 OA
ATOM     78  O   UNL A   1      41.154  23.824  26.513  1.00  0.00    -0.237 OA
ATOM     79  O   UNL A   1      41.464  25.740  24.992  1.00  0.00    -0.744 OA
ENDBRANCH  75  76
ENDBRANCH  54  68
BRANCH  55  80
ATOM     80  C   UNL A   1      40.030  34.149  37.311  1.00  0.00     0.058 A 
ATOM     81  C   UNL A   1      39.059  33.846  38.277  1.00  0.00     0.135 A 
ATOM     82  C   UNL A   1      40.758  35.339  37.470  1.00  0.00     0.135 A 
ATOM     83  F   UNL A   1      38.325  32.728  38.163  1.00  0.00    -0.206 F 
ATOM     84  C   UNL A   1      38.807  34.695  39.351  1.00  0.00     0.059 A 
ATOM     85  C   UNL A   1      40.544  36.190  38.550  1.00  0.00     0.059 A 
ATOM     86  F   UNL A   1      41.702  35.675  36.577  1.00  0.00    -0.206 F 
ATOM     87  C   UNL A   1      39.559  35.865  39.480  1.00  0.00     0.060 A 
BRANCH  87  88
ATOM     88  S   UNL A   1      39.255  36.936  40.903  1.00  0.00     0.124 S 
ATOM     89  O   UNL A   1      38.264  37.862  40.367  1.00  0.00    -0.237 OA
ATOM     90  O   UNL A   1      38.770  35.988  41.901  1.00  0.00    -0.237 OA
ATOM     91  O   UNL A   1      40.570  37.508  41.178  1.00  0.00    -0.744 OA
ENDBRANCH  87  88
ENDBRANCH  55  80
BRANCH  67  92
ATOM     92  C   UNL A   1      44.367  28.777  36.245  1.00  0.00     0.058 A 
ATOM     93  C   UNL A   1      44.124  27.640  37.031  1.00  0.00     0.135 A 
ATOM     94  C   UNL A   1      45.677  29.285  36.218  1.00  0.00     0.135 A 
ATOM     95  F   UNL A   1      42.890  27.115  37.097  1.00  0.00    -0.206 F 
ATOM     96  C   UNL A   1      45.135  27.044  37.779  1.00  0.00     0.059 A 
ATOM     97  C   UNL A   1      46.710  28.687  36.934  1.00  0.00     0.059 A 
ATOM     98  F   UNL A   1      45.970  30.364  35.473  1.00  0.00    -0.206 F 
ATOM     99  C   UNL A   1      46.426  27.572  37.722  1.00  0.00     0.060 A 
BRANCH  99 100
ATOM    100  S   UNL A   1      47.735  26.767  38.670  1.00  0.00     0.124 S 
ATOM    101  O   UNL A   1      48.595  27.898  39.004  1.00  0.00    -0.237 OA
ATOM    102  O   UNL A   1      46.997  26.181  39.785  1.00  0.00    -0.237 OA
ATOM    103  O   UNL A   1      48.299  25.808  37.726  1.00  0.00    -0.744 OA
ENDBRANCH  99 100
ENDBRANCH  67  92
ENDBRANCH  41  42
ENDBRANCH  34  36
ENDBRANCH  33  34
ENDBRANCH  32  33
ENDBRANCH  31  32
ENDBRANCH  30  31
ENDBRANCH  29  30
ENDBRANCH   1  29
TORSDOF 24
ENDMDL
