MODEL 1
REMARK VINA RESULT:      -9.2      0.000      0.000
REMARK SMILES O=C(CSCc1ccc(C(=O)OCCOCCOCCOC(=O)c2ccc(-c3c4nc(c(-c5c(F)cc(S(=O)(=O)[O-])cc5F)c5ccc([nH]5)c(-c5c(F)cc(S(=O)(=O)[O-])cc5F)c5nc(c(-c6c(F)cc(S(=O)(=O)[O-])cc6F)c6ccc3[nH]6)C=C5)C=C4)cc2)cc1)Nc1ccc(Cl)cc1
REMARK SMILES IDX 16 1 15 2 14 3 13 4 12 5 10 6 11 7 9 8 6 9 7 10 91 11 8 12
REMARK SMILES IDX 90 13 5 14 4 15 3 16 2 17 1 18 92 19 93 21 94 22 99 23 95 24
REMARK SMILES IDX 98 25 96 26 97 27 17 28 18 29 19 30 20 31 21 32 22 33 23 34
REMARK SMILES IDX 24 35 25 36 89 37 26 38 88 39 27 40 28 41 29 42 82 43 30 44
REMARK SMILES IDX 87 45 81 46 83 47 31 48 86 49 80 50 79 51 32 53 66 54 45 55
REMARK SMILES IDX 65 56 46 57 49 58 64 59 84 60 47 61 48 62 63 64 85 65 50 66
REMARK SMILES IDX 33 67 34 68 43 69 35 70 36 71 42 72 44 73 37 74 38 75 39 76
REMARK SMILES IDX 40 77 41 78 67 79 68 80 77 81 69 82 70 83 76 84 78 85 71 86
REMARK SMILES IDX 72 87 73 88 74 89 75 90 51 91 52 92 61 93 53 94 54 95 60 96
REMARK SMILES IDX 62 97 55 98 56 99 57 100 58 101 59 102
REMARK H PARENT 92 20 83 52 49 63
REMARK Flexibility Score: inf
ROOT
ATOM      1  C   UNL A   1      36.082  33.803  28.379  1.00  0.00     0.188 C 
ENDROOT
BRANCH   1   2
ATOM      2  O   UNL A   1      34.850  34.489  28.368  1.00  0.00    -0.376 OA
BRANCH   2   3
ATOM      3  C   UNL A   1      33.653  33.844  27.971  1.00  0.00     0.202 C 
BRANCH   3   4
ATOM      4  C   UNL A   1      33.303  32.368  28.229  1.00  0.00     0.261 C 
BRANCH   4   5
ATOM      5  O   UNL A   1      33.342  31.482  27.107  1.00  0.00    -0.460 OA
BRANCH   5   6
ATOM      6  C   UNL A   1      34.184  30.428  27.243  1.00  0.00     0.338 C 
ATOM      7  O   UNL A   1      35.352  30.469  27.606  1.00  0.00    -0.246 OA
BRANCH   6   8
ATOM      8  C   UNL A   1      33.456  29.158  27.049  1.00  0.00     0.060 A 
ATOM      9  C   UNL A   1      32.102  26.763  26.477  1.00  0.00    -0.038 A 
ATOM     10  C   UNL A   1      33.412  26.968  26.020  1.00  0.00     0.005 A 
ATOM     11  C   UNL A   1      31.504  27.750  27.283  1.00  0.00     0.005 A 
ATOM     12  C   UNL A   1      34.080  28.163  26.291  1.00  0.00     0.016 A 
ATOM     13  C   UNL A   1      32.181  28.941  27.578  1.00  0.00     0.016 A 
BRANCH   9  14
ATOM     14  C   UNL A   1      31.324  25.574  25.967  1.00  0.00     0.105 C 
BRANCH  14  15
ATOM     15  S   UNL A   1      31.865  24.867  24.386  1.00  0.00    -0.147 SA
BRANCH  15  16
ATOM     16  C   UNL A   1      30.326  24.962  23.419  1.00  0.00     0.170 C 
BRANCH  16  17
ATOM     17  C   UNL A   1      29.599  26.294  23.524  1.00  0.00     0.234 C 
ATOM     18  O   UNL A   1      28.538  26.364  24.139  1.00  0.00    -0.274 OA
ATOM     19  N   UNL A   1      30.255  27.354  22.917  1.00  0.00    -0.325 N 
ATOM     20  H   UNL A   1      31.035  27.131  22.359  1.00  0.00     0.169 HD
BRANCH  19  21
ATOM     21  C   UNL A   1      29.914  28.719  23.020  1.00  0.00     0.041 A 
ATOM     22  C   UNL A   1      29.158  29.286  21.986  1.00  0.00     0.027 A 
ATOM     23  C   UNL A   1      30.321  29.530  24.083  1.00  0.00     0.027 A 
ATOM     24  C   UNL A   1      28.779  30.632  22.039  1.00  0.00     0.022 A 
ATOM     25  C   UNL A   1      29.962  30.883  24.126  1.00  0.00     0.022 A 
ATOM     26  C   UNL A   1      29.184  31.426  23.110  1.00  0.00     0.041 A 
ATOM     27  Cl  UNL A   1      28.721  33.082  23.167  1.00  0.00    -0.084 Cl
ENDBRANCH  19  21
ENDBRANCH  16  17
ENDBRANCH  15  16
ENDBRANCH  14  15
ENDBRANCH   9  14
ENDBRANCH   6   8
ENDBRANCH   5   6
ENDBRANCH   4   5
ENDBRANCH   3   4
ENDBRANCH   2   3
ENDBRANCH   1   2
BRANCH   1  28
ATOM     28  C   UNL A   1      36.622  33.268  29.721  1.00  0.00     0.188 C 
BRANCH  28  29
ATOM     29  O   UNL A   1      36.031  32.145  30.343  1.00  0.00    -0.376 OA
BRANCH  29  30
ATOM     30  C   UNL A   1      35.493  32.254  31.650  1.00  0.00     0.202 C 
BRANCH  30  31
ATOM     31  C   UNL A   1      36.215  31.764  32.916  1.00  0.00     0.261 C 
BRANCH  31  32
ATOM     32  O   UNL A   1      37.645  31.809  32.903  1.00  0.00    -0.460 OA
BRANCH  32  33
ATOM     33  C   UNL A   1      38.260  30.718  33.416  1.00  0.00     0.338 C 
ATOM     34  O   UNL A   1      37.942  30.094  34.423  1.00  0.00    -0.246 OA
BRANCH  33  35
ATOM     35  C   UNL A   1      39.302  30.263  32.482  1.00  0.00     0.060 A 
ATOM     36  C   UNL A   1      40.334  29.450  32.971  1.00  0.00     0.016 A 
ATOM     37  C   UNL A   1      39.287  30.670  31.148  1.00  0.00     0.016 A 
ATOM     38  C   UNL A   1      41.368  29.053  32.127  1.00  0.00     0.010 A 
ATOM     39  C   UNL A   1      40.337  30.289  30.308  1.00  0.00     0.010 A 
ATOM     40  C   UNL A   1      41.394  29.500  30.800  1.00  0.00    -0.014 A 
BRANCH  40  41
ATOM     41  C   UNL A   1      42.598  29.270  29.967  1.00  0.00     0.031 A 
ATOM     42  C   UNL A   1      42.757  27.943  29.275  1.00  0.00     0.074 A 
ATOM     43  C   UNL A   1      43.533  30.226  29.824  1.00  0.00     0.049 A 
ATOM     44  N   UNL A   1      43.744  27.504  28.540  1.00  0.00    -0.248 NA
ATOM     45  C   UNL A   1      41.652  26.983  29.439  1.00  0.00     0.031 C 
ATOM     46  C   UNL A   1      43.474  31.560  30.419  1.00  0.00     0.029 A 
ATOM     47  N   UNL A   1      44.723  30.213  29.141  1.00  0.00    -0.354 N 
ATOM     48  C   UNL A   1      43.386  26.217  28.157  1.00  0.00     0.074 A 
ATOM     49  C   UNL A   1      42.104  25.935  28.766  1.00  0.00     0.031 C 
ATOM     50  C   UNL A   1      44.589  32.234  30.085  1.00  0.00     0.029 A 
ATOM     51  C   UNL A   1      45.451  31.371  29.280  1.00  0.00     0.049 A 
ATOM     52  H   UNL A   1      45.026  29.447  28.601  1.00  0.00     0.167 HD
ATOM     53  C   UNL A   1      44.061  25.352  27.363  1.00  0.00     0.037 A 
ATOM     54  C   UNL A   1      46.681  31.685  28.828  1.00  0.00     0.037 A 
ATOM     55  C   UNL A   1      45.339  25.637  26.766  1.00  0.00     0.049 A 
ATOM     56  C   UNL A   1      47.444  30.681  28.000  1.00  0.00     0.074 A 
ATOM     57  C   UNL A   1      46.096  24.835  25.929  1.00  0.00     0.029 A 
ATOM     58  N   UNL A   1      46.057  26.811  26.948  1.00  0.00    -0.354 N 
ATOM     59  N   UNL A   1      47.081  29.479  27.619  1.00  0.00    -0.248 NA
ATOM     60  C   UNL A   1      48.781  31.078  27.539  1.00  0.00     0.031 C 
ATOM     61  C   UNL A   1      47.293  25.501  25.648  1.00  0.00     0.029 A 
ATOM     62  C   UNL A   1      47.259  26.743  26.263  1.00  0.00     0.049 A 
ATOM     63  H   UNL A   1      45.756  27.579  27.486  1.00  0.00     0.167 HD
ATOM     64  C   UNL A   1      48.133  28.989  26.850  1.00  0.00     0.074 A 
ATOM     65  C   UNL A   1      49.141  30.029  26.813  1.00  0.00     0.031 C 
ATOM     66  C   UNL A   1      48.253  27.788  26.228  1.00  0.00     0.037 A 
BRANCH  53  67
ATOM     67  C   UNL A   1      43.440  24.005  27.116  1.00  0.00     0.058 A 
ATOM     68  C   UNL A   1      42.703  23.731  25.953  1.00  0.00     0.135 A 
ATOM     69  C   UNL A   1      43.612  22.963  28.042  1.00  0.00     0.135 A 
ATOM     70  F   UNL A   1      42.493  24.696  25.043  1.00  0.00    -0.206 F 
ATOM     71  C   UNL A   1      42.136  22.481  25.729  1.00  0.00     0.059 A 
ATOM     72  C   UNL A   1      43.077  21.696  27.826  1.00  0.00     0.059 A 
ATOM     73  F   UNL A   1      44.306  23.170  29.173  1.00  0.00    -0.206 F 
ATOM     74  C   UNL A   1      42.328  21.470  26.671  1.00  0.00     0.060 A 
BRANCH  74  75
ATOM     75  S   UNL A   1      41.590  19.851  26.363  1.00  0.00     0.124 S 
ATOM     76  O   UNL A   1      41.820  19.179  27.638  1.00  0.00    -0.237 OA
ATOM     77  O   UNL A   1      40.203  20.192  26.068  1.00  0.00    -0.237 OA
ATOM     78  O   UNL A   1      42.359  19.334  25.235  1.00  0.00    -0.744 OA
ENDBRANCH  74  75
ENDBRANCH  53  67
BRANCH  54  79
ATOM     79  C   UNL A   1      47.277  33.009  29.156  1.00  0.00     0.058 A 
ATOM     80  C   UNL A   1      48.054  33.190  30.310  1.00  0.00     0.135 A 
ATOM     81  C   UNL A   1      47.077  34.122  28.324  1.00  0.00     0.135 A 
ATOM     82  F   UNL A   1      48.264  32.160  31.145  1.00  0.00    -0.206 F 
ATOM     83  C   UNL A   1      48.600  34.427  30.635  1.00  0.00     0.059 A 
ATOM     84  C   UNL A   1      47.634  35.363  28.614  1.00  0.00     0.059 A 
ATOM     85  F   UNL A   1      46.347  34.001  27.204  1.00  0.00    -0.206 F 
ATOM     86  C   UNL A   1      48.387  35.508  29.778  1.00  0.00     0.060 A 
BRANCH  86  87
ATOM     87  S   UNL A   1      49.138  37.099  30.188  1.00  0.00     0.124 S 
ATOM     88  O   UNL A   1      48.000  37.829  30.735  1.00  0.00    -0.237 OA
ATOM     89  O   UNL A   1      50.170  36.713  31.145  1.00  0.00    -0.237 OA
ATOM     90  O   UNL A   1      49.634  37.578  28.900  1.00  0.00    -0.744 OA
ENDBRANCH  86  87
ENDBRANCH  54  79
BRANCH  66  91
ATOM     91  C   UNL A   1      49.500  27.542  25.421  1.00  0.00     0.058 A 
ATOM     92  C   UNL A   1      50.724  27.222  26.028  1.00  0.00     0.135 A 
ATOM     93  C   UNL A   1      49.453  27.572  24.017  1.00  0.00     0.135 A 
ATOM     94  F   UNL A   1      50.826  27.184  27.366  1.00  0.00    -0.206 F 
ATOM     95  C   UNL A   1      51.864  26.965  25.272  1.00  0.00     0.059 A 
ATOM     96  C   UNL A   1      50.574  27.290  23.241  1.00  0.00     0.059 A 
ATOM     97  F   UNL A   1      48.304  27.859  23.384  1.00  0.00    -0.206 F 
ATOM     98  C   UNL A   1      51.779  26.999  23.879  1.00  0.00     0.060 A 
BRANCH  98  99
ATOM     99  S   UNL A   1      53.258  26.631  22.911  1.00  0.00     0.124 S 
ATOM    100  O   UNL A   1      53.842  27.958  22.750  1.00  0.00    -0.237 OA
ATOM    101  O   UNL A   1      53.987  25.720  23.787  1.00  0.00    -0.237 OA
ATOM    102  O   UNL A   1      52.726  26.027  21.692  1.00  0.00    -0.744 OA
ENDBRANCH  98  99
ENDBRANCH  66  91
ENDBRANCH  40  41
ENDBRANCH  33  35
ENDBRANCH  32  33
ENDBRANCH  31  32
ENDBRANCH  30  31
ENDBRANCH  29  30
ENDBRANCH  28  29
ENDBRANCH   1  28
TORSDOF 25
ENDMDL
MODEL 2
REMARK VINA RESULT:      -9.0      5.323     12.158
REMARK SMILES O=C(CSCc1ccc(C(=O)OCCOCCOCCOC(=O)c2ccc(-c3c4nc(c(-c5c(F)cc(S(=O)(=O)[O-])cc5F)c5ccc([nH]5)c(-c5c(F)cc(S(=O)(=O)[O-])cc5F)c5nc(c(-c6c(F)cc(S(=O)(=O)[O-])cc6F)c6ccc3[nH]6)C=C5)C=C4)cc2)cc1)Nc1ccc(Cl)cc1
REMARK SMILES IDX 16 1 15 2 14 3 13 4 12 5 10 6 11 7 9 8 6 9 7 10 91 11 8 12
REMARK SMILES IDX 90 13 5 14 4 15 3 16 2 17 1 18 92 19 93 21 94 22 99 23 95 24
REMARK SMILES IDX 98 25 96 26 97 27 17 28 18 29 19 30 20 31 21 32 22 33 23 34
REMARK SMILES IDX 24 35 25 36 89 37 26 38 88 39 27 40 28 41 29 42 82 43 30 44
REMARK SMILES IDX 87 45 81 46 83 47 31 48 86 49 80 50 79 51 32 53 66 54 45 55
REMARK SMILES IDX 65 56 46 57 49 58 64 59 84 60 47 61 48 62 63 64 85 65 50 66
REMARK SMILES IDX 33 67 34 68 43 69 35 70 36 71 42 72 44 73 37 74 38 75 39 76
REMARK SMILES IDX 40 77 41 78 67 79 68 80 77 81 69 82 70 83 76 84 78 85 71 86
REMARK SMILES IDX 72 87 73 88 74 89 75 90 51 91 52 92 61 93 53 94 54 95 60 96
REMARK SMILES IDX 62 97 55 98 56 99 57 100 58 101 59 102
REMARK H PARENT 92 20 83 52 49 63
REMARK Flexibility Score: inf
ROOT
ATOM      1  C   UNL A   1      43.010  18.832  25.385  1.00  0.00     0.188 C 
ENDROOT
BRANCH   1   2
ATOM      2  O   UNL A   1      44.379  18.720  25.066  1.00  0.00    -0.376 OA
BRANCH   2   3
ATOM      3  C   UNL A   1      44.999  19.615  24.160  1.00  0.00     0.202 C 
BRANCH   3   4
ATOM      4  C   UNL A   1      45.923  20.782  24.546  1.00  0.00     0.261 C 
BRANCH   4   5
ATOM      5  O   UNL A   1      45.398  21.758  25.450  1.00  0.00    -0.460 OA
BRANCH   5   6
ATOM      6  C   UNL A   1      45.939  22.996  25.328  1.00  0.00     0.338 C 
ATOM      7  O   UNL A   1      46.130  23.609  24.287  1.00  0.00    -0.246 OA
BRANCH   6   8
ATOM      8  C   UNL A   1      46.130  23.609  26.658  1.00  0.00     0.060 A 
ATOM      9  C   UNL A   1      46.301  24.844  29.176  1.00  0.00    -0.038 A 
ATOM     10  C   UNL A   1      45.278  23.923  28.901  1.00  0.00     0.005 A 
ATOM     11  C   UNL A   1      47.276  25.087  28.191  1.00  0.00     0.005 A 
ATOM     12  C   UNL A   1      45.185  23.320  27.647  1.00  0.00     0.016 A 
ATOM     13  C   UNL A   1      47.198  24.465  26.938  1.00  0.00     0.016 A 
BRANCH   9  14
ATOM     14  C   UNL A   1      46.234  25.655  30.447  1.00  0.00     0.105 C 
BRANCH  14  15
ATOM     15  S   UNL A   1      44.830  25.328  31.549  1.00  0.00    -0.147 SA
BRANCH  15  16
ATOM     16  C   UNL A   1      43.802  26.800  31.247  1.00  0.00     0.170 C 
BRANCH  16  17
ATOM     17  C   UNL A   1      43.811  27.816  32.378  1.00  0.00     0.234 C 
ATOM     18  O   UNL A   1      44.537  27.638  33.353  1.00  0.00    -0.274 OA
ATOM     19  N   UNL A   1      42.988  28.912  32.170  1.00  0.00    -0.325 N 
ATOM     20  H   UNL A   1      42.374  28.865  31.401  1.00  0.00     0.169 HD
BRANCH  19  21
ATOM     21  C   UNL A   1      42.943  30.086  32.951  1.00  0.00     0.041 A 
ATOM     22  C   UNL A   1      41.702  30.486  33.462  1.00  0.00     0.027 A 
ATOM     23  C   UNL A   1      44.067  30.875  33.209  1.00  0.00     0.027 A 
ATOM     24  C   UNL A   1      41.597  31.635  34.255  1.00  0.00     0.022 A 
ATOM     25  C   UNL A   1      43.960  32.038  33.983  1.00  0.00     0.022 A 
ATOM     26  C   UNL A   1      42.728  32.407  34.512  1.00  0.00     0.041 A 
ATOM     27  Cl  UNL A   1      42.592  33.821  35.481  1.00  0.00    -0.084 Cl
ENDBRANCH  19  21
ENDBRANCH  16  17
ENDBRANCH  15  16
ENDBRANCH  14  15
ENDBRANCH   9  14
ENDBRANCH   6   8
ENDBRANCH   5   6
ENDBRANCH   4   5
ENDBRANCH   3   4
ENDBRANCH   2   3
ENDBRANCH   1   2
BRANCH   1  28
ATOM     28  C   UNL A   1      42.598  18.918  26.868  1.00  0.00     0.188 C 
BRANCH  28  29
ATOM     29  O   UNL A   1      41.655  19.876  27.305  1.00  0.00    -0.376 OA
BRANCH  29  30
ATOM     30  C   UNL A   1      41.454  21.068  26.565  1.00  0.00     0.202 C 
BRANCH  30  31
ATOM     31  C   UNL A   1      40.073  21.575  26.119  1.00  0.00     0.261 C 
BRANCH  31  32
ATOM     32  O   UNL A   1      39.369  22.422  27.032  1.00  0.00    -0.460 OA
BRANCH  32  33
ATOM     33  C   UNL A   1      38.886  23.568  26.497  1.00  0.00     0.338 C 
ATOM     34  O   UNL A   1      37.860  23.703  25.838  1.00  0.00    -0.246 OA
BRANCH  33  35
ATOM     35  C   UNL A   1      39.698  24.703  26.964  1.00  0.00     0.060 A 
ATOM     36  C   UNL A   1      39.851  24.897  28.344  1.00  0.00     0.016 A 
ATOM     37  C   UNL A   1      40.264  25.594  26.052  1.00  0.00     0.016 A 
ATOM     38  C   UNL A   1      40.562  25.997  28.818  1.00  0.00     0.010 A 
ATOM     39  C   UNL A   1      40.959  26.709  26.530  1.00  0.00     0.010 A 
ATOM     40  C   UNL A   1      41.089  26.928  27.915  1.00  0.00    -0.014 A 
BRANCH  40  41
ATOM     41  C   UNL A   1      41.645  28.208  28.414  1.00  0.00     0.031 A 
ATOM     42  C   UNL A   1      43.133  28.425  28.349  1.00  0.00     0.074 A 
ATOM     43  C   UNL A   1      40.841  29.164  28.913  1.00  0.00     0.049 A 
ATOM     44  N   UNL A   1      43.842  29.438  28.769  1.00  0.00    -0.248 NA
ATOM     45  C   UNL A   1      43.924  27.349  27.728  1.00  0.00     0.031 C 
ATOM     46  C   UNL A   1      39.384  29.081  28.999  1.00  0.00     0.029 A 
ATOM     47  N   UNL A   1      41.142  30.388  29.454  1.00  0.00    -0.354 N 
ATOM     48  C   UNL A   1      45.162  29.125  28.470  1.00  0.00     0.074 A 
ATOM     49  C   UNL A   1      45.159  27.813  27.861  1.00  0.00     0.031 C 
ATOM     50  C   UNL A   1      38.918  30.204  29.574  1.00  0.00     0.029 A 
ATOM     51  C   UNL A   1      40.044  31.069  29.923  1.00  0.00     0.049 A 
ATOM     52  H   UNL A   1      42.059  30.746  29.501  1.00  0.00     0.167 HD
ATOM     53  C   UNL A   1      46.276  29.867  28.678  1.00  0.00     0.037 A 
ATOM     54  C   UNL A   1      39.962  32.244  30.578  1.00  0.00     0.037 A 
ATOM     55  C   UNL A   1      46.273  31.170  29.290  1.00  0.00     0.049 A 
ATOM     56  C   UNL A   1      41.223  33.024  30.858  1.00  0.00     0.074 A 
ATOM     57  C   UNL A   1      47.346  32.012  29.527  1.00  0.00     0.029 A 
ATOM     58  N   UNL A   1      45.144  31.817  29.774  1.00  0.00    -0.354 N 
ATOM     59  N   UNL A   1      42.463  32.730  30.543  1.00  0.00    -0.248 NA
ATOM     60  C   UNL A   1      41.072  34.295  31.579  1.00  0.00     0.031 C 
ATOM     61  C   UNL A   1      46.874  33.144  30.200  1.00  0.00     0.029 A 
ATOM     62  C   UNL A   1      45.499  33.035  30.332  1.00  0.00     0.049 A 
ATOM     63  H   UNL A   1      44.227  31.463  29.727  1.00  0.00     0.167 HD
ATOM     64  C   UNL A   1      43.234  33.795  31.002  1.00  0.00     0.074 A 
ATOM     65  C   UNL A   1      42.320  34.741  31.607  1.00  0.00     0.031 C 
ATOM     66  C   UNL A   1      44.578  33.973  30.927  1.00  0.00     0.037 A 
BRANCH  53  67
ATOM     67  C   UNL A   1      47.594  29.275  28.262  1.00  0.00     0.058 A 
ATOM     68  C   UNL A   1      48.478  28.709  29.194  1.00  0.00     0.135 A 
ATOM     69  C   UNL A   1      47.964  29.246  26.907  1.00  0.00     0.135 A 
ATOM     70  F   UNL A   1      48.183  28.726  30.503  1.00  0.00    -0.206 F 
ATOM     71  C   UNL A   1      49.694  28.158  28.800  1.00  0.00     0.059 A 
ATOM     72  C   UNL A   1      49.162  28.675  26.488  1.00  0.00     0.059 A 
ATOM     73  F   UNL A   1      47.157  29.776  25.974  1.00  0.00    -0.206 F 
ATOM     74  C   UNL A   1      50.027  28.146  27.445  1.00  0.00     0.060 A 
BRANCH  74  75
ATOM     75  S   UNL A   1      51.606  27.423  26.952  1.00  0.00     0.124 S 
ATOM     76  O   UNL A   1      51.507  26.086  27.528  1.00  0.00    -0.237 OA
ATOM     77  O   UNL A   1      51.539  27.491  25.496  1.00  0.00    -0.237 OA
ATOM     78  O   UNL A   1      52.593  28.301  27.572  1.00  0.00    -0.744 OA
ENDBRANCH  74  75
ENDBRANCH  53  67
BRANCH  54  79
ATOM     79  C   UNL A   1      38.638  32.754  31.026  1.00  0.00     0.058 A 
ATOM     80  C   UNL A   1      38.054  32.307  32.222  1.00  0.00     0.135 A 
ATOM     81  C   UNL A   1      37.927  33.695  30.266  1.00  0.00     0.135 A 
ATOM     82  F   UNL A   1      38.688  31.398  32.978  1.00  0.00    -0.206 F 
ATOM     83  C   UNL A   1      36.809  32.764  32.640  1.00  0.00     0.059 A 
ATOM     84  C   UNL A   1      36.692  34.186  30.676  1.00  0.00     0.059 A 
ATOM     85  F   UNL A   1      38.444  34.160  29.117  1.00  0.00    -0.206 F 
ATOM     86  C   UNL A   1      36.136  33.707  31.861  1.00  0.00     0.060 A 
BRANCH  86  87
ATOM     87  S   UNL A   1      34.540  34.325  32.437  1.00  0.00     0.124 S 
ATOM     88  O   UNL A   1      33.633  33.780  31.433  1.00  0.00    -0.237 OA
ATOM     89  O   UNL A   1      34.446  33.737  33.770  1.00  0.00    -0.237 OA
ATOM     90  O   UNL A   1      34.712  35.776  32.410  1.00  0.00    -0.744 OA
ENDBRANCH  86  87
ENDBRANCH  54  79
BRANCH  66  91
ATOM     91  C   UNL A   1      45.143  35.255  31.478  1.00  0.00     0.058 A 
ATOM     92  C   UNL A   1      45.639  35.343  32.788  1.00  0.00     0.135 A 
ATOM     93  C   UNL A   1      45.241  36.395  30.662  1.00  0.00     0.135 A 
ATOM     94  F   UNL A   1      45.566  34.286  33.611  1.00  0.00    -0.206 F 
ATOM     95  C   UNL A   1      46.188  36.524  33.278  1.00  0.00     0.059 A 
ATOM     96  C   UNL A   1      45.813  37.577  31.123  1.00  0.00     0.059 A 
ATOM     97  F   UNL A   1      44.794  36.362  29.396  1.00  0.00    -0.206 F 
ATOM     98  C   UNL A   1      46.273  37.636  32.437  1.00  0.00     0.060 A 
BRANCH  98  99
ATOM     99  S   UNL A   1      47.019  39.151  33.077  1.00  0.00     0.124 S 
ATOM    100  O   UNL A   1      46.474  40.154  32.167  1.00  0.00    -0.237 OA
ATOM    101  O   UNL A   1      46.514  39.196  34.444  1.00  0.00    -0.237 OA
ATOM    102  O   UNL A   1      48.453  38.904  32.952  1.00  0.00    -0.744 OA
ENDBRANCH  98  99
ENDBRANCH  66  91
ENDBRANCH  40  41
ENDBRANCH  33  35
ENDBRANCH  32  33
ENDBRANCH  31  32
ENDBRANCH  30  31
ENDBRANCH  29  30
ENDBRANCH  28  29
ENDBRANCH   1  28
TORSDOF 25
ENDMDL
MODEL 3
REMARK VINA RESULT:      -8.9      5.544     12.571
REMARK SMILES O=C(CSCc1ccc(C(=O)OCCOCCOCCOC(=O)c2ccc(-c3c4nc(c(-c5c(F)cc(S(=O)(=O)[O-])cc5F)c5ccc([nH]5)c(-c5c(F)cc(S(=O)(=O)[O-])cc5F)c5nc(c(-c6c(F)cc(S(=O)(=O)[O-])cc6F)c6ccc3[nH]6)C=C5)C=C4)cc2)cc1)Nc1ccc(Cl)cc1
REMARK SMILES IDX 16 1 15 2 14 3 13 4 12 5 10 6 11 7 9 8 6 9 7 10 91 11 8 12
REMARK SMILES IDX 90 13 5 14 4 15 3 16 2 17 1 18 92 19 93 21 94 22 99 23 95 24
REMARK SMILES IDX 98 25 96 26 97 27 17 28 18 29 19 30 20 31 21 32 22 33 23 34
REMARK SMILES IDX 24 35 25 36 89 37 26 38 88 39 27 40 28 41 29 42 82 43 30 44
REMARK SMILES IDX 87 45 81 46 83 47 31 48 86 49 80 50 79 51 32 53 66 54 45 55
REMARK SMILES IDX 65 56 46 57 49 58 64 59 84 60 47 61 48 62 63 64 85 65 50 66
REMARK SMILES IDX 33 67 34 68 43 69 35 70 36 71 42 72 44 73 37 74 38 75 39 76
REMARK SMILES IDX 40 77 41 78 67 79 68 80 77 81 69 82 70 83 76 84 78 85 71 86
REMARK SMILES IDX 72 87 73 88 74 89 75 90 51 91 52 92 61 93 53 94 54 95 60 96
REMARK SMILES IDX 62 97 55 98 56 99 57 100 58 101 59 102
REMARK H PARENT 92 20 83 52 49 63
REMARK Flexibility Score: inf
ROOT
ATOM      1  C   UNL A   1      42.654  18.990  25.676  1.00  0.00     0.188 C 
ENDROOT
BRANCH   1   2
ATOM      2  O   UNL A   1      43.880  18.328  25.457  1.00  0.00    -0.376 OA
BRANCH   2   3
ATOM      3  C   UNL A   1      44.871  18.877  24.607  1.00  0.00     0.202 C 
BRANCH   3   4
ATOM      4  C   UNL A   1      45.905  19.943  25.010  1.00  0.00     0.261 C 
BRANCH   4   5
ATOM      5  O   UNL A   1      45.410  21.129  25.636  1.00  0.00    -0.460 OA
BRANCH   5   6
ATOM      6  C   UNL A   1      45.465  22.244  24.865  1.00  0.00     0.338 C 
ATOM      7  O   UNL A   1      45.109  22.345  23.700  1.00  0.00    -0.246 OA
BRANCH   6   8
ATOM      8  C   UNL A   1      45.874  23.410  25.675  1.00  0.00     0.060 A 
ATOM      9  C   UNL A   1      46.841  25.608  27.136  1.00  0.00    -0.038 A 
ATOM     10  C   UNL A   1      46.978  25.563  25.740  1.00  0.00     0.005 A 
ATOM     11  C   UNL A   1      46.152  24.565  27.782  1.00  0.00     0.005 A 
ATOM     12  C   UNL A   1      46.512  24.466  25.016  1.00  0.00     0.016 A 
ATOM     13  C   UNL A   1      45.660  23.472  27.054  1.00  0.00     0.016 A 
BRANCH   9  14
ATOM     14  C   UNL A   1      47.566  26.682  27.909  1.00  0.00     0.105 C 
BRANCH  14  15
ATOM     15  S   UNL A   1      48.097  28.142  26.972  1.00  0.00    -0.147 SA
BRANCH  15  16
ATOM     16  C   UNL A   1      46.548  28.594  26.129  1.00  0.00     0.170 C 
BRANCH  16  17
ATOM     17  C   UNL A   1      46.132  30.045  26.314  1.00  0.00     0.234 C 
ATOM     18  O   UNL A   1      46.145  30.811  25.354  1.00  0.00    -0.274 OA
ATOM     19  N   UNL A   1      45.727  30.366  27.600  1.00  0.00    -0.325 N 
ATOM     20  H   UNL A   1      45.882  29.686  28.296  1.00  0.00     0.169 HD
BRANCH  19  21
ATOM     21  C   UNL A   1      45.116  31.569  28.011  1.00  0.00     0.041 A 
ATOM     22  C   UNL A   1      43.997  31.484  28.850  1.00  0.00     0.027 A 
ATOM     23  C   UNL A   1      45.557  32.829  27.596  1.00  0.00     0.027 A 
ATOM     24  C   UNL A   1      43.357  32.644  29.300  1.00  0.00     0.022 A 
ATOM     25  C   UNL A   1      44.903  33.991  28.028  1.00  0.00     0.022 A 
ATOM     26  C   UNL A   1      43.813  33.895  28.886  1.00  0.00     0.041 A 
ATOM     27  Cl  UNL A   1      43.019  35.317  29.438  1.00  0.00    -0.084 Cl
ENDBRANCH  19  21
ENDBRANCH  16  17
ENDBRANCH  15  16
ENDBRANCH  14  15
ENDBRANCH   9  14
ENDBRANCH   6   8
ENDBRANCH   5   6
ENDBRANCH   4   5
ENDBRANCH   3   4
ENDBRANCH   2   3
ENDBRANCH   1   2
BRANCH   1  28
ATOM     28  C   UNL A   1      42.369  19.582  27.071  1.00  0.00     0.188 C 
BRANCH  28  29
ATOM     29  O   UNL A   1      41.327  20.517  27.263  1.00  0.00    -0.376 OA
BRANCH  29  30
ATOM     30  C   UNL A   1      40.882  21.322  26.184  1.00  0.00     0.202 C 
BRANCH  30  31
ATOM     31  C   UNL A   1      39.409  21.446  25.763  1.00  0.00     0.261 C 
BRANCH  31  32
ATOM     32  O   UNL A   1      38.591  22.338  26.525  1.00  0.00    -0.460 OA
BRANCH  32  33
ATOM     33  C   UNL A   1      38.412  23.564  25.980  1.00  0.00     0.338 C 
ATOM     34  O   UNL A   1      37.690  23.854  25.031  1.00  0.00    -0.246 OA
BRANCH  33  35
ATOM     35  C   UNL A   1      39.097  24.570  26.807  1.00  0.00     0.060 A 
ATOM     36  C   UNL A   1      38.824  24.609  28.181  1.00  0.00     0.016 A 
ATOM     37  C   UNL A   1      39.966  25.494  26.226  1.00  0.00     0.016 A 
ATOM     38  C   UNL A   1      39.410  25.588  28.980  1.00  0.00     0.010 A 
ATOM     39  C   UNL A   1      40.535  26.489  27.026  1.00  0.00     0.010 A 
ATOM     40  C   UNL A   1      40.240  26.556  28.400  1.00  0.00    -0.014 A 
BRANCH  40  41
ATOM     41  C   UNL A   1      40.681  27.724  29.198  1.00  0.00     0.031 A 
ATOM     42  C   UNL A   1      42.014  27.665  29.894  1.00  0.00     0.074 A 
ATOM     43  C   UNL A   1      39.911  28.823  29.299  1.00  0.00     0.049 A 
ATOM     44  N   UNL A   1      42.579  28.542  30.680  1.00  0.00    -0.248 NA
ATOM     45  C   UNL A   1      42.813  26.448  29.673  1.00  0.00     0.031 C 
ATOM     46  C   UNL A   1      38.616  29.009  28.646  1.00  0.00     0.029 A 
ATOM     47  N   UNL A   1      40.105  29.984  30.003  1.00  0.00    -0.354 N 
ATOM     48  C   UNL A   1      43.796  27.985  31.053  1.00  0.00     0.074 A 
ATOM     49  C   UNL A   1      43.875  26.681  30.431  1.00  0.00     0.031 C 
ATOM     50  C   UNL A   1      38.124  30.212  28.993  1.00  0.00     0.029 A 
ATOM     51  C   UNL A   1      39.054  30.866  29.913  1.00  0.00     0.049 A 
ATOM     52  H   UNL A   1      40.921  30.170  30.523  1.00  0.00     0.167 HD
ATOM     53  C   UNL A   1      44.765  28.517  31.836  1.00  0.00     0.037 A 
ATOM     54  C   UNL A   1      38.856  32.051  30.523  1.00  0.00     0.037 A 
ATOM     55  C   UNL A   1      44.678  29.813  32.457  1.00  0.00     0.049 A 
ATOM     56  C   UNL A   1      39.920  32.595  31.444  1.00  0.00     0.074 A 
ATOM     57  C   UNL A   1      45.614  30.451  33.252  1.00  0.00     0.029 A 
ATOM     58  N   UNL A   1      43.588  30.667  32.362  1.00  0.00    -0.354 N 
ATOM     59  N   UNL A   1      41.081  32.072  31.765  1.00  0.00    -0.248 NA
ATOM     60  C   UNL A   1      39.648  33.889  32.084  1.00  0.00     0.031 C 
ATOM     61  C   UNL A   1      45.070  31.666  33.681  1.00  0.00     0.029 A 
ATOM     62  C   UNL A   1      43.817  31.813  33.107  1.00  0.00     0.049 A 
ATOM     63  H   UNL A   1      42.771  30.485  31.843  1.00  0.00     0.167 HD
ATOM     64  C   UNL A   1      41.688  32.989  32.619  1.00  0.00     0.074 A 
ATOM     65  C   UNL A   1      40.770  34.100  32.757  1.00  0.00     0.031 C 
ATOM     66  C   UNL A   1      42.897  32.917  33.232  1.00  0.00     0.037 A 
BRANCH  53  67
ATOM     67  C   UNL A   1      45.992  27.685  32.087  1.00  0.00     0.058 A 
ATOM     68  C   UNL A   1      47.184  27.891  31.376  1.00  0.00     0.135 A 
ATOM     69  C   UNL A   1      45.984  26.687  33.075  1.00  0.00     0.135 A 
ATOM     70  F   UNL A   1      47.242  28.820  30.407  1.00  0.00    -0.206 F 
ATOM     71  C   UNL A   1      48.317  27.120  31.617  1.00  0.00     0.059 A 
ATOM     72  C   UNL A   1      47.114  25.923  33.353  1.00  0.00     0.059 A 
ATOM     73  F   UNL A   1      44.869  26.446  33.784  1.00  0.00    -0.206 F 
ATOM     74  C   UNL A   1      48.272  26.139  32.607  1.00  0.00     0.060 A 
BRANCH  74  75
ATOM     75  S   UNL A   1      49.752  25.151  32.911  1.00  0.00     0.124 S 
ATOM     76  O   UNL A   1      50.549  26.064  33.725  1.00  0.00    -0.237 OA
ATOM     77  O   UNL A   1      49.214  23.988  33.607  1.00  0.00    -0.237 OA
ATOM     78  O   UNL A   1      50.271  24.891  31.572  1.00  0.00    -0.744 OA
ENDBRANCH  74  75
ENDBRANCH  53  67
BRANCH  54  79
ATOM     79  C   UNL A   1      37.594  32.805  30.291  1.00  0.00     0.058 A 
ATOM     80  C   UNL A   1      37.521  33.819  29.324  1.00  0.00     0.135 A 
ATOM     81  C   UNL A   1      36.437  32.531  31.037  1.00  0.00     0.135 A 
ATOM     82  F   UNL A   1      38.604  34.128  28.594  1.00  0.00    -0.206 F 
ATOM     83  C   UNL A   1      36.352  34.542  29.112  1.00  0.00     0.059 A 
ATOM     84  C   UNL A   1      35.249  33.222  30.826  1.00  0.00     0.059 A 
ATOM     85  F   UNL A   1      36.452  31.566  31.970  1.00  0.00    -0.206 F 
ATOM     86  C   UNL A   1      35.219  34.234  29.867  1.00  0.00     0.060 A 
BRANCH  86  87
ATOM     87  S   UNL A   1      33.694  35.150  29.553  1.00  0.00     0.124 S 
ATOM     88  O   UNL A   1      32.745  34.069  29.316  1.00  0.00    -0.237 OA
ATOM     89  O   UNL A   1      33.521  35.892  30.798  1.00  0.00    -0.237 OA
ATOM     90  O   UNL A   1      34.026  35.965  28.387  1.00  0.00    -0.744 OA
ENDBRANCH  86  87
ENDBRANCH  54  79
BRANCH  66  91
ATOM     91  C   UNL A   1      43.320  34.087  34.079  1.00  0.00     0.058 A 
ATOM     92  C   UNL A   1      43.116  34.109  35.468  1.00  0.00     0.135 A 
ATOM     93  C   UNL A   1      43.990  35.178  33.499  1.00  0.00     0.135 A 
ATOM     94  F   UNL A   1      42.477  33.096  36.073  1.00  0.00    -0.206 F 
ATOM     95  C   UNL A   1      43.538  35.182  36.247  1.00  0.00     0.059 A 
ATOM     96  C   UNL A   1      44.447  36.247  34.263  1.00  0.00     0.059 A 
ATOM     97  F   UNL A   1      44.224  35.203  32.177  1.00  0.00    -0.206 F 
ATOM     98  C   UNL A   1      44.205  36.246  35.636  1.00  0.00     0.060 A 
BRANCH  98  99
ATOM     99  S   UNL A   1      44.777  37.616  36.665  1.00  0.00     0.124 S 
ATOM    100  O   UNL A   1      46.004  37.065  37.232  1.00  0.00    -0.237 OA
ATOM    101  O   UNL A   1      44.956  38.686  35.690  1.00  0.00    -0.237 OA
ATOM    102  O   UNL A   1      43.682  37.813  37.610  1.00  0.00    -0.744 OA
ENDBRANCH  98  99
ENDBRANCH  66  91
ENDBRANCH  40  41
ENDBRANCH  33  35
ENDBRANCH  32  33
ENDBRANCH  31  32
ENDBRANCH  30  31
ENDBRANCH  29  30
ENDBRANCH  28  29
ENDBRANCH   1  28
TORSDOF 25
ENDMDL
