MODEL 1
REMARK VINA RESULT:     -10.5      0.000      0.000
REMARK SMILES C[C@H](C(=O)OCCOCCOCCOC(=O)c1ccc(-c2c3nc(c(-c4c(F)cc(S(=O)(=O)[O-])cc4F)c4ccc([nH]4)c(-c4c(F)cc(S(=O)(=O)[O-])cc4F)c4nc(c(-c5c(F)cc(S(=O)(=O)[O-])cc5F)c5ccc2[nH]5)C=C4)C=C3)cc1)c1ccc2c3cc(Cl)ccc3n(C(=O)c3cocn3)c2c1
REMARK SMILES IDX 9 1 8 2 7 3 6 4 5 5 3 6 4 7 2 8 1 9 83 10 84 11 103 12 85 13
REMARK SMILES IDX 102 14 86 15 94 16 87 17 93 18 88 19 92 20 89 21 91 22 90 23
REMARK SMILES IDX 95 24 96 25 97 26 98 27 101 28 99 29 100 30 10 31 11 32
REMARK SMILES IDX 12 33 13 34 14 35 15 36 16 37 17 38 18 39 82 40 19 41 81 42
REMARK SMILES IDX 20 43 21 44 22 45 75 46 23 47 80 48 74 49 76 50 24 51 79 52
REMARK SMILES IDX 73 53 72 54 25 56 59 57 38 58 58 59 39 60 42 61 57 62 77 63
REMARK SMILES IDX 40 64 41 65 56 67 78 68 43 69 26 70 27 71 36 72 28 73 29 74
REMARK SMILES IDX 35 75 37 76 30 77 31 78 32 79 33 80 34 81 60 82 61 83 70 84
REMARK SMILES IDX 62 85 63 86 69 87 71 88 64 89 65 90 66 91 67 92 68 93 44 94
REMARK SMILES IDX 45 95 54 96 46 97 47 98 53 99 55 100 48 101 49 102 50 103
REMARK SMILES IDX 51 104 52 105
REMARK H PARENT 76 55 42 66
REMARK Flexibility Score: inf
ROOT
ATOM      1  C   UNL A   1      32.543  32.627  27.448  1.00  0.00     0.188 C 
ENDROOT
BRANCH   1   2
ATOM      2  O   UNL A   1      31.901  31.565  26.746  1.00  0.00    -0.376 OA
BRANCH   2   3
ATOM      3  C   UNL A   1      32.529  30.284  26.729  1.00  0.00     0.202 C 
BRANCH   3   4
ATOM      4  C   UNL A   1      31.709  29.099  27.254  1.00  0.00     0.261 C 
BRANCH   4   5
ATOM      5  O   UNL A   1      32.484  27.885  27.307  1.00  0.00    -0.463 OA
BRANCH   5   6
ATOM      6  C   UNL A   1      32.991  27.437  26.129  1.00  0.00     0.313 C 
ATOM      7  O   UNL A   1      34.159  27.596  25.789  1.00  0.00    -0.252 OA
BRANCH   6   8
ATOM      8  C   UNL A   1      31.999  26.608  25.300  1.00  0.00     0.126 C 
ATOM      9  C   UNL A   1      31.837  27.326  23.942  1.00  0.00     0.025 C 
BRANCH   8  10
ATOM     10  C   UNL A   1      32.221  25.087  25.250  1.00  0.00    -0.032 A 
ATOM     11  C   UNL A   1      31.189  24.219  25.626  1.00  0.00     0.005 A 
ATOM     12  C   UNL A   1      33.429  24.513  24.795  1.00  0.00     0.032 A 
ATOM     13  C   UNL A   1      31.342  22.826  25.575  1.00  0.00     0.011 A 
ATOM     14  C   UNL A   1      33.615  23.109  24.828  1.00  0.00     0.058 A 
ATOM     15  C   UNL A   1      32.566  22.262  25.163  1.00  0.00     0.008 A 
ATOM     16  N   UNL A   1      34.748  22.321  24.550  1.00  0.00    -0.274 N 
ATOM     17  C   UNL A   1      33.021  20.925  24.990  1.00  0.00     0.009 A 
ATOM     18  C   UNL A   1      34.384  20.967  24.665  1.00  0.00     0.057 A 
ATOM     19  C   UNL A   1      32.373  19.676  25.125  1.00  0.00     0.031 A 
ATOM     20  C   UNL A   1      35.132  19.772  24.595  1.00  0.00     0.029 A 
ATOM     21  C   UNL A   1      33.103  18.501  24.978  1.00  0.00     0.041 A 
ATOM     22  C   UNL A   1      34.469  18.545  24.736  1.00  0.00     0.023 A 
ATOM     23  Cl  UNL A   1      32.306  16.982  25.128  1.00  0.00    -0.084 Cl
BRANCH  16  24
ATOM     24  C   UNL A   1      36.034  22.864  24.269  1.00  0.00     0.284 C 
ATOM     25  O   UNL A   1      36.202  23.248  23.112  1.00  0.00    -0.266 OA
BRANCH  24  26
ATOM     26  C   UNL A   1      37.144  22.941  25.218  1.00  0.00     0.167 A 
ATOM     27  C   UNL A   1      38.007  21.951  25.641  1.00  0.00     0.231 A 
ATOM     28  N   UNL A   1      37.584  24.150  25.740  1.00  0.00    -0.211 NA
ATOM     29  O   UNL A   1      38.964  22.516  26.431  1.00  0.00    -0.451 OA
ATOM     30  C   UNL A   1      38.655  23.842  26.431  1.00  0.00     0.308 A 
ENDBRANCH  24  26
ENDBRANCH  16  24
ENDBRANCH   8  10
ENDBRANCH   6   8
ENDBRANCH   5   6
ENDBRANCH   4   5
ENDBRANCH   3   4
ENDBRANCH   2   3
ENDBRANCH   1   2
BRANCH   1  31
ATOM     31  C   UNL A   1      34.016  32.443  27.854  1.00  0.00     0.188 C 
BRANCH  31  32
ATOM     32  O   UNL A   1      34.187  31.816  29.112  1.00  0.00    -0.376 OA
BRANCH  32  33
ATOM     33  C   UNL A   1      34.792  32.601  30.124  1.00  0.00     0.202 C 
BRANCH  33  34
ATOM     34  C   UNL A   1      35.743  31.850  31.065  1.00  0.00     0.261 C 
BRANCH  34  35
ATOM     35  O   UNL A   1      36.232  30.585  30.584  1.00  0.00    -0.460 OA
BRANCH  35  36
ATOM     36  C   UNL A   1      37.025  29.868  31.415  1.00  0.00     0.338 C 
ATOM     37  O   UNL A   1      36.673  29.238  32.393  1.00  0.00    -0.246 OA
BRANCH  36  38
ATOM     38  C   UNL A   1      38.376  29.826  30.802  1.00  0.00     0.060 A 
ATOM     39  C   UNL A   1      38.510  29.986  29.417  1.00  0.00     0.016 A 
ATOM     40  C   UNL A   1      39.509  29.655  31.603  1.00  0.00     0.016 A 
ATOM     41  C   UNL A   1      39.778  29.951  28.826  1.00  0.00     0.010 A 
ATOM     42  C   UNL A   1      40.773  29.601  31.008  1.00  0.00     0.010 A 
ATOM     43  C   UNL A   1      40.914  29.722  29.613  1.00  0.00    -0.014 A 
BRANCH  43  44
ATOM     44  C   UNL A   1      42.224  29.417  28.981  1.00  0.00     0.031 A 
ATOM     45  C   UNL A   1      42.479  28.006  28.520  1.00  0.00     0.074 A 
ATOM     46  C   UNL A   1      43.178  30.354  28.837  1.00  0.00     0.049 A 
ATOM     47  N   UNL A   1      43.568  27.476  28.027  1.00  0.00    -0.248 NA
ATOM     48  C   UNL A   1      41.352  27.067  28.639  1.00  0.00     0.031 C 
ATOM     49  C   UNL A   1      43.047  31.761  29.209  1.00  0.00     0.029 A 
ATOM     50  N   UNL A   1      44.458  30.254  28.348  1.00  0.00    -0.354 N 
ATOM     51  C   UNL A   1      43.263  26.140  27.790  1.00  0.00     0.074 A 
ATOM     52  C   UNL A   1      41.895  25.935  28.215  1.00  0.00     0.031 C 
ATOM     53  C   UNL A   1      44.207  32.391  28.949  1.00  0.00     0.029 A 
ATOM     54  C   UNL A   1      45.174  31.427  28.425  1.00  0.00     0.049 A 
ATOM     55  H   UNL A   1      44.830  29.420  27.979  1.00  0.00     0.167 HD
ATOM     56  C   UNL A   1      44.048  25.173  27.260  1.00  0.00     0.037 A 
ATOM     57  C   UNL A   1      46.465  31.684  28.128  1.00  0.00     0.037 A 
ATOM     58  C   UNL A   1      45.408  25.378  26.837  1.00  0.00     0.049 A 
ATOM     59  C   UNL A   1      47.342  30.573  27.603  1.00  0.00     0.074 A 
ATOM     60  C   UNL A   1      46.278  24.465  26.265  1.00  0.00     0.029 A 
ATOM     61  N   UNL A   1      46.103  26.573  26.950  1.00  0.00    -0.354 N 
ATOM     62  N   UNL A   1      47.034  29.321  27.356  1.00  0.00    -0.248 NA
ATOM     63  C   UNL A   1      48.745  30.910  27.317  1.00  0.00     0.031 C 
ATOM     64  C   UNL A   1      47.513  25.094  26.079  1.00  0.00     0.029 A 
ATOM     65  C   UNL A   1      47.397  26.415  26.482  1.00  0.00     0.049 A 
ATOM     66  H   UNL A   1      45.730  27.411  27.309  1.00  0.00     0.167 HD
ATOM     67  C   UNL A   1      48.192  28.734  26.856  1.00  0.00     0.074 A 
ATOM     68  C   UNL A   1      49.207  29.766  26.829  1.00  0.00     0.031 C 
ATOM     69  C   UNL A   1      48.396  27.454  26.451  1.00  0.00     0.037 A 
BRANCH  56  70
ATOM     70  C   UNL A   1      43.462  23.793  27.136  1.00  0.00     0.058 A 
ATOM     71  C   UNL A   1      43.392  22.917  28.231  1.00  0.00     0.135 A 
ATOM     72  C   UNL A   1      42.939  23.352  25.909  1.00  0.00     0.135 A 
ATOM     73  F   UNL A   1      43.894  23.281  29.421  1.00  0.00    -0.206 F 
ATOM     74  C   UNL A   1      42.848  21.642  28.108  1.00  0.00     0.059 A 
ATOM     75  C   UNL A   1      42.365  22.091  25.770  1.00  0.00     0.059 A 
ATOM     76  F   UNL A   1      42.982  24.149  24.830  1.00  0.00    -0.206 F 
ATOM     77  C   UNL A   1      42.338  21.238  26.872  1.00  0.00     0.060 A 
BRANCH  77  78
ATOM     78  S   UNL A   1      41.633  19.583  26.731  1.00  0.00     0.124 S 
ATOM     79  O   UNL A   1      40.254  19.816  27.149  1.00  0.00    -0.237 OA
ATOM     80  O   UNL A   1      41.822  19.283  25.316  1.00  0.00    -0.237 OA
ATOM     81  O   UNL A   1      42.441  18.789  27.652  1.00  0.00    -0.744 OA
ENDBRANCH  77  78
ENDBRANCH  56  70
BRANCH  57  82
ATOM     82  C   UNL A   1      47.020  33.050  28.327  1.00  0.00     0.058 A 
ATOM     83  C   UNL A   1      47.002  33.997  27.290  1.00  0.00     0.135 A 
ATOM     84  C   UNL A   1      47.594  33.434  29.549  1.00  0.00     0.135 A 
ATOM     85  F   UNL A   1      46.480  33.674  26.097  1.00  0.00    -0.206 F 
ATOM     86  C   UNL A   1      47.543  35.268  27.453  1.00  0.00     0.059 A 
ATOM     87  C   UNL A   1      48.119  34.709  29.744  1.00  0.00     0.059 A 
ATOM     88  F   UNL A   1      47.635  32.569  30.574  1.00  0.00    -0.206 F 
ATOM     89  C   UNL A   1      48.097  35.616  28.686  1.00  0.00     0.060 A 
BRANCH  89  90
ATOM     90  S   UNL A   1      48.755  37.285  28.899  1.00  0.00     0.124 S 
ATOM     91  O   UNL A   1      50.037  37.017  29.542  1.00  0.00    -0.237 OA
ATOM     92  O   UNL A   1      48.820  37.768  27.523  1.00  0.00    -0.237 OA
ATOM     93  O   UNL A   1      47.753  37.936  29.738  1.00  0.00    -0.744 OA
ENDBRANCH  89  90
ENDBRANCH  57  82
BRANCH  69  94
ATOM     94  C   UNL A   1      49.752  27.101  25.898  1.00  0.00     0.058 A 
ATOM     95  C   UNL A   1      50.064  27.260  24.539  1.00  0.00     0.135 A 
ATOM     96  C   UNL A   1      50.772  26.656  26.756  1.00  0.00     0.135 A 
ATOM     97  F   UNL A   1      49.127  27.676  23.674  1.00  0.00    -0.206 F 
ATOM     98  C   UNL A   1      51.334  26.969  24.046  1.00  0.00     0.059 A 
ATOM     99  C   UNL A   1      52.055  26.387  26.290  1.00  0.00     0.059 A 
ATOM    100  F   UNL A   1      50.532  26.499  28.068  1.00  0.00    -0.206 F 
ATOM    101  C   UNL A   1      52.323  26.536  24.930  1.00  0.00     0.060 A 
BRANCH 101 102
ATOM    102  S   UNL A   1      53.975  26.197  24.285  1.00  0.00     0.124 S 
ATOM    103  O   UNL A   1      53.758  26.303  22.846  1.00  0.00    -0.237 OA
ATOM    104  O   UNL A   1      54.771  27.263  24.887  1.00  0.00    -0.237 OA
ATOM    105  O   UNL A   1      54.266  24.854  24.778  1.00  0.00    -0.744 OA
ENDBRANCH 101 102
ENDBRANCH  69  94
ENDBRANCH  43  44
ENDBRANCH  36  38
ENDBRANCH  35  36
ENDBRANCH  34  35
ENDBRANCH  33  34
ENDBRANCH  32  33
ENDBRANCH  31  32
ENDBRANCH   1  31
TORSDOF 23
ENDMDL
MODEL 2
REMARK VINA RESULT:      -9.6      6.375     10.343
REMARK SMILES C[C@H](C(=O)OCCOCCOCCOC(=O)c1ccc(-c2c3nc(c(-c4c(F)cc(S(=O)(=O)[O-])cc4F)c4ccc([nH]4)c(-c4c(F)cc(S(=O)(=O)[O-])cc4F)c4nc(c(-c5c(F)cc(S(=O)(=O)[O-])cc5F)c5ccc2[nH]5)C=C4)C=C3)cc1)c1ccc2c3cc(Cl)ccc3n(C(=O)c3cocn3)c2c1
REMARK SMILES IDX 9 1 8 2 7 3 6 4 5 5 3 6 4 7 2 8 1 9 83 10 84 11 103 12 85 13
REMARK SMILES IDX 102 14 86 15 94 16 87 17 93 18 88 19 92 20 89 21 91 22 90 23
REMARK SMILES IDX 95 24 96 25 97 26 98 27 101 28 99 29 100 30 10 31 11 32
REMARK SMILES IDX 12 33 13 34 14 35 15 36 16 37 17 38 18 39 82 40 19 41 81 42
REMARK SMILES IDX 20 43 21 44 22 45 75 46 23 47 80 48 74 49 76 50 24 51 79 52
REMARK SMILES IDX 73 53 72 54 25 56 59 57 38 58 58 59 39 60 42 61 57 62 77 63
REMARK SMILES IDX 40 64 41 65 56 67 78 68 43 69 26 70 27 71 36 72 28 73 29 74
REMARK SMILES IDX 35 75 37 76 30 77 31 78 32 79 33 80 34 81 60 82 61 83 70 84
REMARK SMILES IDX 62 85 63 86 69 87 71 88 64 89 65 90 66 91 67 92 68 93 44 94
REMARK SMILES IDX 45 95 54 96 46 97 47 98 53 99 55 100 48 101 49 102 50 103
REMARK SMILES IDX 51 104 52 105
REMARK H PARENT 76 55 42 66
REMARK Flexibility Score: inf
ROOT
ATOM      1  C   UNL A   1      32.988  32.116  27.370  1.00  0.00     0.188 C 
ENDROOT
BRANCH   1   2
ATOM      2  O   UNL A   1      32.793  30.943  26.582  1.00  0.00    -0.376 OA
BRANCH   2   3
ATOM      3  C   UNL A   1      32.916  29.670  27.216  1.00  0.00     0.202 C 
BRANCH   3   4
ATOM      4  C   UNL A   1      31.719  28.717  27.102  1.00  0.00     0.261 C 
BRANCH   4   5
ATOM      5  O   UNL A   1      31.947  27.674  26.135  1.00  0.00    -0.463 OA
BRANCH   5   6
ATOM      6  C   UNL A   1      31.623  27.961  24.847  1.00  0.00     0.313 C 
ATOM      7  O   UNL A   1      30.727  28.737  24.530  1.00  0.00    -0.252 OA
BRANCH   6   8
ATOM      8  C   UNL A   1      32.556  27.315  23.812  1.00  0.00     0.126 C 
ATOM      9  C   UNL A   1      33.924  28.020  23.938  1.00  0.00     0.025 C 
BRANCH   8  10
ATOM     10  C   UNL A   1      32.578  25.779  23.744  1.00  0.00    -0.032 A 
ATOM     11  C   UNL A   1      31.667  25.104  22.925  1.00  0.00     0.005 A 
ATOM     12  C   UNL A   1      33.523  25.005  24.454  1.00  0.00     0.032 A 
ATOM     13  C   UNL A   1      31.668  23.705  22.817  1.00  0.00     0.011 A 
ATOM     14  C   UNL A   1      33.466  23.589  24.416  1.00  0.00     0.058 A 
ATOM     15  C   UNL A   1      32.583  22.937  23.565  1.00  0.00     0.008 A 
ATOM     16  N   UNL A   1      34.202  22.617  25.119  1.00  0.00    -0.274 N 
ATOM     17  C   UNL A   1      32.844  21.543  23.661  1.00  0.00     0.009 A 
ATOM     18  C   UNL A   1      33.805  21.347  24.662  1.00  0.00     0.057 A 
ATOM     19  C   UNL A   1      32.298  20.426  22.988  1.00  0.00     0.031 A 
ATOM     20  C   UNL A   1      34.135  20.040  25.080  1.00  0.00     0.029 A 
ATOM     21  C   UNL A   1      32.688  19.141  23.356  1.00  0.00     0.041 A 
ATOM     22  C   UNL A   1      33.579  18.947  24.401  1.00  0.00     0.023 A 
ATOM     23  Cl  UNL A   1      32.031  17.784  22.523  1.00  0.00    -0.084 Cl
BRANCH  16  24
ATOM     24  C   UNL A   1      35.130  22.927  26.153  1.00  0.00     0.284 C 
ATOM     25  O   UNL A   1      34.629  23.292  27.217  1.00  0.00    -0.266 OA
BRANCH  24  26
ATOM     26  C   UNL A   1      36.586  22.895  26.021  1.00  0.00     0.167 A 
ATOM     27  C   UNL A   1      37.518  23.857  26.348  1.00  0.00     0.231 A 
ATOM     28  N   UNL A   1      37.265  21.742  25.650  1.00  0.00    -0.211 NA
ATOM     29  O   UNL A   1      38.765  23.333  26.172  1.00  0.00    -0.451 OA
ATOM     30  C   UNL A   1      38.533  22.054  25.767  1.00  0.00     0.308 A 
ENDBRANCH  24  26
ENDBRANCH  16  24
ENDBRANCH   8  10
ENDBRANCH   6   8
ENDBRANCH   5   6
ENDBRANCH   4   5
ENDBRANCH   3   4
ENDBRANCH   2   3
ENDBRANCH   1   2
BRANCH   1  31
ATOM     31  C   UNL A   1      34.272  32.217  28.214  1.00  0.00     0.188 C 
BRANCH  31  32
ATOM     32  O   UNL A   1      34.897  33.486  28.149  1.00  0.00    -0.376 OA
BRANCH  32  33
ATOM     33  C   UNL A   1      34.088  34.559  27.702  1.00  0.00     0.202 C 
BRANCH  33  34
ATOM     34  C   UNL A   1      33.679  35.574  28.777  1.00  0.00     0.261 C 
BRANCH  34  35
ATOM     35  O   UNL A   1      32.665  35.135  29.699  1.00  0.00    -0.460 OA
BRANCH  35  36
ATOM     36  C   UNL A   1      32.643  35.716  30.923  1.00  0.00     0.338 C 
ATOM     37  O   UNL A   1      31.739  36.373  31.400  1.00  0.00    -0.246 OA
BRANCH  36  38
ATOM     38  C   UNL A   1      33.843  35.240  31.655  1.00  0.00     0.060 A 
ATOM     39  C   UNL A   1      34.496  36.102  32.546  1.00  0.00     0.016 A 
ATOM     40  C   UNL A   1      34.304  33.933  31.479  1.00  0.00     0.016 A 
ATOM     41  C   UNL A   1      35.627  35.665  33.244  1.00  0.00     0.010 A 
ATOM     42  C   UNL A   1      35.446  33.504  32.163  1.00  0.00     0.010 A 
ATOM     43  C   UNL A   1      36.130  34.376  33.029  1.00  0.00    -0.014 A 
BRANCH  43  44
ATOM     44  C   UNL A   1      37.467  33.989  33.550  1.00  0.00     0.031 A 
ATOM     45  C   UNL A   1      37.616  33.768  35.032  1.00  0.00     0.074 A 
ATOM     46  C   UNL A   1      38.532  33.856  32.740  1.00  0.00     0.049 A 
ATOM     47  N   UNL A   1      38.692  33.517  35.732  1.00  0.00    -0.248 NA
ATOM     48  C   UNL A   1      36.383  33.851  35.831  1.00  0.00     0.031 C 
ATOM     49  C   UNL A   1      38.517  34.007  31.286  1.00  0.00     0.029 A 
ATOM     50  N   UNL A   1      39.846  33.577  33.034  1.00  0.00    -0.354 N 
ATOM     51  C   UNL A   1      38.269  33.424  37.053  1.00  0.00     0.074 A 
ATOM     52  C   UNL A   1      36.843  33.670  37.060  1.00  0.00     0.031 C 
ATOM     53  C   UNL A   1      39.765  33.834  30.816  1.00  0.00     0.029 A 
ATOM     54  C   UNL A   1      40.675  33.594  31.936  1.00  0.00     0.049 A 
ATOM     55  H   UNL A   1      40.164  33.384  33.945  1.00  0.00     0.167 HD
ATOM     56  C   UNL A   1      39.000  33.152  38.160  1.00  0.00     0.037 A 
ATOM     57  C   UNL A   1      42.014  33.455  31.850  1.00  0.00     0.037 A 
ATOM     58  C   UNL A   1      40.418  32.907  38.151  1.00  0.00     0.049 A 
ATOM     59  C   UNL A   1      42.819  33.222  33.106  1.00  0.00     0.074 A 
ATOM     60  C   UNL A   1      41.244  32.599  39.219  1.00  0.00     0.029 A 
ATOM     61  N   UNL A   1      41.224  32.954  37.024  1.00  0.00    -0.354 N 
ATOM     62  N   UNL A   1      42.404  33.108  34.346  1.00  0.00    -0.248 NA
ATOM     63  C   UNL A   1      44.277  33.098  32.951  1.00  0.00     0.031 C 
ATOM     64  C   UNL A   1      42.557  32.510  38.744  1.00  0.00     0.029 A 
ATOM     65  C   UNL A   1      42.542  32.705  37.372  1.00  0.00     0.049 A 
ATOM     66  H   UNL A   1      40.907  33.136  36.109  1.00  0.00     0.167 HD
ATOM     67  C   UNL A   1      43.542  32.866  35.110  1.00  0.00     0.074 A 
ATOM     68  C   UNL A   1      44.663  32.845  34.194  1.00  0.00     0.031 C 
ATOM     69  C   UNL A   1      43.649  32.676  36.449  1.00  0.00     0.037 A 
BRANCH  56  70
ATOM     70  C   UNL A   1      38.281  33.137  39.480  1.00  0.00     0.058 A 
ATOM     71  C   UNL A   1      37.499  32.043  39.886  1.00  0.00     0.135 A 
ATOM     72  C   UNL A   1      38.396  34.223  40.364  1.00  0.00     0.135 A 
ATOM     73  F   UNL A   1      37.340  30.988  39.072  1.00  0.00    -0.206 F 
ATOM     74  C   UNL A   1      36.837  32.037  41.110  1.00  0.00     0.059 A 
ATOM     75  C   UNL A   1      37.765  34.226  41.605  1.00  0.00     0.059 A 
ATOM     76  F   UNL A   1      39.129  35.295  40.025  1.00  0.00    -0.206 F 
ATOM     77  C   UNL A   1      36.975  33.135  41.962  1.00  0.00     0.060 A 
BRANCH  77  78
ATOM     78  S   UNL A   1      36.112  33.109  43.547  1.00  0.00     0.124 S 
ATOM     79  O   UNL A   1      35.542  31.765  43.546  1.00  0.00    -0.237 OA
ATOM     80  O   UNL A   1      37.197  33.336  44.496  1.00  0.00    -0.237 OA
ATOM     81  O   UNL A   1      35.148  34.199  43.427  1.00  0.00    -0.744 OA
ENDBRANCH  77  78
ENDBRANCH  56  70
BRANCH  57  82
ATOM     82  C   UNL A   1      42.692  33.542  30.528  1.00  0.00     0.058 A 
ATOM     83  C   UNL A   1      43.103  34.777  30.005  1.00  0.00     0.135 A 
ATOM     84  C   UNL A   1      42.931  32.395  29.754  1.00  0.00     0.135 A 
ATOM     85  F   UNL A   1      42.883  35.905  30.697  1.00  0.00    -0.206 F 
ATOM     86  C   UNL A   1      43.712  34.876  28.758  1.00  0.00     0.059 A 
ATOM     87  C   UNL A   1      43.562  32.465  28.515  1.00  0.00     0.059 A 
ATOM     88  F   UNL A   1      42.561  31.187  30.209  1.00  0.00    -0.206 F 
ATOM     89  C   UNL A   1      43.941  33.712  28.021  1.00  0.00     0.060 A 
BRANCH  89  90
ATOM     90  S   UNL A   1      44.774  33.849  26.424  1.00  0.00     0.124 S 
ATOM     91  O   UNL A   1      45.641  35.002  26.641  1.00  0.00    -0.237 OA
ATOM     92  O   UNL A   1      45.445  32.557  26.316  1.00  0.00    -0.237 OA
ATOM     93  O   UNL A   1      43.672  34.055  25.488  1.00  0.00    -0.744 OA
ENDBRANCH  89  90
ENDBRANCH  57  82
BRANCH  69  94
ATOM     94  C   UNL A   1      45.016  32.380  37.010  1.00  0.00     0.058 A 
ATOM     95  C   UNL A   1      45.562  31.087  36.992  1.00  0.00     0.135 A 
ATOM     96  C   UNL A   1      45.814  33.420  37.514  1.00  0.00     0.135 A 
ATOM     97  F   UNL A   1      44.841  30.056  36.526  1.00  0.00    -0.206 F 
ATOM     98  C   UNL A   1      46.842  30.832  37.474  1.00  0.00     0.059 A 
ATOM     99  C   UNL A   1      47.108  33.193  37.975  1.00  0.00     0.059 A 
ATOM    100  F   UNL A   1      45.347  34.679  37.543  1.00  0.00    -0.206 F 
ATOM    101  C   UNL A   1      47.609  31.892  37.962  1.00  0.00     0.060 A 
BRANCH 101 102
ATOM    102  S   UNL A   1      49.282  31.555  38.551  1.00  0.00     0.124 S 
ATOM    103  O   UNL A   1      49.117  31.676  39.995  1.00  0.00    -0.237 OA
ATOM    104  O   UNL A   1      49.524  30.204  38.051  1.00  0.00    -0.237 OA
ATOM    105  O   UNL A   1      50.083  32.601  37.921  1.00  0.00    -0.744 OA
ENDBRANCH 101 102
ENDBRANCH  69  94
ENDBRANCH  43  44
ENDBRANCH  36  38
ENDBRANCH  35  36
ENDBRANCH  34  35
ENDBRANCH  33  34
ENDBRANCH  32  33
ENDBRANCH  31  32
ENDBRANCH   1  31
TORSDOF 23
ENDMDL
MODEL 3
REMARK VINA RESULT:      -9.3      4.752     11.524
REMARK SMILES C[C@H](C(=O)OCCOCCOCCOC(=O)c1ccc(-c2c3nc(c(-c4c(F)cc(S(=O)(=O)[O-])cc4F)c4ccc([nH]4)c(-c4c(F)cc(S(=O)(=O)[O-])cc4F)c4nc(c(-c5c(F)cc(S(=O)(=O)[O-])cc5F)c5ccc2[nH]5)C=C4)C=C3)cc1)c1ccc2c3cc(Cl)ccc3n(C(=O)c3cocn3)c2c1
REMARK SMILES IDX 9 1 8 2 7 3 6 4 5 5 3 6 4 7 2 8 1 9 83 10 84 11 103 12 85 13
REMARK SMILES IDX 102 14 86 15 94 16 87 17 93 18 88 19 92 20 89 21 91 22 90 23
REMARK SMILES IDX 95 24 96 25 97 26 98 27 101 28 99 29 100 30 10 31 11 32
REMARK SMILES IDX 12 33 13 34 14 35 15 36 16 37 17 38 18 39 82 40 19 41 81 42
REMARK SMILES IDX 20 43 21 44 22 45 75 46 23 47 80 48 74 49 76 50 24 51 79 52
REMARK SMILES IDX 73 53 72 54 25 56 59 57 38 58 58 59 39 60 42 61 57 62 77 63
REMARK SMILES IDX 40 64 41 65 56 67 78 68 43 69 26 70 27 71 36 72 28 73 29 74
REMARK SMILES IDX 35 75 37 76 30 77 31 78 32 79 33 80 34 81 60 82 61 83 70 84
REMARK SMILES IDX 62 85 63 86 69 87 71 88 64 89 65 90 66 91 67 92 68 93 44 94
REMARK SMILES IDX 45 95 54 96 46 97 47 98 53 99 55 100 48 101 49 102 50 103
REMARK SMILES IDX 51 104 52 105
REMARK H PARENT 76 55 42 66
REMARK Flexibility Score: inf
ROOT
ATOM      1  C   UNL A   1      45.769  38.017  32.641  1.00  0.00     0.188 C 
ENDROOT
BRANCH   1   2
ATOM      2  O   UNL A   1      45.527  36.838  33.408  1.00  0.00    -0.376 OA
BRANCH   2   3
ATOM      3  C   UNL A   1      44.353  36.784  34.218  1.00  0.00     0.202 C 
BRANCH   3   4
ATOM      4  C   UNL A   1      43.465  35.542  34.074  1.00  0.00     0.261 C 
BRANCH   4   5
ATOM      5  O   UNL A   1      43.921  34.667  33.025  1.00  0.00    -0.463 OA
BRANCH   5   6
ATOM      6  C   UNL A   1      43.759  33.335  33.233  1.00  0.00     0.313 C 
ATOM      7  O   UNL A   1      44.060  32.771  34.281  1.00  0.00    -0.252 OA
BRANCH   6   8
ATOM      8  C   UNL A   1      43.055  32.605  32.080  1.00  0.00     0.126 C 
ATOM      9  C   UNL A   1      43.552  31.144  32.102  1.00  0.00     0.025 C 
BRANCH   8  10
ATOM     10  C   UNL A   1      41.538  32.813  31.935  1.00  0.00    -0.032 A 
ATOM     11  C   UNL A   1      41.043  33.676  30.952  1.00  0.00     0.005 A 
ATOM     12  C   UNL A   1      40.601  32.127  32.740  1.00  0.00     0.032 A 
ATOM     13  C   UNL A   1      39.666  33.877  30.772  1.00  0.00     0.011 A 
ATOM     14  C   UNL A   1      39.216  32.398  32.619  1.00  0.00     0.058 A 
ATOM     15  C   UNL A   1      38.739  33.225  31.609  1.00  0.00     0.008 A 
ATOM     16  N   UNL A   1      38.117  31.945  33.374  1.00  0.00    -0.274 N 
ATOM     17  C   UNL A   1      37.319  33.204  31.671  1.00  0.00     0.009 A 
ATOM     18  C   UNL A   1      36.942  32.457  32.796  1.00  0.00     0.057 A 
ATOM     19  C   UNL A   1      36.324  33.803  30.865  1.00  0.00     0.031 A 
ATOM     20  C   UNL A   1      35.587  32.407  33.190  1.00  0.00     0.029 A 
ATOM     21  C   UNL A   1      34.984  33.684  31.219  1.00  0.00     0.041 A 
ATOM     22  C   UNL A   1      34.618  33.012  32.377  1.00  0.00     0.023 A 
ATOM     23  Cl  UNL A   1      33.775  34.402  30.225  1.00  0.00    -0.084 Cl
BRANCH  16  24
ATOM     24  C   UNL A   1      38.244  31.157  34.553  1.00  0.00     0.284 C 
ATOM     25  O   UNL A   1      38.181  29.940  34.382  1.00  0.00    -0.266 OA
BRANCH  24  26
ATOM     26  C   UNL A   1      38.386  31.683  35.910  1.00  0.00     0.167 A 
ATOM     27  C   UNL A   1      39.530  31.944  36.635  1.00  0.00     0.231 A 
ATOM     28  N   UNL A   1      37.298  32.151  36.636  1.00  0.00    -0.211 NA
ATOM     29  O   UNL A   1      39.176  32.549  37.805  1.00  0.00    -0.451 OA
ATOM     30  C   UNL A   1      37.821  32.655  37.727  1.00  0.00     0.308 A 
ENDBRANCH  24  26
ENDBRANCH  16  24
ENDBRANCH   8  10
ENDBRANCH   6   8
ENDBRANCH   5   6
ENDBRANCH   4   5
ENDBRANCH   3   4
ENDBRANCH   2   3
ENDBRANCH   1   2
BRANCH   1  31
ATOM     31  C   UNL A   1      47.172  38.217  32.041  1.00  0.00     0.188 C 
BRANCH  31  32
ATOM     32  O   UNL A   1      48.037  37.113  32.234  1.00  0.00    -0.376 OA
BRANCH  32  33
ATOM     33  C   UNL A   1      49.154  37.036  31.366  1.00  0.00     0.202 C 
BRANCH  33  34
ATOM     34  C   UNL A   1      49.024  37.812  30.049  1.00  0.00     0.261 C 
BRANCH  34  35
ATOM     35  O   UNL A   1      48.725  37.022  28.883  1.00  0.00    -0.460 OA
BRANCH  35  36
ATOM     36  C   UNL A   1      47.419  36.863  28.558  1.00  0.00     0.338 C 
ATOM     37  O   UNL A   1      46.629  37.742  28.274  1.00  0.00    -0.246 OA
BRANCH  36  38
ATOM     38  C   UNL A   1      47.178  35.406  28.417  1.00  0.00     0.060 A 
ATOM     39  C   UNL A   1      46.927  34.868  27.148  1.00  0.00     0.016 A 
ATOM     40  C   UNL A   1      47.228  34.571  29.536  1.00  0.00     0.016 A 
ATOM     41  C   UNL A   1      46.700  33.496  26.999  1.00  0.00     0.010 A 
ATOM     42  C   UNL A   1      46.981  33.202  29.388  1.00  0.00     0.010 A 
ATOM     43  C   UNL A   1      46.690  32.660  28.124  1.00  0.00    -0.014 A 
BRANCH  43  44
ATOM     44  C   UNL A   1      46.192  31.263  28.024  1.00  0.00     0.031 A 
ATOM     45  C   UNL A   1      47.184  30.176  27.705  1.00  0.00     0.074 A 
ATOM     46  C   UNL A   1      44.892  30.960  28.188  1.00  0.00     0.049 A 
ATOM     47  N   UNL A   1      46.980  28.904  27.477  1.00  0.00    -0.248 NA
ATOM     48  C   UNL A   1      48.596  30.583  27.626  1.00  0.00     0.031 C 
ATOM     49  C   UNL A   1      43.836  31.911  28.533  1.00  0.00     0.029 A 
ATOM     50  N   UNL A   1      44.235  29.759  28.069  1.00  0.00    -0.354 N 
ATOM     51  C   UNL A   1      48.233  28.363  27.215  1.00  0.00     0.074 A 
ATOM     52  C   UNL A   1      49.188  29.448  27.288  1.00  0.00     0.031 C 
ATOM     53  C   UNL A   1      42.661  31.258  28.583  1.00  0.00     0.029 A 
ATOM     54  C   UNL A   1      42.873  29.852  28.240  1.00  0.00     0.049 A 
ATOM     55  H   UNL A   1      44.696  28.910  27.878  1.00  0.00     0.167 HD
ATOM     56  C   UNL A   1      48.561  27.077  26.944  1.00  0.00     0.037 A 
ATOM     57  C   UNL A   1      41.910  28.916  28.113  1.00  0.00     0.037 A 
ATOM     58  C   UNL A   1      47.611  25.999  26.872  1.00  0.00     0.049 A 
ATOM     59  C   UNL A   1      42.291  27.504  27.742  1.00  0.00     0.074 A 
ATOM     60  C   UNL A   1      47.850  24.657  26.628  1.00  0.00     0.029 A 
ATOM     61  N   UNL A   1      46.240  26.138  27.031  1.00  0.00    -0.354 N 
ATOM     62  N   UNL A   1      43.483  26.997  27.525  1.00  0.00    -0.248 NA
ATOM     63  C   UNL A   1      41.196  26.532  27.598  1.00  0.00     0.031 C 
ATOM     64  C   UNL A   1      46.619  23.994  26.588  1.00  0.00     0.029 A 
ATOM     65  C   UNL A   1      45.617  24.912  26.865  1.00  0.00     0.049 A 
ATOM     66  H   UNL A   1      45.778  26.983  27.233  1.00  0.00     0.167 HD
ATOM     67  C   UNL A   1      43.282  25.647  27.253  1.00  0.00     0.074 A 
ATOM     68  C   UNL A   1      41.856  25.412  27.337  1.00  0.00     0.031 C 
ATOM     69  C   UNL A   1      44.196  24.687  26.963  1.00  0.00     0.037 A 
BRANCH  56  70
ATOM     70  C   UNL A   1      50.009  26.772  26.674  1.00  0.00     0.058 A 
ATOM     71  C   UNL A   1      50.574  26.927  25.398  1.00  0.00     0.135 A 
ATOM     72  C   UNL A   1      50.850  26.344  27.715  1.00  0.00     0.135 A 
ATOM     73  F   UNL A   1      49.812  27.315  24.364  1.00  0.00    -0.206 F 
ATOM     74  C   UNL A   1      51.914  26.642  25.158  1.00  0.00     0.059 A 
ATOM     75  C   UNL A   1      52.200  26.080  27.503  1.00  0.00     0.059 A 
ATOM     76  F   UNL A   1      50.361  26.178  28.954  1.00  0.00    -0.206 F 
ATOM     77  C   UNL A   1      52.719  26.218  26.217  1.00  0.00     0.060 A 
BRANCH  77  78
ATOM     78  S   UNL A   1      54.457  25.857  25.888  1.00  0.00     0.124 S 
ATOM     79  O   UNL A   1      54.356  24.957  24.743  1.00  0.00    -0.237 OA
ATOM     80  O   UNL A   1      55.002  27.181  25.606  1.00  0.00    -0.237 OA
ATOM     81  O   UNL A   1      54.918  25.243  27.129  1.00  0.00    -0.744 OA
ENDBRANCH  77  78
ENDBRANCH  56  70
BRANCH  57  82
ATOM     82  C   UNL A   1      40.482  29.277  28.327  1.00  0.00     0.058 A 
ATOM     83  C   UNL A   1      39.974  29.486  29.618  1.00  0.00     0.135 A 
ATOM     84  C   UNL A   1      39.593  29.407  27.248  1.00  0.00     0.135 A 
ATOM     85  F   UNL A   1      40.778  29.357  30.684  1.00  0.00    -0.206 F 
ATOM     86  C   UNL A   1      38.635  29.796  29.835  1.00  0.00     0.059 A 
ATOM     87  C   UNL A   1      38.255  29.742  27.438  1.00  0.00     0.059 A 
ATOM     88  F   UNL A   1      40.027  29.221  25.992  1.00  0.00    -0.206 F 
ATOM     89  C   UNL A   1      37.783  29.926  28.736  1.00  0.00     0.060 A 
BRANCH  89  90
ATOM     90  S   UNL A   1      36.057  30.374  29.028  1.00  0.00     0.124 S 
ATOM     91  O   UNL A   1      36.010  31.729  28.489  1.00  0.00    -0.237 OA
ATOM     92  O   UNL A   1      35.342  29.358  28.263  1.00  0.00    -0.237 OA
ATOM     93  O   UNL A   1      35.924  30.267  30.478  1.00  0.00    -0.744 OA
ENDBRANCH  89  90
ENDBRANCH  57  82
BRANCH  69  94
ATOM     94  C   UNL A   1      43.697  23.281  26.760  1.00  0.00     0.058 A 
ATOM     95  C   UNL A   1      43.726  22.657  25.502  1.00  0.00     0.135 A 
ATOM     96  C   UNL A   1      43.243  22.525  27.853  1.00  0.00     0.135 A 
ATOM     97  F   UNL A   1      44.146  23.334  24.422  1.00  0.00    -0.206 F 
ATOM     98  C   UNL A   1      43.301  21.342  25.332  1.00  0.00     0.059 A 
ATOM     99  C   UNL A   1      42.840  21.201  27.712  1.00  0.00     0.059 A 
ATOM    100  F   UNL A   1      43.206  23.068  29.081  1.00  0.00    -0.206 F 
ATOM    101  C   UNL A   1      42.862  20.621  26.444  1.00  0.00     0.060 A 
BRANCH 101 102
ATOM    102  S   UNL A   1      42.348  18.905  26.218  1.00  0.00     0.124 S 
ATOM    103  O   UNL A   1      43.205  18.483  25.115  1.00  0.00    -0.237 OA
ATOM    104  O   UNL A   1      42.649  18.314  27.519  1.00  0.00    -0.237 OA
ATOM    105  O   UNL A   1      40.926  19.014  25.902  1.00  0.00    -0.744 OA
ENDBRANCH 101 102
ENDBRANCH  69  94
ENDBRANCH  43  44
ENDBRANCH  36  38
ENDBRANCH  35  36
ENDBRANCH  34  35
ENDBRANCH  33  34
ENDBRANCH  32  33
ENDBRANCH  31  32
ENDBRANCH   1  31
TORSDOF 23
ENDMDL
