MODEL 1
REMARK VINA RESULT:     -11.2      0.000      0.000
REMARK SMILES Cc1ccc2c(=O)c3cccc(CC(=O)OCCOCCOCCOC(=O)c4ccc(-c5c6nc(c(-c7c(F)cc(S(=O)(=O)[O-])cc7F)c7ccc([nH]7)c(-c7c(F)cc(S(=O)(=O)[O-])cc7F)c7nc(c(-c8c(F)cc(S(=O)(=O)[O-])cc8F)c8ccc5[nH]8)C=C7)C=C6)cc4)c3oc2c1C
REMARK SMILES IDX 21 1 20 2 19 3 18 4 17 5 16 6 14 7 15 8 13 9 12 10 1 11 2 12
REMARK SMILES IDX 3 13 97 14 4 15 96 16 98 17 5 18 95 19 6 20 94 21 7 22 8 23
REMARK SMILES IDX 9 24 11 25 10 26 22 27 23 28 24 29 25 30 26 31 27 32 28 33
REMARK SMILES IDX 29 34 93 35 30 36 92 37 31 38 32 39 33 40 86 41 34 42 91 43
REMARK SMILES IDX 85 44 87 45 35 46 90 47 84 48 83 49 36 51 70 52 49 53 69 54
REMARK SMILES IDX 50 55 53 56 68 57 88 58 51 59 52 60 67 62 89 63 54 64 37 65
REMARK SMILES IDX 38 66 47 67 39 68 40 69 46 70 48 71 41 72 42 73 43 74 44 75
REMARK SMILES IDX 45 76 71 77 72 78 81 79 73 80 74 81 80 82 82 83 75 84 76 85
REMARK SMILES IDX 77 86 78 87 79 88 55 89 56 90 65 91 57 92 58 93 64 94 66 95
REMARK SMILES IDX 59 96 60 97 61 98 62 99 63 100
REMARK H PARENT 87 50 53 61
REMARK Flexibility Score: inf
ROOT
ATOM      1  C   UNL A   1      43.014  21.069  26.094  1.00  0.00     0.188 C 
ENDROOT
BRANCH   1   2
ATOM      2  C   UNL A   1      42.004  19.897  26.145  1.00  0.00     0.188 C 
BRANCH   2   3
ATOM      3  O   UNL A   1      40.625  20.226  26.124  1.00  0.00    -0.376 OA
BRANCH   3   4
ATOM      4  C   UNL A   1      40.331  21.582  25.827  1.00  0.00     0.202 C 
BRANCH   4   5
ATOM      5  C   UNL A   1      39.125  22.183  26.580  1.00  0.00     0.261 C 
BRANCH   5   6
ATOM      6  O   UNL A   1      38.585  23.387  25.956  1.00  0.00    -0.463 OA
BRANCH   6   7
ATOM      7  C   UNL A   1      37.433  23.271  25.247  1.00  0.00     0.310 C 
ATOM      8  O   UNL A   1      37.313  22.481  24.315  1.00  0.00    -0.252 OA
BRANCH   7   9
ATOM      9  C   UNL A   1      36.234  24.094  25.754  1.00  0.00     0.162 C 
BRANCH   9  10
ATOM     10  C   UNL A   1      34.888  23.455  26.095  1.00  0.00     0.007 A 
ATOM     11  C   UNL A   1      29.644  28.248  22.760  1.00  0.00     0.045 C 
ATOM     12  C   UNL A   1      30.553  27.349  23.671  1.00  0.00    -0.044 A 
ATOM     13  C   UNL A   1      29.560  26.642  24.456  1.00  0.00     0.005 A 
ATOM     14  C   UNL A   1      32.115  27.013  23.730  1.00  0.00    -0.005 A 
ATOM     15  C   UNL A   1      29.803  25.656  25.382  1.00  0.00     0.016 A 
ATOM     16  C   UNL A   1      32.205  25.919  25.025  1.00  0.00     0.141 A 
ATOM     17  C   UNL A   1      33.651  27.418  22.287  1.00  0.00     0.049 C 
ATOM     18  C   UNL A   1      31.096  25.314  25.685  1.00  0.00     0.066 A 
ATOM     19  O   UNL A   1      33.471  25.469  25.658  1.00  0.00    -0.455 OA
ATOM     20  C   UNL A   1      31.235  24.161  26.591  1.00  0.00     0.200 A 
ATOM     21  C   UNL A   1      33.621  24.136  26.086  1.00  0.00     0.142 A 
ATOM     22  O   UNL A   1      30.297  23.725  27.251  1.00  0.00    -0.288 OA
ATOM     23  C   UNL A   1      32.513  23.469  26.594  1.00  0.00     0.066 A 
ATOM     24  C   UNL A   1      32.588  22.167  27.109  1.00  0.00     0.016 A 
ATOM     25  C   UNL A   1      34.942  22.141  26.628  1.00  0.00     0.008 A 
ATOM     26  C   UNL A   1      33.805  21.503  27.125  1.00  0.00     0.001 A 
ENDBRANCH   9  10
ENDBRANCH   7   9
ENDBRANCH   6   7
ENDBRANCH   5   6
ENDBRANCH   4   5
ENDBRANCH   3   4
ENDBRANCH   2   3
ENDBRANCH   1   2
BRANCH   1  27
ATOM     27  O   UNL A   1      43.999  20.851  25.092  1.00  0.00    -0.376 OA
BRANCH  27  28
ATOM     28  C   UNL A   1      45.199  21.569  25.316  1.00  0.00     0.202 C 
BRANCH  28  29
ATOM     29  C   UNL A   1      45.079  23.027  24.854  1.00  0.00     0.261 C 
BRANCH  29  30
ATOM     30  O   UNL A   1      44.745  23.963  25.898  1.00  0.00    -0.460 OA
BRANCH  30  31
ATOM     31  C   UNL A   1      43.654  24.716  25.672  1.00  0.00     0.338 C 
ATOM     32  O   UNL A   1      43.031  24.806  24.628  1.00  0.00    -0.246 OA
BRANCH  31  33
ATOM     33  C   UNL A   1      43.224  25.337  26.929  1.00  0.00     0.060 A 
ATOM     34  C   UNL A   1      43.847  26.983  27.313  1.00  0.00     0.016 A 
ATOM     35  C   UNL A   1      41.827  24.690  27.892  1.00  0.00     0.016 A 
ATOM     36  C   UNL A   1      42.985  28.031  28.536  1.00  0.00     0.010 A 
ATOM     37  C   UNL A   1      40.898  25.796  29.072  1.00  0.00     0.010 A 
ATOM     38  C   UNL A   1      41.479  27.477  29.383  1.00  0.00    -0.014 A 
BRANCH  38  39
ATOM     39  C   UNL A   1      41.135  28.280  30.631  1.00  0.00     0.031 A 
ATOM     40  C   UNL A   1      42.027  28.266  31.866  1.00  0.00     0.074 A 
ATOM     41  C   UNL A   1      40.170  29.228  30.572  1.00  0.00     0.049 A 
ATOM     42  N   UNL A   1      42.005  29.051  32.922  1.00  0.00    -0.248 NA
ATOM     43  C   UNL A   1      43.111  27.277  31.913  1.00  0.00     0.031 C 
ATOM     44  C   UNL A   1      39.279  29.454  29.437  1.00  0.00     0.029 A 
ATOM     45  N   UNL A   1      39.801  30.209  31.471  1.00  0.00    -0.354 N 
ATOM     46  C   UNL A   1      43.083  28.668  33.722  1.00  0.00     0.074 A 
ATOM     47  C   UNL A   1      43.725  27.566  33.050  1.00  0.00     0.031 C 
ATOM     48  C   UNL A   1      38.507  30.526  29.679  1.00  0.00     0.029 A 
ATOM     49  C   UNL A   1      38.788  31.030  31.022  1.00  0.00     0.049 A 
ATOM     50  H   UNL A   1      40.221  30.313  32.355  1.00  0.00     0.167 HD
ATOM     51  C   UNL A   1      43.515  29.167  34.908  1.00  0.00     0.037 A 
ATOM     52  C   UNL A   1      38.133  32.053  31.616  1.00  0.00     0.037 A 
ATOM     53  C   UNL A   1      42.864  30.219  35.640  1.00  0.00     0.049 A 
ATOM     54  C   UNL A   1      38.520  32.480  33.009  1.00  0.00     0.074 A 
ATOM     55  C   UNL A   1      43.187  30.729  36.888  1.00  0.00     0.029 A 
ATOM     56  N   UNL A   1      41.746  30.911  35.206  1.00  0.00    -0.354 N 
ATOM     57  N   UNL A   1      39.516  32.064  33.753  1.00  0.00    -0.248 NA
ATOM     58  C   UNL A   1      37.685  33.509  33.648  1.00  0.00     0.031 C 
ATOM     59  C   UNL A   1      42.229  31.688  37.231  1.00  0.00     0.029 A 
ATOM     60  C   UNL A   1      41.345  31.819  36.173  1.00  0.00     0.049 A 
ATOM     61  H   UNL A   1      41.301  30.778  34.337  1.00  0.00     0.167 HD
ATOM     62  C   UNL A   1      39.430  32.784  34.942  1.00  0.00     0.074 A 
ATOM     63  C   UNL A   1      38.305  33.684  34.807  1.00  0.00     0.031 C 
ATOM     64  C   UNL A   1      40.214  32.701  36.047  1.00  0.00     0.037 A 
BRANCH  51  65
ATOM     65  C   UNL A   1      44.738  28.533  35.526  1.00  0.00     0.058 A 
ATOM     66  C   UNL A   1      44.642  27.442  36.404  1.00  0.00     0.135 A 
ATOM     67  C   UNL A   1      46.023  29.008  35.213  1.00  0.00     0.135 A 
ATOM     68  F   UNL A   1      43.439  26.961  36.756  1.00  0.00    -0.206 F 
ATOM     69  C   UNL A   1      45.774  26.856  36.965  1.00  0.00     0.059 A 
ATOM     70  C   UNL A   1      47.170  28.423  35.744  1.00  0.00     0.059 A 
ATOM     71  F   UNL A   1      46.172  30.052  34.383  1.00  0.00    -0.206 F 
ATOM     72  C   UNL A   1      47.035  27.354  36.627  1.00  0.00     0.060 A 
BRANCH  72  73
ATOM     73  S   UNL A   1      48.493  26.584  37.365  1.00  0.00     0.124 S 
ATOM     74  O   UNL A   1      48.092  25.180  37.410  1.00  0.00    -0.237 OA
ATOM     75  O   UNL A   1      49.539  26.912  36.401  1.00  0.00    -0.237 OA
ATOM     76  O   UNL A   1      48.609  27.242  38.662  1.00  0.00    -0.744 OA
ENDBRANCH  72  73
ENDBRANCH  51  65
BRANCH  52  77
ATOM     77  C   UNL A   1      36.991  32.718  30.919  1.00  0.00     0.058 A 
ATOM     78  C   UNL A   1      35.657  32.389  31.204  1.00  0.00     0.135 A 
ATOM     79  C   UNL A   1      37.221  33.692  29.933  1.00  0.00     0.135 A 
ATOM     80  F   UNL A   1      35.378  31.445  32.115  1.00  0.00    -0.206 F 
ATOM     81  C   UNL A   1      34.594  33.004  30.544  1.00  0.00     0.059 A 
ATOM     82  C   UNL A   1      36.177  34.342  29.281  1.00  0.00     0.059 A 
ATOM     83  F   UNL A   1      38.476  34.038  29.611  1.00  0.00    -0.206 F 
ATOM     84  C   UNL A   1      34.866  33.988  29.591  1.00  0.00     0.060 A 
BRANCH  84  85
ATOM     85  S   UNL A   1      33.481  34.831  28.791  1.00  0.00     0.124 S 
ATOM     86  O   UNL A   1      33.126  33.886  27.740  1.00  0.00    -0.237 OA
ATOM     87  O   UNL A   1      32.527  34.953  29.889  1.00  0.00    -0.237 OA
ATOM     88  O   UNL A   1      34.068  36.088  28.338  1.00  0.00    -0.744 OA
ENDBRANCH  84  85
ENDBRANCH  52  77
BRANCH  64  89
ATOM     89  C   UNL A   1      39.887  33.609  37.202  1.00  0.00     0.058 A 
ATOM     90  C   UNL A   1      40.492  34.869  37.339  1.00  0.00     0.135 A 
ATOM     91  C   UNL A   1      38.940  33.231  38.166  1.00  0.00     0.135 A 
ATOM     92  F   UNL A   1      41.404  35.282  36.445  1.00  0.00    -0.206 F 
ATOM     93  C   UNL A   1      40.200  35.703  38.414  1.00  0.00     0.059 A 
ATOM     94  C   UNL A   1      38.610  34.062  39.234  1.00  0.00     0.059 A 
ATOM     95  F   UNL A   1      38.316  32.045  38.075  1.00  0.00    -0.206 F 
ATOM     96  C   UNL A   1      39.261  35.289  39.359  1.00  0.00     0.060 A 
BRANCH  96  97
ATOM     97  S   UNL A   1      38.900  36.377  40.754  1.00  0.00     0.124 S 
ATOM     98  O   UNL A   1      38.522  37.610  40.073  1.00  0.00    -0.237 OA
ATOM     99  O   UNL A   1      37.819  35.669  41.431  1.00  0.00    -0.237 OA
ATOM    100  O   UNL A   1      40.163  36.426  41.484  1.00  0.00    -0.744 OA
ENDBRANCH  96  97
ENDBRANCH  64  89
ENDBRANCH  38  39
ENDBRANCH  31  33
ENDBRANCH  30  31
ENDBRANCH  29  30
ENDBRANCH  28  29
ENDBRANCH  27  28
ENDBRANCH   1  27
TORSDOF 21
ENDMDL
MODEL 2
REMARK VINA RESULT:     -11.0      1.276      2.045
REMARK SMILES Cc1ccc2c(=O)c3cccc(CC(=O)OCCOCCOCCOC(=O)c4ccc(-c5c6nc(c(-c7c(F)cc(S(=O)(=O)[O-])cc7F)c7ccc([nH]7)c(-c7c(F)cc(S(=O)(=O)[O-])cc7F)c7nc(c(-c8c(F)cc(S(=O)(=O)[O-])cc8F)c8ccc5[nH]8)C=C7)C=C6)cc4)c3oc2c1C
REMARK SMILES IDX 21 1 20 2 19 3 18 4 17 5 16 6 14 7 15 8 13 9 12 10 1 11 2 12
REMARK SMILES IDX 3 13 97 14 4 15 96 16 98 17 5 18 95 19 6 20 94 21 7 22 8 23
REMARK SMILES IDX 9 24 11 25 10 26 22 27 23 28 24 29 25 30 26 31 27 32 28 33
REMARK SMILES IDX 29 34 93 35 30 36 92 37 31 38 32 39 33 40 86 41 34 42 91 43
REMARK SMILES IDX 85 44 87 45 35 46 90 47 84 48 83 49 36 51 70 52 49 53 69 54
REMARK SMILES IDX 50 55 53 56 68 57 88 58 51 59 52 60 67 62 89 63 54 64 37 65
REMARK SMILES IDX 38 66 47 67 39 68 40 69 46 70 48 71 41 72 42 73 43 74 44 75
REMARK SMILES IDX 45 76 71 77 72 78 81 79 73 80 74 81 80 82 82 83 75 84 76 85
REMARK SMILES IDX 77 86 78 87 79 88 55 89 56 90 65 91 57 92 58 93 64 94 66 95
REMARK SMILES IDX 59 96 60 97 61 98 62 99 63 100
REMARK H PARENT 87 50 53 61
REMARK Flexibility Score: inf
ROOT
ATOM      1  C   UNL A   1      42.367  21.244  26.080  1.00  0.00     0.188 C 
ENDROOT
BRANCH   1   2
ATOM      2  C   UNL A   1      41.569  21.020  27.389  1.00  0.00     0.188 C 
BRANCH   2   3
ATOM      3  O   UNL A   1      40.281  21.609  27.472  1.00  0.00    -0.376 OA
BRANCH   3   4
ATOM      4  C   UNL A   1      39.866  22.323  26.319  1.00  0.00     0.202 C 
BRANCH   4   5
ATOM      5  C   UNL A   1      38.803  23.416  26.558  1.00  0.00     0.261 C 
BRANCH   5   6
ATOM      6  O   UNL A   1      37.813  23.516  25.490  1.00  0.00    -0.463 OA
BRANCH   6   7
ATOM      7  C   UNL A   1      36.618  22.899  25.676  1.00  0.00     0.310 C 
ATOM      8  O   UNL A   1      36.523  21.686  25.838  1.00  0.00    -0.252 OA
BRANCH   7   9
ATOM      9  C   UNL A   1      35.388  23.818  25.800  1.00  0.00     0.162 C 
BRANCH   9  10
ATOM     10  C   UNL A   1      34.478  24.133  24.613  1.00  0.00     0.007 A 
ATOM     11  C   UNL A   1      31.664  31.272  26.256  1.00  0.00     0.045 C 
ATOM     12  C   UNL A   1      31.951  29.766  25.922  1.00  0.00    -0.044 A 
ATOM     13  C   UNL A   1      30.998  29.523  24.856  1.00  0.00     0.005 A 
ATOM     14  C   UNL A   1      33.057  28.699  26.364  1.00  0.00    -0.005 A 
ATOM     15  C   UNL A   1      30.862  28.364  24.132  1.00  0.00     0.016 A 
ATOM     16  C   UNL A   1      32.607  27.319  25.485  1.00  0.00     0.141 A 
ATOM     17  C   UNL A   1      34.911  29.009  27.400  1.00  0.00     0.049 C 
ATOM     18  C   UNL A   1      31.628  27.272  24.450  1.00  0.00     0.066 A 
ATOM     19  O   UNL A   1      33.168  25.962  25.705  1.00  0.00    -0.455 OA
ATOM     20  C   UNL A   1      31.491  26.131  23.528  1.00  0.00     0.200 A 
ATOM     21  C   UNL A   1      33.420  25.107  24.616  1.00  0.00     0.142 A 
ATOM     22  O   UNL A   1      30.570  26.041  22.723  1.00  0.00    -0.288 OA
ATOM     23  C   UNL A   1      32.564  25.150  23.521  1.00  0.00     0.066 A 
ATOM     24  C   UNL A   1      32.698  24.285  22.426  1.00  0.00     0.016 A 
ATOM     25  C   UNL A   1      34.589  23.263  23.498  1.00  0.00     0.008 A 
ATOM     26  C   UNL A   1      33.712  23.340  22.415  1.00  0.00     0.001 A 
ENDBRANCH   9  10
ENDBRANCH   7   9
ENDBRANCH   6   7
ENDBRANCH   5   6
ENDBRANCH   4   5
ENDBRANCH   3   4
ENDBRANCH   2   3
ENDBRANCH   1   2
BRANCH   1  27
ATOM     27  O   UNL A   1      43.741  21.481  26.356  1.00  0.00    -0.376 OA
BRANCH  27  28
ATOM     28  C   UNL A   1      44.544  21.558  25.191  1.00  0.00     0.202 C 
BRANCH  28  29
ATOM     29  C   UNL A   1      44.986  22.998  24.904  1.00  0.00     0.261 C 
BRANCH  29  30
ATOM     30  O   UNL A   1      44.725  23.932  25.969  1.00  0.00    -0.460 OA
BRANCH  30  31
ATOM     31  C   UNL A   1      43.777  24.851  25.713  1.00  0.00     0.338 C 
ATOM     32  O   UNL A   1      43.261  25.088  24.635  1.00  0.00    -0.246 OA
BRANCH  31  33
ATOM     33  C   UNL A   1      43.342  25.464  26.974  1.00  0.00     0.060 A 
ATOM     34  C   UNL A   1      43.922  27.127  27.347  1.00  0.00     0.016 A 
ATOM     35  C   UNL A   1      41.973  24.780  27.951  1.00  0.00     0.016 A 
ATOM     36  C   UNL A   1      43.043  28.153  28.576  1.00  0.00     0.010 A 
ATOM     37  C   UNL A   1      41.025  25.862  29.137  1.00  0.00     0.010 A 
ATOM     38  C   UNL A   1      41.561  27.560  29.439  1.00  0.00    -0.014 A 
BRANCH  38  39
ATOM     39  C   UNL A   1      41.206  28.355  30.688  1.00  0.00     0.031 A 
ATOM     40  C   UNL A   1      42.095  28.344  31.926  1.00  0.00     0.074 A 
ATOM     41  C   UNL A   1      40.235  29.297  30.629  1.00  0.00     0.049 A 
ATOM     42  N   UNL A   1      42.063  29.126  32.985  1.00  0.00    -0.248 NA
ATOM     43  C   UNL A   1      43.186  27.364  31.974  1.00  0.00     0.031 C 
ATOM     44  C   UNL A   1      39.345  29.519  29.492  1.00  0.00     0.029 A 
ATOM     45  N   UNL A   1      39.854  30.272  31.530  1.00  0.00    -0.354 N 
ATOM     46  C   UNL A   1      43.140  28.749  33.788  1.00  0.00     0.074 A 
ATOM     47  C   UNL A   1      43.793  27.653  33.114  1.00  0.00     0.031 C 
ATOM     48  C   UNL A   1      38.564  30.585  29.735  1.00  0.00     0.029 A 
ATOM     49  C   UNL A   1      38.836  31.086  31.080  1.00  0.00     0.049 A 
ATOM     50  H   UNL A   1      40.271  30.376  32.415  1.00  0.00     0.167 HD
ATOM     51  C   UNL A   1      43.565  29.247  34.976  1.00  0.00     0.037 A 
ATOM     52  C   UNL A   1      38.171  32.102  31.675  1.00  0.00     0.037 A 
ATOM     53  C   UNL A   1      42.903  30.292  35.710  1.00  0.00     0.049 A 
ATOM     54  C   UNL A   1      38.550  32.527  33.071  1.00  0.00     0.074 A 
ATOM     55  C   UNL A   1      43.218  30.800  36.960  1.00  0.00     0.029 A 
ATOM     56  N   UNL A   1      41.781  30.976  35.274  1.00  0.00    -0.354 N 
ATOM     57  N   UNL A   1      39.547  32.116  33.817  1.00  0.00    -0.248 NA
ATOM     58  C   UNL A   1      37.705  33.548  33.710  1.00  0.00     0.031 C 
ATOM     59  C   UNL A   1      42.251  31.750  37.303  1.00  0.00     0.029 A 
ATOM     60  C   UNL A   1      41.370  31.878  36.242  1.00  0.00     0.049 A 
ATOM     61  H   UNL A   1      41.340  30.843  34.403  1.00  0.00     0.167 HD
ATOM     62  C   UNL A   1      39.452  32.832  35.008  1.00  0.00     0.074 A 
ATOM     63  C   UNL A   1      38.320  33.723  34.872  1.00  0.00     0.031 C 
ATOM     64  C   UNL A   1      40.232  32.752  36.116  1.00  0.00     0.037 A 
BRANCH  51  65
ATOM     65  C   UNL A   1      44.790  28.621  35.597  1.00  0.00     0.058 A 
ATOM     66  C   UNL A   1      46.082  29.108  35.339  1.00  0.00     0.135 A 
ATOM     67  C   UNL A   1      44.666  27.537  36.482  1.00  0.00     0.135 A 
ATOM     68  F   UNL A   1      46.261  30.128  34.484  1.00  0.00    -0.206 F 
ATOM     69  C   UNL A   1      47.207  28.532  35.922  1.00  0.00     0.059 A 
ATOM     70  C   UNL A   1      45.777  26.959  37.094  1.00  0.00     0.059 A 
ATOM     71  F   UNL A   1      43.456  27.027  36.760  1.00  0.00    -0.206 F 
ATOM     72  C   UNL A   1      47.044  27.457  36.799  1.00  0.00     0.060 A 
BRANCH  72  73
ATOM     73  S   UNL A   1      48.515  26.720  37.545  1.00  0.00     0.124 S 
ATOM     74  O   UNL A   1      47.966  26.147  38.771  1.00  0.00    -0.237 OA
ATOM     75  O   UNL A   1      48.931  25.760  36.528  1.00  0.00    -0.237 OA
ATOM     76  O   UNL A   1      49.410  27.858  37.734  1.00  0.00    -0.744 OA
ENDBRANCH  72  73
ENDBRANCH  51  65
BRANCH  52  77
ATOM     77  C   UNL A   1      37.027  32.761  30.976  1.00  0.00     0.058 A 
ATOM     78  C   UNL A   1      35.711  32.291  31.107  1.00  0.00     0.135 A 
ATOM     79  C   UNL A   1      37.238  33.873  30.145  1.00  0.00     0.135 A 
ATOM     80  F   UNL A   1      35.454  31.214  31.864  1.00  0.00    -0.206 F 
ATOM     81  C   UNL A   1      34.647  32.901  30.444  1.00  0.00     0.059 A 
ATOM     82  C   UNL A   1      36.189  34.518  29.496  1.00  0.00     0.059 A 
ATOM     83  F   UNL A   1      38.477  34.358  29.973  1.00  0.00    -0.206 F 
ATOM     84  C   UNL A   1      34.896  34.022  29.650  1.00  0.00     0.060 A 
BRANCH  84  85
ATOM     85  S   UNL A   1      33.502  34.850  28.852  1.00  0.00     0.124 S 
ATOM     86  O   UNL A   1      33.106  33.867  27.851  1.00  0.00    -0.237 OA
ATOM     87  O   UNL A   1      32.580  35.033  29.968  1.00  0.00    -0.237 OA
ATOM     88  O   UNL A   1      34.093  36.078  28.330  1.00  0.00    -0.744 OA
ENDBRANCH  84  85
ENDBRANCH  52  77
BRANCH  64  89
ATOM     89  C   UNL A   1      39.895  33.653  37.272  1.00  0.00     0.058 A 
ATOM     90  C   UNL A   1      38.940  33.286  38.234  1.00  0.00     0.135 A 
ATOM     91  C   UNL A   1      40.552  34.882  37.440  1.00  0.00     0.135 A 
ATOM     92  F   UNL A   1      38.282  32.121  38.125  1.00  0.00    -0.206 F 
ATOM     93  C   UNL A   1      38.618  34.126  39.297  1.00  0.00     0.059 A 
ATOM     94  C   UNL A   1      40.268  35.724  38.512  1.00  0.00     0.059 A 
ATOM     95  F   UNL A   1      41.488  35.275  36.561  1.00  0.00    -0.206 F 
ATOM     96  C   UNL A   1      39.284  35.345  39.425  1.00  0.00     0.060 A 
BRANCH  96  97
ATOM     97  S   UNL A   1      38.850  36.428  40.803  1.00  0.00     0.124 S 
ATOM     98  O   UNL A   1      40.139  36.591  41.465  1.00  0.00    -0.237 OA
ATOM     99  O   UNL A   1      38.334  37.610  40.120  1.00  0.00    -0.237 OA
ATOM    100  O   UNL A   1      37.857  35.655  41.543  1.00  0.00    -0.744 OA
ENDBRANCH  96  97
ENDBRANCH  64  89
ENDBRANCH  38  39
ENDBRANCH  31  33
ENDBRANCH  30  31
ENDBRANCH  29  30
ENDBRANCH  28  29
ENDBRANCH  27  28
ENDBRANCH   1  27
TORSDOF 21
ENDMDL
MODEL 3
REMARK VINA RESULT:     -10.4      1.617      2.237
REMARK SMILES Cc1ccc2c(=O)c3cccc(CC(=O)OCCOCCOCCOC(=O)c4ccc(-c5c6nc(c(-c7c(F)cc(S(=O)(=O)[O-])cc7F)c7ccc([nH]7)c(-c7c(F)cc(S(=O)(=O)[O-])cc7F)c7nc(c(-c8c(F)cc(S(=O)(=O)[O-])cc8F)c8ccc5[nH]8)C=C7)C=C6)cc4)c3oc2c1C
REMARK SMILES IDX 21 1 20 2 19 3 18 4 17 5 16 6 14 7 15 8 13 9 12 10 1 11 2 12
REMARK SMILES IDX 3 13 97 14 4 15 96 16 98 17 5 18 95 19 6 20 94 21 7 22 8 23
REMARK SMILES IDX 9 24 11 25 10 26 22 27 23 28 24 29 25 30 26 31 27 32 28 33
REMARK SMILES IDX 29 34 93 35 30 36 92 37 31 38 32 39 33 40 86 41 34 42 91 43
REMARK SMILES IDX 85 44 87 45 35 46 90 47 84 48 83 49 36 51 70 52 49 53 69 54
REMARK SMILES IDX 50 55 53 56 68 57 88 58 51 59 52 60 67 62 89 63 54 64 37 65
REMARK SMILES IDX 38 66 47 67 39 68 40 69 46 70 48 71 41 72 42 73 43 74 44 75
REMARK SMILES IDX 45 76 71 77 72 78 81 79 73 80 74 81 80 82 82 83 75 84 76 85
REMARK SMILES IDX 77 86 78 87 79 88 55 89 56 90 65 91 57 92 58 93 64 94 66 95
REMARK SMILES IDX 59 96 60 97 61 98 62 99 63 100
REMARK H PARENT 87 50 53 61
REMARK Flexibility Score: inf
ROOT
ATOM      1  C   UNL A   1      42.341  20.180  25.839  1.00  0.00     0.188 C 
ENDROOT
BRANCH   1   2
ATOM      2  C   UNL A   1      41.105  19.333  26.229  1.00  0.00     0.188 C 
BRANCH   2   3
ATOM      3  O   UNL A   1      39.829  19.929  26.060  1.00  0.00    -0.376 OA
BRANCH   3   4
ATOM      4  C   UNL A   1      39.846  21.297  25.686  1.00  0.00     0.202 C 
BRANCH   4   5
ATOM      5  C   UNL A   1      39.213  22.273  26.701  1.00  0.00     0.261 C 
BRANCH   5   6
ATOM      6  O   UNL A   1      38.591  23.440  26.083  1.00  0.00    -0.463 OA
BRANCH   6   7
ATOM      7  C   UNL A   1      37.467  23.243  25.349  1.00  0.00     0.310 C 
ATOM      8  O   UNL A   1      37.391  22.376  24.483  1.00  0.00    -0.252 OA
BRANCH   7   9
ATOM      9  C   UNL A   1      36.238  24.084  25.743  1.00  0.00     0.162 C 
BRANCH   9  10
ATOM     10  C   UNL A   1      34.897  23.451  26.116  1.00  0.00     0.007 A 
ATOM     11  C   UNL A   1      29.602  28.146  22.724  1.00  0.00     0.045 C 
ATOM     12  C   UNL A   1      30.524  27.272  23.646  1.00  0.00    -0.044 A 
ATOM     13  C   UNL A   1      29.542  26.582  24.461  1.00  0.00     0.005 A 
ATOM     14  C   UNL A   1      32.087  26.941  23.696  1.00  0.00    -0.005 A 
ATOM     15  C   UNL A   1      29.799  25.621  25.408  1.00  0.00     0.016 A 
ATOM     16  C   UNL A   1      32.195  25.880  25.016  1.00  0.00     0.141 A 
ATOM     17  C   UNL A   1      33.606  27.315  22.225  1.00  0.00     0.049 C 
ATOM     18  C   UNL A   1      31.096  25.290  25.704  1.00  0.00     0.066 A 
ATOM     19  O   UNL A   1      33.470  25.449  25.645  1.00  0.00    -0.455 OA
ATOM     20  C   UNL A   1      31.248  24.160  26.637  1.00  0.00     0.200 A 
ATOM     21  C   UNL A   1      33.629  24.128  26.105  1.00  0.00     0.142 A 
ATOM     22  O   UNL A   1      30.320  23.738  27.319  1.00  0.00    -0.288 OA
ATOM     23  C   UNL A   1      32.529  23.471  26.643  1.00  0.00     0.066 A 
ATOM     24  C   UNL A   1      32.614  22.182  27.188  1.00  0.00     0.016 A 
ATOM     25  C   UNL A   1      34.961  22.151  26.681  1.00  0.00     0.008 A 
ATOM     26  C   UNL A   1      33.832  21.522  27.207  1.00  0.00     0.001 A 
ENDBRANCH   9  10
ENDBRANCH   7   9
ENDBRANCH   6   7
ENDBRANCH   5   6
ENDBRANCH   4   5
ENDBRANCH   3   4
ENDBRANCH   2   3
ENDBRANCH   1   2
BRANCH   1  27
ATOM     27  O   UNL A   1      43.212  19.449  24.986  1.00  0.00    -0.376 OA
BRANCH  27  28
ATOM     28  C   UNL A   1      44.583  19.736  25.200  1.00  0.00     0.202 C 
BRANCH  28  29
ATOM     29  C   UNL A   1      45.043  20.942  24.373  1.00  0.00     0.261 C 
BRANCH  29  30
ATOM     30  O   UNL A   1      45.104  22.184  25.101  1.00  0.00    -0.460 OA
BRANCH  30  31
ATOM     31  C   UNL A   1      44.069  23.022  24.903  1.00  0.00     0.338 C 
ATOM     32  O   UNL A   1      43.348  23.073  23.922  1.00  0.00    -0.246 OA
BRANCH  31  33
ATOM     33  C   UNL A   1      43.839  23.805  26.122  1.00  0.00     0.060 A 
ATOM     34  C   UNL A   1      44.332  25.537  26.116  1.00  0.00     0.016 A 
ATOM     35  C   UNL A   1      42.757  23.213  27.454  1.00  0.00     0.016 A 
ATOM     36  C   UNL A   1      43.625  26.698  27.337  1.00  0.00     0.010 A 
ATOM     37  C   UNL A   1      41.969  24.418  28.639  1.00  0.00     0.010 A 
ATOM     38  C   UNL A   1      42.402  26.170  28.568  1.00  0.00    -0.014 A 
BRANCH  38  39
ATOM     39  C   UNL A   1      42.231  27.137  29.732  1.00  0.00     0.031 A 
ATOM     40  C   UNL A   1      43.304  27.304  30.801  1.00  0.00     0.074 A 
ATOM     41  C   UNL A   1      41.241  28.060  29.697  1.00  0.00     0.049 A 
ATOM     42  N   UNL A   1      43.423  28.229  31.729  1.00  0.00    -0.248 NA
ATOM     43  C   UNL A   1      44.411  26.340  30.812  1.00  0.00     0.031 C 
ATOM     44  C   UNL A   1      40.177  28.117  28.697  1.00  0.00     0.029 A 
ATOM     45  N   UNL A   1      40.986  29.154  30.500  1.00  0.00    -0.354 N 
ATOM     46  C   UNL A   1      44.623  27.971  32.395  1.00  0.00     0.074 A 
ATOM     47  C   UNL A   1      45.185  26.790  31.787  1.00  0.00     0.031 C 
ATOM     48  C   UNL A   1      39.420  29.206  28.909  1.00  0.00     0.029 A 
ATOM     49  C   UNL A   1      39.891  29.895  30.108  1.00  0.00     0.049 A 
ATOM     50  H   UNL A   1      41.535  29.384  31.283  1.00  0.00     0.167 HD
ATOM     51  C   UNL A   1      45.219  28.634  33.417  1.00  0.00     0.037 A 
ATOM     52  C   UNL A   1      39.306  30.986  30.652  1.00  0.00     0.037 A 
ATOM     53  C   UNL A   1      44.658  29.774  34.092  1.00  0.00     0.049 A 
ATOM     54  C   UNL A   1      39.892  31.607  31.894  1.00  0.00     0.074 A 
ATOM     55  C   UNL A   1      45.155  30.456  35.190  1.00  0.00     0.029 A 
ATOM     56  N   UNL A   1      43.466  30.389  33.748  1.00  0.00    -0.354 N 
ATOM     57  N   UNL A   1      41.003  31.308  32.522  1.00  0.00    -0.248 NA
ATOM     58  C   UNL A   1      39.135  32.709  32.510  1.00  0.00     0.031 C 
ATOM     59  C   UNL A   1      44.233  31.446  35.546  1.00  0.00     0.029 A 
ATOM     60  C   UNL A   1      43.192  31.420  34.633  1.00  0.00     0.049 A 
ATOM     61  H   UNL A   1      42.895  30.132  32.988  1.00  0.00     0.167 HD
ATOM     62  C   UNL A   1      41.082  32.187  33.599  1.00  0.00     0.074 A 
ATOM     63  C   UNL A   1      39.922  33.050  33.521  1.00  0.00     0.031 C 
ATOM     64  C   UNL A   1      42.029  32.267  34.567  1.00  0.00     0.037 A 
BRANCH  51  65
ATOM     65  C   UNL A   1      46.541  28.104  33.916  1.00  0.00     0.058 A 
ATOM     66  C   UNL A   1      46.615  27.127  34.922  1.00  0.00     0.135 A 
ATOM     67  C   UNL A   1      47.748  28.559  33.359  1.00  0.00     0.135 A 
ATOM     68  F   UNL A   1      45.494  26.672  35.505  1.00  0.00    -0.206 F 
ATOM     69  C   UNL A   1      47.837  26.635  35.371  1.00  0.00     0.059 A 
ATOM     70  C   UNL A   1      48.981  28.065  33.777  1.00  0.00     0.059 A 
ATOM     71  F   UNL A   1      47.736  29.496  32.397  1.00  0.00    -0.206 F 
ATOM     72  C   UNL A   1      49.016  27.110  34.792  1.00  0.00     0.060 A 
BRANCH  72  73
ATOM     73  S   UNL A   1      50.593  26.463  35.388  1.00  0.00     0.124 S 
ATOM     74  O   UNL A   1      51.541  27.149  34.514  1.00  0.00    -0.237 OA
ATOM     75  O   UNL A   1      50.597  26.890  36.783  1.00  0.00    -0.237 OA
ATOM     76  O   UNL A   1      50.475  25.024  35.174  1.00  0.00    -0.744 OA
ENDBRANCH  72  73
ENDBRANCH  51  65
BRANCH  52  77
ATOM     77  C   UNL A   1      38.050  31.538  30.059  1.00  0.00     0.058 A 
ATOM     78  C   UNL A   1      36.819  30.876  30.185  1.00  0.00     0.135 A 
ATOM     79  C   UNL A   1      38.066  32.742  29.336  1.00  0.00     0.135 A 
ATOM     80  F   UNL A   1      36.750  29.707  30.840  1.00  0.00    -0.206 F 
ATOM     81  C   UNL A   1      35.652  31.388  29.621  1.00  0.00     0.059 A 
ATOM     82  C   UNL A   1      36.910  33.289  28.789  1.00  0.00     0.059 A 
ATOM     83  F   UNL A   1      39.217  33.413  29.173  1.00  0.00    -0.206 F 
ATOM     84  C   UNL A   1      35.707  32.602  28.934  1.00  0.00     0.060 A 
BRANCH  84  85
ATOM     85  S   UNL A   1      34.176  33.294  28.267  1.00  0.00     0.124 S 
ATOM     86  O   UNL A   1      33.532  32.110  27.711  1.00  0.00    -0.237 OA
ATOM     87  O   UNL A   1      33.553  33.858  29.461  1.00  0.00    -0.237 OA
ATOM     88  O   UNL A   1      34.645  34.274  27.293  1.00  0.00    -0.744 OA
ENDBRANCH  84  85
ENDBRANCH  52  77
BRANCH  64  89
ATOM     89  C   UNL A   1      41.859  33.325  35.623  1.00  0.00     0.058 A 
ATOM     90  C   UNL A   1      41.088  33.096  36.775  1.00  0.00     0.135 A 
ATOM     91  C   UNL A   1      42.496  34.570  35.501  1.00  0.00     0.135 A 
ATOM     92  F   UNL A   1      40.459  31.922  36.945  1.00  0.00    -0.206 F 
ATOM     93  C   UNL A   1      40.920  34.079  37.746  1.00  0.00     0.059 A 
ATOM     94  C   UNL A   1      42.366  35.558  36.474  1.00  0.00     0.059 A 
ATOM     95  F   UNL A   1      43.261  34.838  34.430  1.00  0.00    -0.206 F 
ATOM     96  C   UNL A   1      41.559  35.308  37.584  1.00  0.00     0.060 A 
BRANCH  96  97
ATOM     97  S   UNL A   1      41.324  36.578  38.846  1.00  0.00     0.124 S 
ATOM     98  O   UNL A   1      41.321  35.780  40.067  1.00  0.00    -0.237 OA
ATOM     99  O   UNL A   1      42.489  37.433  38.650  1.00  0.00    -0.237 OA
ATOM    100  O   UNL A   1      40.044  37.181  38.489  1.00  0.00    -0.744 OA
ENDBRANCH  96  97
ENDBRANCH  64  89
ENDBRANCH  38  39
ENDBRANCH  31  33
ENDBRANCH  30  31
ENDBRANCH  29  30
ENDBRANCH  28  29
ENDBRANCH  27  28
ENDBRANCH   1  27
TORSDOF 21
ENDMDL
