MODEL 1
REMARK VINA RESULT:     -10.3      0.000      0.000
REMARK SMILES CC1(C)OC(=O)C(=CNc2ccccc2C(=O)OCCOCCOCCOC(=O)c2ccc(-c3c4nc(c(-c5c(F)cc(S(=O)(=O)[O-])cc5F)c5ccc([nH]5)c(-c5c(F)cc(S(=O)(=O)[O-])cc5F)c5nc(c(-c6c(F)cc(S(=O)(=O)[O-])cc6F)c6ccc3[nH]6)C=C5)C=C4)cc2)C(=O)O1
REMARK SMILES IDX 23 1 22 2 21 3 20 4 19 5 18 6 16 7 17 8 15 9 10 10 11 11
REMARK SMILES IDX 12 12 14 13 13 14 9 15 8 17 1 18 2 19 3 20 4 21 98 22 5 23
REMARK SMILES IDX 96 24 6 25 7 26 97 27 24 28 25 29 26 30 27 31 28 32 29 33
REMARK SMILES IDX 30 34 31 35 95 36 32 37 94 38 33 39 34 40 35 41 88 42 36 43
REMARK SMILES IDX 93 44 87 45 89 46 37 47 92 48 86 49 85 50 38 52 72 53 51 54
REMARK SMILES IDX 71 55 52 56 55 57 70 58 90 59 53 60 54 61 69 63 91 64 56 65
REMARK SMILES IDX 39 66 40 67 49 68 41 69 42 70 48 71 50 72 43 73 44 74 45 75
REMARK SMILES IDX 46 76 47 77 73 78 74 79 83 80 75 81 76 82 82 83 84 84 77 85
REMARK SMILES IDX 78 86 79 87 80 88 81 89 57 90 58 91 67 92 59 93 60 94 66 95
REMARK SMILES IDX 68 96 61 97 62 98 63 99 64 100 65 101
REMARK H PARENT 9 16 89 51 55 62
REMARK Flexibility Score: inf
ROOT
ATOM      1  C   UNL A   1      34.457  31.068  28.012  1.00  0.00     0.188 C 
ENDROOT
BRANCH   1   2
ATOM      2  C   UNL A   1      33.410  30.330  27.150  1.00  0.00     0.188 C 
BRANCH   2   3
ATOM      3  O   UNL A   1      33.475  28.921  27.034  1.00  0.00    -0.376 OA
BRANCH   3   4
ATOM      4  C   UNL A   1      32.876  28.278  25.918  1.00  0.00     0.202 C 
BRANCH   4   5
ATOM      5  C   UNL A   1      33.716  27.674  24.788  1.00  0.00     0.261 C 
BRANCH   5   6
ATOM      6  O   UNL A   1      33.091  26.555  24.146  1.00  0.00    -0.460 OA
BRANCH   6   7
ATOM      7  C   UNL A   1      32.508  26.816  22.946  1.00  0.00     0.340 C 
ATOM      8  O   UNL A   1      33.012  26.641  21.848  1.00  0.00    -0.246 OA
BRANCH   7   9
ATOM      9  C   UNL A   1      31.081  27.175  23.117  1.00  0.00     0.083 A 
ATOM     10  C   UNL A   1      30.058  26.311  23.562  1.00  0.00     0.053 A 
ATOM     11  C   UNL A   1      28.754  26.851  23.647  1.00  0.00     0.027 A 
ATOM     12  C   UNL A   1      28.462  28.162  23.253  1.00  0.00     0.002 A 
ATOM     13  C   UNL A   1      30.775  28.495  22.715  1.00  0.00     0.018 A 
ATOM     14  C   UNL A   1      29.472  28.981  22.772  1.00  0.00     0.001 A 
BRANCH  10  15
ATOM     15  N   UNL A   1      30.192  24.968  23.977  1.00  0.00    -0.360 N 
ATOM     16  H   UNL A   1      29.862  24.295  23.340  1.00  0.00     0.166 HD
BRANCH  15  17
ATOM     17  C   UNL A   1      30.717  24.468  25.143  1.00  0.00     0.106 C 
ATOM     18  C   UNL A   1      35.015  24.107  25.514  1.00  0.00     0.106 C 
ATOM     19  C   UNL A   1      34.280  22.771  25.648  1.00  0.00     0.252 C 
ATOM     20  C   UNL A   1      35.295  21.659  25.908  1.00  0.00     0.106 C 
ATOM     21  O   UNL A   1      33.416  22.786  26.783  1.00  0.00    -0.419 OA
ATOM     22  O   UNL A   1      33.619  22.444  24.426  1.00  0.00    -0.419 OA
ATOM     23  C   UNL A   1      32.193  23.341  26.673  1.00  0.00     0.350 C 
ATOM     24  C   UNL A   1      32.449  23.054  24.148  1.00  0.00     0.350 C 
ATOM     25  O   UNL A   1      31.520  23.585  27.666  1.00  0.00    -0.246 OA
ATOM     26  C   UNL A   1      31.752  23.624  25.305  1.00  0.00     0.161 C 
ATOM     27  O   UNL A   1      31.989  23.069  23.012  1.00  0.00    -0.246 OA
ENDBRANCH  15  17
ENDBRANCH  10  15
ENDBRANCH   7   9
ENDBRANCH   6   7
ENDBRANCH   5   6
ENDBRANCH   4   5
ENDBRANCH   3   4
ENDBRANCH   2   3
ENDBRANCH   1   2
BRANCH   1  28
ATOM     28  O   UNL A   1      34.869  32.374  27.665  1.00  0.00    -0.376 OA
BRANCH  28  29
ATOM     29  C   UNL A   1      34.823  33.419  28.621  1.00  0.00     0.202 C 
BRANCH  29  30
ATOM     30  C   UNL A   1      35.605  33.451  29.944  1.00  0.00     0.261 C 
BRANCH  30  31
ATOM     31  O   UNL A   1      36.909  32.872  29.950  1.00  0.00    -0.460 OA
BRANCH  31  32
ATOM     32  C   UNL A   1      36.997  31.672  30.581  1.00  0.00     0.338 C 
ATOM     33  O   UNL A   1      36.155  31.143  31.279  1.00  0.00    -0.246 OA
BRANCH  32  34
ATOM     34  C   UNL A   1      38.227  30.996  30.131  1.00  0.00     0.060 A 
ATOM     35  C   UNL A   1      39.258  30.793  31.058  1.00  0.00     0.016 A 
ATOM     36  C   UNL A   1      38.369  30.591  28.805  1.00  0.00     0.016 A 
ATOM     37  C   UNL A   1      40.450  30.198  30.651  1.00  0.00     0.010 A 
ATOM     38  C   UNL A   1      39.572  30.016  28.394  1.00  0.00     0.010 A 
ATOM     39  C   UNL A   1      40.627  29.843  29.308  1.00  0.00    -0.014 A 
BRANCH  39  40
ATOM     40  C   UNL A   1      41.974  29.467  28.816  1.00  0.00     0.031 A 
ATOM     41  C   UNL A   1      42.215  28.032  28.435  1.00  0.00     0.074 A 
ATOM     42  C   UNL A   1      42.955  30.380  28.696  1.00  0.00     0.049 A 
ATOM     43  N   UNL A   1      43.321  27.446  28.063  1.00  0.00    -0.248 NA
ATOM     44  C   UNL A   1      41.046  27.136  28.481  1.00  0.00     0.031 C 
ATOM     45  C   UNL A   1      42.825  31.807  28.991  1.00  0.00     0.029 A 
ATOM     46  N   UNL A   1      44.262  30.234  28.307  1.00  0.00    -0.354 N 
ATOM     47  C   UNL A   1      42.984  26.119  27.825  1.00  0.00     0.074 A 
ATOM     48  C   UNL A   1      41.579  25.974  28.135  1.00  0.00     0.031 C 
ATOM     49  C   UNL A   1      44.014  32.403  28.789  1.00  0.00     0.029 A 
ATOM     50  C   UNL A   1      44.995  31.396  28.387  1.00  0.00     0.049 A 
ATOM     51  H   UNL A   1      44.640  29.380  27.998  1.00  0.00     0.167 HD
ATOM     52  C   UNL A   1      43.771  25.115  27.373  1.00  0.00     0.037 A 
ATOM     53  C   UNL A   1      46.312  31.607  28.189  1.00  0.00     0.037 A 
ATOM     54  C   UNL A   1      45.172  25.262  27.079  1.00  0.00     0.049 A 
ATOM     55  C   UNL A   1      47.190  30.446  27.785  1.00  0.00     0.074 A 
ATOM     56  C   UNL A   1      46.065  24.302  26.638  1.00  0.00     0.029 A 
ATOM     57  N   UNL A   1      45.885  26.447  27.196  1.00  0.00    -0.354 N 
ATOM     58  N   UNL A   1      46.860  29.196  27.559  1.00  0.00    -0.248 NA
ATOM     59  C   UNL A   1      48.623  30.726  27.606  1.00  0.00     0.031 C 
ATOM     60  C   UNL A   1      47.326  24.895  26.529  1.00  0.00     0.029 A 
ATOM     61  C   UNL A   1      47.208  26.238  26.847  1.00  0.00     0.049 A 
ATOM     62  H   UNL A   1      45.505  27.309  27.484  1.00  0.00     0.167 HD
ATOM     63  C   UNL A   1      48.034  28.554  27.173  1.00  0.00     0.074 A 
ATOM     64  C   UNL A   1      49.078  29.555  27.185  1.00  0.00     0.031 C 
ATOM     65  C   UNL A   1      48.231  27.254  26.838  1.00  0.00     0.037 A 
BRANCH  52  66
ATOM     66  C   UNL A   1      43.137  23.767  27.172  1.00  0.00     0.058 A 
ATOM     67  C   UNL A   1      42.910  22.896  28.251  1.00  0.00     0.135 A 
ATOM     68  C   UNL A   1      42.707  23.358  25.900  1.00  0.00     0.135 A 
ATOM     69  F   UNL A   1      43.323  23.227  29.484  1.00  0.00    -0.206 F 
ATOM     70  C   UNL A   1      42.291  21.664  28.072  1.00  0.00     0.059 A 
ATOM     71  C   UNL A   1      42.060  22.142  25.703  1.00  0.00     0.059 A 
ATOM     72  F   UNL A   1      42.905  24.149  24.833  1.00  0.00    -0.206 F 
ATOM     73  C   UNL A   1      41.864  21.297  26.795  1.00  0.00     0.060 A 
BRANCH  73  74
ATOM     74  S   UNL A   1      41.037  19.707  26.590  1.00  0.00     0.124 S 
ATOM     75  O   UNL A   1      40.841  19.298  27.977  1.00  0.00    -0.237 OA
ATOM     76  O   UNL A   1      39.827  20.078  25.861  1.00  0.00    -0.237 OA
ATOM     77  O   UNL A   1      42.002  18.915  25.834  1.00  0.00    -0.744 OA
ENDBRANCH  73  74
ENDBRANCH  52  66
BRANCH  53  78
ATOM     78  C   UNL A   1      46.903  32.960  28.392  1.00  0.00     0.058 A 
ATOM     79  C   UNL A   1      47.344  33.377  29.657  1.00  0.00     0.135 A 
ATOM     80  C   UNL A   1      46.982  33.884  27.338  1.00  0.00     0.135 A 
ATOM     81  F   UNL A   1      47.282  32.534  30.700  1.00  0.00    -0.206 F 
ATOM     82  C   UNL A   1      47.802  34.672  29.881  1.00  0.00     0.059 A 
ATOM     83  C   UNL A   1      47.466  35.175  27.530  1.00  0.00     0.059 A 
ATOM     84  F   UNL A   1      46.584  33.536  26.105  1.00  0.00    -0.206 F 
ATOM     85  C   UNL A   1      47.853  35.566  28.811  1.00  0.00     0.060 A 
BRANCH  85  86
ATOM     86  S   UNL A   1      48.438  37.247  29.114  1.00  0.00     0.124 S 
ATOM     87  O   UNL A   1      47.775  37.986  28.047  1.00  0.00    -0.237 OA
ATOM     88  O   UNL A   1      47.951  37.502  30.467  1.00  0.00    -0.237 OA
ATOM     89  O   UNL A   1      49.888  37.125  28.990  1.00  0.00    -0.744 OA
ENDBRANCH  85  86
ENDBRANCH  53  78
BRANCH  65  90
ATOM     90  C   UNL A   1      49.611  26.849  26.396  1.00  0.00     0.058 A 
ATOM     91  C   UNL A   1      50.059  27.044  25.081  1.00  0.00     0.135 A 
ATOM     92  C   UNL A   1      50.520  26.310  27.323  1.00  0.00     0.135 A 
ATOM     93  F   UNL A   1      49.232  27.552  24.153  1.00  0.00    -0.206 F 
ATOM     94  C   UNL A   1      51.349  26.692  24.692  1.00  0.00     0.059 A 
ATOM     95  C   UNL A   1      51.823  25.982  26.965  1.00  0.00     0.059 A 
ATOM     96  F   UNL A   1      50.148  26.115  28.599  1.00  0.00    -0.206 F 
ATOM     97  C   UNL A   1      52.224  26.166  25.643  1.00  0.00     0.060 A 
BRANCH  97  98
ATOM     98  S   UNL A   1      53.906  25.750  25.133  1.00  0.00     0.124 S 
ATOM     99  O   UNL A   1      54.042  24.390  25.645  1.00  0.00    -0.237 OA
ATOM    100  O   UNL A   1      53.832  25.877  23.681  1.00  0.00    -0.237 OA
ATOM    101  O   UNL A   1      54.724  26.756  25.804  1.00  0.00    -0.744 OA
ENDBRANCH  97  98
ENDBRANCH  65  90
ENDBRANCH  39  40
ENDBRANCH  32  34
ENDBRANCH  31  32
ENDBRANCH  30  31
ENDBRANCH  29  30
ENDBRANCH  28  29
ENDBRANCH   1  28
TORSDOF 22
ENDMDL
MODEL 2
REMARK VINA RESULT:      -9.7      6.452     10.615
REMARK SMILES CC1(C)OC(=O)C(=CNc2ccccc2C(=O)OCCOCCOCCOC(=O)c2ccc(-c3c4nc(c(-c5c(F)cc(S(=O)(=O)[O-])cc5F)c5ccc([nH]5)c(-c5c(F)cc(S(=O)(=O)[O-])cc5F)c5nc(c(-c6c(F)cc(S(=O)(=O)[O-])cc6F)c6ccc3[nH]6)C=C5)C=C4)cc2)C(=O)O1
REMARK SMILES IDX 23 1 22 2 21 3 20 4 19 5 18 6 16 7 17 8 15 9 10 10 11 11
REMARK SMILES IDX 12 12 14 13 13 14 9 15 8 17 1 18 2 19 3 20 4 21 98 22 5 23
REMARK SMILES IDX 96 24 6 25 7 26 97 27 24 28 25 29 26 30 27 31 28 32 29 33
REMARK SMILES IDX 30 34 31 35 95 36 32 37 94 38 33 39 34 40 35 41 88 42 36 43
REMARK SMILES IDX 93 44 87 45 89 46 37 47 92 48 86 49 85 50 38 52 72 53 51 54
REMARK SMILES IDX 71 55 52 56 55 57 70 58 90 59 53 60 54 61 69 63 91 64 56 65
REMARK SMILES IDX 39 66 40 67 49 68 41 69 42 70 48 71 50 72 43 73 44 74 45 75
REMARK SMILES IDX 46 76 47 77 73 78 74 79 83 80 75 81 76 82 82 83 84 84 77 85
REMARK SMILES IDX 78 86 79 87 80 88 81 89 57 90 58 91 67 92 59 93 60 94 66 95
REMARK SMILES IDX 68 96 61 97 62 98 63 99 64 100 65 101
REMARK H PARENT 9 16 89 51 55 62
REMARK Flexibility Score: inf
ROOT
ATOM      1  C   UNL A   1      34.570  32.593  29.026  1.00  0.00     0.188 C 
ENDROOT
BRANCH   1   2
ATOM      2  C   UNL A   1      34.425  31.912  27.647  1.00  0.00     0.188 C 
BRANCH   2   3
ATOM      3  O   UNL A   1      33.779  30.656  27.557  1.00  0.00    -0.376 OA
BRANCH   3   4
ATOM      4  C   UNL A   1      34.552  29.478  27.379  1.00  0.00     0.202 C 
BRANCH   4   5
ATOM      5  C   UNL A   1      33.936  28.183  26.839  1.00  0.00     0.261 C 
BRANCH   5   6
ATOM      6  O   UNL A   1      32.510  28.238  26.706  1.00  0.00    -0.460 OA
BRANCH   6   7
ATOM      7  C   UNL A   1      31.936  27.174  26.087  1.00  0.00     0.340 C 
ATOM      8  O   UNL A   1      31.725  26.080  26.586  1.00  0.00    -0.246 OA
BRANCH   7   9
ATOM      9  C   UNL A   1      31.410  27.555  24.755  1.00  0.00     0.083 A 
ATOM     10  C   UNL A   1      31.588  26.830  23.558  1.00  0.00     0.053 A 
ATOM     11  C   UNL A   1      31.011  27.373  22.387  1.00  0.00     0.027 A 
ATOM     12  C   UNL A   1      30.343  28.603  22.386  1.00  0.00     0.002 A 
ATOM     13  C   UNL A   1      30.740  28.799  24.743  1.00  0.00     0.018 A 
ATOM     14  C   UNL A   1      30.220  29.324  23.564  1.00  0.00     0.001 A 
BRANCH  10  15
ATOM     15  N   UNL A   1      32.246  25.591  23.397  1.00  0.00    -0.360 N 
ATOM     16  H   UNL A   1      32.955  25.576  22.715  1.00  0.00     0.166 HD
BRANCH  15  17
ATOM     17  C   UNL A   1      32.037  24.404  24.055  1.00  0.00     0.106 C 
ATOM     18  C   UNL A   1      35.339  22.585  26.183  1.00  0.00     0.106 C 
ATOM     19  C   UNL A   1      34.771  21.699  25.071  1.00  0.00     0.252 C 
ATOM     20  C   UNL A   1      35.532  20.374  25.042  1.00  0.00     0.106 C 
ATOM     21  O   UNL A   1      33.411  21.363  25.344  1.00  0.00    -0.419 OA
ATOM     22  O   UNL A   1      34.967  22.313  23.799  1.00  0.00    -0.419 OA
ATOM     23  C   UNL A   1      32.438  22.236  25.016  1.00  0.00     0.350 C 
ATOM     24  C   UNL A   1      34.131  23.303  23.430  1.00  0.00     0.350 C 
ATOM     25  O   UNL A   1      31.298  22.096  25.439  1.00  0.00    -0.246 OA
ATOM     26  C   UNL A   1      32.850  23.336  24.141  1.00  0.00     0.161 C 
ATOM     27  O   UNL A   1      34.413  24.075  22.520  1.00  0.00    -0.246 OA
ENDBRANCH  15  17
ENDBRANCH  10  15
ENDBRANCH   7   9
ENDBRANCH   6   7
ENDBRANCH   5   6
ENDBRANCH   4   5
ENDBRANCH   3   4
ENDBRANCH   2   3
ENDBRANCH   1   2
BRANCH   1  28
ATOM     28  O   UNL A   1      34.588  34.002  29.122  1.00  0.00    -0.376 OA
BRANCH  28  29
ATOM     29  C   UNL A   1      33.464  34.764  28.716  1.00  0.00     0.202 C 
BRANCH  29  30
ATOM     30  C   UNL A   1      32.841  35.925  29.508  1.00  0.00     0.261 C 
BRANCH  30  31
ATOM     31  O   UNL A   1      33.434  36.256  30.763  1.00  0.00    -0.460 OA
BRANCH  31  32
ATOM     32  C   UNL A   1      32.992  35.519  31.815  1.00  0.00     0.338 C 
ATOM     33  O   UNL A   1      31.838  35.283  32.116  1.00  0.00    -0.246 OA
BRANCH  32  34
ATOM     34  C   UNL A   1      34.151  34.869  32.451  1.00  0.00     0.060 A 
ATOM     35  C   UNL A   1      35.416  35.448  32.290  1.00  0.00     0.016 A 
ATOM     36  C   UNL A   1      33.992  33.689  33.178  1.00  0.00     0.016 A 
ATOM     37  C   UNL A   1      36.537  34.832  32.843  1.00  0.00     0.010 A 
ATOM     38  C   UNL A   1      35.119  33.062  33.710  1.00  0.00     0.010 A 
ATOM     39  C   UNL A   1      36.398  33.615  33.520  1.00  0.00    -0.014 A 
BRANCH  39  40
ATOM     40  C   UNL A   1      37.601  32.823  33.869  1.00  0.00     0.031 A 
ATOM     41  C   UNL A   1      38.319  33.148  35.151  1.00  0.00     0.074 A 
ATOM     42  C   UNL A   1      38.039  31.829  33.075  1.00  0.00     0.049 A 
ATOM     43  N   UNL A   1      39.433  32.660  35.626  1.00  0.00    -0.248 NA
ATOM     44  C   UNL A   1      37.692  34.166  36.013  1.00  0.00     0.031 C 
ATOM     45  C   UNL A   1      37.400  31.393  31.833  1.00  0.00     0.029 A 
ATOM     46  N   UNL A   1      39.138  31.016  33.191  1.00  0.00    -0.354 N 
ATOM     47  C   UNL A   1      39.638  33.302  36.842  1.00  0.00     0.074 A 
ATOM     48  C   UNL A   1      38.558  34.247  37.012  1.00  0.00     0.031 C 
ATOM     49  C   UNL A   1      38.130  30.402  31.292  1.00  0.00     0.029 A 
ATOM     50  C   UNL A   1      39.305  30.159  32.128  1.00  0.00     0.049 A 
ATOM     51  H   UNL A   1      39.748  31.042  33.963  1.00  0.00     0.167 HD
ATOM     52  C   UNL A   1      40.630  33.109  37.742  1.00  0.00     0.037 A 
ATOM     53  C   UNL A   1      40.310  29.303  31.853  1.00  0.00     0.037 A 
ATOM     54  C   UNL A   1      41.712  32.176  37.560  1.00  0.00     0.049 A 
ATOM     55  C   UNL A   1      41.460  29.183  32.825  1.00  0.00     0.074 A 
ATOM     56  C   UNL A   1      42.780  31.921  38.401  1.00  0.00     0.029 A 
ATOM     57  N   UNL A   1      41.861  31.344  36.460  1.00  0.00    -0.354 N 
ATOM     58  N   UNL A   1      41.642  29.792  33.973  1.00  0.00    -0.248 NA
ATOM     59  C   UNL A   1      42.543  28.254  32.465  1.00  0.00     0.031 C 
ATOM     60  C   UNL A   1      43.599  30.967  37.790  1.00  0.00     0.029 A 
ATOM     61  C   UNL A   1      43.011  30.585  36.595  1.00  0.00     0.049 A 
ATOM     62  H   UNL A   1      41.242  31.300  35.696  1.00  0.00     0.167 HD
ATOM     63  C   UNL A   1      42.835  29.290  34.487  1.00  0.00     0.074 A 
ATOM     64  C   UNL A   1      43.324  28.320  33.532  1.00  0.00     0.031 C 
ATOM     65  C   UNL A   1      43.469  29.602  35.646  1.00  0.00     0.037 A 
BRANCH  52  66
ATOM     66  C   UNL A   1      40.596  33.925  39.004  1.00  0.00     0.058 A 
ATOM     67  C   UNL A   1      39.885  33.493  40.136  1.00  0.00     0.135 A 
ATOM     68  C   UNL A   1      41.318  35.124  39.103  1.00  0.00     0.135 A 
ATOM     69  F   UNL A   1      39.158  32.365  40.088  1.00  0.00    -0.206 F 
ATOM     70  C   UNL A   1      39.881  34.229  41.316  1.00  0.00     0.059 A 
ATOM     71  C   UNL A   1      41.351  35.862  40.283  1.00  0.00     0.059 A 
ATOM     72  F   UNL A   1      42.009  35.587  38.049  1.00  0.00    -0.206 F 
ATOM     73  C   UNL A   1      40.622  35.409  41.383  1.00  0.00     0.060 A 
BRANCH  73  74
ATOM     74  S   UNL A   1      40.627  36.334  42.932  1.00  0.00     0.124 S 
ATOM     75  O   UNL A   1      41.622  35.598  43.707  1.00  0.00    -0.237 OA
ATOM     76  O   UNL A   1      41.024  37.669  42.495  1.00  0.00    -0.237 OA
ATOM     77  O   UNL A   1      39.252  36.214  43.406  1.00  0.00    -0.744 OA
ENDBRANCH  73  74
ENDBRANCH  52  66
BRANCH  53  78
ATOM     78  C   UNL A   1      40.306  28.506  30.593  1.00  0.00     0.058 A 
ATOM     79  C   UNL A   1      39.487  27.375  30.453  1.00  0.00     0.135 A 
ATOM     80  C   UNL A   1      41.164  28.824  29.529  1.00  0.00     0.135 A 
ATOM     81  F   UNL A   1      38.654  27.023  31.445  1.00  0.00    -0.206 F 
ATOM     82  C   UNL A   1      39.549  26.564  29.324  1.00  0.00     0.059 A 
ATOM     83  C   UNL A   1      41.220  28.046  28.376  1.00  0.00     0.059 A 
ATOM     84  F   UNL A   1      41.961  29.901  29.604  1.00  0.00    -0.206 F 
ATOM     85  C   UNL A   1      40.425  26.905  28.293  1.00  0.00     0.060 A 
BRANCH  85  86
ATOM     86  S   UNL A   1      40.506  25.840  26.837  1.00  0.00     0.124 S 
ATOM     87  O   UNL A   1      41.572  24.917  27.207  1.00  0.00    -0.237 OA
ATOM     88  O   UNL A   1      39.159  25.277  26.794  1.00  0.00    -0.237 OA
ATOM     89  O   UNL A   1      40.824  26.771  25.758  1.00  0.00    -0.744 OA
ENDBRANCH  85  86
ENDBRANCH  53  78
BRANCH  65  90
ATOM     90  C   UNL A   1      44.728  28.846  35.978  1.00  0.00     0.058 A 
ATOM     91  C   UNL A   1      46.000  29.339  35.650  1.00  0.00     0.135 A 
ATOM     92  C   UNL A   1      44.659  27.637  36.691  1.00  0.00     0.135 A 
ATOM     93  F   UNL A   1      46.124  30.488  34.966  1.00  0.00    -0.206 F 
ATOM     94  C   UNL A   1      47.158  28.645  35.990  1.00  0.00     0.059 A 
ATOM     95  C   UNL A   1      45.804  26.944  37.070  1.00  0.00     0.059 A 
ATOM     96  F   UNL A   1      43.467  27.127  37.043  1.00  0.00    -0.206 F 
ATOM     97  C   UNL A   1      47.049  27.450  36.704  1.00  0.00     0.060 A 
BRANCH  97  98
ATOM     98  S   UNL A   1      48.561  26.582  37.171  1.00  0.00     0.124 S 
ATOM     99  O   UNL A   1      48.237  25.207  36.805  1.00  0.00    -0.237 OA
ATOM    100  O   UNL A   1      49.567  27.238  36.341  1.00  0.00    -0.237 OA
ATOM    101  O   UNL A   1      48.673  26.839  38.603  1.00  0.00    -0.744 OA
ENDBRANCH  97  98
ENDBRANCH  65  90
ENDBRANCH  39  40
ENDBRANCH  32  34
ENDBRANCH  31  32
ENDBRANCH  30  31
ENDBRANCH  29  30
ENDBRANCH  28  29
ENDBRANCH   1  28
TORSDOF 22
ENDMDL
MODEL 3
REMARK VINA RESULT:      -9.7      6.276     12.182
REMARK SMILES CC1(C)OC(=O)C(=CNc2ccccc2C(=O)OCCOCCOCCOC(=O)c2ccc(-c3c4nc(c(-c5c(F)cc(S(=O)(=O)[O-])cc5F)c5ccc([nH]5)c(-c5c(F)cc(S(=O)(=O)[O-])cc5F)c5nc(c(-c6c(F)cc(S(=O)(=O)[O-])cc6F)c6ccc3[nH]6)C=C5)C=C4)cc2)C(=O)O1
REMARK SMILES IDX 23 1 22 2 21 3 20 4 19 5 18 6 16 7 17 8 15 9 10 10 11 11
REMARK SMILES IDX 12 12 14 13 13 14 9 15 8 17 1 18 2 19 3 20 4 21 98 22 5 23
REMARK SMILES IDX 96 24 6 25 7 26 97 27 24 28 25 29 26 30 27 31 28 32 29 33
REMARK SMILES IDX 30 34 31 35 95 36 32 37 94 38 33 39 34 40 35 41 88 42 36 43
REMARK SMILES IDX 93 44 87 45 89 46 37 47 92 48 86 49 85 50 38 52 72 53 51 54
REMARK SMILES IDX 71 55 52 56 55 57 70 58 90 59 53 60 54 61 69 63 91 64 56 65
REMARK SMILES IDX 39 66 40 67 49 68 41 69 42 70 48 71 50 72 43 73 44 74 45 75
REMARK SMILES IDX 46 76 47 77 73 78 74 79 83 80 75 81 76 82 82 83 84 84 77 85
REMARK SMILES IDX 78 86 79 87 80 88 81 89 57 90 58 91 67 92 59 93 60 94 66 95
REMARK SMILES IDX 68 96 61 97 62 98 63 99 64 100 65 101
REMARK H PARENT 9 16 89 51 55 62
REMARK Flexibility Score: inf
ROOT
ATOM      1  C   UNL A   1      46.034  22.342  25.105  1.00  0.00     0.188 C 
ENDROOT
BRANCH   1   2
ATOM      2  C   UNL A   1      44.573  22.057  25.517  1.00  0.00     0.188 C 
BRANCH   2   3
ATOM      3  O   UNL A   1      44.120  22.463  26.795  1.00  0.00    -0.376 OA
BRANCH   3   4
ATOM      4  C   UNL A   1      42.731  22.656  27.021  1.00  0.00     0.202 C 
BRANCH   4   5
ATOM      5  C   UNL A   1      41.959  21.830  28.054  1.00  0.00     0.261 C 
BRANCH   5   6
ATOM      6  O   UNL A   1      40.545  22.068  28.037  1.00  0.00    -0.460 OA
BRANCH   6   7
ATOM      7  C   UNL A   1      40.057  22.626  26.898  1.00  0.00     0.340 C 
ATOM      8  O   UNL A   1      40.340  23.729  26.459  1.00  0.00    -0.246 OA
BRANCH   7   9
ATOM      9  C   UNL A   1      39.258  21.644  26.126  1.00  0.00     0.083 A 
ATOM     10  C   UNL A   1      38.099  21.930  25.375  1.00  0.00     0.053 A 
ATOM     11  C   UNL A   1      37.476  20.844  24.718  1.00  0.00     0.027 A 
ATOM     12  C   UNL A   1      37.940  19.530  24.845  1.00  0.00     0.002 A 
ATOM     13  C   UNL A   1      39.715  20.313  26.255  1.00  0.00     0.018 A 
ATOM     14  C   UNL A   1      39.053  19.262  25.627  1.00  0.00     0.001 A 
BRANCH  10  15
ATOM     15  N   UNL A   1      37.504  23.194  25.167  1.00  0.00    -0.360 N 
ATOM     16  H   UNL A   1      38.078  23.863  24.731  1.00  0.00     0.166 HD
BRANCH  15  17
ATOM     17  C   UNL A   1      36.239  23.622  25.488  1.00  0.00     0.106 C 
ATOM     18  C   UNL A   1      32.839  21.420  23.959  1.00  0.00     0.106 C 
ATOM     19  C   UNL A   1      32.871  22.881  23.504  1.00  0.00     0.252 C 
ATOM     20  C   UNL A   1      31.647  23.167  22.636  1.00  0.00     0.106 C 
ATOM     21  O   UNL A   1      32.770  23.758  24.625  1.00  0.00    -0.419 OA
ATOM     22  O   UNL A   1      34.017  23.122  22.688  1.00  0.00    -0.419 OA
ATOM     23  C   UNL A   1      33.878  24.053  25.333  1.00  0.00     0.350 C 
ATOM     24  C   UNL A   1      35.209  23.290  23.293  1.00  0.00     0.350 C 
ATOM     25  O   UNL A   1      33.800  24.601  26.425  1.00  0.00    -0.246 OA
ATOM     26  C   UNL A   1      35.145  23.669  24.707  1.00  0.00     0.161 C 
ATOM     27  O   UNL A   1      36.262  23.188  22.673  1.00  0.00    -0.246 OA
ENDBRANCH  15  17
ENDBRANCH  10  15
ENDBRANCH   7   9
ENDBRANCH   6   7
ENDBRANCH   5   6
ENDBRANCH   4   5
ENDBRANCH   3   4
ENDBRANCH   2   3
ENDBRANCH   1   2
BRANCH   1  28
ATOM     28  O   UNL A   1      46.793  23.307  25.804  1.00  0.00    -0.376 OA
BRANCH  28  29
ATOM     29  C   UNL A   1      46.754  24.670  25.416  1.00  0.00     0.202 C 
BRANCH  29  30
ATOM     30  C   UNL A   1      45.478  25.496  25.191  1.00  0.00     0.261 C 
BRANCH  30  31
ATOM     31  O   UNL A   1      44.592  25.650  26.299  1.00  0.00    -0.460 OA
BRANCH  31  32
ATOM     32  C   UNL A   1      43.328  26.027  25.971  1.00  0.00     0.338 C 
ATOM     33  O   UNL A   1      42.681  25.671  25.006  1.00  0.00    -0.246 OA
BRANCH  32  34
ATOM     34  C   UNL A   1      42.768  26.808  27.087  1.00  0.00     0.060 A 
ATOM     35  C   UNL A   1      43.133  28.155  27.213  1.00  0.00     0.016 A 
ATOM     36  C   UNL A   1      41.911  26.210  28.011  1.00  0.00     0.016 A 
ATOM     37  C   UNL A   1      42.654  28.907  28.283  1.00  0.00     0.010 A 
ATOM     38  C   UNL A   1      41.452  26.959  29.096  1.00  0.00     0.010 A 
ATOM     39  C   UNL A   1      41.845  28.301  29.252  1.00  0.00    -0.014 A 
BRANCH  39  40
ATOM     40  C   UNL A   1      41.559  29.008  30.523  1.00  0.00     0.031 A 
ATOM     41  C   UNL A   1      40.410  29.979  30.552  1.00  0.00     0.074 A 
ATOM     42  C   UNL A   1      42.293  28.783  31.628  1.00  0.00     0.049 A 
ATOM     43  N   UNL A   1      40.020  30.775  31.512  1.00  0.00    -0.248 NA
ATOM     44  C   UNL A   1      39.590  30.062  29.331  1.00  0.00     0.031 C 
ATOM     45  C   UNL A   1      43.399  27.832  31.732  1.00  0.00     0.029 A 
ATOM     46  N   UNL A   1      42.222  29.354  32.873  1.00  0.00    -0.354 N 
ATOM     47  C   UNL A   1      38.910  31.448  31.016  1.00  0.00     0.074 A 
ATOM     48  C   UNL A   1      38.712  30.999  29.656  1.00  0.00     0.031 C 
ATOM     49  C   UNL A   1      43.917  27.900  32.971  1.00  0.00     0.029 A 
ATOM     50  C   UNL A   1      43.203  28.923  33.735  1.00  0.00     0.049 A 
ATOM     51  H   UNL A   1      41.534  30.010  33.127  1.00  0.00     0.167 HD
ATOM     52  C   UNL A   1      38.116  32.346  31.644  1.00  0.00     0.037 A 
ATOM     53  C   UNL A   1      43.505  29.333  34.984  1.00  0.00     0.037 A 
ATOM     54  C   UNL A   1      38.326  32.800  32.994  1.00  0.00     0.049 A 
ATOM     55  C   UNL A   1      42.666  30.414  35.625  1.00  0.00     0.074 A 
ATOM     56  C   UNL A   1      37.594  33.725  33.716  1.00  0.00     0.029 A 
ATOM     57  N   UNL A   1      39.345  32.358  33.826  1.00  0.00    -0.354 N 
ATOM     58  N   UNL A   1      41.616  31.040  35.148  1.00  0.00    -0.248 NA
ATOM     59  C   UNL A   1      43.053  30.843  36.978  1.00  0.00     0.031 C 
ATOM     60  C   UNL A   1      38.195  33.876  34.969  1.00  0.00     0.029 A 
ATOM     61  C   UNL A   1      39.267  33.003  35.049  1.00  0.00     0.049 A 
ATOM     62  H   UNL A   1      40.023  31.687  33.583  1.00  0.00     0.167 HD
ATOM     63  C   UNL A   1      41.196  31.904  36.157  1.00  0.00     0.074 A 
ATOM     64  C   UNL A   1      42.097  31.711  37.271  1.00  0.00     0.031 C 
ATOM     65  C   UNL A   1      40.157  32.777  36.161  1.00  0.00     0.037 A 
BRANCH  52  66
ATOM     66  C   UNL A   1      36.950  32.903  30.877  1.00  0.00     0.058 A 
ATOM     67  C   UNL A   1      35.641  32.443  31.098  1.00  0.00     0.135 A 
ATOM     68  C   UNL A   1      37.130  33.940  29.949  1.00  0.00     0.135 A 
ATOM     69  F   UNL A   1      35.415  31.436  31.958  1.00  0.00    -0.206 F 
ATOM     70  C   UNL A   1      34.556  32.981  30.415  1.00  0.00     0.059 A 
ATOM     71  C   UNL A   1      36.055  34.514  29.275  1.00  0.00     0.059 A 
ATOM     72  F   UNL A   1      38.360  34.414  29.694  1.00  0.00    -0.206 F 
ATOM     73  C   UNL A   1      34.771  34.021  29.510  1.00  0.00     0.060 A 
BRANCH  73  74
ATOM     74  S   UNL A   1      33.347  34.726  28.657  1.00  0.00     0.124 S 
ATOM     75  O   UNL A   1      32.441  34.991  29.771  1.00  0.00    -0.237 OA
ATOM     76  O   UNL A   1      33.922  35.903  28.013  1.00  0.00    -0.237 OA
ATOM     77  O   UNL A   1      32.930  33.661  27.751  1.00  0.00    -0.744 OA
ENDBRANCH  73  74
ENDBRANCH  52  66
BRANCH  53  78
ATOM     78  C   UNL A   1      44.666  28.752  35.715  1.00  0.00     0.058 A 
ATOM     79  C   UNL A   1      44.524  27.603  36.508  1.00  0.00     0.135 A 
ATOM     80  C   UNL A   1      45.927  29.368  35.684  1.00  0.00     0.135 A 
ATOM     81  F   UNL A   1      43.337  26.980  36.579  1.00  0.00    -0.206 F 
ATOM     82  C   UNL A   1      45.574  27.111  37.276  1.00  0.00     0.059 A 
ATOM     83  C   UNL A   1      47.002  28.876  36.418  1.00  0.00     0.059 A 
ATOM     84  F   UNL A   1      46.124  30.464  34.934  1.00  0.00    -0.206 F 
ATOM     85  C   UNL A   1      46.809  27.760  37.229  1.00  0.00     0.060 A 
BRANCH  85  86
ATOM     86  S   UNL A   1      48.162  27.119  38.238  1.00  0.00     0.124 S 
ATOM     87  O   UNL A   1      49.062  26.589  37.221  1.00  0.00    -0.237 OA
ATOM     88  O   UNL A   1      48.620  28.319  38.934  1.00  0.00    -0.237 OA
ATOM     89  O   UNL A   1      47.509  26.124  39.083  1.00  0.00    -0.744 OA
ENDBRANCH  85  86
ENDBRANCH  53  78
BRANCH  65  90
ATOM     90  C   UNL A   1      39.898  33.547  37.428  1.00  0.00     0.058 A 
ATOM     91  C   UNL A   1      40.626  34.700  37.760  1.00  0.00     0.135 A 
ATOM     92  C   UNL A   1      38.863  33.156  38.293  1.00  0.00     0.135 A 
ATOM     93  F   UNL A   1      41.629  35.117  36.971  1.00  0.00    -0.206 F 
ATOM     94  C   UNL A   1      40.356  35.421  38.920  1.00  0.00     0.059 A 
ATOM     95  C   UNL A   1      38.554  33.879  39.441  1.00  0.00     0.059 A 
ATOM     96  F   UNL A   1      38.125  32.068  38.016  1.00  0.00    -0.206 F 
ATOM     97  C   UNL A   1      39.314  35.004  39.751  1.00  0.00     0.060 A 
BRANCH  97  98
ATOM     98  S   UNL A   1      38.952  35.971  41.232  1.00  0.00     0.124 S 
ATOM     99  O   UNL A   1      37.806  35.253  41.781  1.00  0.00    -0.237 OA
ATOM    100  O   UNL A   1      40.193  35.858  41.992  1.00  0.00    -0.237 OA
ATOM    101  O   UNL A   1      38.664  37.302  40.708  1.00  0.00    -0.744 OA
ENDBRANCH  97  98
ENDBRANCH  65  90
ENDBRANCH  39  40
ENDBRANCH  32  34
ENDBRANCH  31  32
ENDBRANCH  30  31
ENDBRANCH  29  30
ENDBRANCH  28  29
ENDBRANCH   1  28
TORSDOF 22
ENDMDL
