MODEL 1
REMARK VINA RESULT:     -10.5      0.000      0.000
REMARK SMILES COc1ccc(C(=O)N2CCC(C(=O)OCCOCCOCCOC(=O)c3ccc(-c4c5nc(c(-c6c(F)cc(S(=O)(=O)[O-])cc6F)c6ccc([nH]6)c(-c6c(F)cc(S(=O)(=O)[O-])cc6F)c6nc(c(-c7c(F)cc(S(=O)(=O)[O-])cc7F)c7ccc4[nH]7)C=C6)C=C5)cc3)CC2)c(OC)c1
REMARK SMILES IDX 20 1 19 2 18 3 17 4 16 5 15 6 13 7 14 8 12 9 7 10 8 11 9 12
REMARK SMILES IDX 10 13 94 14 11 15 93 16 6 17 3 18 4 19 98 20 5 21 95 22 2 23
REMARK SMILES IDX 1 24 96 25 97 26 21 27 22 28 23 29 24 30 25 31 26 32 27 33
REMARK SMILES IDX 28 34 92 35 29 36 91 37 30 38 31 39 32 40 85 41 33 42 90 43
REMARK SMILES IDX 84 44 86 45 34 46 89 47 83 48 82 49 35 51 69 52 48 53 68 54
REMARK SMILES IDX 49 55 52 56 67 57 87 58 50 59 51 60 66 62 88 63 53 64 36 65
REMARK SMILES IDX 37 66 46 67 38 68 39 69 45 70 47 71 40 72 41 73 42 74 43 75
REMARK SMILES IDX 44 76 70 77 71 78 80 79 72 80 73 81 79 82 81 83 74 84 75 85
REMARK SMILES IDX 76 86 77 87 78 88 54 89 55 90 64 91 56 92 57 93 63 94 65 95
REMARK SMILES IDX 58 96 59 97 60 98 61 99 62 100
REMARK H PARENT 86 50 52 61
REMARK Flexibility Score: inf
ROOT
ATOM      1  C   UNL A   1      41.919  20.534  26.418  1.00  0.00     0.188 C 
ENDROOT
BRANCH   1   2
ATOM      2  C   UNL A   1      40.416  20.554  26.148  1.00  0.00     0.188 C 
BRANCH   2   3
ATOM      3  O   UNL A   1      39.650  21.509  26.870  1.00  0.00    -0.376 OA
BRANCH   3   4
ATOM      4  C   UNL A   1      38.763  22.336  26.120  1.00  0.00     0.202 C 
BRANCH   4   5
ATOM      5  C   UNL A   1      37.937  21.667  25.013  1.00  0.00     0.261 C 
BRANCH   5   6
ATOM      6  O   UNL A   1      36.675  22.302  24.721  1.00  0.00    -0.463 OA
BRANCH   6   7
ATOM      7  C   UNL A   1      35.580  21.508  24.850  1.00  0.00     0.309 C 
ATOM      8  O   UNL A   1      35.608  20.336  25.215  1.00  0.00    -0.252 OA
BRANCH   7   9
ATOM      9  C   UNL A   1      34.267  22.196  24.517  1.00  0.00     0.103 C 
ATOM     10  C   UNL A   1      31.225  24.848  25.755  1.00  0.00     0.257 C 
ATOM     11  O   UNL A   1      30.624  24.451  26.756  1.00  0.00    -0.269 OA
ATOM     12  N   UNL A   1      32.106  24.027  25.061  1.00  0.00    -0.338 N 
ATOM     13  C   UNL A   1      31.812  22.605  24.997  1.00  0.00     0.120 C 
ATOM     14  C   UNL A   1      33.253  24.483  24.287  1.00  0.00     0.120 C 
ATOM     15  C   UNL A   1      33.031  21.742  25.302  1.00  0.00     0.037 C 
ATOM     16  C   UNL A   1      34.495  23.702  24.679  1.00  0.00     0.037 C 
BRANCH  10  17
ATOM     17  C   UNL A   1      30.928  26.231  25.281  1.00  0.00     0.082 A 
ATOM     18  C   UNL A   1      30.520  28.708  24.006  1.00  0.00     0.122 A 
ATOM     19  C   UNL A   1      29.810  27.583  23.593  1.00  0.00     0.047 A 
ATOM     20  C   UNL A   1      31.415  28.601  25.071  1.00  0.00     0.093 A 
ATOM     21  C   UNL A   1      30.016  26.351  24.218  1.00  0.00     0.021 A 
ATOM     22  C   UNL A   1      31.633  27.371  25.710  1.00  0.00     0.135 A 
BRANCH  18  23
ATOM     23  O   UNL A   1      30.273  29.849  23.293  1.00  0.00    -0.497 OA
ATOM     24  C   UNL A   1      29.464  29.699  22.128  1.00  0.00     0.278 C 
ENDBRANCH  18  23
BRANCH  22  25
ATOM     25  O   UNL A   1      32.606  27.230  26.665  1.00  0.00    -0.496 OA
ATOM     26  C   UNL A   1      33.000  28.422  27.345  1.00  0.00     0.278 C 
ENDBRANCH  22  25
ENDBRANCH  10  17
ENDBRANCH   7   9
ENDBRANCH   6   7
ENDBRANCH   5   6
ENDBRANCH   4   5
ENDBRANCH   3   4
ENDBRANCH   2   3
ENDBRANCH   1   2
BRANCH   1  27
ATOM     27  O   UNL A   1      42.750  21.090  25.412  1.00  0.00    -0.376 OA
BRANCH  27  28
ATOM     28  C   UNL A   1      43.527  22.226  25.800  1.00  0.00     0.202 C 
BRANCH  28  29
ATOM     29  C   UNL A   1      42.972  23.616  25.400  1.00  0.00     0.261 C 
BRANCH  29  30
ATOM     30  O   UNL A   1      42.020  24.228  26.304  1.00  0.00    -0.460 OA
BRANCH  30  31
ATOM     31  C   UNL A   1      41.692  25.526  26.089  1.00  0.00     0.338 C 
ATOM     32  O   UNL A   1      41.241  25.983  25.051  1.00  0.00    -0.246 OA
BRANCH  31  33
ATOM     33  C   UNL A   1      41.689  26.261  27.391  1.00  0.00     0.060 A 
ATOM     34  C   UNL A   1      40.597  26.067  28.251  1.00  0.00     0.016 A 
ATOM     35  C   UNL A   1      42.749  27.073  27.808  1.00  0.00     0.016 A 
ATOM     36  C   UNL A   1      40.536  26.718  29.491  1.00  0.00     0.010 A 
ATOM     37  C   UNL A   1      42.679  27.738  29.045  1.00  0.00     0.010 A 
ATOM     38  C   UNL A   1      41.556  27.595  29.882  1.00  0.00    -0.014 A 
BRANCH  38  39
ATOM     39  C   UNL A   1      41.360  28.492  31.060  1.00  0.00     0.031 A 
ATOM     40  C   UNL A   1      40.251  29.516  31.009  1.00  0.00     0.074 A 
ATOM     41  C   UNL A   1      42.115  28.399  32.173  1.00  0.00     0.049 A 
ATOM     42  N   UNL A   1      39.907  30.419  31.892  1.00  0.00    -0.248 NA
ATOM     43  C   UNL A   1      39.421  29.518  29.794  1.00  0.00     0.031 C 
ATOM     44  C   UNL A   1      43.194  27.439  32.388  1.00  0.00     0.029 A 
ATOM     45  N   UNL A   1      42.089  29.137  33.336  1.00  0.00    -0.354 N 
ATOM     46  C   UNL A   1      38.827  31.101  31.339  1.00  0.00     0.074 A 
ATOM     47  C   UNL A   1      38.595  30.527  30.031  1.00  0.00     0.031 C 
ATOM     48  C   UNL A   1      43.736  27.653  33.602  1.00  0.00     0.029 A 
ATOM     49  C   UNL A   1      43.064  28.784  34.241  1.00  0.00     0.049 A 
ATOM     50  H   UNL A   1      41.432  29.851  33.504  1.00  0.00     0.167 HD
ATOM     51  C   UNL A   1      38.088  32.105  31.871  1.00  0.00     0.037 A 
ATOM     52  C   UNL A   1      43.392  29.323  35.436  1.00  0.00     0.037 A 
ATOM     53  C   UNL A   1      38.313  32.684  33.170  1.00  0.00     0.049 A 
ATOM     54  C   UNL A   1      42.601  30.492  35.978  1.00  0.00     0.074 A 
ATOM     55  C   UNL A   1      37.598  33.691  33.797  1.00  0.00     0.029 A 
ATOM     56  N   UNL A   1      39.332  32.322  34.037  1.00  0.00    -0.354 N 
ATOM     57  N   UNL A   1      41.565  31.103  35.455  1.00  0.00    -0.248 NA
ATOM     58  C   UNL A   1      43.026  31.041  37.275  1.00  0.00     0.031 C 
ATOM     59  C   UNL A   1      38.220  33.977  35.017  1.00  0.00     0.029 A 
ATOM     60  C   UNL A   1      39.284  33.106  35.179  1.00  0.00     0.049 A 
ATOM     61  H   UNL A   1      39.993  31.612  33.868  1.00  0.00     0.167 HD
ATOM     62  C   UNL A   1      41.199  32.087  36.371  1.00  0.00     0.074 A 
ATOM     63  C   UNL A   1      42.114  31.980  37.486  1.00  0.00     0.031 C 
ATOM     64  C   UNL A   1      40.195  32.997  36.293  1.00  0.00     0.037 A 
BRANCH  51  65
ATOM     65  C   UNL A   1      36.972  32.667  31.030  1.00  0.00     0.058 A 
ATOM     66  C   UNL A   1      35.642  32.246  31.184  1.00  0.00     0.135 A 
ATOM     67  C   UNL A   1      37.234  33.670  30.080  1.00  0.00     0.135 A 
ATOM     68  F   UNL A   1      35.336  31.279  32.065  1.00  0.00    -0.206 F 
ATOM     69  C   UNL A   1      34.615  32.778  30.410  1.00  0.00     0.059 A 
ATOM     70  C   UNL A   1      36.219  34.237  29.317  1.00  0.00     0.059 A 
ATOM     71  F   UNL A   1      38.488  34.109  29.890  1.00  0.00    -0.206 F 
ATOM     72  C   UNL A   1      34.914  33.775  29.479  1.00  0.00     0.060 A 
BRANCH  72  73
ATOM     73  S   UNL A   1      33.570  34.457  28.487  1.00  0.00     0.124 S 
ATOM     74  O   UNL A   1      33.167  33.294  27.703  1.00  0.00    -0.237 OA
ATOM     75  O   UNL A   1      32.621  34.894  29.506  1.00  0.00    -0.237 OA
ATOM     76  O   UNL A   1      34.214  35.529  27.732  1.00  0.00    -0.744 OA
ENDBRANCH  72  73
ENDBRANCH  51  65
BRANCH  52  77
ATOM     77  C   UNL A   1      44.542  28.776  36.213  1.00  0.00     0.058 A 
ATOM     78  C   UNL A   1      45.830  29.317  36.087  1.00  0.00     0.135 A 
ATOM     79  C   UNL A   1      44.376  27.687  37.083  1.00  0.00     0.135 A 
ATOM     80  F   UNL A   1      46.048  30.344  35.253  1.00  0.00    -0.206 F 
ATOM     81  C   UNL A   1      46.915  28.791  36.784  1.00  0.00     0.059 A 
ATOM     82  C   UNL A   1      45.440  27.163  37.814  1.00  0.00     0.059 A 
ATOM     83  F   UNL A   1      43.166  27.130  37.241  1.00  0.00    -0.206 F 
ATOM     84  C   UNL A   1      46.708  27.717  37.651  1.00  0.00     0.060 A 
BRANCH  84  85
ATOM     85  S   UNL A   1      48.111  27.083  38.595  1.00  0.00     0.124 S 
ATOM     86  O   UNL A   1      49.183  27.975  38.165  1.00  0.00    -0.237 OA
ATOM     87  O   UNL A   1      47.655  27.252  39.970  1.00  0.00    -0.237 OA
ATOM     88  O   UNL A   1      48.223  25.699  38.144  1.00  0.00    -0.744 OA
ENDBRANCH  84  85
ENDBRANCH  52  77
BRANCH  64  89
ATOM     89  C   UNL A   1      40.003  33.934  37.459  1.00  0.00     0.058 A 
ATOM     90  C   UNL A   1      40.673  35.166  37.541  1.00  0.00     0.135 A 
ATOM     91  C   UNL A   1      39.103  33.613  38.490  1.00  0.00     0.135 A 
ATOM     92  F   UNL A   1      41.546  35.525  36.587  1.00  0.00    -0.206 F 
ATOM     93  C   UNL A   1      40.484  36.028  38.618  1.00  0.00     0.059 A 
ATOM     94  C   UNL A   1      38.875  34.475  39.560  1.00  0.00     0.059 A 
ATOM     95  F   UNL A   1      38.423  32.457  38.458  1.00  0.00    -0.206 F 
ATOM     96  C   UNL A   1      39.582  35.674  39.623  1.00  0.00     0.060 A 
BRANCH  96  97
ATOM     97  S   UNL A   1      39.336  36.808  41.008  1.00  0.00     0.124 S 
ATOM     98  O   UNL A   1      38.596  37.893  40.371  1.00  0.00    -0.237 OA
ATOM     99  O   UNL A   1      38.580  35.991  41.950  1.00  0.00    -0.237 OA
ATOM    100  O   UNL A   1      40.696  37.137  41.423  1.00  0.00    -0.744 OA
ENDBRANCH  96  97
ENDBRANCH  64  89
ENDBRANCH  38  39
ENDBRANCH  31  33
ENDBRANCH  30  31
ENDBRANCH  29  30
ENDBRANCH  28  29
ENDBRANCH  27  28
ENDBRANCH   1  27
TORSDOF 23
ENDMDL
MODEL 2
REMARK VINA RESULT:     -10.4      0.852      8.048
REMARK SMILES COc1ccc(C(=O)N2CCC(C(=O)OCCOCCOCCOC(=O)c3ccc(-c4c5nc(c(-c6c(F)cc(S(=O)(=O)[O-])cc6F)c6ccc([nH]6)c(-c6c(F)cc(S(=O)(=O)[O-])cc6F)c6nc(c(-c7c(F)cc(S(=O)(=O)[O-])cc7F)c7ccc4[nH]7)C=C6)C=C5)cc3)CC2)c(OC)c1
REMARK SMILES IDX 20 1 19 2 18 3 17 4 16 5 15 6 13 7 14 8 12 9 7 10 8 11 9 12
REMARK SMILES IDX 10 13 94 14 11 15 93 16 6 17 3 18 4 19 98 20 5 21 95 22 2 23
REMARK SMILES IDX 1 24 96 25 97 26 21 27 22 28 23 29 24 30 25 31 26 32 27 33
REMARK SMILES IDX 28 34 92 35 29 36 91 37 30 38 31 39 32 40 85 41 33 42 90 43
REMARK SMILES IDX 84 44 86 45 34 46 89 47 83 48 82 49 35 51 69 52 48 53 68 54
REMARK SMILES IDX 49 55 52 56 67 57 87 58 50 59 51 60 66 62 88 63 53 64 36 65
REMARK SMILES IDX 37 66 46 67 38 68 39 69 45 70 47 71 40 72 41 73 42 74 43 75
REMARK SMILES IDX 44 76 70 77 71 78 80 79 72 80 73 81 79 82 81 83 74 84 75 85
REMARK SMILES IDX 76 86 77 87 78 88 54 89 55 90 64 91 56 92 57 93 63 94 65 95
REMARK SMILES IDX 58 96 59 97 60 98 61 99 62 100
REMARK H PARENT 86 50 52 61
REMARK Flexibility Score: inf
ROOT
ATOM      1  C   UNL A   1      40.292  21.784  26.944  1.00  0.00     0.188 C 
ENDROOT
BRANCH   1   2
ATOM      2  C   UNL A   1      39.048  22.063  26.103  1.00  0.00     0.188 C 
BRANCH   2   3
ATOM      3  O   UNL A   1      38.550  23.394  26.120  1.00  0.00    -0.376 OA
BRANCH   3   4
ATOM      4  C   UNL A   1      37.151  23.570  25.907  1.00  0.00     0.202 C 
BRANCH   4   5
ATOM      5  C   UNL A   1      36.369  22.385  25.324  1.00  0.00     0.261 C 
BRANCH   5   6
ATOM      6  O   UNL A   1      35.122  22.088  25.987  1.00  0.00    -0.463 OA
BRANCH   6   7
ATOM      7  C   UNL A   1      34.219  21.393  25.246  1.00  0.00     0.309 C 
ATOM      8  O   UNL A   1      34.347  20.219  24.914  1.00  0.00    -0.252 OA
BRANCH   7   9
ATOM      9  C   UNL A   1      32.987  22.191  24.855  1.00  0.00     0.103 C 
ATOM     10  C   UNL A   1      30.629  25.635  25.485  1.00  0.00     0.257 C 
ATOM     11  O   UNL A   1      30.154  25.687  26.622  1.00  0.00    -0.269 OA
ATOM     12  N   UNL A   1      31.247  24.487  25.006  1.00  0.00    -0.338 N 
ATOM     13  C   UNL A   1      30.738  23.199  25.447  1.00  0.00     0.120 C 
ATOM     14  C   UNL A   1      32.301  24.452  24.000  1.00  0.00     0.120 C 
ATOM     15  C   UNL A   1      31.847  22.248  25.879  1.00  0.00     0.037 C 
ATOM     16  C   UNL A   1      33.460  23.599  24.486  1.00  0.00     0.037 C 
BRANCH  10  17
ATOM     17  C   UNL A   1      30.466  26.839  24.619  1.00  0.00     0.082 A 
ATOM     18  C   UNL A   1      30.178  28.834  22.654  1.00  0.00     0.122 A 
ATOM     19  C   UNL A   1      29.197  27.857  22.808  1.00  0.00     0.047 A 
ATOM     20  C   UNL A   1      31.290  28.829  23.498  1.00  0.00     0.093 A 
ATOM     21  C   UNL A   1      29.341  26.861  23.777  1.00  0.00     0.021 A 
ATOM     22  C   UNL A   1      31.448  27.835  24.476  1.00  0.00     0.135 A 
BRANCH  18  23
ATOM     23  O   UNL A   1      29.955  29.731  21.645  1.00  0.00    -0.497 OA
ATOM     24  C   UNL A   1      28.836  30.597  21.810  1.00  0.00     0.278 C 
ENDBRANCH  18  23
BRANCH  22  25
ATOM     25  O   UNL A   1      32.599  27.745  25.216  1.00  0.00    -0.496 OA
ATOM     26  C   UNL A   1      33.695  28.547  24.776  1.00  0.00     0.278 C 
ENDBRANCH  22  25
ENDBRANCH  10  17
ENDBRANCH   7   9
ENDBRANCH   6   7
ENDBRANCH   5   6
ENDBRANCH   4   5
ENDBRANCH   3   4
ENDBRANCH   2   3
ENDBRANCH   1   2
BRANCH   1  27
ATOM     27  O   UNL A   1      41.247  20.896  26.387  1.00  0.00    -0.376 OA
BRANCH  27  28
ATOM     28  C   UNL A   1      42.520  21.467  26.068  1.00  0.00     0.202 C 
BRANCH  28  29
ATOM     29  C   UNL A   1      42.512  22.909  25.501  1.00  0.00     0.261 C 
BRANCH  29  30
ATOM     30  O   UNL A   1      42.734  23.985  26.444  1.00  0.00    -0.460 OA
BRANCH  30  31
ATOM     31  C   UNL A   1      42.382  25.237  26.063  1.00  0.00     0.338 C 
ATOM     32  O   UNL A   1      41.983  25.559  24.955  1.00  0.00    -0.246 OA
BRANCH  31  33
ATOM     33  C   UNL A   1      42.275  26.113  27.270  1.00  0.00     0.060 A 
ATOM     34  C   UNL A   1      41.439  25.691  28.316  1.00  0.00     0.016 A 
ATOM     35  C   UNL A   1      43.016  27.289  27.424  1.00  0.00     0.016 A 
ATOM     36  C   UNL A   1      41.302  26.460  29.480  1.00  0.00     0.010 A 
ATOM     37  C   UNL A   1      42.865  28.068  28.585  1.00  0.00     0.010 A 
ATOM     38  C   UNL A   1      41.979  27.679  29.608  1.00  0.00    -0.014 A 
BRANCH  38  39
ATOM     39  C   UNL A   1      41.621  28.622  30.710  1.00  0.00     0.031 A 
ATOM     40  C   UNL A   1      42.434  28.586  31.981  1.00  0.00     0.074 A 
ATOM     41  C   UNL A   1      40.622  29.520  30.596  1.00  0.00     0.049 A 
ATOM     42  N   UNL A   1      42.297  29.284  33.080  1.00  0.00    -0.248 NA
ATOM     43  C   UNL A   1      43.553  27.631  32.014  1.00  0.00     0.031 C 
ATOM     44  C   UNL A   1      39.775  29.702  29.420  1.00  0.00     0.029 A 
ATOM     45  N   UNL A   1      40.147  30.448  31.496  1.00  0.00    -0.354 N 
ATOM     46  C   UNL A   1      43.304  28.849  33.936  1.00  0.00     0.074 A 
ATOM     47  C   UNL A   1      44.024  27.805  33.239  1.00  0.00     0.031 C 
ATOM     48  C   UNL A   1      38.876  30.671  29.674  1.00  0.00     0.029 A 
ATOM     49  C   UNL A   1      39.062  31.160  31.040  1.00  0.00     0.049 A 
ATOM     50  H   UNL A   1      40.547  30.588  32.384  1.00  0.00     0.167 HD
ATOM     51  C   UNL A   1      43.612  29.283  35.183  1.00  0.00     0.037 A 
ATOM     52  C   UNL A   1      38.292  32.084  31.657  1.00  0.00     0.037 A 
ATOM     53  C   UNL A   1      42.900  30.319  35.886  1.00  0.00     0.049 A 
ATOM     54  C   UNL A   1      38.607  32.500  33.076  1.00  0.00     0.074 A 
ATOM     55  C   UNL A   1      43.157  30.836  37.145  1.00  0.00     0.029 A 
ATOM     56  N   UNL A   1      41.786  30.988  35.402  1.00  0.00    -0.354 N 
ATOM     57  N   UNL A   1      39.582  32.101  33.858  1.00  0.00    -0.248 NA
ATOM     58  C   UNL A   1      37.717  33.495  33.693  1.00  0.00     0.031 C 
ATOM     59  C   UNL A   1      42.165  31.776  37.445  1.00  0.00     0.029 A 
ATOM     60  C   UNL A   1      41.327  31.891  36.349  1.00  0.00     0.049 A 
ATOM     61  H   UNL A   1      41.382  30.845  34.516  1.00  0.00     0.167 HD
ATOM     62  C   UNL A   1      39.437  32.815  35.045  1.00  0.00     0.074 A 
ATOM     63  C   UNL A   1      38.292  33.682  34.873  1.00  0.00     0.031 C 
ATOM     64  C   UNL A   1      40.186  32.757  36.176  1.00  0.00     0.037 A 
BRANCH  51  65
ATOM     65  C   UNL A   1      44.762  28.613  35.888  1.00  0.00     0.058 A 
ATOM     66  C   UNL A   1      46.077  29.097  35.788  1.00  0.00     0.135 A 
ATOM     67  C   UNL A   1      44.539  27.492  36.705  1.00  0.00     0.135 A 
ATOM     68  F   UNL A   1      46.351  30.155  35.008  1.00  0.00    -0.206 F 
ATOM     69  C   UNL A   1      47.132  28.478  36.451  1.00  0.00     0.059 A 
ATOM     70  C   UNL A   1      45.574  26.876  37.401  1.00  0.00     0.059 A 
ATOM     71  F   UNL A   1      43.303  26.986  36.835  1.00  0.00    -0.206 F 
ATOM     72  C   UNL A   1      46.871  27.368  37.257  1.00  0.00     0.060 A 
BRANCH  72  73
ATOM     73  S   UNL A   1      48.250  26.580  38.113  1.00  0.00     0.124 S 
ATOM     74  O   UNL A   1      47.637  25.338  38.572  1.00  0.00    -0.237 OA
ATOM     75  O   UNL A   1      49.239  26.443  37.049  1.00  0.00    -0.237 OA
ATOM     76  O   UNL A   1      48.590  27.536  39.163  1.00  0.00    -0.744 OA
ENDBRANCH  72  73
ENDBRANCH  51  65
BRANCH  52  77
ATOM     77  C   UNL A   1      37.125  32.683  30.947  1.00  0.00     0.058 A 
ATOM     78  C   UNL A   1      37.265  33.829  30.150  1.00  0.00     0.135 A 
ATOM     79  C   UNL A   1      35.840  32.130  31.070  1.00  0.00     0.135 A 
ATOM     80  F   UNL A   1      38.467  34.409  30.016  1.00  0.00    -0.206 F 
ATOM     81  C   UNL A   1      36.175  34.413  29.511  1.00  0.00     0.059 A 
ATOM     82  C   UNL A   1      34.740  32.679  30.417  1.00  0.00     0.059 A 
ATOM     83  F   UNL A   1      35.648  31.035  31.821  1.00  0.00    -0.206 F 
ATOM     84  C   UNL A   1      34.916  33.826  29.646  1.00  0.00     0.060 A 
BRANCH  84  85
ATOM     85  S   UNL A   1      33.520  34.559  28.764  1.00  0.00     0.124 S 
ATOM     86  O   UNL A   1      33.062  33.437  27.952  1.00  0.00    -0.237 OA
ATOM     87  O   UNL A   1      32.641  34.954  29.859  1.00  0.00    -0.237 OA
ATOM     88  O   UNL A   1      34.129  35.663  28.028  1.00  0.00    -0.744 OA
ENDBRANCH  84  85
ENDBRANCH  52  77
BRANCH  64  89
ATOM     89  C   UNL A   1      39.819  33.679  37.311  1.00  0.00     0.058 A 
ATOM     90  C   UNL A   1      38.922  33.294  38.321  1.00  0.00     0.135 A 
ATOM     91  C   UNL A   1      40.406  34.952  37.414  1.00  0.00     0.135 A 
ATOM     92  F   UNL A   1      38.328  32.090  38.274  1.00  0.00    -0.206 F 
ATOM     93  C   UNL A   1      38.593  34.149  39.369  1.00  0.00     0.059 A 
ATOM     94  C   UNL A   1      40.116  35.810  38.471  1.00  0.00     0.059 A 
ATOM     95  F   UNL A   1      41.282  35.369  36.487  1.00  0.00    -0.206 F 
ATOM     96  C   UNL A   1      39.196  35.406  39.437  1.00  0.00     0.060 A 
BRANCH  96  97
ATOM     97  S   UNL A   1      38.772  36.500  40.811  1.00  0.00     0.124 S 
ATOM     98  O   UNL A   1      40.065  36.659  41.469  1.00  0.00    -0.237 OA
ATOM     99  O   UNL A   1      38.261  37.680  40.123  1.00  0.00    -0.237 OA
ATOM    100  O   UNL A   1      37.778  35.737  41.558  1.00  0.00    -0.744 OA
ENDBRANCH  96  97
ENDBRANCH  64  89
ENDBRANCH  38  39
ENDBRANCH  31  33
ENDBRANCH  30  31
ENDBRANCH  29  30
ENDBRANCH  28  29
ENDBRANCH  27  28
ENDBRANCH   1  27
TORSDOF 23
ENDMDL
MODEL 3
REMARK VINA RESULT:     -10.1      6.264     12.307
REMARK SMILES COc1ccc(C(=O)N2CCC(C(=O)OCCOCCOCCOC(=O)c3ccc(-c4c5nc(c(-c6c(F)cc(S(=O)(=O)[O-])cc6F)c6ccc([nH]6)c(-c6c(F)cc(S(=O)(=O)[O-])cc6F)c6nc(c(-c7c(F)cc(S(=O)(=O)[O-])cc7F)c7ccc4[nH]7)C=C6)C=C5)cc3)CC2)c(OC)c1
REMARK SMILES IDX 20 1 19 2 18 3 17 4 16 5 15 6 13 7 14 8 12 9 7 10 8 11 9 12
REMARK SMILES IDX 10 13 94 14 11 15 93 16 6 17 3 18 4 19 98 20 5 21 95 22 2 23
REMARK SMILES IDX 1 24 96 25 97 26 21 27 22 28 23 29 24 30 25 31 26 32 27 33
REMARK SMILES IDX 28 34 92 35 29 36 91 37 30 38 31 39 32 40 85 41 33 42 90 43
REMARK SMILES IDX 84 44 86 45 34 46 89 47 83 48 82 49 35 51 69 52 48 53 68 54
REMARK SMILES IDX 49 55 52 56 67 57 87 58 50 59 51 60 66 62 88 63 53 64 36 65
REMARK SMILES IDX 37 66 46 67 38 68 39 69 45 70 47 71 40 72 41 73 42 74 43 75
REMARK SMILES IDX 44 76 70 77 71 78 80 79 72 80 73 81 79 82 81 83 74 84 75 85
REMARK SMILES IDX 76 86 77 87 78 88 54 89 55 90 64 91 56 92 57 93 63 94 65 95
REMARK SMILES IDX 58 96 59 97 60 98 61 99 62 100
REMARK H PARENT 86 50 52 61
REMARK Flexibility Score: inf
ROOT
ATOM      1  C   UNL A   1      34.045  33.342  28.210  1.00  0.00     0.188 C 
ENDROOT
BRANCH   1   2
ATOM      2  C   UNL A   1      32.727  32.921  27.562  1.00  0.00     0.188 C 
BRANCH   2   3
ATOM      3  O   UNL A   1      32.546  31.531  27.329  1.00  0.00    -0.376 OA
BRANCH   3   4
ATOM      4  C   UNL A   1      31.715  31.157  26.233  1.00  0.00     0.202 C 
BRANCH   4   5
ATOM      5  C   UNL A   1      31.647  29.666  25.871  1.00  0.00     0.261 C 
BRANCH   5   6
ATOM      6  O   UNL A   1      31.787  29.370  24.466  1.00  0.00    -0.463 OA
BRANCH   6   7
ATOM      7  C   UNL A   1      30.833  28.554  23.944  1.00  0.00     0.309 C 
ATOM      8  O   UNL A   1      29.812  28.945  23.387  1.00  0.00    -0.252 OA
BRANCH   7   9
ATOM      9  C   UNL A   1      31.132  27.073  24.087  1.00  0.00     0.103 C 
ATOM     10  C   UNL A   1      33.474  23.781  22.862  1.00  0.00     0.257 C 
ATOM     11  O   UNL A   1      33.333  23.514  21.666  1.00  0.00    -0.269 OA
ATOM     12  N   UNL A   1      32.636  24.679  23.511  1.00  0.00    -0.338 N 
ATOM     13  C   UNL A   1      31.245  24.743  23.094  1.00  0.00     0.120 C 
ATOM     14  C   UNL A   1      33.001  25.494  24.662  1.00  0.00     0.120 C 
ATOM     15  C   UNL A   1      30.757  26.175  22.903  1.00  0.00     0.037 C 
ATOM     16  C   UNL A   1      32.622  26.944  24.419  1.00  0.00     0.037 C 
BRANCH  10  17
ATOM     17  C   UNL A   1      34.547  23.058  23.604  1.00  0.00     0.082 A 
ATOM     18  C   UNL A   1      36.713  21.571  24.616  1.00  0.00     0.122 A 
ATOM     19  C   UNL A   1      36.944  22.697  23.830  1.00  0.00     0.047 A 
ATOM     20  C   UNL A   1      35.400  21.202  24.917  1.00  0.00     0.093 A 
ATOM     21  C   UNL A   1      35.871  23.432  23.320  1.00  0.00     0.021 A 
ATOM     22  C   UNL A   1      34.312  21.931  24.412  1.00  0.00     0.135 A 
BRANCH  18  23
ATOM     23  O   UNL A   1      37.835  20.901  25.022  1.00  0.00    -0.497 OA
ATOM     24  C   UNL A   1      38.743  21.636  25.839  1.00  0.00     0.278 C 
ENDBRANCH  18  23
BRANCH  22  25
ATOM     25  O   UNL A   1      33.024  21.497  24.591  1.00  0.00    -0.496 OA
ATOM     26  C   UNL A   1      32.674  20.276  23.940  1.00  0.00     0.278 C 
ENDBRANCH  22  25
ENDBRANCH  10  17
ENDBRANCH   7   9
ENDBRANCH   6   7
ENDBRANCH   5   6
ENDBRANCH   4   5
ENDBRANCH   3   4
ENDBRANCH   2   3
ENDBRANCH   1   2
BRANCH   1  27
ATOM     27  O   UNL A   1      33.952  33.997  29.464  1.00  0.00    -0.376 OA
BRANCH  27  28
ATOM     28  C   UNL A   1      34.636  33.365  30.551  1.00  0.00     0.202 C 
BRANCH  28  29
ATOM     29  C   UNL A   1      35.989  32.686  30.219  1.00  0.00     0.261 C 
BRANCH  29  30
ATOM     30  O   UNL A   1      35.965  31.257  29.988  1.00  0.00    -0.460 OA
BRANCH  30  31
ATOM     31  C   UNL A   1      36.615  30.465  30.875  1.00  0.00     0.338 C 
ATOM     32  O   UNL A   1      36.135  29.998  31.896  1.00  0.00    -0.246 OA
BRANCH  31  33
ATOM     33  C   UNL A   1      37.909  30.009  30.282  1.00  0.00     0.060 A 
ATOM     34  C   UNL A   1      38.901  29.536  31.155  1.00  0.00     0.016 A 
ATOM     35  C   UNL A   1      38.143  29.975  28.903  1.00  0.00     0.016 A 
ATOM     36  C   UNL A   1      40.134  29.085  30.665  1.00  0.00     0.010 A 
ATOM     37  C   UNL A   1      39.386  29.537  28.413  1.00  0.00     0.010 A 
ATOM     38  C   UNL A   1      40.406  29.122  29.291  1.00  0.00    -0.014 A 
BRANCH  38  39
ATOM     39  C   UNL A   1      41.800  28.909  28.799  1.00  0.00     0.031 A 
ATOM     40  C   UNL A   1      42.193  27.531  28.321  1.00  0.00     0.074 A 
ATOM     41  C   UNL A   1      42.705  29.906  28.738  1.00  0.00     0.049 A 
ATOM     42  N   UNL A   1      43.346  27.098  27.878  1.00  0.00    -0.248 NA
ATOM     43  C   UNL A   1      41.138  26.506  28.350  1.00  0.00     0.031 C 
ATOM     44  C   UNL A   1      42.465  31.294  29.125  1.00  0.00     0.029 A 
ATOM     45  N   UNL A   1      44.020  29.896  28.329  1.00  0.00    -0.354 N 
ATOM     46  C   UNL A   1      43.159  25.751  27.582  1.00  0.00     0.074 A 
ATOM     47  C   UNL A   1      41.790  25.433  27.927  1.00  0.00     0.031 C 
ATOM     48  C   UNL A   1      43.598  32.000  28.948  1.00  0.00     0.029 A 
ATOM     49  C   UNL A   1      44.654  31.110  28.463  1.00  0.00     0.049 A 
ATOM     50  H   UNL A   1      44.466  29.094  27.974  1.00  0.00     0.167 HD
ATOM     51  C   UNL A   1      44.039  24.861  27.063  1.00  0.00     0.037 A 
ATOM     52  C   UNL A   1      45.939  31.462  28.243  1.00  0.00     0.037 A 
ATOM     53  C   UNL A   1      45.403  25.168  26.719  1.00  0.00     0.049 A 
ATOM     54  C   UNL A   1      46.924  30.434  27.733  1.00  0.00     0.074 A 
ATOM     55  C   UNL A   1      46.359  24.331  26.167  1.00  0.00     0.029 A 
ATOM     56  N   UNL A   1      46.014  26.399  26.904  1.00  0.00    -0.354 N 
ATOM     57  N   UNL A   1      46.723  29.174  27.430  1.00  0.00    -0.248 NA
ATOM     58  C   UNL A   1      48.312  30.881  27.534  1.00  0.00     0.031 C 
ATOM     59  C   UNL A   1      47.562  25.040  26.072  1.00  0.00     0.029 A 
ATOM     60  C   UNL A   1      47.340  26.335  26.506  1.00  0.00     0.049 A 
ATOM     61  H   UNL A   1      45.570  27.201  27.265  1.00  0.00     0.167 HD
ATOM     62  C   UNL A   1      47.948  28.688  26.980  1.00  0.00     0.074 A 
ATOM     63  C   UNL A   1      48.881  29.792  27.035  1.00  0.00     0.031 C 
ATOM     64  C   UNL A   1      48.269  27.438  26.559  1.00  0.00     0.037 A 
BRANCH  51  65
ATOM     65  C   UNL A   1      43.558  23.449  26.856  1.00  0.00     0.058 A 
ATOM     66  C   UNL A   1      43.248  22.949  25.581  1.00  0.00     0.135 A 
ATOM     67  C   UNL A   1      43.443  22.571  27.948  1.00  0.00     0.135 A 
ATOM     68  F   UNL A   1      43.325  23.748  24.504  1.00  0.00    -0.206 F 
ATOM     69  C   UNL A   1      42.815  21.639  25.398  1.00  0.00     0.059 A 
ATOM     70  C   UNL A   1      43.040  21.249  27.785  1.00  0.00     0.059 A 
ATOM     71  F   UNL A   1      43.725  22.996  29.189  1.00  0.00    -0.206 F 
ATOM     72  C   UNL A   1      42.715  20.796  26.507  1.00  0.00     0.060 A 
BRANCH  72  73
ATOM     73  S   UNL A   1      42.156  19.099  26.252  1.00  0.00     0.124 S 
ATOM     74  O   UNL A   1      43.080  18.641  25.220  1.00  0.00    -0.237 OA
ATOM     75  O   UNL A   1      42.340  18.509  27.573  1.00  0.00    -0.237 OA
ATOM     76  O   UNL A   1      40.769  19.258  25.825  1.00  0.00    -0.744 OA
ENDBRANCH  72  73
ENDBRANCH  51  65
BRANCH  52  77
ATOM     77  C   UNL A   1      46.392  32.857  28.515  1.00  0.00     0.058 A 
ATOM     78  C   UNL A   1      46.378  33.837  27.511  1.00  0.00     0.135 A 
ATOM     79  C   UNL A   1      46.870  33.230  29.781  1.00  0.00     0.135 A 
ATOM     80  F   UNL A   1      45.952  33.528  26.277  1.00  0.00    -0.206 F 
ATOM     81  C   UNL A   1      46.830  35.133  27.747  1.00  0.00     0.059 A 
ATOM     82  C   UNL A   1      47.300  34.527  30.050  1.00  0.00     0.059 A 
ATOM     83  F   UNL A   1      46.907  32.332  30.777  1.00  0.00    -0.206 F 
ATOM     84  C   UNL A   1      47.284  35.470  29.024  1.00  0.00     0.060 A 
BRANCH  84  85
ATOM     85  S   UNL A   1      47.812  37.169  29.334  1.00  0.00     0.124 S 
ATOM     86  O   UNL A   1      47.735  37.751  27.998  1.00  0.00    -0.237 OA
ATOM     87  O   UNL A   1      46.809  37.630  30.289  1.00  0.00    -0.237 OA
ATOM     88  O   UNL A   1      49.158  37.010  29.877  1.00  0.00    -0.744 OA
ENDBRANCH  84  85
ENDBRANCH  52  77
BRANCH  64  89
ATOM     89  C   UNL A   1      49.682  27.196  26.089  1.00  0.00     0.058 A 
ATOM     90  C   UNL A   1      50.707  26.827  26.975  1.00  0.00     0.135 A 
ATOM     91  C   UNL A   1      50.005  27.294  24.725  1.00  0.00     0.135 A 
ATOM     92  F   UNL A   1      50.458  26.719  28.290  1.00  0.00    -0.206 F 
ATOM     93  C   UNL A   1      52.007  26.599  26.531  1.00  0.00     0.059 A 
ATOM     94  C   UNL A   1      51.291  27.039  24.255  1.00  0.00     0.059 A 
ATOM     95  F   UNL A   1      49.064  27.628  23.829  1.00  0.00    -0.206 F 
ATOM     96  C   UNL A   1      52.290  26.707  25.168  1.00  0.00     0.060 A 
BRANCH  96  97
ATOM     97  S   UNL A   1      53.977  26.393  24.605  1.00  0.00     0.124 S 
ATOM     98  O   UNL A   1      54.376  25.289  25.472  1.00  0.00    -0.237 OA
ATOM     99  O   UNL A   1      53.779  26.057  23.199  1.00  0.00    -0.237 OA
ATOM    100  O   UNL A   1      54.659  27.660  24.850  1.00  0.00    -0.744 OA
ENDBRANCH  96  97
ENDBRANCH  64  89
ENDBRANCH  38  39
ENDBRANCH  31  33
ENDBRANCH  30  31
ENDBRANCH  29  30
ENDBRANCH  28  29
ENDBRANCH  27  28
ENDBRANCH   1  27
TORSDOF 23
ENDMDL
