MODEL 1
REMARK VINA RESULT:     -13.0      0.000      0.000
REMARK SMILES Cc1ccc(C2=NN(C(=O)CCC(=O)OCCOCCOCCOC(=O)c3ccc(-c4c5nc(c(-c6c(F)cc(S(=O)(=O)[O-])cc6F)c6ccc([nH]6)c(-c6c(F)cc(S(=O)(=O)[O-])cc6F)c6nc(c(-c7c(F)cc(S(=O)(=O)[O-])cc7F)c7ccc4[nH]7)C=C6)C=C5)cc3)[C@H](C[C@@H]3C=c4cccc(C)c4=NC3=O)C2)cc1
REMARK SMILES IDX 19 1 18 2 17 3 16 4 15 5 13 6 14 7 12 8 11 9 9 10 10 11 8 12
REMARK SMILES IDX 6 13 7 14 107 15 93 16 5 17 1 18 2 19 3 20 109 21 4 22
REMARK SMILES IDX 108 23 94 24 95 25 96 26 105 27 97 28 104 29 106 30 98 31
REMARK SMILES IDX 103 32 99 33 101 34 100 35 102 36 20 37 21 38 22 39 23 40
REMARK SMILES IDX 24 41 25 42 26 43 27 44 28 45 92 46 29 47 91 48 30 49 31 50
REMARK SMILES IDX 32 51 85 52 33 53 90 54 84 55 86 56 34 57 89 58 83 59 82 60
REMARK SMILES IDX 35 62 69 63 48 64 68 65 49 66 52 67 67 68 87 69 50 70 51 71
REMARK SMILES IDX 66 73 88 74 53 75 36 76 37 77 46 78 38 79 39 80 45 81 47 82
REMARK SMILES IDX 40 83 41 84 42 85 43 86 44 87 70 88 71 89 80 90 72 91 73 92
REMARK SMILES IDX 79 93 81 94 74 95 75 96 76 97 77 98 78 99 54 100 55 101
REMARK SMILES IDX 64 102 56 103 57 104 63 105 65 106 58 107 59 108 60 109
REMARK SMILES IDX 61 110 62 111
REMARK H PARENT 86 61 52 72
REMARK Flexibility Score: inf
ROOT
ATOM      1  C   UNL A   1      33.778  20.667  25.988  1.00  0.00     0.188 C 
ENDROOT
BRANCH   1   2
ATOM      2  O   UNL A   1      32.782  21.704  25.684  1.00  0.00    -0.376 OA
BRANCH   2   3
ATOM      3  C   UNL A   1      32.313  22.780  26.537  1.00  0.00     0.202 C 
BRANCH   3   4
ATOM      4  C   UNL A   1      31.031  23.917  26.235  1.00  0.00     0.261 C 
BRANCH   4   5
ATOM      5  O   UNL A   1      30.469  24.517  24.845  1.00  0.00    -0.463 OA
BRANCH   5   6
ATOM      6  C   UNL A   1      29.806  25.686  24.994  1.00  0.00     0.306 C 
ATOM      7  O   UNL A   1      29.872  25.947  26.194  1.00  0.00    -0.252 OA
BRANCH   6   8
ATOM      8  C   UNL A   1      28.980  26.923  23.720  1.00  0.00     0.132 C 
BRANCH   8   9
ATOM      9  C   UNL A   1      29.257  28.401  23.620  1.00  0.00     0.114 C 
BRANCH   9  10
ATOM     10  C   UNL A   1      30.667  28.913  23.444  1.00  0.00     0.243 C 
ATOM     11  O   UNL A   1      30.795  29.580  22.400  1.00  0.00    -0.273 OA
BRANCH  10  12
ATOM     12  N   UNL A   1      31.775  28.664  24.284  1.00  0.00    -0.230 N 
ATOM     13  C   UNL A   1      33.172  27.102  24.751  1.00  0.00     0.070 C 
ATOM     14  N   UNL A   1      32.301  27.475  23.891  1.00  0.00    -0.174 NA
ATOM     15  C   UNL A   1      33.625  28.024  25.830  1.00  0.00     0.086 C 
ATOM     16  C   UNL A   1      32.480  28.999  25.770  1.00  0.00     0.118 C 
BRANCH  13  17
ATOM     17  C   UNL A   1      33.840  25.852  24.610  1.00  0.00    -0.002 A 
ATOM     18  C   UNL A   1      36.174  22.522  23.584  1.00  0.00     0.044 C 
ATOM     19  C   UNL A   1      35.361  23.710  23.975  1.00  0.00    -0.051 A 
ATOM     20  C   UNL A   1      34.460  24.222  23.029  1.00  0.00     0.004 A 
ATOM     21  C   UNL A   1      35.474  24.277  25.258  1.00  0.00     0.004 A 
ATOM     22  C   UNL A   1      33.673  25.294  23.355  1.00  0.00     0.010 A 
ATOM     23  C   UNL A   1      34.697  25.371  25.591  1.00  0.00     0.010 A 
ENDBRANCH  13  17
BRANCH  16  24
ATOM     24  C   UNL A   1      32.482  30.469  26.840  1.00  0.00     0.045 C 
BRANCH  24  25
ATOM     25  C   UNL A   1      33.838  31.729  27.406  1.00  0.00     0.106 C 
ATOM     26  C   UNL A   1      35.541  30.954  28.562  1.00  0.00    -0.003 C 
ATOM     27  C   UNL A   1      33.270  33.434  28.387  1.00  0.00     0.253 C 
ATOM     28  C   UNL A   1      35.873  31.406  29.915  1.00  0.00    -0.003 A 
ATOM     29  N   UNL A   1      34.041  33.698  29.953  1.00  0.00    -0.212 NA
ATOM     30  O   UNL A   1      32.440  34.249  28.013  1.00  0.00    -0.272 OA
ATOM     31  C   UNL A   1      36.390  30.401  30.834  1.00  0.00     0.010 A 
ATOM     32  C   UNL A   1      35.020  32.854  30.593  1.00  0.00     0.077 A 
ATOM     33  C   UNL A   1      36.308  30.569  32.153  1.00  0.00     0.001 A 
ATOM     34  C   UNL A   1      35.268  32.845  32.103  1.00  0.00    -0.025 A 
ATOM     35  C   UNL A   1      35.824  31.791  32.743  1.00  0.00     0.005 A 
ATOM     36  C   UNL A   1      34.662  33.953  32.885  1.00  0.00     0.047 C 
ENDBRANCH  24  25
ENDBRANCH  16  24
ENDBRANCH  10  12
ENDBRANCH   9  10
ENDBRANCH   8   9
ENDBRANCH   6   8
ENDBRANCH   5   6
ENDBRANCH   4   5
ENDBRANCH   3   4
ENDBRANCH   2   3
ENDBRANCH   1   2
BRANCH   1  37
ATOM     37  C   UNL A   1      34.485  19.553  25.069  1.00  0.00     0.188 C 
BRANCH  37  38
ATOM     38  O   UNL A   1      35.850  19.649  24.620  1.00  0.00    -0.376 OA
BRANCH  38  39
ATOM     39  C   UNL A   1      36.906  18.819  25.089  1.00  0.00     0.202 C 
BRANCH  39  40
ATOM     40  C   UNL A   1      38.182  19.401  24.555  1.00  0.00     0.261 C 
BRANCH  40  41
ATOM     41  O   UNL A   1      39.256  19.758  25.569  1.00  0.00    -0.460 OA
BRANCH  41  42
ATOM     42  C   UNL A   1      40.076  20.493  26.373  1.00  0.00     0.338 C 
ATOM     43  O   UNL A   1      41.177  19.981  26.584  1.00  0.00    -0.246 OA
BRANCH  42  44
ATOM     44  C   UNL A   1      39.811  22.062  26.953  1.00  0.00     0.060 A 
ATOM     45  C   UNL A   1      38.730  23.692  26.422  1.00  0.00     0.016 A 
ATOM     46  C   UNL A   1      41.053  22.356  27.953  1.00  0.00     0.016 A 
ATOM     47  C   UNL A   1      39.268  25.390  26.852  1.00  0.00     0.010 A 
ATOM     48  C   UNL A   1      41.387  24.131  28.144  1.00  0.00     0.010 A 
ATOM     49  C   UNL A   1      40.710  25.719  27.641  1.00  0.00    -0.014 A 
BRANCH  49  50
ATOM     50  C   UNL A   1      41.662  27.335  28.066  1.00  0.00     0.031 A 
ATOM     51  C   UNL A   1      41.109  28.881  29.086  1.00  0.00     0.074 A 
ATOM     52  C   UNL A   1      43.017  27.131  28.395  1.00  0.00     0.049 A 
ATOM     53  N   UNL A   1      41.655  30.061  29.351  1.00  0.00    -0.248 NA
ATOM     54  C   UNL A   1      39.732  29.167  30.022  1.00  0.00     0.031 C 
ATOM     55  C   UNL A   1      43.761  27.748  29.552  1.00  0.00     0.029 A 
ATOM     56  N   UNL A   1      43.971  26.147  28.045  1.00  0.00    -0.354 N 
ATOM     57  C   UNL A   1      40.784  30.735  30.374  1.00  0.00     0.074 A 
ATOM     58  C   UNL A   1      39.463  30.454  30.035  1.00  0.00     0.031 C 
ATOM     59  C   UNL A   1      45.053  27.355  29.597  1.00  0.00     0.029 A 
ATOM     60  C   UNL A   1      45.266  26.688  28.343  1.00  0.00     0.049 A 
ATOM     61  H   UNL A   1      43.782  25.258  27.668  1.00  0.00     0.167 HD
ATOM     62  C   UNL A   1      41.107  30.986  31.714  1.00  0.00     0.037 A 
ATOM     63  C   UNL A   1      46.019  27.242  27.341  1.00  0.00     0.037 A 
ATOM     64  C   UNL A   1      42.524  30.794  31.822  1.00  0.00     0.049 A 
ATOM     65  C   UNL A   1      46.033  28.773  27.469  1.00  0.00     0.074 A 
ATOM     66  C   UNL A   1      43.474  30.062  32.488  1.00  0.00     0.029 A 
ATOM     67  N   UNL A   1      43.178  31.383  30.784  1.00  0.00    -0.354 N 
ATOM     68  N   UNL A   1      45.113  29.446  28.121  1.00  0.00    -0.248 NA
ATOM     69  C   UNL A   1      47.159  29.634  27.113  1.00  0.00     0.031 C 
ATOM     70  C   UNL A   1      44.689  30.161  31.688  1.00  0.00     0.029 A 
ATOM     71  C   UNL A   1      44.444  30.972  30.582  1.00  0.00     0.049 A 
ATOM     72  H   UNL A   1      42.753  32.064  30.216  1.00  0.00     0.167 HD
ATOM     73  C   UNL A   1      45.557  30.699  28.425  1.00  0.00     0.074 A 
ATOM     74  C   UNL A   1      46.828  30.783  27.734  1.00  0.00     0.031 C 
ATOM     75  C   UNL A   1      45.042  31.543  29.374  1.00  0.00     0.037 A 
BRANCH  62  76
ATOM     76  C   UNL A   1      40.172  31.428  32.929  1.00  0.00     0.058 A 
ATOM     77  C   UNL A   1      40.012  30.528  34.011  1.00  0.00     0.135 A 
ATOM     78  C   UNL A   1      39.441  32.643  33.140  1.00  0.00     0.135 A 
ATOM     79  F   UNL A   1      40.548  29.301  33.951  1.00  0.00    -0.206 F 
ATOM     80  C   UNL A   1      39.309  30.820  35.201  1.00  0.00     0.059 A 
ATOM     81  C   UNL A   1      38.756  32.975  34.344  1.00  0.00     0.059 A 
ATOM     82  F   UNL A   1      39.290  33.557  32.171  1.00  0.00    -0.206 F 
ATOM     83  C   UNL A   1      38.712  32.060  35.384  1.00  0.00     0.060 A 
BRANCH  83  84
ATOM     84  S   UNL A   1      37.907  32.425  36.972  1.00  0.00     0.124 S 
ATOM     85  O   UNL A   1      38.918  33.225  37.656  1.00  0.00    -0.237 OA
ATOM     86  O   UNL A   1      36.711  33.147  36.553  1.00  0.00    -0.237 OA
ATOM     87  O   UNL A   1      37.663  31.107  37.553  1.00  0.00    -0.744 OA
ENDBRANCH  83  84
ENDBRANCH  62  76
BRANCH  63  88
ATOM     88  C   UNL A   1      45.940  26.314  26.162  1.00  0.00     0.058 A 
ATOM     89  C   UNL A   1      46.584  25.061  26.360  1.00  0.00     0.135 A 
ATOM     90  C   UNL A   1      44.759  26.305  25.400  1.00  0.00     0.135 A 
ATOM     91  F   UNL A   1      47.717  24.996  27.081  1.00  0.00    -0.206 F 
ATOM     92  C   UNL A   1      45.965  23.855  26.037  1.00  0.00     0.059 A 
ATOM     93  C   UNL A   1      44.130  25.098  25.062  1.00  0.00     0.059 A 
ATOM     94  F   UNL A   1      44.074  27.445  25.222  1.00  0.00    -0.206 F 
ATOM     95  C   UNL A   1      44.717  23.883  25.424  1.00  0.00     0.060 A 
BRANCH  95  96
ATOM     96  S   UNL A   1      43.838  22.311  25.258  1.00  0.00     0.124 S 
ATOM     97  O   UNL A   1      44.000  21.744  26.591  1.00  0.00    -0.237 OA
ATOM     98  O   UNL A   1      42.496  22.764  24.909  1.00  0.00    -0.237 OA
ATOM     99  O   UNL A   1      44.568  21.623  24.203  1.00  0.00    -0.744 OA
ENDBRANCH  95  96
ENDBRANCH  63  88
BRANCH  75 100
ATOM    100  C   UNL A   1      44.817  33.051  29.044  1.00  0.00     0.058 A 
ATOM    101  C   UNL A   1      45.179  34.084  29.920  1.00  0.00     0.135 A 
ATOM    102  C   UNL A   1      44.319  33.535  27.786  1.00  0.00     0.135 A 
ATOM    103  F   UNL A   1      45.856  33.861  31.052  1.00  0.00    -0.206 F 
ATOM    104  C   UNL A   1      44.893  35.423  29.669  1.00  0.00     0.059 A 
ATOM    105  C   UNL A   1      44.140  34.872  27.469  1.00  0.00     0.059 A 
ATOM    106  F   UNL A   1      43.997  32.750  26.750  1.00  0.00    -0.206 F 
ATOM    107  C   UNL A   1      44.353  35.805  28.450  1.00  0.00     0.060 A 
BRANCH 107 108
ATOM    108  S   UNL A   1      43.911  37.516  28.182  1.00  0.00     0.124 S 
ATOM    109  O   UNL A   1      44.817  38.187  29.109  1.00  0.00    -0.237 OA
ATOM    110  O   UNL A   1      44.208  37.688  26.765  1.00  0.00    -0.237 OA
ATOM    111  O   UNL A   1      42.497  37.567  28.537  1.00  0.00    -0.744 OA
ENDBRANCH 107 108
ENDBRANCH  75 100
ENDBRANCH  49  50
ENDBRANCH  42  44
ENDBRANCH  41  42
ENDBRANCH  40  41
ENDBRANCH  39  40
ENDBRANCH  38  39
ENDBRANCH  37  38
ENDBRANCH   1  37
TORSDOF 26
ENDMDL
MODEL 2
REMARK VINA RESULT:     -11.4      3.760      6.383
REMARK SMILES Cc1ccc(C2=NN(C(=O)CCC(=O)OCCOCCOCCOC(=O)c3ccc(-c4c5nc(c(-c6c(F)cc(S(=O)(=O)[O-])cc6F)c6ccc([nH]6)c(-c6c(F)cc(S(=O)(=O)[O-])cc6F)c6nc(c(-c7c(F)cc(S(=O)(=O)[O-])cc7F)c7ccc4[nH]7)C=C6)C=C5)cc3)[C@H](C[C@@H]3C=c4cccc(C)c4=NC3=O)C2)cc1
REMARK SMILES IDX 19 1 18 2 17 3 16 4 15 5 13 6 14 7 12 8 11 9 9 10 10 11 8 12
REMARK SMILES IDX 6 13 7 14 107 15 93 16 5 17 1 18 2 19 3 20 109 21 4 22
REMARK SMILES IDX 108 23 94 24 95 25 96 26 105 27 97 28 104 29 106 30 98 31
REMARK SMILES IDX 103 32 99 33 101 34 100 35 102 36 20 37 21 38 22 39 23 40
REMARK SMILES IDX 24 41 25 42 26 43 27 44 28 45 92 46 29 47 91 48 30 49 31 50
REMARK SMILES IDX 32 51 85 52 33 53 90 54 84 55 86 56 34 57 89 58 83 59 82 60
REMARK SMILES IDX 35 62 69 63 48 64 68 65 49 66 52 67 67 68 87 69 50 70 51 71
REMARK SMILES IDX 66 73 88 74 53 75 36 76 37 77 46 78 38 79 39 80 45 81 47 82
REMARK SMILES IDX 40 83 41 84 42 85 43 86 44 87 70 88 71 89 80 90 72 91 73 92
REMARK SMILES IDX 79 93 81 94 74 95 75 96 76 97 77 98 78 99 54 100 55 101
REMARK SMILES IDX 64 102 56 103 57 104 63 105 65 106 58 107 59 108 60 109
REMARK SMILES IDX 61 110 62 111
REMARK H PARENT 86 61 52 72
REMARK Flexibility Score: inf
ROOT
ATOM      1  C   UNL A   1      36.238  22.741  24.224  1.00  0.00     0.188 C 
ENDROOT
BRANCH   1   2
ATOM      2  O   UNL A   1      35.212  23.779  24.393  1.00  0.00    -0.376 OA
BRANCH   2   3
ATOM      3  C   UNL A   1      35.016  24.678  25.515  1.00  0.00     0.202 C 
BRANCH   3   4
ATOM      4  C   UNL A   1      33.981  26.074  25.613  1.00  0.00     0.261 C 
BRANCH   4   5
ATOM      5  O   UNL A   1      32.395  26.222  25.352  1.00  0.00    -0.463 OA
BRANCH   5   6
ATOM      6  C   UNL A   1      31.703  26.602  26.450  1.00  0.00     0.306 C 
ATOM      7  O   UNL A   1      30.973  25.651  26.720  1.00  0.00    -0.252 OA
BRANCH   6   8
ATOM      8  C   UNL A   1      31.785  28.189  27.595  1.00  0.00     0.132 C 
BRANCH   8   9
ATOM      9  C   UNL A   1      32.212  29.568  27.160  1.00  0.00     0.114 C 
BRANCH   9  10
ATOM     10  C   UNL A   1      33.654  29.861  26.819  1.00  0.00     0.243 C 
ATOM     11  O   UNL A   1      33.955  29.459  25.680  1.00  0.00    -0.273 OA
BRANCH  10  12
ATOM     12  N   UNL A   1      34.622  30.461  27.654  1.00  0.00    -0.230 N 
ATOM     13  C   UNL A   1      34.893  32.207  28.875  1.00  0.00     0.070 C 
ATOM     14  N   UNL A   1      34.009  31.504  28.271  1.00  0.00    -0.174 NA
ATOM     15  C   UNL A   1      36.294  31.720  29.011  1.00  0.00     0.086 C 
ATOM     16  C   UNL A   1      36.265  30.680  27.923  1.00  0.00     0.118 C 
BRANCH  13  17
ATOM     17  C   UNL A   1      34.525  33.400  29.559  1.00  0.00    -0.002 A 
ATOM     18  C   UNL A   1      32.701  36.704  31.389  1.00  0.00     0.044 C 
ATOM     19  C   UNL A   1      33.358  35.518  30.766  1.00  0.00    -0.051 A 
ATOM     20  C   UNL A   1      33.185  35.327  29.387  1.00  0.00     0.004 A 
ATOM     21  C   UNL A   1      34.145  34.638  31.532  1.00  0.00     0.004 A 
ATOM     22  C   UNL A   1      33.793  34.267  28.769  1.00  0.00     0.010 A 
ATOM     23  C   UNL A   1      34.748  33.555  30.921  1.00  0.00     0.010 A 
ENDBRANCH  13  17
BRANCH  16  24
ATOM     24  C   UNL A   1      37.721  29.633  27.627  1.00  0.00     0.045 C 
BRANCH  24  25
ATOM     25  C   UNL A   1      38.513  28.124  28.545  1.00  0.00     0.106 C 
ATOM     26  C   UNL A   1      38.889  28.319  30.704  1.00  0.00    -0.003 C 
ATOM     27  C   UNL A   1      40.216  27.276  27.789  1.00  0.00     0.253 C 
ATOM     28  C   UNL A   1      40.219  28.200  31.307  1.00  0.00    -0.003 A 
ATOM     29  N   UNL A   1      41.572  27.172  28.914  1.00  0.00    -0.212 NA
ATOM     30  O   UNL A   1      40.387  26.876  26.647  1.00  0.00    -0.272 OA
ATOM     31  C   UNL A   1      40.507  29.070  32.439  1.00  0.00     0.010 A 
ATOM     32  C   UNL A   1      41.597  27.606  30.290  1.00  0.00     0.077 A 
ATOM     33  C   UNL A   1      41.760  29.371  32.774  1.00  0.00     0.001 A 
ATOM     34  C   UNL A   1      42.882  27.957  31.041  1.00  0.00    -0.025 A 
ATOM     35  C   UNL A   1      42.895  28.764  32.126  1.00  0.00     0.005 A 
ATOM     36  C   UNL A   1      44.161  27.560  30.396  1.00  0.00     0.047 C 
ENDBRANCH  24  25
ENDBRANCH  16  24
ENDBRANCH  10  12
ENDBRANCH   9  10
ENDBRANCH   8   9
ENDBRANCH   6   8
ENDBRANCH   5   6
ENDBRANCH   4   5
ENDBRANCH   3   4
ENDBRANCH   2   3
ENDBRANCH   1   2
BRANCH   1  37
ATOM     37  C   UNL A   1      37.262  22.061  25.261  1.00  0.00     0.188 C 
BRANCH  37  38
ATOM     38  O   UNL A   1      37.998  20.858  24.971  1.00  0.00    -0.376 OA
BRANCH  38  39
ATOM     39  C   UNL A   1      39.106  20.396  25.733  1.00  0.00     0.202 C 
BRANCH  39  40
ATOM     40  C   UNL A   1      39.876  21.612  26.159  1.00  0.00     0.261 C 
BRANCH  40  41
ATOM     41  O   UNL A   1      41.269  21.786  25.579  1.00  0.00    -0.460 OA
BRANCH  41  42
ATOM     42  C   UNL A   1      42.621  21.705  25.429  1.00  0.00     0.338 C 
ATOM     43  O   UNL A   1      43.067  20.556  25.431  1.00  0.00    -0.246 OA
BRANCH  42  44
ATOM     44  C   UNL A   1      43.696  22.967  25.083  1.00  0.00     0.060 A 
ATOM     45  C   UNL A   1      45.693  23.204  24.824  1.00  0.00     0.016 A 
ATOM     46  C   UNL A   1      42.883  24.323  25.442  1.00  0.00     0.016 A 
ATOM     47  C   UNL A   1      46.534  24.786  25.205  1.00  0.00     0.010 A 
ATOM     48  C   UNL A   1      43.986  25.714  25.828  1.00  0.00     0.010 A 
ATOM     49  C   UNL A   1      45.739  26.112  25.854  1.00  0.00    -0.014 A 
BRANCH  49  50
ATOM     50  C   UNL A   1      46.317  27.811  26.542  1.00  0.00     0.031 A 
ATOM     51  C   UNL A   1      45.290  29.355  27.090  1.00  0.00     0.074 A 
ATOM     52  C   UNL A   1      47.384  27.725  27.460  1.00  0.00     0.049 A 
ATOM     53  N   UNL A   1      45.599  30.583  27.485  1.00  0.00    -0.248 NA
ATOM     54  C   UNL A   1      43.626  29.576  27.283  1.00  0.00     0.031 C 
ATOM     55  C   UNL A   1      47.492  28.446  28.779  1.00  0.00     0.029 A 
ATOM     56  N   UNL A   1      48.438  26.802  27.648  1.00  0.00    -0.354 N 
ATOM     57  C   UNL A   1      44.329  31.233  27.955  1.00  0.00     0.074 A 
ATOM     58  C   UNL A   1      43.319  30.839  27.080  1.00  0.00     0.031 C 
ATOM     59  C   UNL A   1      48.641  28.154  29.428  1.00  0.00     0.029 A 
ATOM     60  C   UNL A   1      49.430  27.451  28.457  1.00  0.00     0.049 A 
ATOM     61  H   UNL A   1      48.483  25.885  27.292  1.00  0.00     0.167 HD
ATOM     62  C   UNL A   1      43.996  31.565  29.275  1.00  0.00     0.037 A 
ATOM     63  C   UNL A   1      50.529  28.016  27.863  1.00  0.00     0.037 A 
ATOM     64  C   UNL A   1      45.218  31.486  30.021  1.00  0.00     0.049 A 
ATOM     65  C   UNL A   1      50.410  29.547  27.871  1.00  0.00     0.074 A 
ATOM     66  C   UNL A   1      45.796  30.857  31.095  1.00  0.00     0.029 A 
ATOM     67  N   UNL A   1      46.242  32.076  29.349  1.00  0.00    -0.354 N 
ATOM     68  N   UNL A   1      49.264  30.178  27.989  1.00  0.00    -0.248 NA
ATOM     69  C   UNL A   1      51.533  30.475  27.997  1.00  0.00     0.031 C 
ATOM     70  C   UNL A   1      47.235  31.013  30.922  1.00  0.00     0.029 A 
ATOM     71  C   UNL A   1      47.481  31.754  29.767  1.00  0.00     0.049 A 
ATOM     72  H   UNL A   1      46.089  32.698  28.602  1.00  0.00     0.167 HD
ATOM     73  C   UNL A   1      49.461  31.472  28.367  1.00  0.00     0.074 A 
ATOM     74  C   UNL A   1      50.903  31.621  28.318  1.00  0.00     0.031 C 
ATOM     75  C   UNL A   1      48.533  32.315  28.920  1.00  0.00     0.037 A 
BRANCH  62  76
ATOM     76  C   UNL A   1      42.592  31.988  29.904  1.00  0.00     0.058 A 
ATOM     77  C   UNL A   1      42.557  33.111  30.765  1.00  0.00     0.135 A 
ATOM     78  C   UNL A   1      41.290  31.415  29.729  1.00  0.00     0.135 A 
ATOM     79  F   UNL A   1      43.695  33.724  31.120  1.00  0.00    -0.206 F 
ATOM     80  C   UNL A   1      41.378  33.670  31.307  1.00  0.00     0.059 A 
ATOM     81  C   UNL A   1      40.083  31.980  30.234  1.00  0.00     0.059 A 
ATOM     82  F   UNL A   1      41.109  30.238  29.112  1.00  0.00    -0.206 F 
ATOM     83  C   UNL A   1      40.135  33.127  31.010  1.00  0.00     0.060 A 
BRANCH  83  84
ATOM     84  S   UNL A   1      38.642  33.942  31.649  1.00  0.00     0.124 S 
ATOM     85  O   UNL A   1      38.083  34.552  30.447  1.00  0.00    -0.237 OA
ATOM     86  O   UNL A   1      37.886  32.819  32.194  1.00  0.00    -0.237 OA
ATOM     87  O   UNL A   1      39.152  34.885  32.641  1.00  0.00    -0.744 OA
ENDBRANCH  83  84
ENDBRANCH  62  76
BRANCH  63  88
ATOM     88  C   UNL A   1      51.036  27.034  26.845  1.00  0.00     0.058 A 
ATOM     89  C   UNL A   1      51.115  27.551  25.522  1.00  0.00     0.135 A 
ATOM     90  C   UNL A   1      52.043  26.133  27.233  1.00  0.00     0.135 A 
ATOM     91  F   UNL A   1      50.186  28.420  25.085  1.00  0.00    -0.206 F 
ATOM     92  C   UNL A   1      52.249  27.380  24.730  1.00  0.00     0.059 A 
ATOM     93  C   UNL A   1      53.186  25.946  26.442  1.00  0.00     0.059 A 
ATOM     94  F   UNL A   1      52.057  25.650  28.486  1.00  0.00    -0.206 F 
ATOM     95  C   UNL A   1      53.299  26.608  25.217  1.00  0.00     0.060 A 
BRANCH  95  96
ATOM     96  S   UNL A   1      54.845  26.623  24.279  1.00  0.00     0.124 S 
ATOM     97  O   UNL A   1      55.458  27.861  24.745  1.00  0.00    -0.237 OA
ATOM     98  O   UNL A   1      55.471  25.385  24.730  1.00  0.00    -0.237 OA
ATOM     99  O   UNL A   1      54.401  26.639  22.893  1.00  0.00    -0.744 OA
ENDBRANCH  95  96
ENDBRANCH  63  88
BRANCH  75 100
ATOM    100  C   UNL A   1      48.411  33.787  28.414  1.00  0.00     0.058 A 
ATOM    101  C   UNL A   1      48.371  34.887  29.282  1.00  0.00     0.135 A 
ATOM    102  C   UNL A   1      48.430  34.167  27.029  1.00  0.00     0.135 A 
ATOM    103  F   UNL A   1      48.557  34.770  30.601  1.00  0.00    -0.206 F 
ATOM    104  C   UNL A   1      48.166  36.191  28.838  1.00  0.00     0.059 A 
ATOM    105  C   UNL A   1      48.351  35.471  26.567  1.00  0.00     0.059 A 
ATOM    106  F   UNL A   1      48.562  33.306  26.012  1.00  0.00    -0.206 F 
ATOM    107  C   UNL A   1      48.135  36.470  27.480  1.00  0.00     0.060 A 
BRANCH 107 108
ATOM    108  S   UNL A   1      47.783  38.135  26.932  1.00  0.00     0.124 S 
ATOM    109  O   UNL A   1      46.335  38.188  27.112  1.00  0.00    -0.237 OA
ATOM    110  O   UNL A   1      48.570  38.934  27.863  1.00  0.00    -0.237 OA
ATOM    111  O   UNL A   1      48.245  38.148  25.549  1.00  0.00    -0.744 OA
ENDBRANCH 107 108
ENDBRANCH  75 100
ENDBRANCH  49  50
ENDBRANCH  42  44
ENDBRANCH  41  42
ENDBRANCH  40  41
ENDBRANCH  39  40
ENDBRANCH  38  39
ENDBRANCH  37  38
ENDBRANCH   1  37
TORSDOF 26
ENDMDL
MODEL 3
REMARK VINA RESULT:     -10.1      4.460      7.230
REMARK SMILES Cc1ccc(C2=NN(C(=O)CCC(=O)OCCOCCOCCOC(=O)c3ccc(-c4c5nc(c(-c6c(F)cc(S(=O)(=O)[O-])cc6F)c6ccc([nH]6)c(-c6c(F)cc(S(=O)(=O)[O-])cc6F)c6nc(c(-c7c(F)cc(S(=O)(=O)[O-])cc7F)c7ccc4[nH]7)C=C6)C=C5)cc3)[C@H](C[C@@H]3C=c4cccc(C)c4=NC3=O)C2)cc1
REMARK SMILES IDX 19 1 18 2 17 3 16 4 15 5 13 6 14 7 12 8 11 9 9 10 10 11 8 12
REMARK SMILES IDX 6 13 7 14 107 15 93 16 5 17 1 18 2 19 3 20 109 21 4 22
REMARK SMILES IDX 108 23 94 24 95 25 96 26 105 27 97 28 104 29 106 30 98 31
REMARK SMILES IDX 103 32 99 33 101 34 100 35 102 36 20 37 21 38 22 39 23 40
REMARK SMILES IDX 24 41 25 42 26 43 27 44 28 45 92 46 29 47 91 48 30 49 31 50
REMARK SMILES IDX 32 51 85 52 33 53 90 54 84 55 86 56 34 57 89 58 83 59 82 60
REMARK SMILES IDX 35 62 69 63 48 64 68 65 49 66 52 67 67 68 87 69 50 70 51 71
REMARK SMILES IDX 66 73 88 74 53 75 36 76 37 77 46 78 38 79 39 80 45 81 47 82
REMARK SMILES IDX 40 83 41 84 42 85 43 86 44 87 70 88 71 89 80 90 72 91 73 92
REMARK SMILES IDX 79 93 81 94 74 95 75 96 76 97 77 98 78 99 54 100 55 101
REMARK SMILES IDX 64 102 56 103 57 104 63 105 65 106 58 107 59 108 60 109
REMARK SMILES IDX 61 110 62 111
REMARK H PARENT 86 61 52 72
REMARK Flexibility Score: inf
ROOT
ATOM      1  C   UNL A   1      36.310  22.955  24.254  1.00  0.00     0.188 C 
ENDROOT
BRANCH   1   2
ATOM      2  O   UNL A   1      35.408  24.114  24.204  1.00  0.00    -0.376 OA
BRANCH   2   3
ATOM      3  C   UNL A   1      34.854  24.872  25.310  1.00  0.00     0.202 C 
BRANCH   3   4
ATOM      4  C   UNL A   1      33.788  26.246  25.251  1.00  0.00     0.261 C 
BRANCH   4   5
ATOM      5  O   UNL A   1      32.175  26.319  25.202  1.00  0.00    -0.463 OA
BRANCH   5   6
ATOM      6  C   UNL A   1      31.616  26.642  26.391  1.00  0.00     0.306 C 
ATOM      7  O   UNL A   1      30.910  25.681  26.689  1.00  0.00    -0.252 OA
BRANCH   6   8
ATOM      8  C   UNL A   1      31.845  28.163  27.603  1.00  0.00     0.132 C 
BRANCH   8   9
ATOM      9  C   UNL A   1      32.167  29.577  27.192  1.00  0.00     0.114 C 
BRANCH   9  10
ATOM     10  C   UNL A   1      33.571  29.964  26.791  1.00  0.00     0.243 C 
ATOM     11  O   UNL A   1      33.819  29.665  25.608  1.00  0.00    -0.273 OA
BRANCH  10  12
ATOM     12  N   UNL A   1      34.562  30.547  27.613  1.00  0.00    -0.230 N 
ATOM     13  C   UNL A   1      34.856  32.253  28.883  1.00  0.00     0.070 C 
ATOM     14  N   UNL A   1      33.960  31.561  28.286  1.00  0.00    -0.174 NA
ATOM     15  C   UNL A   1      36.267  31.778  28.954  1.00  0.00     0.086 C 
ATOM     16  C   UNL A   1      36.210  30.776  27.833  1.00  0.00     0.118 C 
BRANCH  13  17
ATOM     17  C   UNL A   1      34.501  33.418  29.620  1.00  0.00    -0.002 A 
ATOM     18  C   UNL A   1      32.714  36.684  31.553  1.00  0.00     0.044 C 
ATOM     19  C   UNL A   1      33.356  35.509  30.893  1.00  0.00    -0.051 A 
ATOM     20  C   UNL A   1      33.254  35.411  29.497  1.00  0.00     0.004 A 
ATOM     21  C   UNL A   1      34.061  34.551  31.644  1.00  0.00     0.004 A 
ATOM     22  C   UNL A   1      33.851  34.364  28.847  1.00  0.00     0.010 A 
ATOM     23  C   UNL A   1      34.652  33.480  30.999  1.00  0.00     0.010 A 
ENDBRANCH  13  17
BRANCH  16  24
ATOM     24  C   UNL A   1      37.666  29.756  27.451  1.00  0.00     0.045 C 
BRANCH  24  25
ATOM     25  C   UNL A   1      38.546  28.271  28.327  1.00  0.00     0.106 C 
ATOM     26  C   UNL A   1      38.436  28.163  30.522  1.00  0.00    -0.003 C 
ATOM     27  C   UNL A   1      40.501  27.862  27.878  1.00  0.00     0.253 C 
ATOM     28  C   UNL A   1      39.615  28.172  31.392  1.00  0.00    -0.003 A 
ATOM     29  N   UNL A   1      41.598  27.802  29.260  1.00  0.00    -0.212 NA
ATOM     30  O   UNL A   1      40.974  27.693  26.764  1.00  0.00    -0.272 OA
ATOM     31  C   UNL A   1      39.489  28.876  32.660  1.00  0.00     0.010 A 
ATOM     32  C   UNL A   1      41.259  27.998  30.649  1.00  0.00     0.077 A 
ATOM     33  C   UNL A   1      40.563  29.325  33.308  1.00  0.00     0.001 A 
ATOM     34  C   UNL A   1      42.271  28.431  31.711  1.00  0.00    -0.025 A 
ATOM     35  C   UNL A   1      41.903  29.036  32.864  1.00  0.00     0.005 A 
ATOM     36  C   UNL A   1      43.705  28.370  31.329  1.00  0.00     0.047 C 
ENDBRANCH  24  25
ENDBRANCH  16  24
ENDBRANCH  10  12
ENDBRANCH   9  10
ENDBRANCH   8   9
ENDBRANCH   6   8
ENDBRANCH   5   6
ENDBRANCH   4   5
ENDBRANCH   3   4
ENDBRANCH   2   3
ENDBRANCH   1   2
BRANCH   1  37
ATOM     37  C   UNL A   1      37.340  22.441  25.377  1.00  0.00     0.188 C 
BRANCH  37  38
ATOM     38  O   UNL A   1      38.056  21.195  25.282  1.00  0.00    -0.376 OA
BRANCH  38  39
ATOM     39  C   UNL A   1      39.225  20.886  26.030  1.00  0.00     0.202 C 
BRANCH  39  40
ATOM     40  C   UNL A   1      40.018  22.155  26.137  1.00  0.00     0.261 C 
BRANCH  40  41
ATOM     41  O   UNL A   1      41.441  22.127  25.604  1.00  0.00    -0.460 OA
BRANCH  41  42
ATOM     42  C   UNL A   1      42.794  21.970  25.551  1.00  0.00     0.338 C 
ATOM     43  O   UNL A   1      43.189  20.842  25.852  1.00  0.00    -0.246 OA
BRANCH  42  44
ATOM     44  C   UNL A   1      43.937  23.077  24.971  1.00  0.00     0.060 A 
ATOM     45  C   UNL A   1      45.835  23.035  24.262  1.00  0.00     0.016 A 
ATOM     46  C   UNL A   1      43.435  24.521  25.511  1.00  0.00     0.016 A 
ATOM     47  C   UNL A   1      46.965  24.466  24.443  1.00  0.00     0.010 A 
ATOM     48  C   UNL A   1      44.790  25.725  25.638  1.00  0.00     0.010 A 
ATOM     49  C   UNL A   1      46.543  25.866  25.261  1.00  0.00    -0.014 A 
BRANCH  49  50
ATOM     50  C   UNL A   1      47.506  27.439  25.803  1.00  0.00     0.031 A 
ATOM     51  C   UNL A   1      47.105  28.742  27.174  1.00  0.00     0.074 A 
ATOM     52  C   UNL A   1      48.905  27.268  25.844  1.00  0.00     0.049 A 
ATOM     53  N   UNL A   1      47.654  29.889  27.553  1.00  0.00    -0.248 NA
ATOM     54  C   UNL A   1      45.918  28.768  28.375  1.00  0.00     0.031 C 
ATOM     55  C   UNL A   1      49.831  27.718  26.944  1.00  0.00     0.029 A 
ATOM     56  N   UNL A   1      49.807  26.426  25.154  1.00  0.00    -0.354 N 
ATOM     57  C   UNL A   1      46.968  30.314  28.820  1.00  0.00     0.074 A 
ATOM     58  C   UNL A   1      45.616  30.013  28.675  1.00  0.00     0.031 C 
ATOM     59  C   UNL A   1      51.121  27.408  26.686  1.00  0.00     0.029 A 
ATOM     60  C   UNL A   1      51.118  26.988  25.313  1.00  0.00     0.049 A 
ATOM     61  H   UNL A   1      49.579  25.607  24.658  1.00  0.00     0.167 HD
ATOM     62  C   UNL A   1      47.526  30.344  30.105  1.00  0.00     0.037 A 
ATOM     63  C   UNL A   1      51.654  27.758  24.314  1.00  0.00     0.037 A 
ATOM     64  C   UNL A   1      48.944  30.229  29.922  1.00  0.00     0.049 A 
ATOM     65  C   UNL A   1      51.644  29.239  24.719  1.00  0.00     0.074 A 
ATOM     66  C   UNL A   1      50.024  29.453  30.263  1.00  0.00     0.029 A 
ATOM     67  N   UNL A   1      49.375  31.032  28.913  1.00  0.00    -0.354 N 
ATOM     68  N   UNL A   1      50.840  29.726  25.637  1.00  0.00    -0.248 NA
ATOM     69  C   UNL A   1      52.656  30.221  24.335  1.00  0.00     0.031 C 
ATOM     70  C   UNL A   1      51.065  29.770  29.293  1.00  0.00     0.029 A 
ATOM     71  C   UNL A   1      50.593  30.747  28.417  1.00  0.00     0.049 A 
ATOM     72  H   UNL A   1      48.830  31.774  28.566  1.00  0.00     0.167 HD
ATOM     73  C   UNL A   1      51.294  30.932  26.085  1.00  0.00     0.074 A 
ATOM     74  C   UNL A   1      52.411  31.218  25.207  1.00  0.00     0.031 C 
ATOM     75  C   UNL A   1      50.938  31.559  27.250  1.00  0.00     0.037 A 
BRANCH  62  76
ATOM     76  C   UNL A   1      46.820  30.503  31.527  1.00  0.00     0.058 A 
ATOM     77  C   UNL A   1      45.989  31.630  31.737  1.00  0.00     0.135 A 
ATOM     78  C   UNL A   1      46.864  29.655  32.683  1.00  0.00     0.135 A 
ATOM     79  F   UNL A   1      45.896  32.583  30.800  1.00  0.00    -0.206 F 
ATOM     80  C   UNL A   1      45.213  31.849  32.898  1.00  0.00     0.059 A 
ATOM     81  C   UNL A   1      46.064  29.835  33.848  1.00  0.00     0.059 A 
ATOM     82  F   UNL A   1      47.730  28.637  32.782  1.00  0.00    -0.206 F 
ATOM     83  C   UNL A   1      45.221  30.931  33.939  1.00  0.00     0.060 A 
BRANCH  83  84
ATOM     84  S   UNL A   1      44.129  31.206  35.365  1.00  0.00     0.124 S 
ATOM     85  O   UNL A   1      43.141  32.135  34.826  1.00  0.00    -0.237 OA
ATOM     86  O   UNL A   1      43.641  29.860  35.644  1.00  0.00    -0.237 OA
ATOM     87  O   UNL A   1      45.014  31.767  36.383  1.00  0.00    -0.744 OA
ENDBRANCH  83  84
ENDBRANCH  62  76
BRANCH  63  88
ATOM     88  C   UNL A   1      51.385  27.049  23.016  1.00  0.00     0.058 A 
ATOM     89  C   UNL A   1      50.377  27.656  22.217  1.00  0.00     0.135 A 
ATOM     90  C   UNL A   1      52.471  26.472  22.335  1.00  0.00     0.135 A 
ATOM     91  F   UNL A   1      49.311  28.229  22.803  1.00  0.00    -0.206 F 
ATOM     92  C   UNL A   1      50.559  27.893  20.855  1.00  0.00     0.059 A 
ATOM     93  C   UNL A   1      52.662  26.697  20.964  1.00  0.00     0.059 A 
ATOM     94  F   UNL A   1      53.482  25.931  23.033  1.00  0.00    -0.206 F 
ATOM     95  C   UNL A   1      51.727  27.444  20.246  1.00  0.00     0.060 A 
BRANCH  95  96
ATOM     96  S   UNL A   1      52.041  27.994  18.551  1.00  0.00     0.124 S 
ATOM     97  O   UNL A   1      51.989  29.443  18.699  1.00  0.00    -0.237 OA
ATOM     98  O   UNL A   1      53.358  27.419  18.299  1.00  0.00    -0.237 OA
ATOM     99  O   UNL A   1      50.942  27.412  17.795  1.00  0.00    -0.744 OA
ENDBRANCH  95  96
ENDBRANCH  63  88
BRANCH  75 100
ATOM    100  C   UNL A   1      50.609  33.084  27.251  1.00  0.00     0.058 A 
ATOM    101  C   UNL A   1      49.440  33.610  26.682  1.00  0.00     0.135 A 
ATOM    102  C   UNL A   1      51.405  34.080  27.913  1.00  0.00     0.135 A 
ATOM    103  F   UNL A   1      48.462  32.833  26.205  1.00  0.00    -0.206 F 
ATOM    104  C   UNL A   1      49.191  34.977  26.596  1.00  0.00     0.059 A 
ATOM    105  C   UNL A   1      51.111  35.435  27.944  1.00  0.00     0.059 A 
ATOM    106  F   UNL A   1      52.516  33.816  28.611  1.00  0.00    -0.206 F 
ATOM    107  C   UNL A   1      50.043  35.882  27.211  1.00  0.00     0.060 A 
BRANCH 107 108
ATOM    108  S   UNL A   1      49.754  37.635  27.014  1.00  0.00     0.124 S 
ATOM    109  O   UNL A   1      48.736  37.635  25.968  1.00  0.00    -0.237 OA
ATOM    110  O   UNL A   1      49.299  38.019  28.345  1.00  0.00    -0.237 OA
ATOM    111  O   UNL A   1      51.057  38.159  26.622  1.00  0.00    -0.744 OA
ENDBRANCH 107 108
ENDBRANCH  75 100
ENDBRANCH  49  50
ENDBRANCH  42  44
ENDBRANCH  41  42
ENDBRANCH  40  41
ENDBRANCH  39  40
ENDBRANCH  38  39
ENDBRANCH  37  38
ENDBRANCH   1  37
TORSDOF 26
ENDMDL
