MODEL 1
REMARK VINA RESULT:     -10.3      0.000      0.000
REMARK SMILES CC[C@@H]1CCC[C@@](Cc2cccc(O)c2)(C(=O)OCCOCCOCCOC(=O)c2ccc(-c3c4nc(c(-c5c(F)cc(S(=O)(=O)[O-])cc5F)c5ccc([nH]5)c(-c5c(F)cc(S(=O)(=O)[O-])cc5F)c5nc(c(-c6c(F)cc(S(=O)(=O)[O-])cc6F)c6ccc3[nH]6)C=C5)C=C4)cc2)C1
REMARK SMILES IDX 22 1 21 2 20 3 19 4 18 5 16 6 17 7 7 8 3 9 4 10 96 11 5 12
REMARK SMILES IDX 6 13 2 14 1 15 8 16 9 17 10 18 15 19 11 20 13 21 12 22 14 23
REMARK SMILES IDX 23 25 24 26 25 27 26 28 27 29 28 30 29 31 30 32 31 33 95 34
REMARK SMILES IDX 32 35 94 36 33 37 34 38 35 39 88 40 36 41 93 42 87 43 89 44
REMARK SMILES IDX 37 45 92 46 86 47 85 48 38 50 72 51 51 52 71 53 52 54 55 55
REMARK SMILES IDX 70 56 90 57 53 58 54 59 69 61 91 62 56 63 39 64 40 65 49 66
REMARK SMILES IDX 41 67 42 68 48 69 50 70 43 71 44 72 45 73 46 74 47 75 73 76
REMARK SMILES IDX 74 77 83 78 75 79 76 80 82 81 84 82 77 83 78 84 79 85 80 86
REMARK SMILES IDX 81 87 57 88 58 89 67 90 59 91 60 92 66 93 68 94 61 95 62 96
REMARK SMILES IDX 63 97 64 98 65 99
REMARK H PARENT 14 24 89 49 55 60
REMARK Flexibility Score: inf
ROOT
ATOM      1  C   UNL A   1      39.926  21.858  26.137  1.00  0.00     0.188 C 
ENDROOT
BRANCH   1   2
ATOM      2  O   UNL A   1      38.533  21.573  26.155  1.00  0.00    -0.376 OA
BRANCH   2   3
ATOM      3  C   UNL A   1      37.928  21.000  25.005  1.00  0.00     0.202 C 
BRANCH   3   4
ATOM      4  C   UNL A   1      36.409  20.789  25.009  1.00  0.00     0.261 C 
BRANCH   4   5
ATOM      5  O   UNL A   1      35.586  21.979  24.926  1.00  0.00    -0.463 OA
BRANCH   5   6
ATOM      6  C   UNL A   1      34.425  21.954  25.639  1.00  0.00     0.312 C 
ATOM      7  O   UNL A   1      34.401  21.711  26.843  1.00  0.00    -0.252 OA
BRANCH   6   8
ATOM      8  C   UNL A   1      33.120  22.117  24.809  1.00  0.00     0.072 C 
ATOM      9  C   UNL A   1      33.029  24.686  24.827  1.00  0.00    -0.010 C 
ATOM     10  C   UNL A   1      32.737  24.754  23.326  1.00  0.00     0.003 C 
ATOM     11  C   UNL A   1      32.403  23.389  25.362  1.00  0.00     0.022 C 
ATOM     12  C   UNL A   1      33.331  23.578  22.571  1.00  0.00     0.001 C 
ATOM     13  C   UNL A   1      33.211  22.207  23.255  1.00  0.00     0.019 C 
BRANCH   9  14
ATOM     14  C   UNL A   1      32.562  25.993  25.506  1.00  0.00     0.000 C 
ATOM     15  C   UNL A   1      33.633  27.030  25.792  1.00  0.00     0.004 C 
ENDBRANCH   9  14
BRANCH   8  16
ATOM     16  C   UNL A   1      32.255  20.865  25.203  1.00  0.00     0.054 C 
BRANCH  16  17
ATOM     17  C   UNL A   1      32.633  19.570  24.505  1.00  0.00    -0.043 A 
ATOM     18  C   UNL A   1      33.652  18.751  25.007  1.00  0.00     0.004 A 
ATOM     19  C   UNL A   1      32.008  19.198  23.306  1.00  0.00     0.049 A 
ATOM     20  C   UNL A   1      34.112  17.651  24.281  1.00  0.00     0.004 A 
ATOM     21  C   UNL A   1      32.443  18.075  22.609  1.00  0.00     0.115 A 
ATOM     22  C   UNL A   1      33.511  17.315  23.071  1.00  0.00     0.046 A 
BRANCH  21  23
ATOM     23  O   UNL A   1      31.796  17.754  21.451  1.00  0.00    -0.508 OA
ATOM     24  H   UNL A   1      31.047  17.192  21.474  1.00  0.00     0.293 HD
ENDBRANCH  21  23
ENDBRANCH  16  17
ENDBRANCH   8  16
ENDBRANCH   6   8
ENDBRANCH   5   6
ENDBRANCH   4   5
ENDBRANCH   3   4
ENDBRANCH   2   3
ENDBRANCH   1   2
BRANCH   1  25
ATOM     25  C   UNL A   1      40.790  21.381  27.309  1.00  0.00     0.188 C 
BRANCH  25  26
ATOM     26  O   UNL A   1      41.485  22.412  27.983  1.00  0.00    -0.376 OA
BRANCH  26  27
ATOM     27  C   UNL A   1      42.859  22.553  27.676  1.00  0.00     0.202 C 
BRANCH  27  28
ATOM     28  C   UNL A   1      43.126  23.264  26.343  1.00  0.00     0.261 C 
BRANCH  28  29
ATOM     29  O   UNL A   1      42.311  24.427  26.095  1.00  0.00    -0.460 OA
BRANCH  29  30
ATOM     30  C   UNL A   1      42.944  25.621  26.078  1.00  0.00     0.338 C 
ATOM     31  O   UNL A   1      43.640  26.063  25.171  1.00  0.00    -0.246 OA
BRANCH  30  32
ATOM     32  C   UNL A   1      42.467  26.423  27.227  1.00  0.00     0.060 A 
ATOM     33  C   UNL A   1      43.105  27.640  27.500  1.00  0.00     0.016 A 
ATOM     34  C   UNL A   1      41.405  25.997  28.027  1.00  0.00     0.016 A 
ATOM     35  C   UNL A   1      42.692  28.427  28.577  1.00  0.00     0.010 A 
ATOM     36  C   UNL A   1      41.008  26.777  29.122  1.00  0.00     0.010 A 
ATOM     37  C   UNL A   1      41.657  27.992  29.413  1.00  0.00    -0.014 A 
BRANCH  37  38
ATOM     38  C   UNL A   1      41.388  28.709  30.688  1.00  0.00     0.031 A 
ATOM     39  C   UNL A   1      40.240  29.682  30.726  1.00  0.00     0.074 A 
ATOM     40  C   UNL A   1      42.108  28.481  31.803  1.00  0.00     0.049 A 
ATOM     41  N   UNL A   1      39.868  30.493  31.682  1.00  0.00    -0.248 NA
ATOM     42  C   UNL A   1      39.395  29.741  29.523  1.00  0.00     0.031 C 
ATOM     43  C   UNL A   1      43.187  27.506  31.930  1.00  0.00     0.029 A 
ATOM     44  N   UNL A   1      42.036  29.063  33.048  1.00  0.00    -0.354 N 
ATOM     45  C   UNL A   1      38.761  31.173  31.190  1.00  0.00     0.074 A 
ATOM     46  C   UNL A   1      38.522  30.681  29.851  1.00  0.00     0.031 C 
ATOM     47  C   UNL A   1      43.684  27.562  33.180  1.00  0.00     0.029 A 
ATOM     48  C   UNL A   1      42.995  28.615  33.926  1.00  0.00     0.049 A 
ATOM     49  H   UNL A   1      41.360  29.738  33.287  1.00  0.00     0.167 HD
ATOM     50  C   UNL A   1      38.018  32.130  31.795  1.00  0.00     0.037 A 
ATOM     51  C   UNL A   1      43.308  29.035  35.172  1.00  0.00     0.037 A 
ATOM     52  C   UNL A   1      38.260  32.621  33.126  1.00  0.00     0.049 A 
ATOM     53  C   UNL A   1      42.521  30.168  35.792  1.00  0.00     0.074 A 
ATOM     54  C   UNL A   1      37.570  33.603  33.816  1.00  0.00     0.029 A 
ATOM     55  N   UNL A   1      39.270  32.176  33.966  1.00  0.00    -0.354 N 
ATOM     56  N   UNL A   1      41.493  30.824  35.307  1.00  0.00    -0.248 NA
ATOM     57  C   UNL A   1      42.945  30.627  37.123  1.00  0.00     0.031 C 
ATOM     58  C   UNL A   1      38.198  33.790  35.052  1.00  0.00     0.029 A 
ATOM     59  C   UNL A   1      39.237  32.880  35.158  1.00  0.00     0.049 A 
ATOM     60  H   UNL A   1      39.913  31.463  33.747  1.00  0.00     0.167 HD
ATOM     61  C   UNL A   1      41.132  31.749  36.284  1.00  0.00     0.074 A 
ATOM     62  C   UNL A   1      42.044  31.561  37.392  1.00  0.00     0.031 C 
ATOM     63  C   UNL A   1      40.138  32.672  36.264  1.00  0.00     0.037 A 
BRANCH  50  64
ATOM     64  C   UNL A   1      36.907  32.753  30.998  1.00  0.00     0.058 A 
ATOM     65  C   UNL A   1      37.154  33.657  29.954  1.00  0.00     0.135 A 
ATOM     66  C   UNL A   1      35.571  32.413  31.270  1.00  0.00     0.135 A 
ATOM     67  F   UNL A   1      38.410  34.037  29.669  1.00  0.00    -0.206 F 
ATOM     68  C   UNL A   1      36.113  34.217  29.219  1.00  0.00     0.059 A 
ATOM     69  C   UNL A   1      34.518  32.938  30.530  1.00  0.00     0.059 A 
ATOM     70  F   UNL A   1      35.280  31.559  32.263  1.00  0.00    -0.206 F 
ATOM     71  C   UNL A   1      34.799  33.850  29.513  1.00  0.00     0.060 A 
BRANCH  71  72
ATOM     72  S   UNL A   1      33.461  34.575  28.543  1.00  0.00     0.124 S 
ATOM     73  O   UNL A   1      32.544  35.011  29.592  1.00  0.00    -0.237 OA
ATOM     74  O   UNL A   1      34.145  35.641  27.818  1.00  0.00    -0.237 OA
ATOM     75  O   UNL A   1      32.992  33.463  27.723  1.00  0.00    -0.744 OA
ENDBRANCH  71  72
ENDBRANCH  50  64
BRANCH  51  76
ATOM     76  C   UNL A   1      44.455  28.430  35.910  1.00  0.00     0.058 A 
ATOM     77  C   UNL A   1      44.270  27.378  36.819  1.00  0.00     0.135 A 
ATOM     78  C   UNL A   1      45.759  28.929  35.753  1.00  0.00     0.135 A 
ATOM     79  F   UNL A   1      43.042  26.876  37.024  1.00  0.00    -0.206 F 
ATOM     80  C   UNL A   1      45.328  26.857  37.562  1.00  0.00     0.059 A 
ATOM     81  C   UNL A   1      46.837  28.404  36.460  1.00  0.00     0.059 A 
ATOM     82  F   UNL A   1      45.996  29.937  34.899  1.00  0.00    -0.206 F 
ATOM     83  C   UNL A   1      46.608  27.377  37.374  1.00  0.00     0.060 A 
BRANCH  83  84
ATOM     84  S   UNL A   1      47.979  26.680  38.323  1.00  0.00     0.124 S 
ATOM     85  O   UNL A   1      48.274  25.468  37.566  1.00  0.00    -0.237 OA
ATOM     86  O   UNL A   1      48.978  27.741  38.244  1.00  0.00    -0.237 OA
ATOM     87  O   UNL A   1      47.400  26.471  39.647  1.00  0.00    -0.744 OA
ENDBRANCH  83  84
ENDBRANCH  51  76
BRANCH  63  88
ATOM     88  C   UNL A   1      39.939  33.523  37.492  1.00  0.00     0.058 A 
ATOM     89  C   UNL A   1      40.590  34.754  37.659  1.00  0.00     0.135 A 
ATOM     90  C   UNL A   1      39.022  33.130  38.483  1.00  0.00     0.135 A 
ATOM     91  F   UNL A   1      41.478  35.179  36.745  1.00  0.00    -0.206 F 
ATOM     92  C   UNL A   1      40.356  35.557  38.773  1.00  0.00     0.059 A 
ATOM     93  C   UNL A   1      38.750  33.929  39.589  1.00  0.00     0.059 A 
ATOM     94  F   UNL A   1      38.361  31.967  38.369  1.00  0.00    -0.206 F 
ATOM     95  C   UNL A   1      39.430  35.137  39.730  1.00  0.00     0.060 A 
BRANCH  95  96
ATOM     96  S   UNL A   1      39.104  36.207  41.149  1.00  0.00     0.124 S 
ATOM     97  O   UNL A   1      38.998  37.517  40.512  1.00  0.00    -0.237 OA
ATOM     98  O   UNL A   1      37.859  35.655  41.675  1.00  0.00    -0.237 OA
ATOM     99  O   UNL A   1      40.277  36.015  41.997  1.00  0.00    -0.744 OA
ENDBRANCH  95  96
ENDBRANCH  63  88
ENDBRANCH  37  38
ENDBRANCH  30  32
ENDBRANCH  29  30
ENDBRANCH  28  29
ENDBRANCH  27  28
ENDBRANCH  26  27
ENDBRANCH  25  26
ENDBRANCH   1  25
TORSDOF 24
ENDMDL
MODEL 2
REMARK VINA RESULT:     -10.2      2.569      9.641
REMARK SMILES CC[C@@H]1CCC[C@@](Cc2cccc(O)c2)(C(=O)OCCOCCOCCOC(=O)c2ccc(-c3c4nc(c(-c5c(F)cc(S(=O)(=O)[O-])cc5F)c5ccc([nH]5)c(-c5c(F)cc(S(=O)(=O)[O-])cc5F)c5nc(c(-c6c(F)cc(S(=O)(=O)[O-])cc6F)c6ccc3[nH]6)C=C5)C=C4)cc2)C1
REMARK SMILES IDX 22 1 21 2 20 3 19 4 18 5 16 6 17 7 7 8 3 9 4 10 96 11 5 12
REMARK SMILES IDX 6 13 2 14 1 15 8 16 9 17 10 18 15 19 11 20 13 21 12 22 14 23
REMARK SMILES IDX 23 25 24 26 25 27 26 28 27 29 28 30 29 31 30 32 31 33 95 34
REMARK SMILES IDX 32 35 94 36 33 37 34 38 35 39 88 40 36 41 93 42 87 43 89 44
REMARK SMILES IDX 37 45 92 46 86 47 85 48 38 50 72 51 51 52 71 53 52 54 55 55
REMARK SMILES IDX 70 56 90 57 53 58 54 59 69 61 91 62 56 63 39 64 40 65 49 66
REMARK SMILES IDX 41 67 42 68 48 69 50 70 43 71 44 72 45 73 46 74 47 75 73 76
REMARK SMILES IDX 74 77 83 78 75 79 76 80 82 81 84 82 77 83 78 84 79 85 80 86
REMARK SMILES IDX 81 87 57 88 58 89 67 90 59 91 60 92 66 93 68 94 61 95 62 96
REMARK SMILES IDX 63 97 64 98 65 99
REMARK H PARENT 14 24 89 49 55 60
REMARK Flexibility Score: inf
ROOT
ATOM      1  C   UNL A   1      35.188  32.253  27.973  1.00  0.00     0.188 C 
ENDROOT
BRANCH   1   2
ATOM      2  O   UNL A   1      34.732  30.948  27.639  1.00  0.00    -0.376 OA
BRANCH   2   3
ATOM      3  C   UNL A   1      33.366  30.754  27.304  1.00  0.00     0.202 C 
BRANCH   3   4
ATOM      4  C   UNL A   1      33.031  29.990  26.018  1.00  0.00     0.261 C 
BRANCH   4   5
ATOM      5  O   UNL A   1      33.160  28.548  26.064  1.00  0.00    -0.463 OA
BRANCH   5   6
ATOM      6  C   UNL A   1      33.635  27.953  24.934  1.00  0.00     0.312 C 
ATOM      7  O   UNL A   1      34.323  28.559  24.115  1.00  0.00    -0.252 OA
BRANCH   6   8
ATOM      8  C   UNL A   1      33.141  26.501  24.677  1.00  0.00     0.072 C 
ATOM      9  C   UNL A   1      31.074  27.094  23.267  1.00  0.00    -0.010 C 
ATOM     10  C   UNL A   1      31.409  26.038  22.211  1.00  0.00     0.003 C 
ATOM     11  C   UNL A   1      31.583  26.571  24.620  1.00  0.00     0.022 C 
ATOM     12  C   UNL A   1      32.902  25.783  22.106  1.00  0.00     0.001 C 
ATOM     13  C   UNL A   1      33.672  25.723  23.435  1.00  0.00     0.019 C 
BRANCH   9  14
ATOM     14  C   UNL A   1      29.571  27.439  23.196  1.00  0.00     0.000 C 
ATOM     15  C   UNL A   1      28.627  26.521  23.951  1.00  0.00     0.004 C 
ENDBRANCH   9  14
BRANCH   8  16
ATOM     16  C   UNL A   1      33.542  25.723  25.983  1.00  0.00     0.054 C 
BRANCH  16  17
ATOM     17  C   UNL A   1      33.940  24.271  25.776  1.00  0.00    -0.043 A 
ATOM     18  C   UNL A   1      32.988  23.304  25.432  1.00  0.00     0.004 A 
ATOM     19  C   UNL A   1      35.264  23.859  25.984  1.00  0.00     0.049 A 
ATOM     20  C   UNL A   1      33.320  21.949  25.405  1.00  0.00     0.004 A 
ATOM     21  C   UNL A   1      35.597  22.510  25.913  1.00  0.00     0.115 A 
ATOM     22  C   UNL A   1      34.629  21.547  25.654  1.00  0.00     0.046 A 
BRANCH  21  23
ATOM     23  O   UNL A   1      36.901  22.165  26.117  1.00  0.00    -0.508 OA
ATOM     24  H   UNL A   1      37.303  22.323  26.948  1.00  0.00     0.293 HD
ENDBRANCH  21  23
ENDBRANCH  16  17
ENDBRANCH   8  16
ENDBRANCH   6   8
ENDBRANCH   5   6
ENDBRANCH   4   5
ENDBRANCH   3   4
ENDBRANCH   2   3
ENDBRANCH   1   2
BRANCH   1  25
ATOM     25  C   UNL A   1      34.589  32.949  29.201  1.00  0.00     0.188 C 
BRANCH  25  26
ATOM     26  O   UNL A   1      34.470  34.353  29.078  1.00  0.00    -0.376 OA
BRANCH  26  27
ATOM     27  C   UNL A   1      33.162  34.862  28.901  1.00  0.00     0.202 C 
BRANCH  27  28
ATOM     28  C   UNL A   1      32.809  36.011  29.855  1.00  0.00     0.261 C 
BRANCH  28  29
ATOM     29  O   UNL A   1      32.131  35.617  31.064  1.00  0.00    -0.460 OA
BRANCH  29  30
ATOM     30  C   UNL A   1      32.718  35.966  32.231  1.00  0.00     0.338 C 
ATOM     31  O   UNL A   1      32.243  36.695  33.095  1.00  0.00    -0.246 OA
BRANCH  30  32
ATOM     32  C   UNL A   1      33.926  35.133  32.418  1.00  0.00     0.060 A 
ATOM     33  C   UNL A   1      33.761  33.799  32.815  1.00  0.00     0.016 A 
ATOM     34  C   UNL A   1      35.208  35.643  32.206  1.00  0.00     0.016 A 
ATOM     35  C   UNL A   1      34.873  32.978  33.010  1.00  0.00     0.010 A 
ATOM     36  C   UNL A   1      36.325  34.823  32.425  1.00  0.00     0.010 A 
ATOM     37  C   UNL A   1      36.166  33.488  32.841  1.00  0.00    -0.014 A 
BRANCH  37  38
ATOM     38  C   UNL A   1      37.338  32.686  33.282  1.00  0.00     0.031 A 
ATOM     39  C   UNL A   1      37.966  33.019  34.609  1.00  0.00     0.074 A 
ATOM     40  C   UNL A   1      37.818  31.659  32.555  1.00  0.00     0.049 A 
ATOM     41  N   UNL A   1      39.046  32.532  35.163  1.00  0.00    -0.248 NA
ATOM     42  C   UNL A   1      37.276  34.033  35.421  1.00  0.00     0.031 C 
ATOM     43  C   UNL A   1      37.253  31.175  31.297  1.00  0.00     0.029 A 
ATOM     44  N   UNL A   1      38.898  30.836  32.774  1.00  0.00    -0.354 N 
ATOM     45  C   UNL A   1      39.178  33.195  36.377  1.00  0.00     0.074 A 
ATOM     46  C   UNL A   1      38.068  34.118  36.479  1.00  0.00     0.031 C 
ATOM     47  C   UNL A   1      37.997  30.146  30.851  1.00  0.00     0.029 A 
ATOM     48  C   UNL A   1      39.122  29.933  31.761  1.00  0.00     0.049 A 
ATOM     49  H   UNL A   1      39.459  30.890  33.581  1.00  0.00     0.167 HD
ATOM     50  C   UNL A   1      40.142  33.056  37.317  1.00  0.00     0.037 A 
ATOM     51  C   UNL A   1      40.139  29.063  31.570  1.00  0.00     0.037 A 
ATOM     52  C   UNL A   1      41.247  32.140  37.213  1.00  0.00     0.049 A 
ATOM     53  C   UNL A   1      41.253  28.991  32.590  1.00  0.00     0.074 A 
ATOM     54  C   UNL A   1      42.285  31.942  38.108  1.00  0.00     0.029 A 
ATOM     55  N   UNL A   1      41.465  31.275  36.150  1.00  0.00    -0.354 N 
ATOM     56  N   UNL A   1      41.382  29.641  33.723  1.00  0.00    -0.248 NA
ATOM     57  C   UNL A   1      42.367  28.074  32.301  1.00  0.00     0.031 C 
ATOM     58  C   UNL A   1      43.159  30.997  37.560  1.00  0.00     0.029 A 
ATOM     59  C   UNL A   1      42.633  30.560  36.356  1.00  0.00     0.049 A 
ATOM     60  H   UNL A   1      40.875  31.184  35.367  1.00  0.00     0.167 HD
ATOM     61  C   UNL A   1      42.573  29.193  34.290  1.00  0.00     0.074 A 
ATOM     62  C   UNL A   1      43.120  28.206  33.384  1.00  0.00     0.031 C 
ATOM     63  C   UNL A   1      43.160  29.565  35.455  1.00  0.00     0.037 A 
BRANCH  50  64
ATOM     64  C   UNL A   1      40.078  33.958  38.517  1.00  0.00     0.058 A 
ATOM     65  C   UNL A   1      39.330  33.630  39.658  1.00  0.00     0.135 A 
ATOM     66  C   UNL A   1      40.805  35.160  38.532  1.00  0.00     0.135 A 
ATOM     67  F   UNL A   1      38.596  32.506  39.687  1.00  0.00    -0.206 F 
ATOM     68  C   UNL A   1      39.291  34.472  40.765  1.00  0.00     0.059 A 
ATOM     69  C   UNL A   1      40.803  36.002  39.637  1.00  0.00     0.059 A 
ATOM     70  F   UNL A   1      41.530  35.525  37.462  1.00  0.00    -0.206 F 
ATOM     71  C   UNL A   1      40.032  35.656  40.746  1.00  0.00     0.060 A 
BRANCH  71  72
ATOM     72  S   UNL A   1      39.980  36.731  42.194  1.00  0.00     0.124 S 
ATOM     73  O   UNL A   1      41.388  36.768  42.579  1.00  0.00    -0.237 OA
ATOM     74  O   UNL A   1      39.443  37.971  41.642  1.00  0.00    -0.237 OA
ATOM     75  O   UNL A   1      39.097  36.023  43.114  1.00  0.00    -0.744 OA
ENDBRANCH  71  72
ENDBRANCH  50  64
BRANCH  51  76
ATOM     76  C   UNL A   1      40.198  28.224  30.338  1.00  0.00     0.058 A 
ATOM     77  C   UNL A   1      39.417  27.067  30.200  1.00  0.00     0.135 A 
ATOM     78  C   UNL A   1      41.077  28.541  29.289  1.00  0.00     0.135 A 
ATOM     79  F   UNL A   1      38.574  26.705  31.181  1.00  0.00    -0.206 F 
ATOM     80  C   UNL A   1      39.519  26.243  29.081  1.00  0.00     0.059 A 
ATOM     81  C   UNL A   1      41.174  27.751  28.148  1.00  0.00     0.059 A 
ATOM     82  F   UNL A   1      41.851  29.635  29.366  1.00  0.00    -0.206 F 
ATOM     83  C   UNL A   1      40.402  26.594  28.060  1.00  0.00     0.060 A 
BRANCH  83  84
ATOM     84  S   UNL A   1      40.512  25.533  26.601  1.00  0.00     0.124 S 
ATOM     85  O   UNL A   1      41.505  24.553  27.024  1.00  0.00    -0.237 OA
ATOM     86  O   UNL A   1      39.143  25.042  26.475  1.00  0.00    -0.237 OA
ATOM     87  O   UNL A   1      40.940  26.451  25.549  1.00  0.00    -0.744 OA
ENDBRANCH  83  84
ENDBRANCH  51  76
BRANCH  63  88
ATOM     88  C   UNL A   1      44.438  28.873  35.855  1.00  0.00     0.058 A 
ATOM     89  C   UNL A   1      44.439  27.676  36.587  1.00  0.00     0.135 A 
ATOM     90  C   UNL A   1      45.679  29.381  35.434  1.00  0.00     0.135 A 
ATOM     91  F   UNL A   1      43.283  27.146  37.019  1.00  0.00    -0.206 F 
ATOM     92  C   UNL A   1      45.624  27.018  36.905  1.00  0.00     0.059 A 
ATOM     93  C   UNL A   1      46.874  28.725  35.713  1.00  0.00     0.059 A 
ATOM     94  F   UNL A   1      45.737  30.516  34.719  1.00  0.00    -0.206 F 
ATOM     95  C   UNL A   1      46.836  27.548  36.459  1.00  0.00     0.060 A 
BRANCH  95  96
ATOM     96  S   UNL A   1      48.363  26.661  36.840  1.00  0.00     0.124 S 
ATOM     97  O   UNL A   1      48.190  26.372  38.260  1.00  0.00    -0.237 OA
ATOM     98  O   UNL A   1      48.288  25.511  35.945  1.00  0.00    -0.237 OA
ATOM     99  O   UNL A   1      49.409  27.630  36.521  1.00  0.00    -0.744 OA
ENDBRANCH  95  96
ENDBRANCH  63  88
ENDBRANCH  37  38
ENDBRANCH  30  32
ENDBRANCH  29  30
ENDBRANCH  28  29
ENDBRANCH  27  28
ENDBRANCH  26  27
ENDBRANCH  25  26
ENDBRANCH   1  25
TORSDOF 24
ENDMDL
MODEL 3
REMARK VINA RESULT:      -9.8      6.255      9.172
REMARK SMILES CC[C@@H]1CCC[C@@](Cc2cccc(O)c2)(C(=O)OCCOCCOCCOC(=O)c2ccc(-c3c4nc(c(-c5c(F)cc(S(=O)(=O)[O-])cc5F)c5ccc([nH]5)c(-c5c(F)cc(S(=O)(=O)[O-])cc5F)c5nc(c(-c6c(F)cc(S(=O)(=O)[O-])cc6F)c6ccc3[nH]6)C=C5)C=C4)cc2)C1
REMARK SMILES IDX 22 1 21 2 20 3 19 4 18 5 16 6 17 7 7 8 3 9 4 10 96 11 5 12
REMARK SMILES IDX 6 13 2 14 1 15 8 16 9 17 10 18 15 19 11 20 13 21 12 22 14 23
REMARK SMILES IDX 23 25 24 26 25 27 26 28 27 29 28 30 29 31 30 32 31 33 95 34
REMARK SMILES IDX 32 35 94 36 33 37 34 38 35 39 88 40 36 41 93 42 87 43 89 44
REMARK SMILES IDX 37 45 92 46 86 47 85 48 38 50 72 51 51 52 71 53 52 54 55 55
REMARK SMILES IDX 70 56 90 57 53 58 54 59 69 61 91 62 56 63 39 64 40 65 49 66
REMARK SMILES IDX 41 67 42 68 48 69 50 70 43 71 44 72 45 73 46 74 47 75 73 76
REMARK SMILES IDX 74 77 83 78 75 79 76 80 82 81 84 82 77 83 78 84 79 85 80 86
REMARK SMILES IDX 81 87 57 88 58 89 67 90 59 91 60 92 66 93 68 94 61 95 62 96
REMARK SMILES IDX 63 97 64 98 65 99
REMARK H PARENT 14 24 89 49 55 60
REMARK Flexibility Score: inf
ROOT
ATOM      1  C   UNL A   1      38.049  22.917  26.229  1.00  0.00     0.188 C 
ENDROOT
BRANCH   1   2
ATOM      2  O   UNL A   1      38.048  22.054  25.099  1.00  0.00    -0.376 OA
BRANCH   2   3
ATOM      3  C   UNL A   1      36.842  21.860  24.376  1.00  0.00     0.202 C 
BRANCH   3   4
ATOM      4  C   UNL A   1      36.398  22.950  23.393  1.00  0.00     0.261 C 
BRANCH   4   5
ATOM      5  O   UNL A   1      35.601  24.031  23.935  1.00  0.00    -0.463 OA
BRANCH   5   6
ATOM      6  C   UNL A   1      34.299  24.073  23.536  1.00  0.00     0.312 C 
ATOM      7  O   UNL A   1      33.977  24.287  22.370  1.00  0.00    -0.252 OA
BRANCH   6   8
ATOM      8  C   UNL A   1      33.242  23.968  24.673  1.00  0.00     0.072 C 
ATOM      9  C   UNL A   1      33.208  21.404  24.864  1.00  0.00    -0.010 C 
ATOM     10  C   UNL A   1      33.296  21.450  26.392  1.00  0.00     0.003 C 
ATOM     11  C   UNL A   1      32.440  22.655  24.408  1.00  0.00     0.022 C 
ATOM     12  C   UNL A   1      34.031  22.682  26.889  1.00  0.00     0.001 C 
ATOM     13  C   UNL A   1      33.715  23.997  26.158  1.00  0.00     0.019 C 
BRANCH   9  14
ATOM     14  C   UNL A   1      32.618  20.048  24.419  1.00  0.00     0.000 C 
ATOM     15  C   UNL A   1      32.866  18.865  25.338  1.00  0.00     0.004 C 
ENDBRANCH   9  14
BRANCH   8  16
ATOM     16  C   UNL A   1      32.278  25.183  24.415  1.00  0.00     0.054 C 
BRANCH  16  17
ATOM     17  C   UNL A   1      32.520  26.400  25.292  1.00  0.00    -0.043 A 
ATOM     18  C   UNL A   1      33.659  27.196  25.122  1.00  0.00     0.004 A 
ATOM     19  C   UNL A   1      31.634  26.715  26.332  1.00  0.00     0.049 A 
ATOM     20  C   UNL A   1      33.966  28.211  26.029  1.00  0.00     0.004 A 
ATOM     21  C   UNL A   1      31.925  27.757  27.207  1.00  0.00     0.115 A 
ATOM     22  C   UNL A   1      33.100  28.490  27.083  1.00  0.00     0.046 A 
BRANCH  21  23
ATOM     23  O   UNL A   1      31.026  28.027  28.197  1.00  0.00    -0.508 OA
ATOM     24  H   UNL A   1      30.774  27.353  28.798  1.00  0.00     0.293 HD
ENDBRANCH  21  23
ENDBRANCH  16  17
ENDBRANCH   8  16
ENDBRANCH   6   8
ENDBRANCH   5   6
ENDBRANCH   4   5
ENDBRANCH   3   4
ENDBRANCH   2   3
ENDBRANCH   1   2
BRANCH   1  25
ATOM     25  C   UNL A   1      39.367  23.576  26.651  1.00  0.00     0.188 C 
BRANCH  25  26
ATOM     26  O   UNL A   1      40.481  22.704  26.662  1.00  0.00    -0.376 OA
BRANCH  26  27
ATOM     27  C   UNL A   1      40.466  21.673  27.631  1.00  0.00     0.202 C 
BRANCH  27  28
ATOM     28  C   UNL A   1      41.035  20.341  27.128  1.00  0.00     0.261 C 
BRANCH  28  29
ATOM     29  O   UNL A   1      41.450  20.333  25.748  1.00  0.00    -0.460 OA
BRANCH  29  30
ATOM     30  C   UNL A   1      42.774  20.195  25.512  1.00  0.00     0.338 C 
ATOM     31  O   UNL A   1      43.326  19.222  25.010  1.00  0.00    -0.246 OA
BRANCH  30  32
ATOM     32  C   UNL A   1      43.430  21.503  25.728  1.00  0.00     0.060 A 
ATOM     33  C   UNL A   1      44.114  21.715  26.932  1.00  0.00     0.016 A 
ATOM     34  C   UNL A   1      43.385  22.513  24.765  1.00  0.00     0.016 A 
ATOM     35  C   UNL A   1      44.743  22.936  27.182  1.00  0.00     0.010 A 
ATOM     36  C   UNL A   1      43.997  23.748  25.028  1.00  0.00     0.010 A 
ATOM     37  C   UNL A   1      44.669  23.973  26.243  1.00  0.00    -0.014 A 
BRANCH  37  38
ATOM     38  C   UNL A   1      45.127  25.338  26.615  1.00  0.00     0.031 A 
ATOM     39  C   UNL A   1      44.111  26.303  27.164  1.00  0.00     0.074 A 
ATOM     40  C   UNL A   1      46.418  25.712  26.514  1.00  0.00     0.049 A 
ATOM     41  N   UNL A   1      44.244  27.568  27.466  1.00  0.00    -0.248 NA
ATOM     42  C   UNL A   1      42.764  25.762  27.409  1.00  0.00     0.031 C 
ATOM     43  C   UNL A   1      47.518  24.854  26.082  1.00  0.00     0.029 A 
ATOM     44  N   UNL A   1      47.019  26.923  26.770  1.00  0.00    -0.354 N 
ATOM     45  C   UNL A   1      42.996  27.980  27.916  1.00  0.00     0.074 A 
ATOM     46  C   UNL A   1      42.119  26.832  27.848  1.00  0.00     0.031 C 
ATOM     47  C   UNL A   1      48.659  25.566  26.093  1.00  0.00     0.029 A 
ATOM     48  C   UNL A   1      48.364  26.946  26.480  1.00  0.00     0.049 A 
ATOM     49  H   UNL A   1      46.532  27.701  27.127  1.00  0.00     0.167 HD
ATOM     50  C   UNL A   1      42.612  29.208  28.339  1.00  0.00     0.037 A 
ATOM     51  C   UNL A   1      49.245  27.971  26.486  1.00  0.00     0.037 A 
ATOM     52  C   UNL A   1      43.484  30.351  28.404  1.00  0.00     0.049 A 
ATOM     53  C   UNL A   1      48.771  29.354  26.874  1.00  0.00     0.074 A 
ATOM     54  C   UNL A   1      43.179  31.642  28.802  1.00  0.00     0.029 A 
ATOM     55  N   UNL A   1      44.827  30.346  28.058  1.00  0.00    -0.354 N 
ATOM     56  N   UNL A   1      47.581  29.739  27.273  1.00  0.00    -0.248 NA
ATOM     57  C   UNL A   1      49.756  30.444  26.802  1.00  0.00     0.031 C 
ATOM     58  C   UNL A   1      44.324  32.429  28.643  1.00  0.00     0.029 A 
ATOM     59  C   UNL A   1      45.358  31.616  28.209  1.00  0.00     0.049 A 
ATOM     60  H   UNL A   1      45.328  29.555  27.751  1.00  0.00     0.167 HD
ATOM     61  C   UNL A   1      47.684  31.105  27.524  1.00  0.00     0.074 A 
ATOM     62  C   UNL A   1      49.054  31.478  27.246  1.00  0.00     0.031 C 
ATOM     63  C   UNL A   1      46.730  31.973  27.946  1.00  0.00     0.037 A 
BRANCH  50  64
ATOM     64  C   UNL A   1      41.167  29.395  28.709  1.00  0.00     0.058 A 
ATOM     65  C   UNL A   1      40.148  29.420  27.745  1.00  0.00     0.135 A 
ATOM     66  C   UNL A   1      40.798  29.521  30.058  1.00  0.00     0.135 A 
ATOM     67  F   UNL A   1      40.448  29.330  26.439  1.00  0.00    -0.206 F 
ATOM     68  C   UNL A   1      38.813  29.583  28.105  1.00  0.00     0.059 A 
ATOM     69  C   UNL A   1      39.469  29.656  30.443  1.00  0.00     0.059 A 
ATOM     70  F   UNL A   1      41.735  29.511  31.019  1.00  0.00    -0.206 F 
ATOM     71  C   UNL A   1      38.484  29.699  29.457  1.00  0.00     0.060 A 
BRANCH  71  72
ATOM     72  S   UNL A   1      36.748  29.897  29.910  1.00  0.00     0.124 S 
ATOM     73  O   UNL A   1      36.077  29.329  28.744  1.00  0.00    -0.237 OA
ATOM     74  O   UNL A   1      36.655  29.114  31.138  1.00  0.00    -0.237 OA
ATOM     75  O   UNL A   1      36.601  31.340  30.076  1.00  0.00    -0.744 OA
ENDBRANCH  71  72
ENDBRANCH  50  64
BRANCH  51  76
ATOM     76  C   UNL A   1      50.658  27.758  26.058  1.00  0.00     0.058 A 
ATOM     77  C   UNL A   1      51.679  27.517  26.989  1.00  0.00     0.135 A 
ATOM     78  C   UNL A   1      51.023  27.841  24.704  1.00  0.00     0.135 A 
ATOM     79  F   UNL A   1      51.390  27.450  28.299  1.00  0.00    -0.206 F 
ATOM     80  C   UNL A   1      53.011  27.387  26.600  1.00  0.00     0.059 A 
ATOM     81  C   UNL A   1      52.341  27.682  24.287  1.00  0.00     0.059 A 
ATOM     82  F   UNL A   1      50.089  28.071  23.767  1.00  0.00    -0.206 F 
ATOM     83  C   UNL A   1      53.331  27.471  25.245  1.00  0.00     0.060 A 
BRANCH  83  84
ATOM     84  S   UNL A   1      55.057  27.277  24.745  1.00  0.00     0.124 S 
ATOM     85  O   UNL A   1      55.762  27.754  25.929  1.00  0.00    -0.237 OA
ATOM     86  O   UNL A   1      55.141  25.843  24.485  1.00  0.00    -0.237 OA
ATOM     87  O   UNL A   1      55.163  28.129  23.563  1.00  0.00    -0.744 OA
ENDBRANCH  83  84
ENDBRANCH  51  76
BRANCH  63  88
ATOM     88  C   UNL A   1      47.134  33.405  28.186  1.00  0.00     0.058 A 
ATOM     89  C   UNL A   1      47.036  34.384  27.186  1.00  0.00     0.135 A 
ATOM     90  C   UNL A   1      47.556  33.816  29.463  1.00  0.00     0.135 A 
ATOM     91  F   UNL A   1      46.641  34.047  25.947  1.00  0.00    -0.206 F 
ATOM     92  C   UNL A   1      47.360  35.715  27.436  1.00  0.00     0.059 A 
ATOM     93  C   UNL A   1      47.856  35.146  29.743  1.00  0.00     0.059 A 
ATOM     94  F   UNL A   1      47.656  32.924  30.461  1.00  0.00    -0.206 F 
ATOM     95  C   UNL A   1      47.765  36.086  28.719  1.00  0.00     0.060 A 
BRANCH  95  96
ATOM     96  S   UNL A   1      48.142  37.824  29.041  1.00  0.00     0.124 S 
ATOM     97  O   UNL A   1      46.825  38.440  28.913  1.00  0.00    -0.237 OA
ATOM     98  O   UNL A   1      48.691  37.778  30.393  1.00  0.00    -0.237 OA
ATOM     99  O   UNL A   1      49.099  38.165  27.992  1.00  0.00    -0.744 OA
ENDBRANCH  95  96
ENDBRANCH  63  88
ENDBRANCH  37  38
ENDBRANCH  30  32
ENDBRANCH  29  30
ENDBRANCH  28  29
ENDBRANCH  27  28
ENDBRANCH  26  27
ENDBRANCH  25  26
ENDBRANCH   1  25
TORSDOF 24
ENDMDL
