MODEL 1
REMARK VINA RESULT:      -9.8      0.000      0.000
REMARK SMILES Cc1cc(C(=O)N2CCO[C@H](CC(=O)OCCOCCOCCOC(=O)c3ccc(-c4c5nc(c(-c6c(F)cc(S(=O)(=O)[O-])cc6F)c6ccc([nH]6)c(-c6c(F)cc(S(=O)(=O)[O-])cc6F)c6nc(c(-c7c(F)cc(S(=O)(=O)[O-])cc7F)c7ccc4[nH]7)C=C6)C=C5)cc3)C2)n(C)n1
REMARK SMILES IDX 19 1 18 2 17 3 16 4 15 5 13 6 14 7 12 8 11 9 7 10 8 11 93 12
REMARK SMILES IDX 9 13 10 14 5 15 6 16 4 17 1 18 2 19 3 20 96 21 94 22 95 23
REMARK SMILES IDX 20 24 21 25 22 26 23 27 24 28 25 29 26 30 27 31 28 32 92 33
REMARK SMILES IDX 29 34 91 35 30 36 31 37 32 38 85 39 33 40 90 41 84 42 86 43
REMARK SMILES IDX 34 44 89 45 83 46 82 47 35 49 69 50 48 51 68 52 49 53 52 54
REMARK SMILES IDX 67 55 87 56 50 57 51 58 66 60 88 61 53 62 36 63 37 64 46 65
REMARK SMILES IDX 38 66 39 67 45 68 47 69 40 70 41 71 42 72 43 73 44 74 70 75
REMARK SMILES IDX 71 76 80 77 72 78 73 79 79 80 81 81 74 82 75 83 76 84 77 85
REMARK SMILES IDX 78 86 54 87 55 88 64 89 56 90 57 91 63 92 65 93 58 94 59 95
REMARK SMILES IDX 60 96 61 97 62 98
REMARK H PARENT 86 48 52 59
REMARK Flexibility Score: inf
ROOT
ATOM      1  C   UNL A   1      31.143  29.570  24.258  1.00  0.00     0.188 C 
ENDROOT
BRANCH   1   2
ATOM      2  O   UNL A   1      30.812  28.185  24.294  1.00  0.00    -0.376 OA
BRANCH   2   3
ATOM      3  C   UNL A   1      29.545  27.813  23.746  1.00  0.00     0.202 C 
BRANCH   3   4
ATOM      4  C   UNL A   1      29.133  26.340  23.912  1.00  0.00     0.261 C 
BRANCH   4   5
ATOM      5  O   UNL A   1      30.261  25.441  23.900  1.00  0.00    -0.463 OA
BRANCH   5   6
ATOM      6  C   UNL A   1      30.473  24.743  25.044  1.00  0.00     0.308 C 
ATOM      7  O   UNL A   1      30.153  25.121  26.166  1.00  0.00    -0.252 OA
BRANCH   6   8
ATOM      8  C   UNL A   1      30.989  23.348  24.792  1.00  0.00     0.156 C 
BRANCH   8   9
ATOM      9  C   UNL A   1      31.354  22.517  26.026  1.00  0.00     0.148 C 
ATOM     10  N   UNL A   1      33.760  22.590  25.574  1.00  0.00    -0.332 N 
ATOM     11  C   UNL A   1      33.768  21.174  25.205  1.00  0.00     0.148 C 
ATOM     12  C   UNL A   1      32.743  22.940  26.564  1.00  0.00     0.152 C 
ATOM     13  C   UNL A   1      32.362  20.684  24.829  1.00  0.00     0.182 C 
ATOM     14  O   UNL A   1      31.357  21.097  25.766  1.00  0.00    -0.374 OA
BRANCH  10  15
ATOM     15  C   UNL A   1      34.664  23.557  25.151  1.00  0.00     0.272 C 
ATOM     16  O   UNL A   1      35.749  23.665  25.718  1.00  0.00    -0.267 OA
BRANCH  15  17
ATOM     17  C   UNL A   1      34.219  24.504  24.144  1.00  0.00     0.126 A 
ATOM     18  C   UNL A   1      32.755  25.746  20.997  1.00  0.00     0.069 C 
ATOM     19  C   UNL A   1      33.346  25.487  22.330  1.00  0.00     0.060 A 
ATOM     20  C   UNL A   1      33.917  24.294  22.807  1.00  0.00     0.059 A 
ATOM     21  N   UNL A   1      33.347  26.430  23.271  1.00  0.00    -0.178 NA
ATOM     22  N   UNL A   1      33.813  25.802  24.377  1.00  0.00    -0.263 N 
ATOM     23  C   UNL A   1      33.764  26.544  25.616  1.00  0.00     0.174 C 
ENDBRANCH  15  17
ENDBRANCH  10  15
ENDBRANCH   8   9
ENDBRANCH   6   8
ENDBRANCH   5   6
ENDBRANCH   4   5
ENDBRANCH   3   4
ENDBRANCH   2   3
ENDBRANCH   1   2
BRANCH   1  24
ATOM     24  C   UNL A   1      31.636  30.175  25.577  1.00  0.00     0.188 C 
BRANCH  24  25
ATOM     25  O   UNL A   1      32.970  29.839  25.931  1.00  0.00    -0.376 OA
BRANCH  25  26
ATOM     26  C   UNL A   1      33.286  29.764  27.322  1.00  0.00     0.202 C 
BRANCH  26  27
ATOM     27  C   UNL A   1      34.645  30.350  27.756  1.00  0.00     0.261 C 
BRANCH  27  28
ATOM     28  O   UNL A   1      35.622  29.391  28.212  1.00  0.00    -0.460 OA
BRANCH  28  29
ATOM     29  C   UNL A   1      36.287  29.663  29.357  1.00  0.00     0.338 C 
ATOM     30  O   UNL A   1      35.792  29.764  30.471  1.00  0.00    -0.246 OA
BRANCH  29  31
ATOM     31  C   UNL A   1      37.748  29.551  29.103  1.00  0.00     0.060 A 
ATOM     32  C   UNL A   1      38.187  29.560  27.770  1.00  0.00     0.016 A 
ATOM     33  C   UNL A   1      38.686  29.503  30.140  1.00  0.00     0.016 A 
ATOM     34  C   UNL A   1      39.547  29.450  27.472  1.00  0.00     0.010 A 
ATOM     35  C   UNL A   1      40.049  29.383  29.841  1.00  0.00     0.010 A 
ATOM     36  C   UNL A   1      40.482  29.305  28.504  1.00  0.00    -0.014 A 
BRANCH  36  37
ATOM     37  C   UNL A   1      41.849  28.814  28.188  1.00  0.00     0.031 A 
ATOM     38  C   UNL A   1      42.974  29.819  28.197  1.00  0.00     0.074 A 
ATOM     39  C   UNL A   1      42.116  27.516  27.947  1.00  0.00     0.049 A 
ATOM     40  N   UNL A   1      44.245  29.653  27.936  1.00  0.00    -0.248 NA
ATOM     41  C   UNL A   1      42.610  31.203  28.546  1.00  0.00     0.031 C 
ATOM     42  C   UNL A   1      41.136  26.432  27.954  1.00  0.00     0.029 A 
ATOM     43  N   UNL A   1      43.303  26.893  27.647  1.00  0.00    -0.354 N 
ATOM     44  C   UNL A   1      44.828  30.906  28.087  1.00  0.00     0.074 A 
ATOM     45  C   UNL A   1      43.767  31.831  28.421  1.00  0.00     0.031 C 
ATOM     46  C   UNL A   1      41.762  25.277  27.665  1.00  0.00     0.029 A 
ATOM     47  C   UNL A   1      43.181  25.541  27.423  1.00  0.00     0.049 A 
ATOM     48  H   UNL A   1      44.163  27.370  27.597  1.00  0.00     0.167 HD
ATOM     49  C   UNL A   1      46.130  31.259  27.973  1.00  0.00     0.037 A 
ATOM     50  C   UNL A   1      44.104  24.629  27.049  1.00  0.00     0.037 A 
ATOM     51  C   UNL A   1      47.188  30.343  27.642  1.00  0.00     0.049 A 
ATOM     52  C   UNL A   1      45.540  25.058  26.853  1.00  0.00     0.074 A 
ATOM     53  C   UNL A   1      48.540  30.605  27.504  1.00  0.00     0.029 A 
ATOM     54  N   UNL A   1      47.016  28.989  27.390  1.00  0.00    -0.354 N 
ATOM     55  N   UNL A   1      46.078  26.244  27.009  1.00  0.00    -0.248 NA
ATOM     56  C   UNL A   1      46.495  24.020  26.435  1.00  0.00     0.031 C 
ATOM     57  C   UNL A   1      49.178  29.422  27.119  1.00  0.00     0.029 A 
ATOM     58  C   UNL A   1      48.234  28.408  27.078  1.00  0.00     0.049 A 
ATOM     59  H   UNL A   1      46.156  28.513  27.428  1.00  0.00     0.167 HD
ATOM     60  C   UNL A   1      47.438  26.086  26.749  1.00  0.00     0.074 A 
ATOM     61  C   UNL A   1      47.640  24.689  26.428  1.00  0.00     0.031 C 
ATOM     62  C   UNL A   1      48.429  27.011  26.779  1.00  0.00     0.037 A 
BRANCH  49  63
ATOM     63  C   UNL A   1      46.476  32.707  28.182  1.00  0.00     0.058 A 
ATOM     64  C   UNL A   1      46.945  33.188  29.415  1.00  0.00     0.135 A 
ATOM     65  C   UNL A   1      46.357  33.625  27.126  1.00  0.00     0.135 A 
ATOM     66  F   UNL A   1      47.055  32.359  30.466  1.00  0.00    -0.206 F 
ATOM     67  C   UNL A   1      47.256  34.530  29.603  1.00  0.00     0.059 A 
ATOM     68  C   UNL A   1      46.693  34.966  27.281  1.00  0.00     0.059 A 
ATOM     69  F   UNL A   1      45.909  33.221  25.925  1.00  0.00    -0.206 F 
ATOM     70  C   UNL A   1      47.126  35.412  28.527  1.00  0.00     0.060 A 
BRANCH  70  71
ATOM     71  S   UNL A   1      47.536  37.150  28.786  1.00  0.00     0.124 S 
ATOM     72  O   UNL A   1      46.236  37.787  28.599  1.00  0.00    -0.237 OA
ATOM     73  O   UNL A   1      48.050  37.150  30.151  1.00  0.00    -0.237 OA
ATOM     74  O   UNL A   1      48.524  37.425  27.747  1.00  0.00    -0.744 OA
ENDBRANCH  70  71
ENDBRANCH  49  63
BRANCH  50  75
ATOM     75  C   UNL A   1      43.707  23.210  26.821  1.00  0.00     0.058 A 
ATOM     76  C   UNL A   1      43.710  22.650  25.534  1.00  0.00     0.135 A 
ATOM     77  C   UNL A   1      43.291  22.393  27.883  1.00  0.00     0.135 A 
ATOM     78  F   UNL A   1      44.081  23.394  24.480  1.00  0.00    -0.206 F 
ATOM     79  C   UNL A   1      43.298  21.341  25.306  1.00  0.00     0.059 A 
ATOM     80  C   UNL A   1      42.903  21.072  27.686  1.00  0.00     0.059 A 
ATOM     81  F   UNL A   1      43.271  22.877  29.136  1.00  0.00    -0.206 F 
ATOM     82  C   UNL A   1      42.899  20.558  26.390  1.00  0.00     0.060 A 
BRANCH  82  83
ATOM     83  S   UNL A   1      42.406  18.846  26.088  1.00  0.00     0.124 S 
ATOM     84  O   UNL A   1      40.984  18.994  25.800  1.00  0.00    -0.237 OA
ATOM     85  O   UNL A   1      43.252  18.478  24.958  1.00  0.00    -0.237 OA
ATOM     86  O   UNL A   1      42.728  18.178  27.347  1.00  0.00    -0.744 OA
ENDBRANCH  82  83
ENDBRANCH  50  75
BRANCH  62  87
ATOM     87  C   UNL A   1      49.839  26.545  26.518  1.00  0.00     0.058 A 
ATOM     88  C   UNL A   1      50.413  26.581  25.238  1.00  0.00     0.135 A 
ATOM     89  C   UNL A   1      50.646  26.110  27.583  1.00  0.00     0.135 A 
ATOM     90  F   UNL A   1      49.688  26.988  24.183  1.00  0.00    -0.206 F 
ATOM     91  C   UNL A   1      51.727  26.176  25.018  1.00  0.00     0.059 A 
ATOM     92  C   UNL A   1      51.972  25.730  27.391  1.00  0.00     0.059 A 
ATOM     93  F   UNL A   1      50.155  26.069  28.832  1.00  0.00    -0.206 F 
ATOM     94  C   UNL A   1      52.499  25.753  26.102  1.00  0.00     0.060 A 
BRANCH  94  95
ATOM     95  S   UNL A   1      54.210  25.257  25.808  1.00  0.00     0.124 S 
ATOM     96  O   UNL A   1      54.568  26.097  24.670  1.00  0.00    -0.237 OA
ATOM     97  O   UNL A   1      54.855  25.594  27.073  1.00  0.00    -0.237 OA
ATOM     98  O   UNL A   1      54.108  23.828  25.525  1.00  0.00    -0.744 OA
ENDBRANCH  94  95
ENDBRANCH  62  87
ENDBRANCH  36  37
ENDBRANCH  29  31
ENDBRANCH  28  29
ENDBRANCH  27  28
ENDBRANCH  26  27
ENDBRANCH  25  26
ENDBRANCH  24  25
ENDBRANCH   1  24
TORSDOF 23
ENDMDL
MODEL 2
REMARK VINA RESULT:      -9.5      4.529      5.844
REMARK SMILES Cc1cc(C(=O)N2CCO[C@H](CC(=O)OCCOCCOCCOC(=O)c3ccc(-c4c5nc(c(-c6c(F)cc(S(=O)(=O)[O-])cc6F)c6ccc([nH]6)c(-c6c(F)cc(S(=O)(=O)[O-])cc6F)c6nc(c(-c7c(F)cc(S(=O)(=O)[O-])cc7F)c7ccc4[nH]7)C=C6)C=C5)cc3)C2)n(C)n1
REMARK SMILES IDX 19 1 18 2 17 3 16 4 15 5 13 6 14 7 12 8 11 9 7 10 8 11 93 12
REMARK SMILES IDX 9 13 10 14 5 15 6 16 4 17 1 18 2 19 3 20 96 21 94 22 95 23
REMARK SMILES IDX 20 24 21 25 22 26 23 27 24 28 25 29 26 30 27 31 28 32 92 33
REMARK SMILES IDX 29 34 91 35 30 36 31 37 32 38 85 39 33 40 90 41 84 42 86 43
REMARK SMILES IDX 34 44 89 45 83 46 82 47 35 49 69 50 48 51 68 52 49 53 52 54
REMARK SMILES IDX 67 55 87 56 50 57 51 58 66 60 88 61 53 62 36 63 37 64 46 65
REMARK SMILES IDX 38 66 39 67 45 68 47 69 40 70 41 71 42 72 43 73 44 74 70 75
REMARK SMILES IDX 71 76 80 77 72 78 73 79 79 80 81 81 74 82 75 83 76 84 77 85
REMARK SMILES IDX 78 86 54 87 55 88 64 89 56 90 57 91 63 92 65 93 58 94 59 95
REMARK SMILES IDX 60 96 61 97 62 98
REMARK H PARENT 86 48 52 59
REMARK Flexibility Score: inf
ROOT
ATOM      1  C   UNL A   1      31.284  28.894  22.593  1.00  0.00     0.188 C 
ENDROOT
BRANCH   1   2
ATOM      2  O   UNL A   1      32.082  27.716  22.670  1.00  0.00    -0.376 OA
BRANCH   2   3
ATOM      3  C   UNL A   1      32.262  26.983  21.456  1.00  0.00     0.202 C 
BRANCH   3   4
ATOM      4  C   UNL A   1      32.562  25.481  21.602  1.00  0.00     0.261 C 
BRANCH   4   5
ATOM      5  O   UNL A   1      33.924  25.220  21.997  1.00  0.00    -0.463 OA
BRANCH   5   6
ATOM      6  C   UNL A   1      34.092  24.273  22.955  1.00  0.00     0.308 C 
ATOM      7  O   UNL A   1      35.139  23.675  23.173  1.00  0.00    -0.252 OA
BRANCH   6   8
ATOM      8  C   UNL A   1      32.898  24.146  23.869  1.00  0.00     0.156 C 
BRANCH   8   9
ATOM      9  C   UNL A   1      32.694  25.267  24.893  1.00  0.00     0.148 C 
ATOM     10  N   UNL A   1      32.410  23.726  26.776  1.00  0.00    -0.332 N 
ATOM     11  C   UNL A   1      30.983  24.037  26.858  1.00  0.00     0.148 C 
ATOM     12  C   UNL A   1      33.231  24.829  26.278  1.00  0.00     0.152 C 
ATOM     13  C   UNL A   1      30.461  24.635  25.544  1.00  0.00     0.182 C 
ATOM     14  O   UNL A   1      31.313  25.666  25.022  1.00  0.00    -0.374 OA
BRANCH  10  15
ATOM     15  C   UNL A   1      33.025  22.557  27.205  1.00  0.00     0.272 C 
ATOM     16  O   UNL A   1      32.906  22.202  28.377  1.00  0.00    -0.267 OA
BRANCH  15  17
ATOM     17  C   UNL A   1      33.913  21.879  26.277  1.00  0.00     0.126 A 
ATOM     18  C   UNL A   1      36.993  20.332  24.969  1.00  0.00     0.069 C 
ATOM     19  C   UNL A   1      35.647  20.861  25.289  1.00  0.00     0.060 A 
ATOM     20  C   UNL A   1      35.297  21.792  26.284  1.00  0.00     0.059 A 
ATOM     21  N   UNL A   1      34.570  20.433  24.632  1.00  0.00    -0.178 NA
ATOM     22  N   UNL A   1      33.529  21.003  25.283  1.00  0.00    -0.263 N 
ATOM     23  C   UNL A   1      32.204  20.577  24.892  1.00  0.00     0.174 C 
ENDBRANCH  15  17
ENDBRANCH  10  15
ENDBRANCH   8   9
ENDBRANCH   6   8
ENDBRANCH   5   6
ENDBRANCH   4   5
ENDBRANCH   3   4
ENDBRANCH   2   3
ENDBRANCH   1   2
BRANCH   1  24
ATOM     24  C   UNL A   1      30.495  29.252  23.857  1.00  0.00     0.188 C 
BRANCH  24  25
ATOM     25  O   UNL A   1      31.145  28.938  25.080  1.00  0.00    -0.376 OA
BRANCH  25  26
ATOM     26  C   UNL A   1      31.833  29.993  25.752  1.00  0.00     0.202 C 
BRANCH  26  27
ATOM     27  C   UNL A   1      33.285  29.706  26.189  1.00  0.00     0.261 C 
BRANCH  27  28
ATOM     28  O   UNL A   1      33.607  30.055  27.551  1.00  0.00    -0.460 OA
BRANCH  28  29
ATOM     29  C   UNL A   1      34.533  31.019  27.754  1.00  0.00     0.338 C 
ATOM     30  O   UNL A   1      34.316  32.219  27.849  1.00  0.00    -0.246 OA
BRANCH  29  31
ATOM     31  C   UNL A   1      35.825  30.377  28.118  1.00  0.00     0.060 A 
ATOM     32  C   UNL A   1      35.900  29.701  29.346  1.00  0.00     0.016 A 
ATOM     33  C   UNL A   1      36.927  30.373  27.257  1.00  0.00     0.016 A 
ATOM     34  C   UNL A   1      37.090  29.086  29.743  1.00  0.00     0.010 A 
ATOM     35  C   UNL A   1      38.123  29.763  27.660  1.00  0.00     0.010 A 
ATOM     36  C   UNL A   1      38.224  29.161  28.927  1.00  0.00    -0.014 A 
BRANCH  36  37
ATOM     37  C   UNL A   1      39.560  28.850  29.503  1.00  0.00     0.031 A 
ATOM     38  C   UNL A   1      40.041  29.701  30.653  1.00  0.00     0.074 A 
ATOM     39  C   UNL A   1      40.315  27.823  29.071  1.00  0.00     0.049 A 
ATOM     40  N   UNL A   1      41.168  29.651  31.314  1.00  0.00    -0.248 NA
ATOM     41  C   UNL A   1      39.121  30.754  31.115  1.00  0.00     0.031 C 
ATOM     42  C   UNL A   1      39.954  26.893  28.004  1.00  0.00     0.029 A 
ATOM     43  N   UNL A   1      41.554  27.394  29.485  1.00  0.00    -0.354 N 
ATOM     44  C   UNL A   1      41.094  30.663  32.264  1.00  0.00     0.074 A 
ATOM     45  C   UNL A   1      39.829  31.337  32.068  1.00  0.00     0.031 C 
ATOM     46  C   UNL A   1      40.952  26.005  27.842  1.00  0.00     0.029 A 
ATOM     47  C   UNL A   1      42.037  26.321  28.774  1.00  0.00     0.049 A 
ATOM     48  H   UNL A   1      42.050  27.816  30.223  1.00  0.00     0.167 HD
ATOM     49  C   UNL A   1      41.987  30.997  33.225  1.00  0.00     0.037 A 
ATOM     50  C   UNL A   1      43.222  25.680  28.854  1.00  0.00     0.037 A 
ATOM     51  C   UNL A   1      43.245  30.329  33.424  1.00  0.00     0.049 A 
ATOM     52  C   UNL A   1      44.238  26.116  29.884  1.00  0.00     0.074 A 
ATOM     53  C   UNL A   1      44.217  30.594  34.373  1.00  0.00     0.029 A 
ATOM     54  N   UNL A   1      43.710  29.269  32.661  1.00  0.00    -0.354 N 
ATOM     55  N   UNL A   1      44.149  27.068  30.783  1.00  0.00    -0.248 NA
ATOM     56  C   UNL A   1      45.515  25.386  29.914  1.00  0.00     0.031 C 
ATOM     57  C   UNL A   1      45.292  29.728  34.150  1.00  0.00     0.029 A 
ATOM     58  C   UNL A   1      44.963  28.881  33.104  1.00  0.00     0.049 A 
ATOM     59  H   UNL A   1      43.221  28.853  31.915  1.00  0.00     0.167 HD
ATOM     60  C   UNL A   1      45.338  27.023  31.509  1.00  0.00     0.074 A 
ATOM     61  C   UNL A   1      46.128  25.949  30.946  1.00  0.00     0.031 C 
ATOM     62  C   UNL A   1      45.736  27.797  32.550  1.00  0.00     0.037 A 
BRANCH  49  63
ATOM     63  C   UNL A   1      41.643  32.158  34.118  1.00  0.00     0.058 A 
ATOM     64  C   UNL A   1      40.822  32.008  35.246  1.00  0.00     0.135 A 
ATOM     65  C   UNL A   1      42.160  33.435  33.851  1.00  0.00     0.135 A 
ATOM     66  F   UNL A   1      40.280  30.813  35.535  1.00  0.00    -0.206 F 
ATOM     67  C   UNL A   1      40.502  33.087  36.063  1.00  0.00     0.059 A 
ATOM     68  C   UNL A   1      41.881  34.523  34.671  1.00  0.00     0.059 A 
ATOM     69  F   UNL A   1      42.948  33.637  32.781  1.00  0.00    -0.206 F 
ATOM     70  C   UNL A   1      41.038  34.343  35.766  1.00  0.00     0.060 A 
BRANCH  70  71
ATOM     71  S   UNL A   1      40.616  35.733  36.836  1.00  0.00     0.124 S 
ATOM     72  O   UNL A   1      39.653  36.455  36.010  1.00  0.00    -0.237 OA
ATOM     73  O   UNL A   1      40.067  35.067  38.012  1.00  0.00    -0.237 OA
ATOM     74  O   UNL A   1      41.895  36.406  37.040  1.00  0.00    -0.744 OA
ENDBRANCH  70  71
ENDBRANCH  49  63
BRANCH  50  75
ATOM     75  C   UNL A   1      43.532  24.555  27.925  1.00  0.00     0.058 A 
ATOM     76  C   UNL A   1      44.299  24.757  26.766  1.00  0.00     0.135 A 
ATOM     77  C   UNL A   1      43.045  23.262  28.164  1.00  0.00     0.135 A 
ATOM     78  F   UNL A   1      44.773  25.979  26.480  1.00  0.00    -0.206 F 
ATOM     79  C   UNL A   1      44.555  23.723  25.871  1.00  0.00     0.059 A 
ATOM     80  C   UNL A   1      43.312  22.205  27.299  1.00  0.00     0.059 A 
ATOM     81  F   UNL A   1      42.308  23.012  29.258  1.00  0.00    -0.206 F 
ATOM     82  C   UNL A   1      44.059  22.448  26.148  1.00  0.00     0.060 A 
BRANCH  82  83
ATOM     83  S   UNL A   1      44.432  21.104  25.000  1.00  0.00     0.124 S 
ATOM     84  O   UNL A   1      45.798  20.762  25.378  1.00  0.00    -0.237 OA
ATOM     85  O   UNL A   1      43.410  20.119  25.339  1.00  0.00    -0.237 OA
ATOM     86  O   UNL A   1      44.278  21.730  23.689  1.00  0.00    -0.744 OA
ENDBRANCH  82  83
ENDBRANCH  50  75
BRANCH  62  87
ATOM     87  C   UNL A   1      47.059  27.481  33.199  1.00  0.00     0.058 A 
ATOM     88  C   UNL A   1      47.176  26.555  34.246  1.00  0.00     0.135 A 
ATOM     89  C   UNL A   1      48.239  28.075  32.719  1.00  0.00     0.135 A 
ATOM     90  F   UNL A   1      46.082  25.957  34.744  1.00  0.00    -0.206 F 
ATOM     91  C   UNL A   1      48.410  26.251  34.814  1.00  0.00     0.059 A 
ATOM     92  C   UNL A   1      49.487  27.763  33.250  1.00  0.00     0.059 A 
ATOM     93  F   UNL A   1      48.190  28.958  31.707  1.00  0.00    -0.206 F 
ATOM     94  C   UNL A   1      49.561  26.859  34.308  1.00  0.00     0.060 A 
BRANCH  94  95
ATOM     95  S   UNL A   1      51.158  26.435  35.035  1.00  0.00     0.124 S 
ATOM     96  O   UNL A   1      50.753  25.773  36.270  1.00  0.00    -0.237 OA
ATOM     97  O   UNL A   1      51.746  25.571  34.016  1.00  0.00    -0.237 OA
ATOM     98  O   UNL A   1      51.813  27.729  35.202  1.00  0.00    -0.744 OA
ENDBRANCH  94  95
ENDBRANCH  62  87
ENDBRANCH  36  37
ENDBRANCH  29  31
ENDBRANCH  28  29
ENDBRANCH  27  28
ENDBRANCH  26  27
ENDBRANCH  25  26
ENDBRANCH  24  25
ENDBRANCH   1  24
TORSDOF 23
ENDMDL
MODEL 3
REMARK VINA RESULT:      -9.2      1.342      2.420
REMARK SMILES Cc1cc(C(=O)N2CCO[C@H](CC(=O)OCCOCCOCCOC(=O)c3ccc(-c4c5nc(c(-c6c(F)cc(S(=O)(=O)[O-])cc6F)c6ccc([nH]6)c(-c6c(F)cc(S(=O)(=O)[O-])cc6F)c6nc(c(-c7c(F)cc(S(=O)(=O)[O-])cc7F)c7ccc4[nH]7)C=C6)C=C5)cc3)C2)n(C)n1
REMARK SMILES IDX 19 1 18 2 17 3 16 4 15 5 13 6 14 7 12 8 11 9 7 10 8 11 93 12
REMARK SMILES IDX 9 13 10 14 5 15 6 16 4 17 1 18 2 19 3 20 96 21 94 22 95 23
REMARK SMILES IDX 20 24 21 25 22 26 23 27 24 28 25 29 26 30 27 31 28 32 92 33
REMARK SMILES IDX 29 34 91 35 30 36 31 37 32 38 85 39 33 40 90 41 84 42 86 43
REMARK SMILES IDX 34 44 89 45 83 46 82 47 35 49 69 50 48 51 68 52 49 53 52 54
REMARK SMILES IDX 67 55 87 56 50 57 51 58 66 60 88 61 53 62 36 63 37 64 46 65
REMARK SMILES IDX 38 66 39 67 45 68 47 69 40 70 41 71 42 72 43 73 44 74 70 75
REMARK SMILES IDX 71 76 80 77 72 78 73 79 79 80 81 81 74 82 75 83 76 84 77 85
REMARK SMILES IDX 78 86 54 87 55 88 64 89 56 90 57 91 63 92 65 93 58 94 59 95
REMARK SMILES IDX 60 96 61 97 62 98
REMARK H PARENT 86 48 52 59
REMARK Flexibility Score: inf
ROOT
ATOM      1  C   UNL A   1      32.914  30.503  25.775  1.00  0.00     0.188 C 
ENDROOT
BRANCH   1   2
ATOM      2  O   UNL A   1      32.164  29.387  25.303  1.00  0.00    -0.376 OA
BRANCH   2   3
ATOM      3  C   UNL A   1      31.325  28.729  26.256  1.00  0.00     0.202 C 
BRANCH   3   4
ATOM      4  C   UNL A   1      32.030  27.818  27.275  1.00  0.00     0.261 C 
BRANCH   4   5
ATOM      5  O   UNL A   1      31.998  26.427  26.895  1.00  0.00    -0.463 OA
BRANCH   5   6
ATOM      6  C   UNL A   1      32.951  26.030  26.014  1.00  0.00     0.308 C 
ATOM      7  O   UNL A   1      33.972  26.658  25.758  1.00  0.00    -0.252 OA
BRANCH   6   8
ATOM      8  C   UNL A   1      32.725  24.631  25.497  1.00  0.00     0.156 C 
BRANCH   8   9
ATOM      9  C   UNL A   1      31.431  24.389  24.714  1.00  0.00     0.148 C 
ATOM     10  N   UNL A   1      32.033  22.097  24.096  1.00  0.00    -0.332 N 
ATOM     11  C   UNL A   1      32.243  22.492  22.703  1.00  0.00     0.148 C 
ATOM     12  C   UNL A   1      31.028  22.896  24.795  1.00  0.00     0.152 C 
ATOM     13  C   UNL A   1      32.477  24.004  22.577  1.00  0.00     0.182 C 
ATOM     14  O   UNL A   1      31.532  24.780  23.328  1.00  0.00    -0.374 OA
BRANCH  10  15
ATOM     15  C   UNL A   1      32.614  21.013  24.743  1.00  0.00     0.272 C 
ATOM     16  O   UNL A   1      31.933  20.022  25.001  1.00  0.00    -0.267 OA
BRANCH  15  17
ATOM     17  C   UNL A   1      33.977  21.161  25.221  1.00  0.00     0.126 A 
ATOM     18  C   UNL A   1      37.614  21.756  25.119  1.00  0.00     0.069 C 
ATOM     19  C   UNL A   1      36.180  21.523  25.408  1.00  0.00     0.060 A 
ATOM     20  C   UNL A   1      35.169  21.130  24.513  1.00  0.00     0.059 A 
ATOM     21  N   UNL A   1      35.688  21.722  26.630  1.00  0.00    -0.178 NA
ATOM     22  N   UNL A   1      34.351  21.567  26.485  1.00  0.00    -0.263 N 
ATOM     23  C   UNL A   1      33.530  21.895  27.628  1.00  0.00     0.174 C 
ENDBRANCH  15  17
ENDBRANCH  10  15
ENDBRANCH   8   9
ENDBRANCH   6   8
ENDBRANCH   5   6
ENDBRANCH   4   5
ENDBRANCH   3   4
ENDBRANCH   2   3
ENDBRANCH   1   2
BRANCH   1  24
ATOM     24  C   UNL A   1      33.352  30.443  27.242  1.00  0.00     0.188 C 
BRANCH  24  25
ATOM     25  O   UNL A   1      34.572  31.110  27.532  1.00  0.00    -0.376 OA
BRANCH  25  26
ATOM     26  C   UNL A   1      34.491  32.409  28.120  1.00  0.00     0.202 C 
BRANCH  26  27
ATOM     27  C   UNL A   1      35.028  32.553  29.559  1.00  0.00     0.261 C 
BRANCH  27  28
ATOM     28  O   UNL A   1      35.841  31.461  30.035  1.00  0.00    -0.460 OA
BRANCH  28  29
ATOM     29  C   UNL A   1      36.970  31.762  30.713  1.00  0.00     0.338 C 
ATOM     30  O   UNL A   1      37.038  32.411  31.748  1.00  0.00    -0.246 OA
BRANCH  29  31
ATOM     31  C   UNL A   1      38.092  30.956  30.164  1.00  0.00     0.060 A 
ATOM     32  C   UNL A   1      38.999  30.386  31.071  1.00  0.00     0.016 A 
ATOM     33  C   UNL A   1      38.230  30.700  28.795  1.00  0.00     0.016 A 
ATOM     34  C   UNL A   1      40.077  29.625  30.611  1.00  0.00     0.010 A 
ATOM     35  C   UNL A   1      39.316  29.944  28.334  1.00  0.00     0.010 A 
ATOM     36  C   UNL A   1      40.272  29.445  29.237  1.00  0.00    -0.014 A 
BRANCH  36  37
ATOM     37  C   UNL A   1      41.595  28.976  28.743  1.00  0.00     0.031 A 
ATOM     38  C   UNL A   1      42.713  29.986  28.670  1.00  0.00     0.074 A 
ATOM     39  C   UNL A   1      41.831  27.692  28.413  1.00  0.00     0.049 A 
ATOM     40  N   UNL A   1      43.945  29.839  28.258  1.00  0.00    -0.248 NA
ATOM     41  C   UNL A   1      42.392  31.350  29.123  1.00  0.00     0.031 C 
ATOM     42  C   UNL A   1      40.859  26.604  28.481  1.00  0.00     0.029 A 
ATOM     43  N   UNL A   1      42.977  27.090  27.949  1.00  0.00    -0.354 N 
ATOM     44  C   UNL A   1      44.542  31.086  28.399  1.00  0.00     0.074 A 
ATOM     45  C   UNL A   1      43.527  31.989  28.895  1.00  0.00     0.031 C 
ATOM     46  C   UNL A   1      41.447  25.467  28.068  1.00  0.00     0.029 A 
ATOM     47  C   UNL A   1      42.830  25.750  27.677  1.00  0.00     0.049 A 
ATOM     48  H   UNL A   1      43.825  27.573  27.824  1.00  0.00     0.167 HD
ATOM     49  C   UNL A   1      45.822  31.451  28.154  1.00  0.00     0.037 A 
ATOM     50  C   UNL A   1      43.703  24.861  27.158  1.00  0.00     0.037 A 
ATOM     51  C   UNL A   1      46.836  30.557  27.660  1.00  0.00     0.049 A 
ATOM     52  C   UNL A   1      45.107  25.306  26.819  1.00  0.00     0.074 A 
ATOM     53  C   UNL A   1      48.163  30.832  27.381  1.00  0.00     0.029 A 
ATOM     54  N   UNL A   1      46.636  29.216  27.367  1.00  0.00    -0.354 N 
ATOM     55  N   UNL A   1      45.660  26.487  26.968  1.00  0.00    -0.248 NA
ATOM     56  C   UNL A   1      46.008  24.294  26.246  1.00  0.00     0.031 C 
ATOM     57  C   UNL A   1      48.752  29.672  26.870  1.00  0.00     0.029 A 
ATOM     58  C   UNL A   1      47.810  28.656  26.891  1.00  0.00     0.049 A 
ATOM     59  H   UNL A   1      45.786  28.733  27.481  1.00  0.00     0.167 HD
ATOM     60  C   UNL A   1      46.981  26.348  26.546  1.00  0.00     0.074 A 
ATOM     61  C   UNL A   1      47.145  24.968  26.139  1.00  0.00     0.031 C 
ATOM     62  C   UNL A   1      47.969  27.276  26.506  1.00  0.00     0.037 A 
BRANCH  49  63
ATOM     63  C   UNL A   1      46.190  32.890  28.389  1.00  0.00     0.058 A 
ATOM     64  C   UNL A   1      46.695  33.335  29.621  1.00  0.00     0.135 A 
ATOM     65  C   UNL A   1      46.055  33.835  27.359  1.00  0.00     0.135 A 
ATOM     66  F   UNL A   1      46.822  32.479  30.649  1.00  0.00    -0.206 F 
ATOM     67  C   UNL A   1      47.026  34.668  29.834  1.00  0.00     0.059 A 
ATOM     68  C   UNL A   1      46.410  35.168  27.538  1.00  0.00     0.059 A 
ATOM     69  F   UNL A   1      45.573  33.465  26.161  1.00  0.00    -0.206 F 
ATOM     70  C   UNL A   1      46.880  35.578  28.784  1.00  0.00     0.060 A 
BRANCH  70  71
ATOM     71  S   UNL A   1      47.317  37.304  29.074  1.00  0.00     0.124 S 
ATOM     72  O   UNL A   1      48.750  37.203  29.335  1.00  0.00    -0.237 OA
ATOM     73  O   UNL A   1      46.946  37.937  27.813  1.00  0.00    -0.237 OA
ATOM     74  O   UNL A   1      46.496  37.675  30.223  1.00  0.00    -0.744 OA
ENDBRANCH  70  71
ENDBRANCH  49  63
BRANCH  50  75
ATOM     75  C   UNL A   1      43.283  23.452  26.911  1.00  0.00     0.058 A 
ATOM     76  C   UNL A   1      42.998  22.993  25.615  1.00  0.00     0.135 A 
ATOM     77  C   UNL A   1      43.132  22.544  27.969  1.00  0.00     0.135 A 
ATOM     78  F   UNL A   1      43.108  23.827  24.569  1.00  0.00    -0.206 F 
ATOM     79  C   UNL A   1      42.562  21.693  25.380  1.00  0.00     0.059 A 
ATOM     80  C   UNL A   1      42.725  21.230  27.757  1.00  0.00     0.059 A 
ATOM     81  F   UNL A   1      43.392  22.929  29.229  1.00  0.00    -0.206 F 
ATOM     82  C   UNL A   1      42.431  20.817  26.459  1.00  0.00     0.060 A 
BRANCH  82  83
ATOM     83  S   UNL A   1      41.903  19.119  26.138  1.00  0.00     0.124 S 
ATOM     84  O   UNL A   1      42.743  18.758  25.003  1.00  0.00    -0.237 OA
ATOM     85  O   UNL A   1      42.216  18.457  27.400  1.00  0.00    -0.237 OA
ATOM     86  O   UNL A   1      40.478  19.260  25.850  1.00  0.00    -0.744 OA
ENDBRANCH  82  83
ENDBRANCH  50  75
BRANCH  62  87
ATOM     87  C   UNL A   1      49.339  26.830  26.063  1.00  0.00     0.058 A 
ATOM     88  C   UNL A   1      49.810  27.044  24.759  1.00  0.00     0.135 A 
ATOM     89  C   UNL A   1      50.217  26.229  26.983  1.00  0.00     0.135 A 
ATOM     90  F   UNL A   1      49.015  27.613  23.838  1.00  0.00    -0.206 F 
ATOM     91  C   UNL A   1      51.090  26.654  24.374  1.00  0.00     0.059 A 
ATOM     92  C   UNL A   1      51.511  25.860  26.629  1.00  0.00     0.059 A 
ATOM     93  F   UNL A   1      49.826  26.014  28.250  1.00  0.00    -0.206 F 
ATOM     94  C   UNL A   1      51.934  26.063  25.317  1.00  0.00     0.060 A 
BRANCH  94  95
ATOM     95  S   UNL A   1      53.601  25.588  24.812  1.00  0.00     0.124 S 
ATOM     96  O   UNL A   1      54.419  26.315  25.777  1.00  0.00    -0.237 OA
ATOM     97  O   UNL A   1      53.574  24.137  24.970  1.00  0.00    -0.237 OA
ATOM     98  O   UNL A   1      53.689  26.060  23.433  1.00  0.00    -0.744 OA
ENDBRANCH  94  95
ENDBRANCH  62  87
ENDBRANCH  36  37
ENDBRANCH  29  31
ENDBRANCH  28  29
ENDBRANCH  27  28
ENDBRANCH  26  27
ENDBRANCH  25  26
ENDBRANCH  24  25
ENDBRANCH   1  24
TORSDOF 23
ENDMDL
