MODEL 1
REMARK VINA RESULT:     -11.2      0.000      0.000
REMARK SMILES Cc1nc(NC(=O)[C@@H]2CCC[C@@H](C(=O)OCCOCCOCCOC(=O)c3ccc(-c4c5nc(c(-c6c(F)cc(S(=O)(=O)[O-])cc6F)c6ccc([nH]6)c(-c6c(F)cc(S(=O)(=O)[O-])cc6F)c6nc(c(-c7c(F)cc(S(=O)(=O)[O-])cc7F)c7ccc4[nH]7)C=C6)C=C5)cc3)C2)ccc1Br
REMARK SMILES IDX 20 1 19 2 18 3 17 4 16 5 15 6 13 7 14 8 12 9 8 10 9 11 93 12
REMARK SMILES IDX 10 13 11 14 6 15 5 16 7 18 4 19 1 20 2 21 3 22 96 23 95 24
REMARK SMILES IDX 97 25 94 26 21 27 22 28 23 29 24 30 25 31 26 32 27 33 28 34
REMARK SMILES IDX 92 35 29 36 91 37 30 38 31 39 32 40 85 41 33 42 90 43 84 44
REMARK SMILES IDX 86 45 34 46 89 47 83 48 82 49 35 51 69 52 48 53 68 54 49 55
REMARK SMILES IDX 52 56 67 57 87 58 50 59 51 60 66 62 88 63 53 64 36 65 37 66
REMARK SMILES IDX 46 67 38 68 39 69 45 70 47 71 40 72 41 73 42 74 43 75 44 76
REMARK SMILES IDX 70 77 71 78 80 79 72 80 73 81 79 82 81 83 74 84 75 85 76 86
REMARK SMILES IDX 77 87 78 88 54 89 55 90 64 91 56 92 57 93 63 94 65 95 58 96
REMARK SMILES IDX 59 97 60 98 61 99 62 100
REMARK H PARENT 5 17 86 50 52 61
REMARK Flexibility Score: inf
ROOT
ATOM      1  C   UNL A   1      34.398  34.799  29.046  1.00  0.00     0.188 C 
ENDROOT
BRANCH   1   2
ATOM      2  C   UNL A   1      33.928  33.463  28.420  1.00  0.00     0.188 C 
BRANCH   2   3
ATOM      3  O   UNL A   1      34.903  32.504  28.175  1.00  0.00    -0.376 OA
BRANCH   3   4
ATOM      4  C   UNL A   1      34.415  31.231  27.854  1.00  0.00     0.202 C 
BRANCH   4   5
ATOM      5  C   UNL A   1      33.066  30.968  27.095  1.00  0.00     0.261 C 
BRANCH   5   6
ATOM      6  O   UNL A   1      32.977  30.191  25.844  1.00  0.00    -0.463 OA
BRANCH   6   7
ATOM      7  C   UNL A   1      31.775  30.001  25.206  1.00  0.00     0.309 C 
ATOM      8  O   UNL A   1      30.816  30.746  25.388  1.00  0.00    -0.252 OA
BRANCH   7   9
ATOM      9  C   UNL A   1      31.688  28.777  24.194  1.00  0.00     0.100 C 
ATOM     10  C   UNL A   1      30.401  26.579  25.079  1.00  0.00     0.080 C 
ATOM     11  C   UNL A   1      29.704  26.451  23.712  1.00  0.00     0.013 C 
ATOM     12  C   UNL A   1      31.788  27.298  24.757  1.00  0.00     0.028 C 
ATOM     13  C   UNL A   1      29.493  27.858  23.070  1.00  0.00     0.002 C 
ATOM     14  C   UNL A   1      30.690  28.833  23.031  1.00  0.00     0.015 C 
BRANCH  10  15
ATOM     15  C   UNL A   1      30.216  25.257  26.266  1.00  0.00     0.228 C 
ATOM     16  N   UNL A   1      31.398  24.201  26.772  1.00  0.00    -0.310 N 
ATOM     17  H   UNL A   1      31.148  23.795  27.633  1.00  0.00     0.171 HD
ATOM     18  O   UNL A   1      29.137  25.160  26.872  1.00  0.00    -0.274 OA
BRANCH  16  19
ATOM     19  C   UNL A   1      33.194  23.498  26.155  1.00  0.00     0.132 A 
ATOM     20  C   UNL A   1      35.235  20.585  25.043  1.00  0.00     0.068 C 
ATOM     21  C   UNL A   1      35.016  21.872  25.805  1.00  0.00     0.054 A 
ATOM     22  N   UNL A   1      33.680  22.194  26.128  1.00  0.00    -0.235 NA
ATOM     23  C   UNL A   1      36.083  22.768  25.738  1.00  0.00     0.039 A 
ATOM     24  C   UNL A   1      35.745  24.056  25.524  1.00  0.00     0.021 A 
ATOM     25  Br  UNL A   1      37.911  22.311  25.612  1.00  0.00    -0.049 Br
ATOM     26  C   UNL A   1      34.389  24.338  25.561  1.00  0.00     0.048 A 
ENDBRANCH  16  19
ENDBRANCH  10  15
ENDBRANCH   7   9
ENDBRANCH   6   7
ENDBRANCH   5   6
ENDBRANCH   4   5
ENDBRANCH   3   4
ENDBRANCH   2   3
ENDBRANCH   1   2
BRANCH   1  27
ATOM     27  O   UNL A   1      34.045  35.107  30.373  1.00  0.00    -0.376 OA
BRANCH  27  28
ATOM     28  C   UNL A   1      34.458  34.190  31.370  1.00  0.00     0.202 C 
BRANCH  28  29
ATOM     29  C   UNL A   1      35.957  34.067  31.702  1.00  0.00     0.261 C 
BRANCH  29  30
ATOM     30  O   UNL A   1      36.653  33.049  30.959  1.00  0.00    -0.460 OA
BRANCH  30  31
ATOM     31  C   UNL A   1      36.250  31.773  31.162  1.00  0.00     0.338 C 
ATOM     32  O   UNL A   1      35.117  31.380  31.379  1.00  0.00    -0.246 OA
BRANCH  31  33
ATOM     33  C   UNL A   1      37.390  30.842  31.023  1.00  0.00     0.060 A 
ATOM     34  C   UNL A   1      38.669  30.475  32.313  1.00  0.00     0.016 A 
ATOM     35  C   UNL A   1      37.817  30.728  29.302  1.00  0.00     0.016 A 
ATOM     36  C   UNL A   1      40.441  30.054  31.766  1.00  0.00     0.010 A 
ATOM     37  C   UNL A   1      39.454  30.266  28.779  1.00  0.00     0.010 A 
ATOM     38  C   UNL A   1      40.773  29.957  29.965  1.00  0.00    -0.014 A 
BRANCH  38  39
ATOM     39  C   UNL A   1      42.011  29.566  29.230  1.00  0.00     0.031 A 
ATOM     40  C   UNL A   1      42.263  28.106  28.861  1.00  0.00     0.074 A 
ATOM     41  C   UNL A   1      43.037  30.438  29.230  1.00  0.00     0.049 A 
ATOM     42  N   UNL A   1      43.340  27.551  28.359  1.00  0.00    -0.248 NA
ATOM     43  C   UNL A   1      41.182  27.132  29.118  1.00  0.00     0.031 C 
ATOM     44  C   UNL A   1      42.971  31.806  29.736  1.00  0.00     0.029 A 
ATOM     45  N   UNL A   1      44.346  30.301  28.842  1.00  0.00    -0.354 N 
ATOM     46  C   UNL A   1      43.042  26.198  28.188  1.00  0.00     0.074 A 
ATOM     47  C   UNL A   1      41.735  25.980  28.757  1.00  0.00     0.031 C 
ATOM     48  C   UNL A   1      44.171  32.389  29.626  1.00  0.00     0.029 A 
ATOM     49  C   UNL A   1      45.098  31.439  29.031  1.00  0.00     0.049 A 
ATOM     50  H   UNL A   1      44.713  29.470  28.466  1.00  0.00     0.167 HD
ATOM     51  C   UNL A   1      43.766  25.242  27.554  1.00  0.00     0.037 A 
ATOM     52  C   UNL A   1      46.382  31.702  28.729  1.00  0.00     0.037 A 
ATOM     53  C   UNL A   1      45.076  25.487  27.008  1.00  0.00     0.049 A 
ATOM     54  C   UNL A   1      47.172  30.634  28.026  1.00  0.00     0.074 A 
ATOM     55  C   UNL A   1      45.882  24.636  26.273  1.00  0.00     0.029 A 
ATOM     56  N   UNL A   1      45.773  26.678  27.151  1.00  0.00    -0.354 N 
ATOM     57  N   UNL A   1      46.802  29.415  27.710  1.00  0.00    -0.248 NA
ATOM     58  C   UNL A   1      48.532  30.984  27.600  1.00  0.00     0.031 C 
ATOM     59  C   UNL A   1      47.087  25.295  26.020  1.00  0.00     0.029 A 
ATOM     60  C   UNL A   1      47.009  26.578  26.540  1.00  0.00     0.049 A 
ATOM     61  H   UNL A   1      45.437  27.477  27.618  1.00  0.00     0.167 HD
ATOM     62  C   UNL A   1      47.867  28.867  27.010  1.00  0.00     0.074 A 
ATOM     63  C   UNL A   1      48.886  29.895  26.933  1.00  0.00     0.031 C 
ATOM     64  C   UNL A   1      47.996  27.626  26.479  1.00  0.00     0.037 A 
BRANCH  51  65
ATOM     65  C   UNL A   1      43.146  23.882  27.317  1.00  0.00     0.058 A 
ATOM     66  C   UNL A   1      42.701  23.511  26.035  1.00  0.00     0.135 A 
ATOM     67  C   UNL A   1      43.130  22.892  28.314  1.00  0.00     0.135 A 
ATOM     68  F   UNL A   1      42.690  24.410  25.038  1.00  0.00    -0.206 F 
ATOM     69  C   UNL A   1      42.265  22.220  25.753  1.00  0.00     0.059 A 
ATOM     70  C   UNL A   1      42.721  21.584  28.048  1.00  0.00     0.059 A 
ATOM     71  F   UNL A   1      43.546  23.179  29.558  1.00  0.00    -0.206 F 
ATOM     72  C   UNL A   1      42.294  21.257  26.762  1.00  0.00     0.060 A 
BRANCH  72  73
ATOM     73  S   UNL A   1      41.793  19.570  26.350  1.00  0.00     0.124 S 
ATOM     74  O   UNL A   1      40.344  19.705  26.252  1.00  0.00    -0.237 OA
ATOM     75  O   UNL A   1      42.494  19.339  25.091  1.00  0.00    -0.237 OA
ATOM     76  O   UNL A   1      42.271  18.784  27.484  1.00  0.00    -0.744 OA
ENDBRANCH  72  73
ENDBRANCH  51  65
BRANCH  52  77
ATOM     77  C   UNL A   1      46.944  33.060  28.970  1.00  0.00     0.058 A 
ATOM     78  C   UNL A   1      46.814  34.067  28.001  1.00  0.00     0.135 A 
ATOM     79  C   UNL A   1      47.588  33.394  30.173  1.00  0.00     0.135 A 
ATOM     80  F   UNL A   1      46.185  33.807  26.844  1.00  0.00    -0.206 F 
ATOM     81  C   UNL A   1      47.346  35.337  28.191  1.00  0.00     0.059 A 
ATOM     82  C   UNL A   1      48.100  34.669  30.398  1.00  0.00     0.059 A 
ATOM     83  F   UNL A   1      47.699  32.485  31.154  1.00  0.00    -0.206 F 
ATOM     84  C   UNL A   1      47.993  35.627  29.392  1.00  0.00     0.060 A 
BRANCH  84  85
ATOM     85  S   UNL A   1      48.696  37.277  29.612  1.00  0.00     0.124 S 
ATOM     86  O   UNL A   1      48.086  37.690  30.870  1.00  0.00    -0.237 OA
ATOM     87  O   UNL A   1      50.127  36.992  29.658  1.00  0.00    -0.237 OA
ATOM     88  O   UNL A   1      48.243  37.997  28.426  1.00  0.00    -0.744 OA
ENDBRANCH  84  85
ENDBRANCH  52  77
BRANCH  64  89
ATOM     89  C   UNL A   1      49.276  27.319  25.760  1.00  0.00     0.058 A 
ATOM     90  C   UNL A   1      49.371  27.419  24.364  1.00  0.00     0.135 A 
ATOM     91  C   UNL A   1      50.438  26.996  26.481  1.00  0.00     0.135 A 
ATOM     92  F   UNL A   1      48.286  27.720  23.632  1.00  0.00    -0.206 F 
ATOM     93  C   UNL A   1      50.567  27.183  23.703  1.00  0.00     0.059 A 
ATOM     94  C   UNL A   1      51.656  26.798  25.843  1.00  0.00     0.059 A 
ATOM     95  F   UNL A   1      50.401  26.901  27.820  1.00  0.00    -0.206 F 
ATOM     96  C   UNL A   1      51.706  26.883  24.453  1.00  0.00     0.060 A 
BRANCH  96  97
ATOM     97  S   UNL A   1      53.258  26.621  23.575  1.00  0.00     0.124 S 
ATOM     98  O   UNL A   1      53.557  25.234  23.914  1.00  0.00    -0.237 OA
ATOM     99  O   UNL A   1      52.872  26.867  22.189  1.00  0.00    -0.237 OA
ATOM    100  O   UNL A   1      54.154  27.616  24.158  1.00  0.00    -0.744 OA
ENDBRANCH  96  97
ENDBRANCH  64  89
ENDBRANCH  38  39
ENDBRANCH  31  33
ENDBRANCH  30  31
ENDBRANCH  29  30
ENDBRANCH  28  29
ENDBRANCH  27  28
ENDBRANCH   1  27
TORSDOF 22
ENDMDL
MODEL 2
REMARK VINA RESULT:     -11.0      6.031     12.196
REMARK SMILES Cc1nc(NC(=O)[C@@H]2CCC[C@@H](C(=O)OCCOCCOCCOC(=O)c3ccc(-c4c5nc(c(-c6c(F)cc(S(=O)(=O)[O-])cc6F)c6ccc([nH]6)c(-c6c(F)cc(S(=O)(=O)[O-])cc6F)c6nc(c(-c7c(F)cc(S(=O)(=O)[O-])cc7F)c7ccc4[nH]7)C=C6)C=C5)cc3)C2)ccc1Br
REMARK SMILES IDX 20 1 19 2 18 3 17 4 16 5 15 6 13 7 14 8 12 9 8 10 9 11 93 12
REMARK SMILES IDX 10 13 11 14 6 15 5 16 7 18 4 19 1 20 2 21 3 22 96 23 95 24
REMARK SMILES IDX 97 25 94 26 21 27 22 28 23 29 24 30 25 31 26 32 27 33 28 34
REMARK SMILES IDX 92 35 29 36 91 37 30 38 31 39 32 40 85 41 33 42 90 43 84 44
REMARK SMILES IDX 86 45 34 46 89 47 83 48 82 49 35 51 69 52 48 53 68 54 49 55
REMARK SMILES IDX 52 56 67 57 87 58 50 59 51 60 66 62 88 63 53 64 36 65 37 66
REMARK SMILES IDX 46 67 38 68 39 69 45 70 47 71 40 72 41 73 42 74 43 75 44 76
REMARK SMILES IDX 70 77 71 78 80 79 72 80 73 81 79 82 81 83 74 84 75 85 76 86
REMARK SMILES IDX 77 87 78 88 54 89 55 90 64 91 56 92 57 93 63 94 65 95 58 96
REMARK SMILES IDX 59 97 60 98 61 99 62 100
REMARK H PARENT 5 17 86 50 52 61
REMARK Flexibility Score: inf
ROOT
ATOM      1  C   UNL A   1      38.792  23.246  26.354  1.00  0.00     0.188 C 
ENDROOT
BRANCH   1   2
ATOM      2  C   UNL A   1      37.287  23.239  25.991  1.00  0.00     0.188 C 
BRANCH   2   3
ATOM      3  O   UNL A   1      36.963  23.111  24.646  1.00  0.00    -0.376 OA
BRANCH   3   4
ATOM      4  C   UNL A   1      36.968  21.799  24.157  1.00  0.00     0.202 C 
BRANCH   4   5
ATOM      5  C   UNL A   1      36.473  20.552  24.972  1.00  0.00     0.261 C 
BRANCH   5   6
ATOM      6  O   UNL A   1      35.063  20.340  25.354  1.00  0.00    -0.463 OA
BRANCH   6   7
ATOM      7  C   UNL A   1      34.250  19.491  24.642  1.00  0.00     0.309 C 
ATOM      8  O   UNL A   1      34.620  18.371  24.299  1.00  0.00    -0.252 OA
BRANCH   7   9
ATOM      9  C   UNL A   1      32.789  20.019  24.300  1.00  0.00     0.100 C 
ATOM     10  C   UNL A   1      32.086  22.385  25.384  1.00  0.00     0.080 C 
ATOM     11  C   UNL A   1      31.454  22.799  24.043  1.00  0.00     0.013 C 
ATOM     12  C   UNL A   1      31.966  20.795  25.411  1.00  0.00     0.028 C 
ATOM     13  C   UNL A   1      32.217  22.140  22.850  1.00  0.00     0.002 C 
ATOM     14  C   UNL A   1      32.515  20.626  22.918  1.00  0.00     0.015 C 
BRANCH  10  15
ATOM     15  C   UNL A   1      31.831  23.427  26.812  1.00  0.00     0.228 C 
ATOM     16  N   UNL A   1      31.062  24.901  26.844  1.00  0.00    -0.310 N 
ATOM     17  H   UNL A   1      30.771  25.116  27.760  1.00  0.00     0.171 HD
ATOM     18  O   UNL A   1      32.154  22.985  27.926  1.00  0.00    -0.274 OA
BRANCH  16  19
ATOM     19  C   UNL A   1      30.542  26.389  25.571  1.00  0.00     0.132 A 
ATOM     20  C   UNL A   1      27.964  27.869  23.325  1.00  0.00     0.068 C 
ATOM     21  C   UNL A   1      29.379  27.492  23.696  1.00  0.00     0.054 A 
ATOM     22  N   UNL A   1      29.530  26.434  24.618  1.00  0.00    -0.235 NA
ATOM     23  C   UNL A   1      30.328  28.475  23.414  1.00  0.00     0.039 A 
ATOM     24  C   UNL A   1      31.240  28.695  24.384  1.00  0.00     0.021 A 
ATOM     25  Br  UNL A   1      30.264  29.701  21.979  1.00  0.00    -0.049 Br
ATOM     26  C   UNL A   1      31.212  27.811  25.451  1.00  0.00     0.048 A 
ENDBRANCH  16  19
ENDBRANCH  10  15
ENDBRANCH   7   9
ENDBRANCH   6   7
ENDBRANCH   5   6
ENDBRANCH   4   5
ENDBRANCH   3   4
ENDBRANCH   2   3
ENDBRANCH   1   2
BRANCH   1  27
ATOM     27  O   UNL A   1      39.379  22.092  26.909  1.00  0.00    -0.376 OA
BRANCH  27  28
ATOM     28  C   UNL A   1      40.368  21.445  26.129  1.00  0.00     0.202 C 
BRANCH  28  29
ATOM     29  C   UNL A   1      41.787  22.041  26.074  1.00  0.00     0.261 C 
BRANCH  29  30
ATOM     30  O   UNL A   1      41.837  23.433  25.709  1.00  0.00    -0.460 OA
BRANCH  30  31
ATOM     31  C   UNL A   1      42.860  24.155  26.223  1.00  0.00     0.338 C 
ATOM     32  O   UNL A   1      44.046  23.876  26.202  1.00  0.00    -0.246 OA
BRANCH  31  33
ATOM     33  C   UNL A   1      42.361  25.425  26.793  1.00  0.00     0.060 A 
ATOM     34  C   UNL A   1      43.182  27.081  26.660  1.00  0.00     0.016 A 
ATOM     35  C   UNL A   1      41.355  25.050  28.208  1.00  0.00     0.016 A 
ATOM     36  C   UNL A   1      42.988  28.326  28.084  1.00  0.00     0.010 A 
ATOM     37  C   UNL A   1      41.110  26.235  29.514  1.00  0.00     0.010 A 
ATOM     38  C   UNL A   1      41.922  27.842  29.497  1.00  0.00    -0.014 A 
BRANCH  38  39
ATOM     39  C   UNL A   1      41.503  28.615  30.700  1.00  0.00     0.031 A 
ATOM     40  C   UNL A   1      40.436  29.702  30.589  1.00  0.00     0.074 A 
ATOM     41  C   UNL A   1      42.320  28.594  31.771  1.00  0.00     0.049 A 
ATOM     42  N   UNL A   1      40.047  30.578  31.484  1.00  0.00    -0.248 NA
ATOM     43  C   UNL A   1      39.735  29.853  29.297  1.00  0.00     0.031 C 
ATOM     44  C   UNL A   1      43.489  27.732  31.911  1.00  0.00     0.029 A 
ATOM     45  N   UNL A   1      42.332  29.344  32.920  1.00  0.00    -0.354 N 
ATOM     46  C   UNL A   1      39.031  31.327  30.887  1.00  0.00     0.074 A 
ATOM     47  C   UNL A   1      38.945  30.897  29.512  1.00  0.00     0.031 C 
ATOM     48  C   UNL A   1      44.105  27.987  33.073  1.00  0.00     0.029 A 
ATOM     49  C   UNL A   1      43.368  29.030  33.771  1.00  0.00     0.049 A 
ATOM     50  H   UNL A   1      41.665  30.040  33.118  1.00  0.00     0.167 HD
ATOM     51  C   UNL A   1      38.201  32.238  31.453  1.00  0.00     0.037 A 
ATOM     52  C   UNL A   1      43.674  29.503  34.992  1.00  0.00     0.037 A 
ATOM     53  C   UNL A   1      38.321  32.657  32.826  1.00  0.00     0.049 A 
ATOM     54  C   UNL A   1      42.746  30.512  35.608  1.00  0.00     0.074 A 
ATOM     55  C   UNL A   1      37.503  33.507  33.547  1.00  0.00     0.029 A 
ATOM     56  N   UNL A   1      39.338  32.256  33.680  1.00  0.00    -0.354 N 
ATOM     57  N   UNL A   1      41.679  31.071  35.086  1.00  0.00    -0.248 NA
ATOM     58  C   UNL A   1      43.033  30.925  36.987  1.00  0.00     0.031 C 
ATOM     59  C   UNL A   1      38.056  33.662  34.821  1.00  0.00     0.029 A 
ATOM     60  C   UNL A   1      39.183  32.860  34.915  1.00  0.00     0.049 A 
ATOM     61  H   UNL A   1      40.063  31.633  33.444  1.00  0.00     0.167 HD
ATOM     62  C   UNL A   1      41.142  31.867  36.087  1.00  0.00     0.074 A 
ATOM     63  C   UNL A   1      41.992  31.702  37.250  1.00  0.00     0.031 C 
ATOM     64  C   UNL A   1      40.047  32.666  36.051  1.00  0.00     0.037 A 
BRANCH  51  65
ATOM     65  C   UNL A   1      37.037  32.776  30.651  1.00  0.00     0.058 A 
ATOM     66  C   UNL A   1      35.728  32.321  30.894  1.00  0.00     0.135 A 
ATOM     67  C   UNL A   1      37.189  33.845  29.751  1.00  0.00     0.135 A 
ATOM     68  F   UNL A   1      35.514  31.302  31.741  1.00  0.00    -0.206 F 
ATOM     69  C   UNL A   1      34.622  32.901  30.279  1.00  0.00     0.059 A 
ATOM     70  C   UNL A   1      36.092  34.459  29.143  1.00  0.00     0.059 A 
ATOM     71  F   UNL A   1      38.411  34.331  29.479  1.00  0.00    -0.206 F 
ATOM     72  C   UNL A   1      34.812  33.982  29.418  1.00  0.00     0.060 A 
BRANCH  72  73
ATOM     73  S   UNL A   1      33.353  34.764  28.691  1.00  0.00     0.124 S 
ATOM     74  O   UNL A   1      32.508  34.965  29.864  1.00  0.00    -0.237 OA
ATOM     75  O   UNL A   1      33.915  35.974  28.100  1.00  0.00    -0.237 OA
ATOM     76  O   UNL A   1      32.869  33.769  27.738  1.00  0.00    -0.744 OA
ENDBRANCH  72  73
ENDBRANCH  51  65
BRANCH  52  77
ATOM     77  C   UNL A   1      44.823  28.933  35.749  1.00  0.00     0.058 A 
ATOM     78  C   UNL A   1      44.653  27.797  36.555  1.00  0.00     0.135 A 
ATOM     79  C   UNL A   1      46.114  29.480  35.662  1.00  0.00     0.135 A 
ATOM     80  F   UNL A   1      43.445  27.220  36.654  1.00  0.00    -0.206 F 
ATOM     81  C   UNL A   1      45.702  27.255  37.288  1.00  0.00     0.059 A 
ATOM     82  C   UNL A   1      47.188  28.936  36.360  1.00  0.00     0.059 A 
ATOM     83  F   UNL A   1      46.346  30.538  34.869  1.00  0.00    -0.206 F 
ATOM     84  C   UNL A   1      46.967  27.836  37.188  1.00  0.00     0.060 A 
BRANCH  84  85
ATOM     85  S   UNL A   1      48.314  27.131  38.163  1.00  0.00     0.124 S 
ATOM     86  O   UNL A   1      47.676  25.952  38.735  1.00  0.00    -0.237 OA
ATOM     87  O   UNL A   1      49.327  26.879  37.143  1.00  0.00    -0.237 OA
ATOM     88  O   UNL A   1      48.636  28.194  39.110  1.00  0.00    -0.744 OA
ENDBRANCH  84  85
ENDBRANCH  52  77
BRANCH  64  89
ATOM     89  C   UNL A   1      39.702  33.410  37.308  1.00  0.00     0.058 A 
ATOM     90  C   UNL A   1      38.777  32.895  38.229  1.00  0.00     0.135 A 
ATOM     91  C   UNL A   1      40.358  34.609  37.628  1.00  0.00     0.135 A 
ATOM     92  F   UNL A   1      38.122  31.753  37.964  1.00  0.00    -0.206 F 
ATOM     93  C   UNL A   1      38.495  33.558  39.414  1.00  0.00     0.059 A 
ATOM     94  C   UNL A   1      40.121  35.268  38.828  1.00  0.00     0.059 A 
ATOM     95  F   UNL A   1      41.260  35.136  36.784  1.00  0.00    -0.206 F 
ATOM     96  C   UNL A   1      39.179  34.738  39.709  1.00  0.00     0.060 A 
BRANCH  96  97
ATOM     97  S   UNL A   1      38.824  35.561  41.273  1.00  0.00     0.124 S 
ATOM     98  O   UNL A   1      37.649  34.828  41.731  1.00  0.00    -0.237 OA
ATOM     99  O   UNL A   1      40.052  35.327  42.026  1.00  0.00    -0.237 OA
ATOM    100  O   UNL A   1      38.586  36.948  40.884  1.00  0.00    -0.744 OA
ENDBRANCH  96  97
ENDBRANCH  64  89
ENDBRANCH  38  39
ENDBRANCH  31  33
ENDBRANCH  30  31
ENDBRANCH  29  30
ENDBRANCH  28  29
ENDBRANCH  27  28
ENDBRANCH   1  27
TORSDOF 22
ENDMDL
MODEL 3
REMARK VINA RESULT:     -10.8      1.582      8.419
REMARK SMILES Cc1nc(NC(=O)[C@@H]2CCC[C@@H](C(=O)OCCOCCOCCOC(=O)c3ccc(-c4c5nc(c(-c6c(F)cc(S(=O)(=O)[O-])cc6F)c6ccc([nH]6)c(-c6c(F)cc(S(=O)(=O)[O-])cc6F)c6nc(c(-c7c(F)cc(S(=O)(=O)[O-])cc7F)c7ccc4[nH]7)C=C6)C=C5)cc3)C2)ccc1Br
REMARK SMILES IDX 20 1 19 2 18 3 17 4 16 5 15 6 13 7 14 8 12 9 8 10 9 11 93 12
REMARK SMILES IDX 10 13 11 14 6 15 5 16 7 18 4 19 1 20 2 21 3 22 96 23 95 24
REMARK SMILES IDX 97 25 94 26 21 27 22 28 23 29 24 30 25 31 26 32 27 33 28 34
REMARK SMILES IDX 92 35 29 36 91 37 30 38 31 39 32 40 85 41 33 42 90 43 84 44
REMARK SMILES IDX 86 45 34 46 89 47 83 48 82 49 35 51 69 52 48 53 68 54 49 55
REMARK SMILES IDX 52 56 67 57 87 58 50 59 51 60 66 62 88 63 53 64 36 65 37 66
REMARK SMILES IDX 46 67 38 68 39 69 45 70 47 71 40 72 41 73 42 74 43 75 44 76
REMARK SMILES IDX 70 77 71 78 80 79 72 80 73 81 79 82 81 83 74 84 75 85 76 86
REMARK SMILES IDX 77 87 78 88 54 89 55 90 64 91 56 92 57 93 63 94 65 95 58 96
REMARK SMILES IDX 59 97 60 98 61 99 62 100
REMARK H PARENT 5 17 86 50 52 61
REMARK Flexibility Score: inf
ROOT
ATOM      1  C   UNL A   1      31.903  30.558  26.557  1.00  0.00     0.188 C 
ENDROOT
BRANCH   1   2
ATOM      2  C   UNL A   1      31.907  29.557  25.376  1.00  0.00     0.188 C 
BRANCH   2   3
ATOM      3  O   UNL A   1      32.011  28.208  25.694  1.00  0.00    -0.376 OA
BRANCH   3   4
ATOM      4  C   UNL A   1      33.108  27.548  25.127  1.00  0.00     0.202 C 
BRANCH   4   5
ATOM      5  C   UNL A   1      33.874  28.045  23.850  1.00  0.00     0.261 C 
BRANCH   5   6
ATOM      6  O   UNL A   1      33.667  27.473  22.506  1.00  0.00    -0.463 OA
BRANCH   6   7
ATOM      7  C   UNL A   1      33.312  26.156  22.337  1.00  0.00     0.309 C 
ATOM      8  O   UNL A   1      34.148  25.257  22.297  1.00  0.00    -0.252 OA
BRANCH   7   9
ATOM      9  C   UNL A   1      31.757  25.844  22.218  1.00  0.00     0.100 C 
ATOM     10  C   UNL A   1      30.469  25.277  24.517  1.00  0.00     0.080 C 
ATOM     11  C   UNL A   1      29.296  26.167  24.067  1.00  0.00     0.013 C 
ATOM     12  C   UNL A   1      31.114  24.743  23.161  1.00  0.00     0.028 C 
ATOM     13  C   UNL A   1      29.808  27.336  23.168  1.00  0.00     0.002 C 
ATOM     14  C   UNL A   1      30.773  27.001  22.009  1.00  0.00     0.015 C 
BRANCH  10  15
ATOM     15  C   UNL A   1      30.278  24.283  25.989  1.00  0.00     0.228 C 
ATOM     16  N   UNL A   1      31.110  22.893  26.366  1.00  0.00    -0.310 N 
ATOM     17  H   UNL A   1      31.066  22.719  27.334  1.00  0.00     0.171 HD
ATOM     18  O   UNL A   1      29.534  24.703  26.889  1.00  0.00    -0.274 OA
BRANCH  16  19
ATOM     19  C   UNL A   1      32.188  21.450  25.438  1.00  0.00     0.132 A 
ATOM     20  C   UNL A   1      32.229  18.538  23.114  1.00  0.00     0.068 C 
ATOM     21  C   UNL A   1      32.654  19.281  24.359  1.00  0.00     0.054 A 
ATOM     22  N   UNL A   1      31.766  20.267  24.840  1.00  0.00    -0.235 NA
ATOM     23  C   UNL A   1      34.018  19.200  24.640  1.00  0.00     0.039 A 
ATOM     24  C   UNL A   1      34.604  20.358  25.008  1.00  0.00     0.021 A 
ATOM     25  Br  UNL A   1      35.144  17.732  24.260  1.00  0.00    -0.049 Br
ATOM     26  C   UNL A   1      33.748  21.428  25.214  1.00  0.00     0.048 A 
ENDBRANCH  16  19
ENDBRANCH  10  15
ENDBRANCH   7   9
ENDBRANCH   6   7
ENDBRANCH   5   6
ENDBRANCH   4   5
ENDBRANCH   3   4
ENDBRANCH   2   3
ENDBRANCH   1   2
BRANCH   1  27
ATOM     27  O   UNL A   1      32.923  30.496  27.525  1.00  0.00    -0.376 OA
BRANCH  27  28
ATOM     28  C   UNL A   1      34.251  30.391  27.044  1.00  0.00     0.202 C 
BRANCH  28  29
ATOM     29  C   UNL A   1      35.422  30.618  28.018  1.00  0.00     0.261 C 
BRANCH  29  30
ATOM     30  O   UNL A   1      35.049  31.221  29.271  1.00  0.00    -0.460 OA
BRANCH  30  31
ATOM     31  C   UNL A   1      36.051  31.459  30.148  1.00  0.00     0.338 C 
ATOM     32  O   UNL A   1      36.123  32.366  30.960  1.00  0.00    -0.246 OA
BRANCH  31  33
ATOM     33  C   UNL A   1      37.083  30.405  30.055  1.00  0.00     0.060 A 
ATOM     34  C   UNL A   1      37.745  29.393  31.460  1.00  0.00     0.016 A 
ATOM     35  C   UNL A   1      38.118  30.753  28.654  1.00  0.00     0.016 A 
ATOM     36  C   UNL A   1      39.554  28.807  31.405  1.00  0.00     0.010 A 
ATOM     37  C   UNL A   1      39.790  30.150  28.561  1.00  0.00     0.010 A 
ATOM     38  C   UNL A   1      40.534  29.215  29.909  1.00  0.00    -0.014 A 
BRANCH  38  39
ATOM     39  C   UNL A   1      41.923  28.828  29.528  1.00  0.00     0.031 A 
ATOM     40  C   UNL A   1      43.004  29.893  29.358  1.00  0.00     0.074 A 
ATOM     41  C   UNL A   1      42.106  27.606  28.994  1.00  0.00     0.049 A 
ATOM     42  N   UNL A   1      44.223  29.772  28.890  1.00  0.00    -0.248 NA
ATOM     43  C   UNL A   1      42.668  31.285  29.728  1.00  0.00     0.031 C 
ATOM     44  C   UNL A   1      41.085  26.565  28.924  1.00  0.00     0.029 A 
ATOM     45  N   UNL A   1      43.186  27.042  28.363  1.00  0.00    -0.354 N 
ATOM     46  C   UNL A   1      44.803  31.040  28.968  1.00  0.00     0.074 A 
ATOM     47  C   UNL A   1      43.771  31.948  29.404  1.00  0.00     0.031 C 
ATOM     48  C   UNL A   1      41.577  25.488  28.298  1.00  0.00     0.029 A 
ATOM     49  C   UNL A   1      42.957  25.756  27.926  1.00  0.00     0.049 A 
ATOM     50  H   UNL A   1      44.041  27.511  28.233  1.00  0.00     0.167 HD
ATOM     51  C   UNL A   1      46.095  31.398  28.760  1.00  0.00     0.037 A 
ATOM     52  C   UNL A   1      43.777  24.876  27.322  1.00  0.00     0.037 A 
ATOM     53  C   UNL A   1      47.100  30.469  28.311  1.00  0.00     0.049 A 
ATOM     54  C   UNL A   1      45.206  25.286  27.099  1.00  0.00     0.074 A 
ATOM     55  C   UNL A   1      48.457  30.677  28.138  1.00  0.00     0.029 A 
ATOM     56  N   UNL A   1      46.846  29.152  27.953  1.00  0.00    -0.354 N 
ATOM     57  N   UNL A   1      45.777  26.440  27.354  1.00  0.00    -0.248 NA
ATOM     58  C   UNL A   1      46.111  24.270  26.549  1.00  0.00     0.031 C 
ATOM     59  C   UNL A   1      49.012  29.502  27.625  1.00  0.00     0.029 A 
ATOM     60  C   UNL A   1      48.015  28.542  27.537  1.00  0.00     0.049 A 
ATOM     61  H   UNL A   1      45.964  28.717  27.990  1.00  0.00     0.167 HD
ATOM     62  C   UNL A   1      47.118  26.275  27.036  1.00  0.00     0.074 A 
ATOM     63  C   UNL A   1      47.273  24.905  26.590  1.00  0.00     0.031 C 
ATOM     64  C   UNL A   1      48.131  27.173  27.104  1.00  0.00     0.037 A 
BRANCH  51  65
ATOM     65  C   UNL A   1      46.536  32.803  29.102  1.00  0.00     0.058 A 
ATOM     66  C   UNL A   1      47.030  33.108  30.383  1.00  0.00     0.135 A 
ATOM     67  C   UNL A   1      46.613  33.812  28.126  1.00  0.00     0.135 A 
ATOM     68  F   UNL A   1      46.984  32.189  31.360  1.00  0.00    -0.206 F 
ATOM     69  C   UNL A   1      47.581  34.351  30.683  1.00  0.00     0.059 A 
ATOM     70  C   UNL A   1      47.184  35.057  28.397  1.00  0.00     0.059 A 
ATOM     71  F   UNL A   1      46.164  33.585  26.882  1.00  0.00    -0.206 F 
ATOM     72  C   UNL A   1      47.669  35.315  29.679  1.00  0.00     0.060 A 
BRANCH  72  73
ATOM     73  S   UNL A   1      48.456  36.894  30.075  1.00  0.00     0.124 S 
ATOM     74  O   UNL A   1      48.401  37.584  28.790  1.00  0.00    -0.237 OA
ATOM     75  O   UNL A   1      47.579  37.422  31.115  1.00  0.00    -0.237 OA
ATOM     76  O   UNL A   1      49.792  36.509  30.519  1.00  0.00    -0.744 OA
ENDBRANCH  72  73
ENDBRANCH  51  65
BRANCH  52  77
ATOM     77  C   UNL A   1      43.302  23.499  27.016  1.00  0.00     0.058 A 
ATOM     78  C   UNL A   1      43.107  22.567  28.047  1.00  0.00     0.135 A 
ATOM     79  C   UNL A   1      42.998  23.092  25.707  1.00  0.00     0.135 A 
ATOM     80  F   UNL A   1      43.358  22.912  29.320  1.00  0.00    -0.206 F 
ATOM     81  C   UNL A   1      42.683  21.268  27.789  1.00  0.00     0.059 A 
ATOM     82  C   UNL A   1      42.541  21.807  25.427  1.00  0.00     0.059 A 
ATOM     83  F   UNL A   1      43.120  23.957  24.687  1.00  0.00    -0.206 F 
ATOM     84  C   UNL A   1      42.407  20.896  26.473  1.00  0.00     0.060 A 
BRANCH  84  85
ATOM     85  S   UNL A   1      41.877  19.199  26.155  1.00  0.00     0.124 S 
ATOM     86  O   UNL A   1      42.253  18.536  27.398  1.00  0.00    -0.237 OA
ATOM     87  O   UNL A   1      40.445  19.366  25.928  1.00  0.00    -0.237 OA
ATOM     88  O   UNL A   1      42.653  18.818  24.979  1.00  0.00    -0.744 OA
ENDBRANCH  84  85
ENDBRANCH  52  77
BRANCH  64  89
ATOM     89  C   UNL A   1      49.495  26.698  26.699  1.00  0.00     0.058 A 
ATOM     90  C   UNL A   1      49.923  26.760  25.365  1.00  0.00     0.135 A 
ATOM     91  C   UNL A   1      50.408  26.247  27.666  1.00  0.00     0.135 A 
ATOM     92  F   UNL A   1      49.084  27.181  24.404  1.00  0.00    -0.206 F 
ATOM     93  C   UNL A   1      51.201  26.367  24.998  1.00  0.00     0.059 A 
ATOM     94  C   UNL A   1      51.707  25.888  27.327  1.00  0.00     0.059 A 
ATOM     95  F   UNL A   1      50.050  26.181  28.959  1.00  0.00    -0.206 F 
ATOM     96  C   UNL A   1      52.089  25.941  25.988  1.00  0.00     0.060 A 
BRANCH  96  97
ATOM     97  S   UNL A   1      53.757  25.473  25.492  1.00  0.00     0.124 S 
ATOM     98  O   UNL A   1      54.412  25.307  26.785  1.00  0.00    -0.237 OA
ATOM     99  O   UNL A   1      53.519  24.246  24.738  1.00  0.00    -0.237 OA
ATOM    100  O   UNL A   1      54.212  26.613  24.701  1.00  0.00    -0.744 OA
ENDBRANCH  96  97
ENDBRANCH  64  89
ENDBRANCH  38  39
ENDBRANCH  31  33
ENDBRANCH  30  31
ENDBRANCH  29  30
ENDBRANCH  28  29
ENDBRANCH  27  28
ENDBRANCH   1  27
TORSDOF 22
ENDMDL
