MODEL 1
REMARK VINA RESULT:     -10.8      0.000      0.000
REMARK SMILES COc1cc(F)ccc1-c1ccc(=O)n(CC(=O)NCc2ccc(C(=O)OCCOCCOCCOC(=O)c3ccc(-c4c5nc(c(-c6c(F)cc(S(=O)(=O)[O-])cc6F)c6ccc([nH]6)c(-c6c(F)cc(S(=O)(=O)[O-])cc6F)c6nc(c(-c7c(F)cc(S(=O)(=O)[O-])cc7F)c7ccc4[nH]7)C=C6)C=C5)cc3)cc2)n1
REMARK SMILES IDX 30 1 29 2 28 3 27 4 25 5 26 6 24 7 21 8 22 9 106 10 23 11
REMARK SMILES IDX 105 12 20 13 19 14 17 15 18 16 16 18 15 19 10 20 11 21
REMARK SMILES IDX 107 22 12 23 13 24 14 25 9 26 3 27 4 28 5 29 8 30 6 31 7 32
REMARK SMILES IDX 2 33 1 34 31 35 32 36 33 37 34 38 35 39 36 40 37 41 38 42
REMARK SMILES IDX 39 43 40 44 104 45 41 46 103 47 42 48 43 49 44 50 97 51
REMARK SMILES IDX 45 52 102 53 96 54 98 55 46 56 101 57 95 58 94 59 47 61
REMARK SMILES IDX 81 62 60 63 80 64 61 65 64 66 79 67 99 68 62 69 63 70 78 72
REMARK SMILES IDX 100 73 65 74 48 75 49 76 58 77 50 78 51 79 57 80 59 81 52 82
REMARK SMILES IDX 53 83 54 84 55 85 56 86 82 87 83 88 92 89 84 90 85 91 91 92
REMARK SMILES IDX 93 93 86 94 87 95 88 96 89 97 90 98 66 99 67 100 76 101
REMARK SMILES IDX 68 102 69 103 75 104 77 105 70 106 71 107 72 108 73 109
REMARK SMILES IDX 74 110
REMARK H PARENT 19 17 98 60 64 71
REMARK Flexibility Score: inf
ROOT
ATOM      1  O   UNL A   1      42.518  20.647  27.144  1.00  0.00    -0.376 OA
ENDROOT
BRANCH   1   2
ATOM      2  C   UNL A   1      41.127  20.912  27.190  1.00  0.00     0.202 C 
BRANCH   2   3
ATOM      3  C   UNL A   1      40.355  21.841  26.231  1.00  0.00     0.261 C 
BRANCH   3   4
ATOM      4  O   UNL A   1      38.941  21.969  26.416  1.00  0.00    -0.460 OA
BRANCH   4   5
ATOM      5  C   UNL A   1      38.434  23.198  26.130  1.00  0.00     0.338 C 
ATOM      6  O   UNL A   1      39.026  24.262  26.203  1.00  0.00    -0.246 OA
BRANCH   5   7
ATOM      7  C   UNL A   1      37.088  23.075  25.524  1.00  0.00     0.060 A 
ATOM      8  C   UNL A   1      34.491  22.755  24.492  1.00  0.00    -0.029 A 
ATOM      9  C   UNL A   1      34.690  22.981  25.862  1.00  0.00     0.006 A 
ATOM     10  C   UNL A   1      35.608  22.770  23.638  1.00  0.00     0.006 A 
ATOM     11  C   UNL A   1      35.981  23.125  26.377  1.00  0.00     0.016 A 
ATOM     12  C   UNL A   1      36.902  22.926  24.148  1.00  0.00     0.016 A 
BRANCH   8  13
ATOM     13  C   UNL A   1      33.112  22.508  23.925  1.00  0.00     0.151 C 
BRANCH  13  14
ATOM     14  N   UNL A   1      32.063  23.075  24.747  1.00  0.00    -0.350 N 
ATOM     15  C   UNL A   1      31.033  23.903  24.413  1.00  0.00     0.242 C 
ATOM     16  O   UNL A   1      30.076  23.938  25.194  1.00  0.00    -0.273 OA
ATOM     17  H   UNL A   1      32.099  22.822  25.698  1.00  0.00     0.163 HD
BRANCH  15  18
ATOM     18  C   UNL A   1      30.960  24.605  23.056  1.00  0.00     0.248 C 
BRANCH  18  19
ATOM     19  N   UNL A   1      31.757  25.818  22.991  1.00  0.00    -0.220 N 
ATOM     20  C   UNL A   1      32.162  27.902  23.815  1.00  0.00     0.095 A 
ATOM     21  C   UNL A   1      33.347  28.072  22.965  1.00  0.00     0.037 A 
ATOM     22  N   UNL A   1      31.420  26.843  23.854  1.00  0.00    -0.169 NA
ATOM     23  C   UNL A   1      33.653  27.077  22.135  1.00  0.00     0.075 A 
ATOM     24  C   UNL A   1      32.845  25.844  22.127  1.00  0.00     0.267 A 
ATOM     25  O   UNL A   1      33.148  24.937  21.359  1.00  0.00    -0.268 OA
BRANCH  20  26
ATOM     26  C   UNL A   1      31.835  29.067  24.655  1.00  0.00     0.044 A 
ATOM     27  C   UNL A   1      32.565  29.301  25.826  1.00  0.00     0.131 A 
ATOM     28  C   UNL A   1      32.274  30.424  26.598  1.00  0.00     0.086 A 
ATOM     29  C   UNL A   1      31.256  31.286  26.195  1.00  0.00     0.126 A 
ATOM     30  C   UNL A   1      30.809  29.932  24.252  1.00  0.00     0.017 A 
ATOM     31  F   UNL A   1      30.977  32.364  26.941  1.00  0.00    -0.207 F 
ATOM     32  C   UNL A   1      30.527  31.055  25.029  1.00  0.00     0.040 A 
BRANCH  27  33
ATOM     33  O   UNL A   1      33.615  28.473  26.109  1.00  0.00    -0.496 OA
ATOM     34  C   UNL A   1      34.554  29.047  27.015  1.00  0.00     0.278 C 
ENDBRANCH  27  33
ENDBRANCH  20  26
ENDBRANCH  18  19
ENDBRANCH  15  18
ENDBRANCH  13  14
ENDBRANCH   8  13
ENDBRANCH   5   7
ENDBRANCH   4   5
ENDBRANCH   3   4
ENDBRANCH   2   3
ENDBRANCH   1   2
BRANCH   1  35
ATOM     35  C   UNL A   1      43.062  19.881  26.097  1.00  0.00     0.188 C 
BRANCH  35  36
ATOM     36  C   UNL A   1      43.996  20.639  25.127  1.00  0.00     0.188 C 
BRANCH  36  37
ATOM     37  O   UNL A   1      44.605  21.858  25.523  1.00  0.00    -0.376 OA
BRANCH  37  38
ATOM     38  C   UNL A   1      43.928  23.074  25.223  1.00  0.00     0.202 C 
BRANCH  38  39
ATOM     39  C   UNL A   1      43.415  23.999  26.344  1.00  0.00     0.261 C 
BRANCH  39  40
ATOM     40  O   UNL A   1      42.194  24.701  26.059  1.00  0.00    -0.460 OA
BRANCH  40  41
ATOM     41  C   UNL A   1      42.309  26.035  25.847  1.00  0.00     0.338 C 
ATOM     42  O   UNL A   1      42.417  26.611  24.774  1.00  0.00    -0.246 OA
BRANCH  41  43
ATOM     43  C   UNL A   1      42.127  26.741  27.127  1.00  0.00     0.060 A 
ATOM     44  C   UNL A   1      42.907  27.849  27.444  1.00  0.00     0.016 A 
ATOM     45  C   UNL A   1      41.139  26.302  28.013  1.00  0.00     0.016 A 
ATOM     46  C   UNL A   1      42.695  28.510  28.661  1.00  0.00     0.010 A 
ATOM     47  C   UNL A   1      40.960  26.937  29.239  1.00  0.00     0.010 A 
ATOM     48  C   UNL A   1      41.714  28.062  29.566  1.00  0.00    -0.014 A 
BRANCH  48  49
ATOM     49  C   UNL A   1      41.366  28.844  30.779  1.00  0.00     0.031 A 
ATOM     50  C   UNL A   1      42.120  28.689  32.069  1.00  0.00     0.074 A 
ATOM     51  C   UNL A   1      40.290  29.653  30.723  1.00  0.00     0.049 A 
ATOM     52  N   UNL A   1      42.004  29.387  33.170  1.00  0.00    -0.248 NA
ATOM     53  C   UNL A   1      43.106  27.601  32.149  1.00  0.00     0.031 C 
ATOM     54  C   UNL A   1      39.395  29.778  29.570  1.00  0.00     0.029 A 
ATOM     55  N   UNL A   1      39.768  30.525  31.644  1.00  0.00    -0.354 N 
ATOM     56  C   UNL A   1      42.921  28.847  34.063  1.00  0.00     0.074 A 
ATOM     57  C   UNL A   1      43.528  27.711  33.403  1.00  0.00     0.031 C 
ATOM     58  C   UNL A   1      38.476  30.720  29.828  1.00  0.00     0.029 A 
ATOM     59  C   UNL A   1      38.701  31.252  31.169  1.00  0.00     0.049 A 
ATOM     60  H   UNL A   1      40.124  30.624  32.556  1.00  0.00     0.167 HD
ATOM     61  C   UNL A   1      43.248  29.284  35.304  1.00  0.00     0.037 A 
ATOM     62  C   UNL A   1      37.999  32.251  31.737  1.00  0.00     0.037 A 
ATOM     63  C   UNL A   1      42.626  30.415  35.948  1.00  0.00     0.049 A 
ATOM     64  C   UNL A   1      38.392  32.737  33.103  1.00  0.00     0.074 A 
ATOM     65  C   UNL A   1      42.943  30.992  37.166  1.00  0.00     0.029 A 
ATOM     66  N   UNL A   1      41.551  31.130  35.439  1.00  0.00    -0.354 N 
ATOM     67  N   UNL A   1      39.363  32.313  33.878  1.00  0.00    -0.248 NA
ATOM     68  C   UNL A   1      37.607  33.841  33.671  1.00  0.00     0.031 C 
ATOM     69  C   UNL A   1      42.026  32.016  37.418  1.00  0.00     0.029 A 
ATOM     70  C   UNL A   1      41.172  32.120  36.331  1.00  0.00     0.049 A 
ATOM     71  H   UNL A   1      41.120  30.959  34.570  1.00  0.00     0.167 HD
ATOM     72  C   UNL A   1      39.311  33.105  35.020  1.00  0.00     0.074 A 
ATOM     73  C   UNL A   1      38.231  34.051  34.822  1.00  0.00     0.031 C 
ATOM     74  C   UNL A   1      40.087  33.051  36.130  1.00  0.00     0.037 A 
BRANCH  61  75
ATOM     75  C   UNL A   1      44.356  28.577  36.039  1.00  0.00     0.058 A 
ATOM     76  C   UNL A   1      45.702  28.915  35.825  1.00  0.00     0.135 A 
ATOM     77  C   UNL A   1      44.086  27.490  36.889  1.00  0.00     0.135 A 
ATOM     78  F   UNL A   1      46.022  29.943  35.022  1.00  0.00    -0.206 F 
ATOM     79  C   UNL A   1      46.739  28.194  36.412  1.00  0.00     0.059 A 
ATOM     80  C   UNL A   1      45.107  26.772  37.507  1.00  0.00     0.059 A 
ATOM     81  F   UNL A   1      42.818  27.126  37.138  1.00  0.00    -0.206 F 
ATOM     82  C   UNL A   1      46.431  27.122  37.251  1.00  0.00     0.060 A 
BRANCH  82  83
ATOM     83  S   UNL A   1      47.784  26.205  38.017  1.00  0.00     0.124 S 
ATOM     84  O   UNL A   1      47.097  25.026  38.533  1.00  0.00    -0.237 OA
ATOM     85  O   UNL A   1      48.679  25.978  36.886  1.00  0.00    -0.237 OA
ATOM     86  O   UNL A   1      48.289  27.129  39.029  1.00  0.00    -0.744 OA
ENDBRANCH  82  83
ENDBRANCH  61  75
BRANCH  62  87
ATOM     87  C   UNL A   1      36.902  32.899  30.969  1.00  0.00     0.058 A 
ATOM     88  C   UNL A   1      37.173  33.841  29.966  1.00  0.00     0.135 A 
ATOM     89  C   UNL A   1      35.557  32.634  31.271  1.00  0.00     0.135 A 
ATOM     90  F   UNL A   1      38.443  34.144  29.651  1.00  0.00    -0.206 F 
ATOM     91  C   UNL A   1      36.154  34.519  29.308  1.00  0.00     0.059 A 
ATOM     92  C   UNL A   1      34.517  33.279  30.607  1.00  0.00     0.059 A 
ATOM     93  F   UNL A   1      35.249  31.736  32.219  1.00  0.00    -0.206 F 
ATOM     94  C   UNL A   1      34.828  34.234  29.641  1.00  0.00     0.060 A 
BRANCH  94  95
ATOM     95  S   UNL A   1      33.520  35.148  28.795  1.00  0.00     0.124 S 
ATOM     96  O   UNL A   1      34.297  36.045  27.942  1.00  0.00    -0.237 OA
ATOM     97  O   UNL A   1      32.801  34.082  28.106  1.00  0.00    -0.237 OA
ATOM     98  O   UNL A   1      32.796  35.791  29.886  1.00  0.00    -0.744 OA
ENDBRANCH  94  95
ENDBRANCH  62  87
BRANCH  74  99
ATOM     99  C   UNL A   1      39.803  34.035  37.234  1.00  0.00     0.058 A 
ATOM    100  C   UNL A   1      40.460  35.275  37.274  1.00  0.00     0.135 A 
ATOM    101  C   UNL A   1      38.943  33.715  38.298  1.00  0.00     0.135 A 
ATOM    102  F   UNL A   1      41.295  35.631  36.286  1.00  0.00    -0.206 F 
ATOM    103  C   UNL A   1      40.296  36.152  38.341  1.00  0.00     0.059 A 
ATOM    104  C   UNL A   1      38.740  34.591  39.361  1.00  0.00     0.059 A 
ATOM    105  F   UNL A   1      38.280  32.548  38.302  1.00  0.00    -0.206 F 
ATOM    106  C   UNL A   1      39.436  35.800  39.381  1.00  0.00     0.060 A 
BRANCH 106 107
ATOM    107  S   UNL A   1      39.234  36.952  40.757  1.00  0.00     0.124 S 
ATOM    108  O   UNL A   1      40.605  37.400  40.977  1.00  0.00    -0.237 OA
ATOM    109  O   UNL A   1      38.324  37.945  40.194  1.00  0.00    -0.237 OA
ATOM    110  O   UNL A   1      38.667  36.122  41.816  1.00  0.00    -0.744 OA
ENDBRANCH 106 107
ENDBRANCH  74  99
ENDBRANCH  48  49
ENDBRANCH  41  43
ENDBRANCH  40  41
ENDBRANCH  39  40
ENDBRANCH  38  39
ENDBRANCH  37  38
ENDBRANCH  36  37
ENDBRANCH  35  36
ENDBRANCH   1  35
TORSDOF 26
ENDMDL
MODEL 2
REMARK VINA RESULT:      -9.9      2.438      4.355
REMARK SMILES COc1cc(F)ccc1-c1ccc(=O)n(CC(=O)NCc2ccc(C(=O)OCCOCCOCCOC(=O)c3ccc(-c4c5nc(c(-c6c(F)cc(S(=O)(=O)[O-])cc6F)c6ccc([nH]6)c(-c6c(F)cc(S(=O)(=O)[O-])cc6F)c6nc(c(-c7c(F)cc(S(=O)(=O)[O-])cc7F)c7ccc4[nH]7)C=C6)C=C5)cc3)cc2)n1
REMARK SMILES IDX 30 1 29 2 28 3 27 4 25 5 26 6 24 7 21 8 22 9 106 10 23 11
REMARK SMILES IDX 105 12 20 13 19 14 17 15 18 16 16 18 15 19 10 20 11 21
REMARK SMILES IDX 107 22 12 23 13 24 14 25 9 26 3 27 4 28 5 29 8 30 6 31 7 32
REMARK SMILES IDX 2 33 1 34 31 35 32 36 33 37 34 38 35 39 36 40 37 41 38 42
REMARK SMILES IDX 39 43 40 44 104 45 41 46 103 47 42 48 43 49 44 50 97 51
REMARK SMILES IDX 45 52 102 53 96 54 98 55 46 56 101 57 95 58 94 59 47 61
REMARK SMILES IDX 81 62 60 63 80 64 61 65 64 66 79 67 99 68 62 69 63 70 78 72
REMARK SMILES IDX 100 73 65 74 48 75 49 76 58 77 50 78 51 79 57 80 59 81 52 82
REMARK SMILES IDX 53 83 54 84 55 85 56 86 82 87 83 88 92 89 84 90 85 91 91 92
REMARK SMILES IDX 93 93 86 94 87 95 88 96 89 97 90 98 66 99 67 100 76 101
REMARK SMILES IDX 68 102 69 103 75 104 77 105 70 106 71 107 72 108 73 109
REMARK SMILES IDX 74 110
REMARK H PARENT 19 17 98 60 64 71
REMARK Flexibility Score: inf
ROOT
ATOM      1  O   UNL A   1      42.357  19.926  26.824  1.00  0.00    -0.376 OA
ENDROOT
BRANCH   1   2
ATOM      2  C   UNL A   1      40.955  20.049  26.664  1.00  0.00     0.202 C 
BRANCH   2   3
ATOM      3  C   UNL A   1      40.234  21.150  25.859  1.00  0.00     0.261 C 
BRANCH   3   4
ATOM      4  O   UNL A   1      38.855  21.398  26.149  1.00  0.00    -0.460 OA
BRANCH   4   5
ATOM      5  C   UNL A   1      38.542  22.702  26.377  1.00  0.00     0.338 C 
ATOM      6  O   UNL A   1      39.187  23.498  27.037  1.00  0.00    -0.246 OA
BRANCH   5   7
ATOM      7  C   UNL A   1      37.380  23.107  25.552  1.00  0.00     0.060 A 
ATOM      8  C   UNL A   1      35.267  23.880  23.864  1.00  0.00    -0.029 A 
ATOM      9  C   UNL A   1      36.197  22.917  23.446  1.00  0.00     0.006 A 
ATOM     10  C   UNL A   1      35.369  24.391  25.169  1.00  0.00     0.006 A 
ATOM     11  C   UNL A   1      37.255  22.544  24.278  1.00  0.00     0.016 A 
ATOM     12  C   UNL A   1      36.420  24.011  26.011  1.00  0.00     0.016 A 
BRANCH   8  13
ATOM     13  C   UNL A   1      34.167  24.364  22.948  1.00  0.00     0.151 C 
BRANCH  13  14
ATOM     14  N   UNL A   1      33.681  23.325  22.065  1.00  0.00    -0.350 N 
ATOM     15  C   UNL A   1      32.515  22.618  22.094  1.00  0.00     0.242 C 
ATOM     16  O   UNL A   1      32.173  22.071  21.039  1.00  0.00    -0.273 OA
ATOM     17  H   UNL A   1      34.287  23.091  21.326  1.00  0.00     0.163 HD
BRANCH  15  18
ATOM     18  C   UNL A   1      31.571  22.653  23.297  1.00  0.00     0.248 C 
BRANCH  18  19
ATOM     19  N   UNL A   1      32.111  21.988  24.471  1.00  0.00    -0.220 N 
ATOM     20  C   UNL A   1      33.031  20.107  25.366  1.00  0.00     0.095 A 
ATOM     21  C   UNL A   1      33.256  20.762  26.662  1.00  0.00     0.037 A 
ATOM     22  N   UNL A   1      32.516  20.675  24.324  1.00  0.00    -0.169 NA
ATOM     23  C   UNL A   1      32.853  22.024  26.787  1.00  0.00     0.075 A 
ATOM     24  C   UNL A   1      32.254  22.728  25.639  1.00  0.00     0.267 A 
ATOM     25  O   UNL A   1      31.895  23.894  25.774  1.00  0.00    -0.268 OA
BRANCH  20  26
ATOM     26  C   UNL A   1      33.430  18.690  25.316  1.00  0.00     0.044 A 
ATOM     27  C   UNL A   1      34.713  18.349  24.875  1.00  0.00     0.131 A 
ATOM     28  C   UNL A   1      35.097  17.009  24.863  1.00  0.00     0.086 A 
ATOM     29  C   UNL A   1      34.192  16.035  25.280  1.00  0.00     0.126 A 
ATOM     30  C   UNL A   1      32.519  17.709  25.731  1.00  0.00     0.017 A 
ATOM     31  F   UNL A   1      34.563  14.748  25.264  1.00  0.00    -0.207 F 
ATOM     32  C   UNL A   1      32.913  16.372  25.719  1.00  0.00     0.040 A 
BRANCH  27  33
ATOM     33  O   UNL A   1      35.584  19.360  24.578  1.00  0.00    -0.496 OA
ATOM     34  C   UNL A   1      36.945  19.023  24.836  1.00  0.00     0.278 C 
ENDBRANCH  27  33
ENDBRANCH  20  26
ENDBRANCH  18  19
ENDBRANCH  15  18
ENDBRANCH  13  14
ENDBRANCH   8  13
ENDBRANCH   5   7
ENDBRANCH   4   5
ENDBRANCH   3   4
ENDBRANCH   2   3
ENDBRANCH   1   2
BRANCH   1  35
ATOM     35  C   UNL A   1      43.158  19.477  25.758  1.00  0.00     0.188 C 
BRANCH  35  36
ATOM     36  C   UNL A   1      43.978  20.568  25.031  1.00  0.00     0.188 C 
BRANCH  36  37
ATOM     37  O   UNL A   1      44.294  21.785  25.688  1.00  0.00    -0.376 OA
BRANCH  37  38
ATOM     38  C   UNL A   1      43.509  22.934  25.386  1.00  0.00     0.202 C 
BRANCH  38  39
ATOM     39  C   UNL A   1      42.639  23.610  26.464  1.00  0.00     0.261 C 
BRANCH  39  40
ATOM     40  O   UNL A   1      41.804  24.685  26.003  1.00  0.00    -0.460 OA
BRANCH  40  41
ATOM     41  C   UNL A   1      42.391  25.903  25.920  1.00  0.00     0.338 C 
ATOM     42  O   UNL A   1      42.885  26.425  24.930  1.00  0.00    -0.246 OA
BRANCH  41  43
ATOM     43  C   UNL A   1      42.215  26.609  27.200  1.00  0.00     0.060 A 
ATOM     44  C   UNL A   1      43.134  27.567  27.616  1.00  0.00     0.016 A 
ATOM     45  C   UNL A   1      41.092  26.327  27.984  1.00  0.00     0.016 A 
ATOM     46  C   UNL A   1      42.927  28.234  28.830  1.00  0.00     0.010 A 
ATOM     47  C   UNL A   1      40.911  26.963  29.209  1.00  0.00     0.010 A 
ATOM     48  C   UNL A   1      41.808  27.942  29.634  1.00  0.00    -0.014 A 
BRANCH  48  49
ATOM     49  C   UNL A   1      41.486  28.752  30.835  1.00  0.00     0.031 A 
ATOM     50  C   UNL A   1      42.245  28.601  32.123  1.00  0.00     0.074 A 
ATOM     51  C   UNL A   1      40.429  29.584  30.773  1.00  0.00     0.049 A 
ATOM     52  N   UNL A   1      42.154  29.319  33.213  1.00  0.00    -0.248 NA
ATOM     53  C   UNL A   1      43.207  27.492  32.215  1.00  0.00     0.031 C 
ATOM     54  C   UNL A   1      39.529  29.710  29.624  1.00  0.00     0.029 A 
ATOM     55  N   UNL A   1      39.934  30.483  31.683  1.00  0.00    -0.354 N 
ATOM     56  C   UNL A   1      43.064  28.773  34.109  1.00  0.00     0.074 A 
ATOM     57  C   UNL A   1      43.641  27.613  33.464  1.00  0.00     0.031 C 
ATOM     58  C   UNL A   1      38.633  30.677  29.872  1.00  0.00     0.029 A 
ATOM     59  C   UNL A   1      38.880  31.226  31.203  1.00  0.00     0.049 A 
ATOM     60  H   UNL A   1      40.298  30.588  32.591  1.00  0.00     0.167 HD
ATOM     61  C   UNL A   1      43.410  29.223  35.340  1.00  0.00     0.037 A 
ATOM     62  C   UNL A   1      38.205  32.251  31.759  1.00  0.00     0.037 A 
ATOM     63  C   UNL A   1      42.818  30.379  35.969  1.00  0.00     0.049 A 
ATOM     64  C   UNL A   1      38.619  32.750  33.114  1.00  0.00     0.074 A 
ATOM     65  C   UNL A   1      43.157  30.968  37.175  1.00  0.00     0.029 A 
ATOM     66  N   UNL A   1      41.756  31.109  35.455  1.00  0.00    -0.354 N 
ATOM     67  N   UNL A   1      39.585  32.316  33.890  1.00  0.00    -0.248 NA
ATOM     68  C   UNL A   1      37.863  33.881  33.668  1.00  0.00     0.031 C 
ATOM     69  C   UNL A   1      42.265  32.017  37.416  1.00  0.00     0.029 A 
ATOM     70  C   UNL A   1      41.406  32.122  36.334  1.00  0.00     0.049 A 
ATOM     71  H   UNL A   1      41.315  30.934  34.593  1.00  0.00     0.167 HD
ATOM     72  C   UNL A   1      39.559  33.128  35.018  1.00  0.00     0.074 A 
ATOM     73  C   UNL A   1      38.499  34.095  34.812  1.00  0.00     0.031 C 
ATOM     74  C   UNL A   1      40.341  33.075  36.125  1.00  0.00     0.037 A 
BRANCH  61  75
ATOM     75  C   UNL A   1      44.506  28.502  36.080  1.00  0.00     0.058 A 
ATOM     76  C   UNL A   1      45.858  28.824  35.870  1.00  0.00     0.135 A 
ATOM     77  C   UNL A   1      44.220  27.419  36.929  1.00  0.00     0.135 A 
ATOM     78  F   UNL A   1      46.192  29.847  35.067  1.00  0.00    -0.206 F 
ATOM     79  C   UNL A   1      46.883  28.091  36.461  1.00  0.00     0.059 A 
ATOM     80  C   UNL A   1      45.230  26.689  37.552  1.00  0.00     0.059 A 
ATOM     81  F   UNL A   1      42.947  27.072  37.174  1.00  0.00    -0.206 F 
ATOM     82  C   UNL A   1      46.559  27.023  37.299  1.00  0.00     0.060 A 
BRANCH  82  83
ATOM     83  S   UNL A   1      47.898  26.090  38.071  1.00  0.00     0.124 S 
ATOM     84  O   UNL A   1      47.824  26.543  39.456  1.00  0.00    -0.237 OA
ATOM     85  O   UNL A   1      47.488  24.710  37.829  1.00  0.00    -0.237 OA
ATOM     86  O   UNL A   1      49.081  26.521  37.332  1.00  0.00    -0.744 OA
ENDBRANCH  82  83
ENDBRANCH  61  75
BRANCH  62  87
ATOM     87  C   UNL A   1      37.118  32.910  30.988  1.00  0.00     0.058 A 
ATOM     88  C   UNL A   1      35.773  32.558  31.178  1.00  0.00     0.135 A 
ATOM     89  C   UNL A   1      37.411  33.863  29.999  1.00  0.00     0.135 A 
ATOM     90  F   UNL A   1      35.441  31.640  32.099  1.00  0.00    -0.206 F 
ATOM     91  C   UNL A   1      34.761  33.102  30.397  1.00  0.00     0.059 A 
ATOM     92  C   UNL A   1      36.412  34.443  29.223  1.00  0.00     0.059 A 
ATOM     93  F   UNL A   1      38.682  34.235  29.785  1.00  0.00    -0.206 F 
ATOM     94  C   UNL A   1      35.091  34.041  29.417  1.00  0.00     0.060 A 
BRANCH  94  95
ATOM     95  S   UNL A   1      33.763  34.712  28.396  1.00  0.00     0.124 S 
ATOM     96  O   UNL A   1      34.310  34.534  27.053  1.00  0.00    -0.237 OA
ATOM     97  O   UNL A   1      32.642  33.846  28.745  1.00  0.00    -0.237 OA
ATOM     98  O   UNL A   1      33.652  36.095  28.849  1.00  0.00    -0.744 OA
ENDBRANCH  94  95
ENDBRANCH  62  87
BRANCH  74  99
ATOM     99  C   UNL A   1      40.088  34.083  37.213  1.00  0.00     0.058 A 
ATOM    100  C   UNL A   1      40.838  35.268  37.281  1.00  0.00     0.135 A 
ATOM    101  C   UNL A   1      39.160  33.837  38.238  1.00  0.00     0.135 A 
ATOM    102  F   UNL A   1      41.742  35.552  36.330  1.00  0.00    -0.206 F 
ATOM    103  C   UNL A   1      40.697  36.159  38.338  1.00  0.00     0.059 A 
ATOM    104  C   UNL A   1      38.980  34.731  39.290  1.00  0.00     0.059 A 
ATOM    105  F   UNL A   1      38.407  32.725  38.215  1.00  0.00    -0.206 F 
ATOM    106  C   UNL A   1      39.767  35.881  39.340  1.00  0.00     0.060 A 
BRANCH 106 107
ATOM    107  S   UNL A   1      39.597  37.051  40.704  1.00  0.00     0.124 S 
ATOM    108  O   UNL A   1      40.736  37.935  40.486  1.00  0.00    -0.237 OA
ATOM    109  O   UNL A   1      38.283  37.634  40.446  1.00  0.00    -0.237 OA
ATOM    110  O   UNL A   1      39.677  36.206  41.892  1.00  0.00    -0.744 OA
ENDBRANCH 106 107
ENDBRANCH  74  99
ENDBRANCH  48  49
ENDBRANCH  41  43
ENDBRANCH  40  41
ENDBRANCH  39  40
ENDBRANCH  38  39
ENDBRANCH  37  38
ENDBRANCH  36  37
ENDBRANCH  35  36
ENDBRANCH   1  35
TORSDOF 26
ENDMDL
MODEL 3
REMARK VINA RESULT:      -8.5      6.199     14.516
REMARK SMILES COc1cc(F)ccc1-c1ccc(=O)n(CC(=O)NCc2ccc(C(=O)OCCOCCOCCOC(=O)c3ccc(-c4c5nc(c(-c6c(F)cc(S(=O)(=O)[O-])cc6F)c6ccc([nH]6)c(-c6c(F)cc(S(=O)(=O)[O-])cc6F)c6nc(c(-c7c(F)cc(S(=O)(=O)[O-])cc7F)c7ccc4[nH]7)C=C6)C=C5)cc3)cc2)n1
REMARK SMILES IDX 30 1 29 2 28 3 27 4 25 5 26 6 24 7 21 8 22 9 106 10 23 11
REMARK SMILES IDX 105 12 20 13 19 14 17 15 18 16 16 18 15 19 10 20 11 21
REMARK SMILES IDX 107 22 12 23 13 24 14 25 9 26 3 27 4 28 5 29 8 30 6 31 7 32
REMARK SMILES IDX 2 33 1 34 31 35 32 36 33 37 34 38 35 39 36 40 37 41 38 42
REMARK SMILES IDX 39 43 40 44 104 45 41 46 103 47 42 48 43 49 44 50 97 51
REMARK SMILES IDX 45 52 102 53 96 54 98 55 46 56 101 57 95 58 94 59 47 61
REMARK SMILES IDX 81 62 60 63 80 64 61 65 64 66 79 67 99 68 62 69 63 70 78 72
REMARK SMILES IDX 100 73 65 74 48 75 49 76 58 77 50 78 51 79 57 80 59 81 52 82
REMARK SMILES IDX 53 83 54 84 55 85 56 86 82 87 83 88 92 89 84 90 85 91 91 92
REMARK SMILES IDX 93 93 86 94 87 95 88 96 89 97 90 98 66 99 67 100 76 101
REMARK SMILES IDX 68 102 69 103 75 104 77 105 70 106 71 107 72 108 73 109
REMARK SMILES IDX 74 110
REMARK H PARENT 19 17 98 60 64 71
REMARK Flexibility Score: inf
ROOT
ATOM      1  O   UNL A   1      40.790  34.714  37.333  1.00  0.00    -0.376 OA
ENDROOT
BRANCH   1   2
ATOM      2  C   UNL A   1      41.348  33.666  36.560  1.00  0.00     0.202 C 
BRANCH   2   3
ATOM      3  C   UNL A   1      42.609  32.855  36.922  1.00  0.00     0.261 C 
BRANCH   3   4
ATOM      4  O   UNL A   1      43.131  31.953  35.941  1.00  0.00    -0.460 OA
BRANCH   4   5
ATOM      5  C   UNL A   1      42.732  30.661  36.079  1.00  0.00     0.338 C 
ATOM      6  O   UNL A   1      41.975  30.223  36.927  1.00  0.00    -0.246 OA
BRANCH   5   7
ATOM      7  C   UNL A   1      43.195  29.850  34.929  1.00  0.00     0.060 A 
ATOM      8  C   UNL A   1      44.049  28.431  32.656  1.00  0.00    -0.029 A 
ATOM      9  C   UNL A   1      44.423  29.770  32.841  1.00  0.00     0.006 A 
ATOM     10  C   UNL A   1      43.306  27.793  33.665  1.00  0.00     0.006 A 
ATOM     11  C   UNL A   1      43.987  30.480  33.962  1.00  0.00     0.016 A 
ATOM     12  C   UNL A   1      42.878  28.497  34.796  1.00  0.00     0.016 A 
BRANCH   8  13
ATOM     13  C   UNL A   1      44.435  27.669  31.408  1.00  0.00     0.151 C 
BRANCH  13  14
ATOM     14  N   UNL A   1      44.292  26.237  31.564  1.00  0.00    -0.350 N 
ATOM     15  C   UNL A   1      45.240  25.266  31.693  1.00  0.00     0.242 C 
ATOM     16  O   UNL A   1      44.870  24.194  32.183  1.00  0.00    -0.273 OA
ATOM     17  H   UNL A   1      43.363  25.913  31.579  1.00  0.00     0.163 HD
BRANCH  15  18
ATOM     18  C   UNL A   1      46.723  25.537  31.436  1.00  0.00     0.248 C 
BRANCH  18  19
ATOM     19  N   UNL A   1      47.445  25.965  32.623  1.00  0.00    -0.220 N 
ATOM     20  C   UNL A   1      47.360  26.931  34.683  1.00  0.00     0.095 A 
ATOM     21  C   UNL A   1      48.783  26.661  34.933  1.00  0.00     0.037 A 
ATOM     22  N   UNL A   1      46.715  26.591  33.615  1.00  0.00    -0.169 NA
ATOM     23  C   UNL A   1      49.471  26.063  33.964  1.00  0.00     0.075 A 
ATOM     24  C   UNL A   1      48.796  25.654  32.718  1.00  0.00     0.267 A 
ATOM     25  O   UNL A   1      49.448  25.099  31.840  1.00  0.00    -0.268 OA
BRANCH  20  26
ATOM     26  C   UNL A   1      46.674  27.660  35.763  1.00  0.00     0.044 A 
ATOM     27  C   UNL A   1      45.775  26.981  36.592  1.00  0.00     0.131 A 
ATOM     28  C   UNL A   1      45.154  27.668  37.634  1.00  0.00     0.086 A 
ATOM     29  C   UNL A   1      45.435  29.019  37.823  1.00  0.00     0.126 A 
ATOM     30  C   UNL A   1      46.952  29.020  35.952  1.00  0.00     0.017 A 
ATOM     31  F   UNL A   1      44.835  29.679  38.824  1.00  0.00    -0.207 F 
ATOM     32  C   UNL A   1      46.330  29.699  36.999  1.00  0.00     0.040 A 
BRANCH  27  33
ATOM     33  O   UNL A   1      45.624  25.633  36.415  1.00  0.00    -0.496 OA
ATOM     34  C   UNL A   1      44.268  25.204  36.507  1.00  0.00     0.278 C 
ENDBRANCH  27  33
ENDBRANCH  20  26
ENDBRANCH  18  19
ENDBRANCH  15  18
ENDBRANCH  13  14
ENDBRANCH   8  13
ENDBRANCH   5   7
ENDBRANCH   4   5
ENDBRANCH   3   4
ENDBRANCH   2   3
ENDBRANCH   1   2
BRANCH   1  35
ATOM     35  C   UNL A   1      39.398  34.797  37.519  1.00  0.00     0.188 C 
BRANCH  35  36
ATOM     36  C   UNL A   1      38.533  34.337  36.323  1.00  0.00     0.188 C 
BRANCH  36  37
ATOM     37  O   UNL A   1      37.565  33.313  36.491  1.00  0.00    -0.376 OA
BRANCH  37  38
ATOM     38  C   UNL A   1      37.632  32.179  35.632  1.00  0.00     0.202 C 
BRANCH  38  39
ATOM     39  C   UNL A   1      36.968  32.190  34.242  1.00  0.00     0.261 C 
BRANCH  39  40
ATOM     40  O   UNL A   1      37.869  32.205  33.123  1.00  0.00    -0.460 OA
BRANCH  40  41
ATOM     41  C   UNL A   1      37.460  31.537  32.017  1.00  0.00     0.338 C 
ATOM     42  O   UNL A   1      36.326  31.478  31.562  1.00  0.00    -0.246 OA
BRANCH  41  43
ATOM     43  C   UNL A   1      38.638  30.991  31.323  1.00  0.00     0.060 A 
ATOM     44  C   UNL A   1      38.700  30.977  29.933  1.00  0.00     0.016 A 
ATOM     45  C   UNL A   1      39.711  30.511  32.078  1.00  0.00     0.016 A 
ATOM     46  C   UNL A   1      39.844  30.469  29.304  1.00  0.00     0.010 A 
ATOM     47  C   UNL A   1      40.829  29.969  31.448  1.00  0.00     0.010 A 
ATOM     48  C   UNL A   1      40.921  29.967  30.058  1.00  0.00    -0.014 A 
BRANCH  48  49
ATOM     49  C   UNL A   1      42.201  29.579  29.414  1.00  0.00     0.031 A 
ATOM     50  C   UNL A   1      43.350  30.538  29.285  1.00  0.00     0.074 A 
ATOM     51  C   UNL A   1      42.287  28.352  28.864  1.00  0.00     0.049 A 
ATOM     52  N   UNL A   1      44.564  30.306  28.853  1.00  0.00    -0.248 NA
ATOM     53  C   UNL A   1      43.105  31.940  29.658  1.00  0.00     0.031 C 
ATOM     54  C   UNL A   1      41.189  27.384  28.801  1.00  0.00     0.029 A 
ATOM     55  N   UNL A   1      43.336  27.703  28.265  1.00  0.00    -0.354 N 
ATOM     56  C   UNL A   1      45.237  31.518  28.931  1.00  0.00     0.074 A 
ATOM     57  C   UNL A   1      44.274  32.503  29.375  1.00  0.00     0.031 C 
ATOM     58  C   UNL A   1      41.639  26.244  28.256  1.00  0.00     0.029 A 
ATOM     59  C   UNL A   1      43.050  26.405  27.913  1.00  0.00     0.049 A 
ATOM     60  H   UNL A   1      44.210  28.125  28.104  1.00  0.00     0.167 HD
ATOM     61  C   UNL A   1      46.546  31.773  28.690  1.00  0.00     0.037 A 
ATOM     62  C   UNL A   1      43.838  25.442  27.398  1.00  0.00     0.037 A 
ATOM     63  C   UNL A   1      47.489  30.778  28.241  1.00  0.00     0.049 A 
ATOM     64  C   UNL A   1      45.292  25.738  27.158  1.00  0.00     0.074 A 
ATOM     65  C   UNL A   1      48.854  30.912  28.049  1.00  0.00     0.029 A 
ATOM     66  N   UNL A   1      47.167  29.473  27.897  1.00  0.00    -0.354 N 
ATOM     67  N   UNL A   1      45.952  26.850  27.378  1.00  0.00    -0.248 NA
ATOM     68  C   UNL A   1      46.113  24.649  26.612  1.00  0.00     0.031 C 
ATOM     69  C   UNL A   1      49.345  29.709  27.536  1.00  0.00     0.029 A 
ATOM     70  C   UNL A   1      48.300  28.802  27.463  1.00  0.00     0.049 A 
ATOM     71  H   UNL A   1      46.266  29.080  27.952  1.00  0.00     0.167 HD
ATOM     72  C   UNL A   1      47.267  26.593  27.008  1.00  0.00     0.074 A 
ATOM     73  C   UNL A   1      47.314  25.211  26.574  1.00  0.00     0.031 C 
ATOM     74  C   UNL A   1      48.335  27.427  27.023  1.00  0.00     0.037 A 
BRANCH  61  75
ATOM     75  C   UNL A   1      47.060  33.166  28.944  1.00  0.00     0.058 A 
ATOM     76  C   UNL A   1      47.104  34.122  27.916  1.00  0.00     0.135 A 
ATOM     77  C   UNL A   1      47.602  33.525  30.190  1.00  0.00     0.135 A 
ATOM     78  F   UNL A   1      46.604  33.836  26.704  1.00  0.00    -0.206 F 
ATOM     79  C   UNL A   1      47.681  35.375  28.110  1.00  0.00     0.059 A 
ATOM     80  C   UNL A   1      48.159  34.781  30.413  1.00  0.00     0.059 A 
ATOM     81  F   UNL A   1      47.578  32.654  31.212  1.00  0.00    -0.206 F 
ATOM     82  C   UNL A   1      48.208  35.694  29.362  1.00  0.00     0.060 A 
BRANCH  82  83
ATOM     83  S   UNL A   1      48.940  37.328  29.603  1.00  0.00     0.124 S 
ATOM     84  O   UNL A   1      49.908  37.389  28.514  1.00  0.00    -0.237 OA
ATOM     85  O   UNL A   1      47.779  38.204  29.475  1.00  0.00    -0.237 OA
ATOM     86  O   UNL A   1      49.509  37.248  30.946  1.00  0.00    -0.744 OA
ENDBRANCH  82  83
ENDBRANCH  61  75
BRANCH  62  87
ATOM     87  C   UNL A   1      43.271  24.091  27.148  1.00  0.00     0.058 A 
ATOM     88  C   UNL A   1      43.221  23.123  28.163  1.00  0.00     0.135 A 
ATOM     89  C   UNL A   1      42.825  23.720  25.870  1.00  0.00     0.135 A 
ATOM     90  F   UNL A   1      43.651  23.420  29.399  1.00  0.00    -0.206 F 
ATOM     91  C   UNL A   1      42.778  21.829  27.915  1.00  0.00     0.059 A 
ATOM     92  C   UNL A   1      42.350  22.439  25.602  1.00  0.00     0.059 A 
ATOM     93  F   UNL A   1      42.848  24.613  24.869  1.00  0.00    -0.206 F 
ATOM     94  C   UNL A   1      42.349  21.495  26.629  1.00  0.00     0.060 A 
BRANCH  94  95
ATOM     95  S   UNL A   1      41.806  19.801  26.322  1.00  0.00     0.124 S 
ATOM     96  O   UNL A   1      40.413  20.008  25.933  1.00  0.00    -0.237 OA
ATOM     97  O   UNL A   1      42.708  19.381  25.255  1.00  0.00    -0.237 OA
ATOM     98  O   UNL A   1      42.006  19.143  27.609  1.00  0.00    -0.744 OA
ENDBRANCH  94  95
ENDBRANCH  62  87
BRANCH  74  99
ATOM     99  C   UNL A   1      49.658  26.883  26.553  1.00  0.00     0.058 A 
ATOM    100  C   UNL A   1      50.072  27.055  25.223  1.00  0.00     0.135 A 
ATOM    101  C   UNL A   1      50.478  26.117  27.399  1.00  0.00     0.135 A 
ATOM    102  F   UNL A   1      49.326  27.775  24.370  1.00  0.00    -0.206 F 
ATOM    103  C   UNL A   1      51.236  26.468  24.740  1.00  0.00     0.059 A 
ATOM    104  C   UNL A   1      51.663  25.545  26.946  1.00  0.00     0.059 A 
ATOM    105  F   UNL A   1      50.135  25.932  28.684  1.00  0.00    -0.206 F 
ATOM    106  C   UNL A   1      52.024  25.712  25.609  1.00  0.00     0.060 A 
BRANCH 106 107
ATOM    107  S   UNL A   1      53.532  24.958  24.964  1.00  0.00     0.124 S 
ATOM    108  O   UNL A   1      53.587  25.502  23.612  1.00  0.00    -0.237 OA
ATOM    109  O   UNL A   1      54.545  25.457  25.891  1.00  0.00    -0.237 OA
ATOM    110  O   UNL A   1      53.264  23.526  25.054  1.00  0.00    -0.744 OA
ENDBRANCH 106 107
ENDBRANCH  74  99
ENDBRANCH  48  49
ENDBRANCH  41  43
ENDBRANCH  40  41
ENDBRANCH  39  40
ENDBRANCH  38  39
ENDBRANCH  37  38
ENDBRANCH  36  37
ENDBRANCH  35  36
ENDBRANCH   1  35
TORSDOF 26
ENDMDL
