MODEL 1
REMARK VINA RESULT:     -10.6      0.000      0.000
REMARK SMILES O=C(Cc1cccn1-c1ccc2c(c1)OCCO2)OCCOCCOCCOC(=O)c1ccc(-c2c3nc(c(-c4c(F)cc(S(=O)(=O)[O-])cc4F)c4ccc([nH]4)c(-c4c(F)cc(S(=O)(=O)[O-])cc4F)c4nc(c(-c5c(F)cc(S(=O)(=O)[O-])cc5F)c5ccc2[nH]5)C=C4)C=C3)cc1
REMARK SMILES IDX 24 1 23 2 22 3 21 4 20 5 19 6 2 7 1 8 3 9 4 10 5 11 8 12
REMARK SMILES IDX 6 13 7 14 9 15 10 16 14 17 11 18 13 19 12 20 15 21 18 22
REMARK SMILES IDX 16 23 17 24 25 25 26 26 27 27 28 28 29 29 30 30 31 31 32 32
REMARK SMILES IDX 96 33 33 34 95 35 34 36 35 37 36 38 89 39 37 40 94 41 88 42
REMARK SMILES IDX 90 43 38 44 93 45 87 46 86 47 39 49 73 50 52 51 72 52 53 53
REMARK SMILES IDX 56 54 71 55 91 56 54 57 55 58 70 60 92 61 57 62 40 63 41 64
REMARK SMILES IDX 50 65 42 66 43 67 49 68 51 69 44 70 45 71 46 72 47 73 48 74
REMARK SMILES IDX 74 75 75 76 84 77 76 78 77 79 83 80 85 81 78 82 79 83 80 84
REMARK SMILES IDX 81 85 82 86 58 87 59 88 68 89 60 90 61 91 67 92 69 93 62 94
REMARK SMILES IDX 63 95 64 96 65 97 66 98
REMARK H PARENT 90 48 56 59
REMARK Flexibility Score: inf
ROOT
ATOM      1  C   UNL A   1      33.262  34.478  28.931  1.00  0.00     0.188 C 
ENDROOT
BRANCH   1   2
ATOM      2  C   UNL A   1      33.605  33.519  27.769  1.00  0.00     0.188 C 
BRANCH   2   3
ATOM      3  O   UNL A   1      34.778  32.737  27.922  1.00  0.00    -0.376 OA
BRANCH   3   4
ATOM      4  C   UNL A   1      34.630  31.351  27.653  1.00  0.00     0.202 C 
BRANCH   4   5
ATOM      5  C   UNL A   1      33.209  30.942  27.286  1.00  0.00     0.261 C 
BRANCH   5   6
ATOM      6  O   UNL A   1      33.021  29.525  27.070  1.00  0.00    -0.463 OA
BRANCH   6   7
ATOM      7  C   UNL A   1      32.126  28.886  26.292  1.00  0.00     0.311 C 
ATOM      8  O   UNL A   1      31.459  29.537  25.486  1.00  0.00    -0.252 OA
BRANCH   7   9
ATOM      9  C   UNL A   1      31.864  27.409  26.455  1.00  0.00     0.177 C 
BRANCH   9  10
ATOM     10  C   UNL A   1      32.566  26.490  25.502  1.00  0.00     0.034 A 
ATOM     11  C   UNL A   1      33.786  25.862  25.686  1.00  0.00     0.024 A 
ATOM     12  N   UNL A   1      32.105  26.150  24.235  1.00  0.00    -0.320 N 
ATOM     13  C   UNL A   1      34.116  25.200  24.485  1.00  0.00     0.020 A 
ATOM     14  C   UNL A   1      33.091  25.433  23.596  1.00  0.00     0.091 A 
BRANCH  12  15
ATOM     15  C   UNL A   1      30.932  26.645  23.625  1.00  0.00     0.049 A 
ATOM     16  C   UNL A   1      29.690  26.339  24.191  1.00  0.00     0.031 A 
ATOM     17  C   UNL A   1      31.064  27.655  22.666  1.00  0.00     0.077 A 
ATOM     18  C   UNL A   1      28.566  27.074  23.811  1.00  0.00     0.052 A 
ATOM     19  C   UNL A   1      29.958  28.457  22.393  1.00  0.00     0.163 A 
ATOM     20  C   UNL A   1      28.706  28.155  22.941  1.00  0.00     0.161 A 
ATOM     21  O   UNL A   1      30.190  29.599  21.664  1.00  0.00    -0.486 OA
ATOM     22  O   UNL A   1      27.586  28.921  22.731  1.00  0.00    -0.486 OA
ATOM     23  C   UNL A   1      29.233  30.598  22.047  1.00  0.00     0.271 C 
ATOM     24  C   UNL A   1      27.832  30.036  21.862  1.00  0.00     0.271 C 
ENDBRANCH  12  15
ENDBRANCH   9  10
ENDBRANCH   7   9
ENDBRANCH   6   7
ENDBRANCH   5   6
ENDBRANCH   4   5
ENDBRANCH   3   4
ENDBRANCH   2   3
ENDBRANCH   1   2
BRANCH   1  25
ATOM     25  O   UNL A   1      34.142  34.747  30.016  1.00  0.00    -0.376 OA
BRANCH  25  26
ATOM     26  C   UNL A   1      33.734  35.439  31.185  1.00  0.00     0.202 C 
BRANCH  26  27
ATOM     27  C   UNL A   1      33.640  34.682  32.505  1.00  0.00     0.261 C 
BRANCH  27  28
ATOM     28  O   UNL A   1      33.996  33.311  32.384  1.00  0.00    -0.460 OA
BRANCH  28  29
ATOM     29  C   UNL A   1      35.004  32.960  33.207  1.00  0.00     0.338 C 
ATOM     30  O   UNL A   1      35.176  33.309  34.362  1.00  0.00    -0.246 OA
BRANCH  29  31
ATOM     31  C   UNL A   1      35.923  32.046  32.523  1.00  0.00     0.060 A 
ATOM     32  C   UNL A   1      36.924  31.468  33.310  1.00  0.00     0.016 A 
ATOM     33  C   UNL A   1      35.942  31.988  31.126  1.00  0.00     0.016 A 
ATOM     34  C   UNL A   1      38.070  31.013  32.697  1.00  0.00     0.010 A 
ATOM     35  C   UNL A   1      37.101  31.563  30.511  1.00  0.00     0.010 A 
ATOM     36  C   UNL A   1      38.185  31.174  31.313  1.00  0.00    -0.014 A 
BRANCH  36  37
ATOM     37  C   UNL A   1      39.525  31.086  30.717  1.00  0.00     0.031 A 
ATOM     38  C   UNL A   1      40.251  32.414  30.672  1.00  0.00     0.074 A 
ATOM     39  C   UNL A   1      39.879  29.828  30.313  1.00  0.00     0.049 A 
ATOM     40  N   UNL A   1      41.267  32.776  29.953  1.00  0.00    -0.248 NA
ATOM     41  C   UNL A   1      39.734  33.536  31.502  1.00  0.00     0.031 C 
ATOM     42  C   UNL A   1      38.994  28.644  30.420  1.00  0.00     0.029 A 
ATOM     43  N   UNL A   1      41.008  29.271  29.752  1.00  0.00    -0.354 N 
ATOM     44  C   UNL A   1      41.656  34.042  30.421  1.00  0.00     0.074 A 
ATOM     45  C   UNL A   1      40.599  34.520  31.260  1.00  0.00     0.031 C 
ATOM     46  C   UNL A   1      39.582  27.552  29.897  1.00  0.00     0.029 A 
ATOM     47  C   UNL A   1      40.906  27.893  29.426  1.00  0.00     0.049 A 
ATOM     48  H   UNL A   1      41.827  29.793  29.588  1.00  0.00     0.167 HD
ATOM     49  C   UNL A   1      42.899  34.560  30.229  1.00  0.00     0.037 A 
ATOM     50  C   UNL A   1      41.812  27.077  28.806  1.00  0.00     0.037 A 
ATOM     51  C   UNL A   1      43.709  33.685  29.449  1.00  0.00     0.049 A 
ATOM     52  C   UNL A   1      43.060  27.861  28.731  1.00  0.00     0.074 A 
ATOM     53  C   UNL A   1      43.737  33.374  28.114  1.00  0.00     0.029 A 
ATOM     54  N   UNL A   1      44.469  32.763  30.130  1.00  0.00    -0.354 N 
ATOM     55  N   UNL A   1      43.791  28.188  29.756  1.00  0.00    -0.248 NA
ATOM     56  C   UNL A   1      43.488  28.400  27.436  1.00  0.00     0.031 C 
ATOM     57  C   UNL A   1      44.228  32.051  28.062  1.00  0.00     0.029 A 
ATOM     58  C   UNL A   1      44.546  31.626  29.356  1.00  0.00     0.049 A 
ATOM     59  H   UNL A   1      44.884  32.892  31.013  1.00  0.00     0.167 HD
ATOM     60  C   UNL A   1      44.548  29.232  29.278  1.00  0.00     0.074 A 
ATOM     61  C   UNL A   1      44.529  29.125  27.836  1.00  0.00     0.031 C 
ATOM     62  C   UNL A   1      44.700  30.351  30.032  1.00  0.00     0.037 A 
BRANCH  49  63
ATOM     63  C   UNL A   1      43.562  35.722  30.902  1.00  0.00     0.058 A 
ATOM     64  C   UNL A   1      43.631  35.720  32.312  1.00  0.00     0.135 A 
ATOM     65  C   UNL A   1      43.813  36.946  30.261  1.00  0.00     0.135 A 
ATOM     66  F   UNL A   1      43.455  34.582  33.005  1.00  0.00    -0.206 F 
ATOM     67  C   UNL A   1      43.803  36.886  33.048  1.00  0.00     0.059 A 
ATOM     68  C   UNL A   1      44.029  38.122  30.980  1.00  0.00     0.059 A 
ATOM     69  F   UNL A   1      43.766  37.052  28.926  1.00  0.00    -0.206 F 
ATOM     70  C   UNL A   1      43.960  38.090  32.370  1.00  0.00     0.060 A 
BRANCH  70  71
ATOM     71  S   UNL A   1      44.005  39.619  33.326  1.00  0.00     0.124 S 
ATOM     72  O   UNL A   1      44.236  40.612  32.283  1.00  0.00    -0.237 OA
ATOM     73  O   UNL A   1      42.679  39.644  33.941  1.00  0.00    -0.237 OA
ATOM     74  O   UNL A   1      45.110  39.400  34.255  1.00  0.00    -0.744 OA
ENDBRANCH  70  71
ENDBRANCH  49  63
BRANCH  50  75
ATOM     75  C   UNL A   1      41.810  25.710  28.149  1.00  0.00     0.058 A 
ATOM     76  C   UNL A   1      42.448  24.557  28.634  1.00  0.00     0.135 A 
ATOM     77  C   UNL A   1      40.954  25.472  27.037  1.00  0.00     0.135 A 
ATOM     78  F   UNL A   1      43.356  24.612  29.612  1.00  0.00    -0.206 F 
ATOM     79  C   UNL A   1      42.154  23.269  28.158  1.00  0.00     0.059 A 
ATOM     80  C   UNL A   1      40.607  24.201  26.582  1.00  0.00     0.059 A 
ATOM     81  F   UNL A   1      40.369  26.480  26.374  1.00  0.00    -0.206 F 
ATOM     82  C   UNL A   1      41.189  23.095  27.173  1.00  0.00     0.060 A 
BRANCH  82  83
ATOM     83  S   UNL A   1      40.576  21.448  26.759  1.00  0.00     0.124 S 
ATOM     84  O   UNL A   1      41.518  21.022  25.731  1.00  0.00    -0.237 OA
ATOM     85  O   UNL A   1      40.662  20.740  28.033  1.00  0.00    -0.237 OA
ATOM     86  O   UNL A   1      39.216  21.717  26.299  1.00  0.00    -0.744 OA
ENDBRANCH  82  83
ENDBRANCH  50  75
BRANCH  62  87
ATOM     87  C   UNL A   1      44.557  30.112  31.526  1.00  0.00     0.058 A 
ATOM     88  C   UNL A   1      45.557  29.430  32.239  1.00  0.00     0.135 A 
ATOM     89  C   UNL A   1      43.406  30.451  32.258  1.00  0.00     0.135 A 
ATOM     90  F   UNL A   1      46.691  29.067  31.618  1.00  0.00    -0.206 F 
ATOM     91  C   UNL A   1      45.418  29.104  33.593  1.00  0.00     0.059 A 
ATOM     92  C   UNL A   1      43.245  30.153  33.612  1.00  0.00     0.059 A 
ATOM     93  F   UNL A   1      42.396  31.088  31.668  1.00  0.00    -0.206 F 
ATOM     94  C   UNL A   1      44.255  29.471  34.274  1.00  0.00     0.060 A 
BRANCH  94  95
ATOM     95  S   UNL A   1      44.083  29.049  36.022  1.00  0.00     0.124 S 
ATOM     96  O   UNL A   1      42.651  29.222  36.247  1.00  0.00    -0.237 OA
ATOM     97  O   UNL A   1      44.565  27.673  36.056  1.00  0.00    -0.237 OA
ATOM     98  O   UNL A   1      44.936  30.023  36.699  1.00  0.00    -0.744 OA
ENDBRANCH  94  95
ENDBRANCH  62  87
ENDBRANCH  36  37
ENDBRANCH  29  31
ENDBRANCH  28  29
ENDBRANCH  27  28
ENDBRANCH  26  27
ENDBRANCH  25  26
ENDBRANCH   1  25
TORSDOF 22
ENDMDL
MODEL 2
REMARK VINA RESULT:     -10.5      4.494     10.186
REMARK SMILES O=C(Cc1cccn1-c1ccc2c(c1)OCCO2)OCCOCCOCCOC(=O)c1ccc(-c2c3nc(c(-c4c(F)cc(S(=O)(=O)[O-])cc4F)c4ccc([nH]4)c(-c4c(F)cc(S(=O)(=O)[O-])cc4F)c4nc(c(-c5c(F)cc(S(=O)(=O)[O-])cc5F)c5ccc2[nH]5)C=C4)C=C3)cc1
REMARK SMILES IDX 24 1 23 2 22 3 21 4 20 5 19 6 2 7 1 8 3 9 4 10 5 11 8 12
REMARK SMILES IDX 6 13 7 14 9 15 10 16 14 17 11 18 13 19 12 20 15 21 18 22
REMARK SMILES IDX 16 23 17 24 25 25 26 26 27 27 28 28 29 29 30 30 31 31 32 32
REMARK SMILES IDX 96 33 33 34 95 35 34 36 35 37 36 38 89 39 37 40 94 41 88 42
REMARK SMILES IDX 90 43 38 44 93 45 87 46 86 47 39 49 73 50 52 51 72 52 53 53
REMARK SMILES IDX 56 54 71 55 91 56 54 57 55 58 70 60 92 61 57 62 40 63 41 64
REMARK SMILES IDX 50 65 42 66 43 67 49 68 51 69 44 70 45 71 46 72 47 73 48 74
REMARK SMILES IDX 74 75 75 76 84 77 76 78 77 79 83 80 85 81 78 82 79 83 80 84
REMARK SMILES IDX 81 85 82 86 58 87 59 88 68 89 60 90 61 91 67 92 69 93 62 94
REMARK SMILES IDX 63 95 64 96 65 97 66 98
REMARK H PARENT 90 48 56 59
REMARK Flexibility Score: inf
ROOT
ATOM      1  C   UNL A   1      41.120  19.892  27.240  1.00  0.00     0.188 C 
ENDROOT
BRANCH   1   2
ATOM      2  C   UNL A   1      40.184  20.437  26.139  1.00  0.00     0.188 C 
BRANCH   2   3
ATOM      3  O   UNL A   1      39.367  21.540  26.493  1.00  0.00    -0.376 OA
BRANCH   3   4
ATOM      4  C   UNL A   1      38.271  21.794  25.625  1.00  0.00     0.202 C 
BRANCH   4   5
ATOM      5  C   UNL A   1      37.783  23.237  25.657  1.00  0.00     0.261 C 
BRANCH   5   6
ATOM      6  O   UNL A   1      37.006  23.640  24.507  1.00  0.00    -0.463 OA
BRANCH   6   7
ATOM      7  C   UNL A   1      35.854  23.132  24.027  1.00  0.00     0.311 C 
ATOM      8  O   UNL A   1      35.585  23.281  22.834  1.00  0.00    -0.252 OA
BRANCH   7   9
ATOM      9  C   UNL A   1      34.854  22.466  24.939  1.00  0.00     0.177 C 
BRANCH   9  10
ATOM     10  C   UNL A   1      33.507  23.114  25.051  1.00  0.00     0.034 A 
ATOM     11  C   UNL A   1      33.221  24.377  25.543  1.00  0.00     0.024 A 
ATOM     12  N   UNL A   1      32.301  22.514  24.705  1.00  0.00    -0.320 N 
ATOM     13  C   UNL A   1      31.818  24.518  25.578  1.00  0.00     0.020 A 
ATOM     14  C   UNL A   1      31.278  23.342  25.105  1.00  0.00     0.091 A 
BRANCH  12  15
ATOM     15  C   UNL A   1      32.144  21.191  24.238  1.00  0.00     0.049 A 
ATOM     16  C   UNL A   1      32.085  20.959  22.860  1.00  0.00     0.031 A 
ATOM     17  C   UNL A   1      32.350  20.144  25.143  1.00  0.00     0.077 A 
ATOM     18  C   UNL A   1      32.264  19.661  22.377  1.00  0.00     0.052 A 
ATOM     19  C   UNL A   1      32.649  18.881  24.637  1.00  0.00     0.163 A 
ATOM     20  C   UNL A   1      32.581  18.630  23.261  1.00  0.00     0.161 A 
ATOM     21  O   UNL A   1      33.114  17.951  25.535  1.00  0.00    -0.486 OA
ATOM     22  O   UNL A   1      32.888  17.415  22.701  1.00  0.00    -0.486 OA
ATOM     23  C   UNL A   1      33.991  17.041  24.854  1.00  0.00     0.271 C 
ATOM     24  C   UNL A   1      33.247  16.429  23.677  1.00  0.00     0.271 C 
ENDBRANCH  12  15
ENDBRANCH   9  10
ENDBRANCH   7   9
ENDBRANCH   6   7
ENDBRANCH   5   6
ENDBRANCH   4   5
ENDBRANCH   3   4
ENDBRANCH   2   3
ENDBRANCH   1   2
BRANCH   1  25
ATOM     25  O   UNL A   1      42.449  19.444  26.994  1.00  0.00    -0.376 OA
BRANCH  25  26
ATOM     26  C   UNL A   1      43.014  19.392  25.694  1.00  0.00     0.202 C 
BRANCH  26  27
ATOM     27  C   UNL A   1      44.022  20.457  25.276  1.00  0.00     0.261 C 
BRANCH  27  28
ATOM     28  O   UNL A   1      43.786  21.715  25.895  1.00  0.00    -0.460 OA
BRANCH  28  29
ATOM     29  C   UNL A   1      43.338  22.646  25.029  1.00  0.00     0.338 C 
ATOM     30  O   UNL A   1      43.447  22.645  23.814  1.00  0.00    -0.246 OA
BRANCH  29  31
ATOM     31  C   UNL A   1      42.653  23.722  25.750  1.00  0.00     0.060 A 
ATOM     32  C   UNL A   1      43.047  25.028  25.439  1.00  0.00     0.016 A 
ATOM     33  C   UNL A   1      41.859  23.425  26.862  1.00  0.00     0.016 A 
ATOM     34  C   UNL A   1      42.830  26.024  26.364  1.00  0.00     0.010 A 
ATOM     35  C   UNL A   1      41.669  24.413  27.805  1.00  0.00     0.010 A 
ATOM     36  C   UNL A   1      42.244  25.674  27.584  1.00  0.00    -0.014 A 
BRANCH  36  37
ATOM     37  C   UNL A   1      42.385  26.608  28.710  1.00  0.00     0.031 A 
ATOM     38  C   UNL A   1      43.521  26.254  29.645  1.00  0.00     0.074 A 
ATOM     39  C   UNL A   1      41.471  27.626  28.714  1.00  0.00     0.049 A 
ATOM     40  N   UNL A   1      43.735  26.632  30.866  1.00  0.00    -0.248 NA
ATOM     41  C   UNL A   1      44.548  25.280  29.181  1.00  0.00     0.031 C 
ATOM     42  C   UNL A   1      40.398  27.779  27.704  1.00  0.00     0.029 A 
ATOM     43  N   UNL A   1      41.242  28.720  29.519  1.00  0.00    -0.354 N 
ATOM     44  C   UNL A   1      45.013  26.162  31.212  1.00  0.00     0.074 A 
ATOM     45  C   UNL A   1      45.399  25.221  30.205  1.00  0.00     0.031 C 
ATOM     46  C   UNL A   1      39.617  28.838  27.985  1.00  0.00     0.029 A 
ATOM     47  C   UNL A   1      40.106  29.499  29.175  1.00  0.00     0.049 A 
ATOM     48  H   UNL A   1      41.826  28.946  30.279  1.00  0.00     0.167 HD
ATOM     49  C   UNL A   1      45.758  26.695  32.218  1.00  0.00     0.037 A 
ATOM     50  C   UNL A   1      39.578  30.591  29.806  1.00  0.00     0.037 A 
ATOM     51  C   UNL A   1      45.049  27.728  32.895  1.00  0.00     0.049 A 
ATOM     52  C   UNL A   1      40.570  30.973  30.829  1.00  0.00     0.074 A 
ATOM     53  C   UNL A   1      44.015  27.721  33.795  1.00  0.00     0.029 A 
ATOM     54  N   UNL A   1      45.214  29.011  32.427  1.00  0.00    -0.354 N 
ATOM     55  N   UNL A   1      41.744  31.470  30.572  1.00  0.00    -0.248 NA
ATOM     56  C   UNL A   1      40.279  30.704  32.241  1.00  0.00     0.031 C 
ATOM     57  C   UNL A   1      43.342  28.944  33.581  1.00  0.00     0.029 A 
ATOM     58  C   UNL A   1      44.025  29.682  32.609  1.00  0.00     0.049 A 
ATOM     59  H   UNL A   1      46.036  29.383  32.033  1.00  0.00     0.167 HD
ATOM     60  C   UNL A   1      42.437  31.250  31.739  1.00  0.00     0.074 A 
ATOM     61  C   UNL A   1      41.446  31.056  32.774  1.00  0.00     0.031 C 
ATOM     62  C   UNL A   1      43.700  30.754  31.687  1.00  0.00     0.037 A 
BRANCH  49  63
ATOM     63  C   UNL A   1      47.217  26.530  32.514  1.00  0.00     0.058 A 
ATOM     64  C   UNL A   1      48.145  27.033  31.576  1.00  0.00     0.135 A 
ATOM     65  C   UNL A   1      47.714  25.631  33.471  1.00  0.00     0.135 A 
ATOM     66  F   UNL A   1      47.767  27.937  30.656  1.00  0.00    -0.206 F 
ATOM     67  C   UNL A   1      49.453  26.571  31.506  1.00  0.00     0.059 A 
ATOM     68  C   UNL A   1      49.036  25.184  33.445  1.00  0.00     0.059 A 
ATOM     69  F   UNL A   1      46.912  25.092  34.400  1.00  0.00    -0.206 F 
ATOM     70  C   UNL A   1      49.877  25.614  32.421  1.00  0.00     0.060 A 
BRANCH  70  71
ATOM     71  S   UNL A   1      51.516  24.889  32.216  1.00  0.00     0.124 S 
ATOM     72  O   UNL A   1      51.191  23.484  31.998  1.00  0.00    -0.237 OA
ATOM     73  O   UNL A   1      52.033  25.606  31.052  1.00  0.00    -0.237 OA
ATOM     74  O   UNL A   1      52.180  25.202  33.478  1.00  0.00    -0.744 OA
ENDBRANCH  70  71
ENDBRANCH  49  63
BRANCH  50  75
ATOM     75  C   UNL A   1      38.281  31.377  29.768  1.00  0.00     0.058 A 
ATOM     76  C   UNL A   1      38.158  32.764  29.586  1.00  0.00     0.135 A 
ATOM     77  C   UNL A   1      37.042  30.678  29.730  1.00  0.00     0.135 A 
ATOM     78  F   UNL A   1      39.208  33.585  29.686  1.00  0.00    -0.206 F 
ATOM     79  C   UNL A   1      36.942  33.382  29.250  1.00  0.00     0.059 A 
ATOM     80  C   UNL A   1      35.833  31.259  29.347  1.00  0.00     0.059 A 
ATOM     81  F   UNL A   1      36.967  29.369  30.013  1.00  0.00    -0.206 F 
ATOM     82  C   UNL A   1      35.797  32.613  29.075  1.00  0.00     0.060 A 
BRANCH  82  83
ATOM     83  S   UNL A   1      34.304  33.329  28.354  1.00  0.00     0.124 S 
ATOM     84  O   UNL A   1      33.649  32.157  27.786  1.00  0.00    -0.237 OA
ATOM     85  O   UNL A   1      33.642  33.930  29.509  1.00  0.00    -0.237 OA
ATOM     86  O   UNL A   1      34.840  34.286  27.389  1.00  0.00    -0.744 OA
ENDBRANCH  82  83
ENDBRANCH  50  75
BRANCH  62  87
ATOM     87  C   UNL A   1      44.433  31.068  30.393  1.00  0.00     0.058 A 
ATOM     88  C   UNL A   1      44.648  30.066  29.432  1.00  0.00     0.135 A 
ATOM     89  C   UNL A   1      45.022  32.315  30.119  1.00  0.00     0.135 A 
ATOM     90  F   UNL A   1      44.122  28.844  29.612  1.00  0.00    -0.206 F 
ATOM     91  C   UNL A   1      45.402  30.290  28.275  1.00  0.00     0.059 A 
ATOM     92  C   UNL A   1      45.767  32.573  28.968  1.00  0.00     0.059 A 
ATOM     93  F   UNL A   1      44.886  33.325  30.976  1.00  0.00    -0.206 F 
ATOM     94  C   UNL A   1      45.960  31.550  28.050  1.00  0.00     0.060 A 
BRANCH  94  95
ATOM     95  S   UNL A   1      46.931  31.834  26.554  1.00  0.00     0.124 S 
ATOM     96  O   UNL A   1      46.738  33.263  26.321  1.00  0.00    -0.237 OA
ATOM     97  O   UNL A   1      48.270  31.439  26.976  1.00  0.00    -0.237 OA
ATOM     98  O   UNL A   1      46.307  30.959  25.564  1.00  0.00    -0.744 OA
ENDBRANCH  94  95
ENDBRANCH  62  87
ENDBRANCH  36  37
ENDBRANCH  29  31
ENDBRANCH  28  29
ENDBRANCH  27  28
ENDBRANCH  26  27
ENDBRANCH  25  26
ENDBRANCH   1  25
TORSDOF 22
ENDMDL
MODEL 3
REMARK VINA RESULT:     -10.2      4.015      9.612
REMARK SMILES O=C(Cc1cccn1-c1ccc2c(c1)OCCO2)OCCOCCOCCOC(=O)c1ccc(-c2c3nc(c(-c4c(F)cc(S(=O)(=O)[O-])cc4F)c4ccc([nH]4)c(-c4c(F)cc(S(=O)(=O)[O-])cc4F)c4nc(c(-c5c(F)cc(S(=O)(=O)[O-])cc5F)c5ccc2[nH]5)C=C4)C=C3)cc1
REMARK SMILES IDX 24 1 23 2 22 3 21 4 20 5 19 6 2 7 1 8 3 9 4 10 5 11 8 12
REMARK SMILES IDX 6 13 7 14 9 15 10 16 14 17 11 18 13 19 12 20 15 21 18 22
REMARK SMILES IDX 16 23 17 24 25 25 26 26 27 27 28 28 29 29 30 30 31 31 32 32
REMARK SMILES IDX 96 33 33 34 95 35 34 36 35 37 36 38 89 39 37 40 94 41 88 42
REMARK SMILES IDX 90 43 38 44 93 45 87 46 86 47 39 49 73 50 52 51 72 52 53 53
REMARK SMILES IDX 56 54 71 55 91 56 54 57 55 58 70 60 92 61 57 62 40 63 41 64
REMARK SMILES IDX 50 65 42 66 43 67 49 68 51 69 44 70 45 71 46 72 47 73 48 74
REMARK SMILES IDX 74 75 75 76 84 77 76 78 77 79 83 80 85 81 78 82 79 83 80 84
REMARK SMILES IDX 81 85 82 86 58 87 59 88 68 89 60 90 61 91 67 92 69 93 62 94
REMARK SMILES IDX 63 95 64 96 65 97 66 98
REMARK H PARENT 90 48 56 59
REMARK Flexibility Score: inf
ROOT
ATOM      1  C   UNL A   1      31.881  29.829  25.444  1.00  0.00     0.188 C 
ENDROOT
BRANCH   1   2
ATOM      2  C   UNL A   1      31.002  29.009  24.473  1.00  0.00     0.188 C 
BRANCH   2   3
ATOM      3  O   UNL A   1      31.622  27.904  23.839  1.00  0.00    -0.376 OA
BRANCH   3   4
ATOM      4  C   UNL A   1      30.937  27.381  22.710  1.00  0.00     0.202 C 
BRANCH   4   5
ATOM      5  C   UNL A   1      31.653  26.214  22.041  1.00  0.00     0.261 C 
BRANCH   5   6
ATOM      6  O   UNL A   1      33.026  26.028  22.454  1.00  0.00    -0.463 OA
BRANCH   6   7
ATOM      7  C   UNL A   1      33.647  24.916  22.895  1.00  0.00     0.311 C 
ATOM      8  O   UNL A   1      33.983  24.055  22.081  1.00  0.00    -0.252 OA
BRANCH   7   9
ATOM      9  C   UNL A   1      33.854  24.670  24.369  1.00  0.00     0.177 C 
BRANCH   9  10
ATOM     10  C   UNL A   1      32.655  24.235  25.156  1.00  0.00     0.034 A 
ATOM     11  C   UNL A   1      31.772  25.040  25.856  1.00  0.00     0.024 A 
ATOM     12  N   UNL A   1      32.257  22.915  25.340  1.00  0.00    -0.320 N 
ATOM     13  C   UNL A   1      30.875  24.199  26.547  1.00  0.00     0.020 A 
ATOM     14  C   UNL A   1      31.226  22.900  26.252  1.00  0.00     0.091 A 
BRANCH  12  15
ATOM     15  C   UNL A   1      32.936  21.775  24.859  1.00  0.00     0.049 A 
ATOM     16  C   UNL A   1      34.327  21.708  24.985  1.00  0.00     0.031 A 
ATOM     17  C   UNL A   1      32.179  20.640  24.548  1.00  0.00     0.077 A 
ATOM     18  C   UNL A   1      34.970  20.479  24.826  1.00  0.00     0.052 A 
ATOM     19  C   UNL A   1      32.822  19.405  24.517  1.00  0.00     0.163 A 
ATOM     20  C   UNL A   1      34.215  19.322  24.628  1.00  0.00     0.161 A 
ATOM     21  O   UNL A   1      32.017  18.292  24.485  1.00  0.00    -0.486 OA
ATOM     22  O   UNL A   1      34.903  18.135  24.630  1.00  0.00    -0.486 OA
ATOM     23  C   UNL A   1      32.695  17.206  25.136  1.00  0.00     0.271 C 
ATOM     24  C   UNL A   1      34.045  16.997  24.467  1.00  0.00     0.271 C 
ENDBRANCH  12  15
ENDBRANCH   9  10
ENDBRANCH   7   9
ENDBRANCH   6   7
ENDBRANCH   5   6
ENDBRANCH   4   5
ENDBRANCH   3   4
ENDBRANCH   2   3
ENDBRANCH   1   2
BRANCH   1  25
ATOM     25  O   UNL A   1      32.577  29.258  26.547  1.00  0.00    -0.376 OA
BRANCH  25  26
ATOM     26  C   UNL A   1      33.955  29.489  26.790  1.00  0.00     0.202 C 
BRANCH  26  27
ATOM     27  C   UNL A   1      34.402  30.849  27.316  1.00  0.00     0.261 C 
BRANCH  27  28
ATOM     28  O   UNL A   1      33.359  31.559  27.971  1.00  0.00    -0.460 OA
BRANCH  28  29
ATOM     29  C   UNL A   1      33.591  32.885  28.035  1.00  0.00     0.338 C 
ATOM     30  O   UNL A   1      33.081  33.762  27.358  1.00  0.00    -0.246 OA
BRANCH  29  31
ATOM     31  C   UNL A   1      34.576  33.179  29.078  1.00  0.00     0.060 A 
ATOM     32  C   UNL A   1      35.737  33.843  28.668  1.00  0.00     0.016 A 
ATOM     33  C   UNL A   1      34.461  32.582  30.338  1.00  0.00     0.016 A 
ATOM     34  C   UNL A   1      36.875  33.727  29.436  1.00  0.00     0.010 A 
ATOM     35  C   UNL A   1      35.606  32.437  31.093  1.00  0.00     0.010 A 
ATOM     36  C   UNL A   1      36.817  32.928  30.581  1.00  0.00    -0.014 A 
BRANCH  36  37
ATOM     37  C   UNL A   1      38.085  32.464  31.162  1.00  0.00     0.031 A 
ATOM     38  C   UNL A   1      38.698  31.300  30.414  1.00  0.00     0.074 A 
ATOM     39  C   UNL A   1      38.484  33.162  32.269  1.00  0.00     0.049 A 
ATOM     40  N   UNL A   1      39.597  30.450  30.802  1.00  0.00    -0.248 NA
ATOM     41  C   UNL A   1      38.196  30.987  29.048  1.00  0.00     0.031 C 
ATOM     42  C   UNL A   1      37.709  34.270  32.873  1.00  0.00     0.029 A 
ATOM     43  N   UNL A   1      39.581  33.114  33.101  1.00  0.00    -0.354 N 
ATOM     44  C   UNL A   1      39.940  29.688  29.672  1.00  0.00     0.074 A 
ATOM     45  C   UNL A   1      38.951  29.956  28.672  1.00  0.00     0.031 C 
ATOM     46  C   UNL A   1      38.314  34.736  33.981  1.00  0.00     0.029 A 
ATOM     47  C   UNL A   1      39.547  34.013  34.200  1.00  0.00     0.049 A 
ATOM     48  H   UNL A   1      40.335  32.501  32.945  1.00  0.00     0.167 HD
ATOM     49  C   UNL A   1      41.111  29.005  29.559  1.00  0.00     0.037 A 
ATOM     50  C   UNL A   1      40.436  34.162  35.228  1.00  0.00     0.037 A 
ATOM     51  C   UNL A   1      41.891  29.116  30.746  1.00  0.00     0.049 A 
ATOM     52  C   UNL A   1      41.606  33.341  34.860  1.00  0.00     0.074 A 
ATOM     53  C   UNL A   1      41.792  28.549  31.989  1.00  0.00     0.029 A 
ATOM     54  N   UNL A   1      42.790  30.156  30.808  1.00  0.00    -0.354 N 
ATOM     55  N   UNL A   1      42.420  33.611  33.883  1.00  0.00    -0.248 NA
ATOM     56  C   UNL A   1      41.843  32.079  35.568  1.00  0.00     0.031 C 
ATOM     57  C   UNL A   1      42.372  29.494  32.864  1.00  0.00     0.029 A 
ATOM     58  C   UNL A   1      42.864  30.570  32.119  1.00  0.00     0.049 A 
ATOM     59  H   UNL A   1      43.291  30.534  30.050  1.00  0.00     0.167 HD
ATOM     60  C   UNL A   1      43.038  32.404  33.651  1.00  0.00     0.074 A 
ATOM     61  C   UNL A   1      42.864  31.617  34.852  1.00  0.00     0.031 C 
ATOM     62  C   UNL A   1      43.189  31.961  32.376  1.00  0.00     0.037 A 
BRANCH  49  63
ATOM     63  C   UNL A   1      41.756  28.414  28.344  1.00  0.00     0.058 A 
ATOM     64  C   UNL A   1      41.736  27.010  28.198  1.00  0.00     0.135 A 
ATOM     65  C   UNL A   1      42.657  29.119  27.528  1.00  0.00     0.135 A 
ATOM     66  F   UNL A   1      40.869  26.262  28.902  1.00  0.00    -0.206 F 
ATOM     67  C   UNL A   1      42.645  26.334  27.393  1.00  0.00     0.059 A 
ATOM     68  C   UNL A   1      43.551  28.462  26.682  1.00  0.00     0.059 A 
ATOM     69  F   UNL A   1      42.757  30.453  27.596  1.00  0.00    -0.206 F 
ATOM     70  C   UNL A   1      43.577  27.069  26.670  1.00  0.00     0.060 A 
BRANCH  70  71
ATOM     71  S   UNL A   1      44.864  26.183  25.769  1.00  0.00     0.124 S 
ATOM     72  O   UNL A   1      44.078  25.226  24.999  1.00  0.00    -0.237 OA
ATOM     73  O   UNL A   1      45.497  27.249  24.996  1.00  0.00    -0.237 OA
ATOM     74  O   UNL A   1      45.690  25.620  26.834  1.00  0.00    -0.744 OA
ENDBRANCH  70  71
ENDBRANCH  49  63
BRANCH  50  75
ATOM     75  C   UNL A   1      40.463  34.839  36.585  1.00  0.00     0.058 A 
ATOM     76  C   UNL A   1      41.115  36.043  36.898  1.00  0.00     0.135 A 
ATOM     77  C   UNL A   1      39.624  34.349  37.626  1.00  0.00     0.135 A 
ATOM     78  F   UNL A   1      42.011  36.595  36.075  1.00  0.00    -0.206 F 
ATOM     79  C   UNL A   1      40.846  36.771  38.070  1.00  0.00     0.059 A 
ATOM     80  C   UNL A   1      39.301  35.077  38.771  1.00  0.00     0.059 A 
ATOM     81  F   UNL A   1      39.029  33.151  37.541  1.00  0.00    -0.206 F 
ATOM     82  C   UNL A   1      39.895  36.309  38.972  1.00  0.00     0.060 A 
BRANCH  82  83
ATOM     83  S   UNL A   1      39.312  37.359  40.320  1.00  0.00     0.124 S 
ATOM     84  O   UNL A   1      38.525  36.425  41.116  1.00  0.00    -0.237 OA
ATOM     85  O   UNL A   1      40.556  37.823  40.930  1.00  0.00    -0.237 OA
ATOM     86  O   UNL A   1      38.553  38.391  39.618  1.00  0.00    -0.744 OA
ENDBRANCH  82  83
ENDBRANCH  50  75
BRANCH  62  87
ATOM     87  C   UNL A   1      43.234  33.071  31.339  1.00  0.00     0.058 A 
ATOM     88  C   UNL A   1      44.352  33.918  31.248  1.00  0.00     0.135 A 
ATOM     89  C   UNL A   1      42.155  33.388  30.496  1.00  0.00     0.135 A 
ATOM     90  F   UNL A   1      45.428  33.689  32.017  1.00  0.00    -0.206 F 
ATOM     91  C   UNL A   1      44.390  35.011  30.375  1.00  0.00     0.059 A 
ATOM     92  C   UNL A   1      42.170  34.462  29.605  1.00  0.00     0.059 A 
ATOM     93  F   UNL A   1      41.045  32.652  30.519  1.00  0.00    -0.206 F 
ATOM     94  C   UNL A   1      43.291  35.277  29.555  1.00  0.00     0.060 A 
BRANCH  94  95
ATOM     95  S   UNL A   1      43.348  36.688  28.429  1.00  0.00     0.124 S 
ATOM     96  O   UNL A   1      43.965  36.113  27.236  1.00  0.00    -0.237 OA
ATOM     97  O   UNL A   1      41.938  37.038  28.303  1.00  0.00    -0.237 OA
ATOM     98  O   UNL A   1      44.171  37.665  29.138  1.00  0.00    -0.744 OA
ENDBRANCH  94  95
ENDBRANCH  62  87
ENDBRANCH  36  37
ENDBRANCH  29  31
ENDBRANCH  28  29
ENDBRANCH  27  28
ENDBRANCH  26  27
ENDBRANCH  25  26
ENDBRANCH   1  25
TORSDOF 22
ENDMDL
