MODEL 1
REMARK VINA RESULT:      -9.5      0.000      0.000
REMARK SMILES COc1ccc([C@H](CC(=O)OCCOCCOCCOC(=O)c2ccc(-c3c4nc(c(-c5c(F)cc(S(=O)(=O)[O-])cc5F)c5ccc([nH]5)c(-c5c(F)cc(S(=O)(=O)[O-])cc5F)c5nc(c(-c6c(F)cc(S(=O)(=O)[O-])cc6F)c6ccc3[nH]6)C=C5)C=C4)cc2)NC(C)=O)cc1
REMARK SMILES IDX 15 1 14 2 13 3 12 4 11 5 9 6 10 7 8 8 7 9 6 10 3 11 4 12
REMARK SMILES IDX 94 13 5 14 93 15 2 16 1 17 89 18 90 19 91 21 92 22 16 23
REMARK SMILES IDX 17 24 18 25 19 26 20 27 21 28 22 29 23 30 24 31 88 32 25 33
REMARK SMILES IDX 87 34 26 35 27 36 28 37 81 38 29 39 86 40 80 41 82 42 30 43
REMARK SMILES IDX 85 44 79 45 78 46 31 48 65 49 44 50 64 51 45 52 48 53 63 54
REMARK SMILES IDX 83 55 46 56 47 57 62 59 84 60 49 61 32 62 33 63 42 64 34 65
REMARK SMILES IDX 35 66 41 67 43 68 36 69 37 70 38 71 39 72 40 73 66 74 67 75
REMARK SMILES IDX 76 76 68 77 69 78 75 79 77 80 70 81 71 82 72 83 73 84 74 85
REMARK SMILES IDX 50 86 51 87 60 88 52 89 53 90 59 91 61 92 54 93 55 94 56 95
REMARK SMILES IDX 57 96 58 97
REMARK H PARENT 89 20 82 47 48 58
REMARK Flexibility Score: inf
ROOT
ATOM      1  C   UNL A   1      41.207  20.214  26.240  1.00  0.00     0.188 C 
ENDROOT
BRANCH   1   2
ATOM      2  O   UNL A   1      40.242  21.057  25.624  1.00  0.00    -0.376 OA
BRANCH   2   3
ATOM      3  C   UNL A   1      39.343  21.743  26.499  1.00  0.00     0.202 C 
BRANCH   3   4
ATOM      4  C   UNL A   1      38.363  22.731  25.837  1.00  0.00     0.261 C 
BRANCH   4   5
ATOM      5  O   UNL A   1      37.645  22.159  24.718  1.00  0.00    -0.463 OA
BRANCH   5   6
ATOM      6  C   UNL A   1      36.833  23.014  24.044  1.00  0.00     0.308 C 
ATOM      7  O   UNL A   1      36.703  23.029  22.823  1.00  0.00    -0.252 OA
BRANCH   6   8
ATOM      8  C   UNL A   1      35.955  23.840  24.959  1.00  0.00     0.152 C 
BRANCH   8   9
ATOM      9  C   UNL A   1      34.476  23.953  24.569  1.00  0.00     0.123 C 
BRANCH   9  10
ATOM     10  C   UNL A   1      33.803  22.578  24.780  1.00  0.00    -0.025 A 
ATOM     11  C   UNL A   1      32.616  20.023  25.108  1.00  0.00     0.118 A 
ATOM     12  C   UNL A   1      32.556  20.689  23.881  1.00  0.00     0.047 A 
ATOM     13  C   UNL A   1      33.276  20.627  26.169  1.00  0.00     0.047 A 
ATOM     14  C   UNL A   1      33.123  21.962  23.722  1.00  0.00     0.010 A 
ATOM     15  C   UNL A   1      33.876  21.877  26.000  1.00  0.00     0.010 A 
BRANCH  11  16
ATOM     16  O   UNL A   1      32.021  18.793  25.142  1.00  0.00    -0.497 OA
ATOM     17  C   UNL A   1      32.875  17.690  25.430  1.00  0.00     0.278 C 
ENDBRANCH  11  16
ENDBRANCH   9  10
BRANCH   9  18
ATOM     18  N   UNL A   1      33.762  24.938  25.382  1.00  0.00    -0.349 N 
ATOM     19  C   UNL A   1      32.480  25.328  25.044  1.00  0.00     0.217 C 
ATOM     20  H   UNL A   1      34.199  25.325  26.174  1.00  0.00     0.164 HD
ATOM     21  C   UNL A   1      31.559  25.494  26.230  1.00  0.00     0.114 C 
ATOM     22  O   UNL A   1      32.077  25.418  23.890  1.00  0.00    -0.275 OA
ENDBRANCH   9  18
ENDBRANCH   8   9
ENDBRANCH   6   8
ENDBRANCH   5   6
ENDBRANCH   4   5
ENDBRANCH   3   4
ENDBRANCH   2   3
ENDBRANCH   1   2
BRANCH   1  23
ATOM     23  C   UNL A   1      42.651  20.733  26.258  1.00  0.00     0.188 C 
BRANCH  23  24
ATOM     24  O   UNL A   1      42.813  22.056  25.760  1.00  0.00    -0.376 OA
BRANCH  24  25
ATOM     25  C   UNL A   1      44.093  22.663  25.938  1.00  0.00     0.202 C 
BRANCH  25  26
ATOM     26  C   UNL A   1      44.114  24.200  25.931  1.00  0.00     0.261 C 
BRANCH  26  27
ATOM     27  O   UNL A   1      42.804  24.794  26.065  1.00  0.00    -0.460 OA
BRANCH  27  28
ATOM     28  C   UNL A   1      42.734  26.133  25.898  1.00  0.00     0.338 C 
ATOM     29  O   UNL A   1      42.703  26.730  24.836  1.00  0.00    -0.246 OA
BRANCH  28  30
ATOM     30  C   UNL A   1      42.442  26.760  27.204  1.00  0.00     0.060 A 
ATOM     31  C   UNL A   1      41.541  26.125  28.072  1.00  0.00     0.016 A 
ATOM     32  C   UNL A   1      43.062  27.947  27.583  1.00  0.00     0.016 A 
ATOM     33  C   UNL A   1      41.255  26.674  29.323  1.00  0.00     0.010 A 
ATOM     34  C   UNL A   1      42.756  28.511  28.824  1.00  0.00     0.010 A 
ATOM     35  C   UNL A   1      41.844  27.886  29.695  1.00  0.00    -0.014 A 
BRANCH  35  36
ATOM     36  C   UNL A   1      41.443  28.575  30.945  1.00  0.00     0.031 A 
ATOM     37  C   UNL A   1      40.268  29.511  30.907  1.00  0.00     0.074 A 
ATOM     38  C   UNL A   1      42.138  28.402  32.084  1.00  0.00     0.049 A 
ATOM     39  N   UNL A   1      39.867  30.370  31.803  1.00  0.00    -0.248 NA
ATOM     40  C   UNL A   1      39.436  29.469  29.693  1.00  0.00     0.031 C 
ATOM     41  C   UNL A   1      43.243  27.463  32.269  1.00  0.00     0.029 A 
ATOM     42  N   UNL A   1      42.030  29.037  33.297  1.00  0.00    -0.354 N 
ATOM     43  C   UNL A   1      38.760  31.003  31.250  1.00  0.00     0.074 A 
ATOM     44  C   UNL A   1      38.546  30.418  29.943  1.00  0.00     0.031 C 
ATOM     45  C   UNL A   1      43.732  27.604  33.514  1.00  0.00     0.029 A 
ATOM     46  C   UNL A   1      43.015  28.684  34.190  1.00  0.00     0.049 A 
ATOM     47  H   UNL A   1      41.316  29.682  33.507  1.00  0.00     0.167 HD
ATOM     48  C   UNL A   1      38.003  31.990  31.782  1.00  0.00     0.037 A 
ATOM     49  C   UNL A   1      43.334  29.211  35.389  1.00  0.00     0.037 A 
ATOM     50  C   UNL A   1      38.217  32.553  33.089  1.00  0.00     0.049 A 
ATOM     51  C   UNL A   1      42.535  30.379  35.917  1.00  0.00     0.074 A 
ATOM     52  C   UNL A   1      37.484  33.536  33.732  1.00  0.00     0.029 A 
ATOM     53  N   UNL A   1      39.245  32.195  33.949  1.00  0.00    -0.354 N 
ATOM     54  N   UNL A   1      41.489  30.970  35.389  1.00  0.00    -0.248 NA
ATOM     55  C   UNL A   1      42.971  30.962  37.194  1.00  0.00     0.031 C 
ATOM     56  C   UNL A   1      38.103  33.814  34.955  1.00  0.00     0.029 A 
ATOM     57  C   UNL A   1      39.187  32.964  35.100  1.00  0.00     0.049 A 
ATOM     58  H   UNL A   1      39.916  31.498  33.768  1.00  0.00     0.167 HD
ATOM     59  C   UNL A   1      41.125  31.972  36.285  1.00  0.00     0.074 A 
ATOM     60  C   UNL A   1      42.056  31.900  37.391  1.00  0.00     0.031 C 
ATOM     61  C   UNL A   1      40.114  32.871  36.200  1.00  0.00     0.037 A 
BRANCH  48  62
ATOM     62  C   UNL A   1      36.902  32.568  30.940  1.00  0.00     0.058 A 
ATOM     63  C   UNL A   1      35.610  32.025  30.925  1.00  0.00     0.135 A 
ATOM     64  C   UNL A   1      37.134  33.732  30.186  1.00  0.00     0.135 A 
ATOM     65  F   UNL A   1      35.339  30.902  31.608  1.00  0.00    -0.206 F 
ATOM     66  C   UNL A   1      34.585  32.612  30.189  1.00  0.00     0.059 A 
ATOM     67  C   UNL A   1      36.121  34.350  29.463  1.00  0.00     0.059 A 
ATOM     68  F   UNL A   1      38.357  34.285  30.160  1.00  0.00    -0.206 F 
ATOM     69  C   UNL A   1      34.849  33.778  29.465  1.00  0.00     0.060 A 
BRANCH  69  70
ATOM     70  S   UNL A   1      33.501  34.545  28.542  1.00  0.00     0.124 S 
ATOM     71  O   UNL A   1      34.207  35.597  27.818  1.00  0.00    -0.237 OA
ATOM     72  O   UNL A   1      33.010  33.436  27.730  1.00  0.00    -0.237 OA
ATOM     73  O   UNL A   1      32.591  35.005  29.586  1.00  0.00    -0.744 OA
ENDBRANCH  69  70
ENDBRANCH  48  62
BRANCH  49  74
ATOM     74  C   UNL A   1      44.495  28.690  36.161  1.00  0.00     0.058 A 
ATOM     75  C   UNL A   1      44.340  27.642  37.079  1.00  0.00     0.135 A 
ATOM     76  C   UNL A   1      45.773  29.258  36.031  1.00  0.00     0.135 A 
ATOM     77  F   UNL A   1      43.135  27.076  37.252  1.00  0.00    -0.206 F 
ATOM     78  C   UNL A   1      45.399  27.193  37.861  1.00  0.00     0.059 A 
ATOM     79  C   UNL A   1      46.856  28.807  36.779  1.00  0.00     0.059 A 
ATOM     80  F   UNL A   1      45.979  30.261  35.162  1.00  0.00    -0.206 F 
ATOM     81  C   UNL A   1      46.654  27.784  37.704  1.00  0.00     0.060 A 
BRANCH  81  82
ATOM     82  S   UNL A   1      48.027  27.185  38.714  1.00  0.00     0.124 S 
ATOM     83  O   UNL A   1      49.062  28.167  38.413  1.00  0.00    -0.237 OA
ATOM     84  O   UNL A   1      47.464  27.242  40.060  1.00  0.00    -0.237 OA
ATOM     85  O   UNL A   1      48.260  25.840  38.197  1.00  0.00    -0.744 OA
ENDBRANCH  81  82
ENDBRANCH  49  74
BRANCH  61  86
ATOM     86  C   UNL A   1      39.927  33.824  37.350  1.00  0.00     0.058 A 
ATOM     87  C   UNL A   1      40.544  35.083  37.375  1.00  0.00     0.135 A 
ATOM     88  C   UNL A   1      39.070  33.493  38.413  1.00  0.00     0.135 A 
ATOM     89  F   UNL A   1      41.377  35.447  36.388  1.00  0.00    -0.206 F 
ATOM     90  C   UNL A   1      40.333  35.975  38.422  1.00  0.00     0.059 A 
ATOM     91  C   UNL A   1      38.821  34.380  39.456  1.00  0.00     0.059 A 
ATOM     92  F   UNL A   1      38.446  32.304  38.434  1.00  0.00    -0.206 F 
ATOM     93  C   UNL A   1      39.467  35.616  39.457  1.00  0.00     0.060 A 
BRANCH  93  94
ATOM     94  S   UNL A   1      39.168  36.799  40.787  1.00  0.00     0.124 S 
ATOM     95  O   UNL A   1      38.394  37.826  40.098  1.00  0.00    -0.237 OA
ATOM     96  O   UNL A   1      38.433  35.996  41.760  1.00  0.00    -0.237 OA
ATOM     97  O   UNL A   1      40.512  37.196  41.198  1.00  0.00    -0.744 OA
ENDBRANCH  93  94
ENDBRANCH  61  86
ENDBRANCH  35  36
ENDBRANCH  28  30
ENDBRANCH  27  28
ENDBRANCH  26  27
ENDBRANCH  25  26
ENDBRANCH  24  25
ENDBRANCH  23  24
ENDBRANCH   1  23
TORSDOF 24
ENDMDL
MODEL 2
REMARK VINA RESULT:      -9.3      2.291      8.640
REMARK SMILES COc1ccc([C@H](CC(=O)OCCOCCOCCOC(=O)c2ccc(-c3c4nc(c(-c5c(F)cc(S(=O)(=O)[O-])cc5F)c5ccc([nH]5)c(-c5c(F)cc(S(=O)(=O)[O-])cc5F)c5nc(c(-c6c(F)cc(S(=O)(=O)[O-])cc6F)c6ccc3[nH]6)C=C5)C=C4)cc2)NC(C)=O)cc1
REMARK SMILES IDX 15 1 14 2 13 3 12 4 11 5 9 6 10 7 8 8 7 9 6 10 3 11 4 12
REMARK SMILES IDX 94 13 5 14 93 15 2 16 1 17 89 18 90 19 91 21 92 22 16 23
REMARK SMILES IDX 17 24 18 25 19 26 20 27 21 28 22 29 23 30 24 31 88 32 25 33
REMARK SMILES IDX 87 34 26 35 27 36 28 37 81 38 29 39 86 40 80 41 82 42 30 43
REMARK SMILES IDX 85 44 79 45 78 46 31 48 65 49 44 50 64 51 45 52 48 53 63 54
REMARK SMILES IDX 83 55 46 56 47 57 62 59 84 60 49 61 32 62 33 63 42 64 34 65
REMARK SMILES IDX 35 66 41 67 43 68 36 69 37 70 38 71 39 72 40 73 66 74 67 75
REMARK SMILES IDX 76 76 68 77 69 78 75 79 77 80 70 81 71 82 72 83 73 84 74 85
REMARK SMILES IDX 50 86 51 87 60 88 52 89 53 90 59 91 61 92 54 93 55 94 56 95
REMARK SMILES IDX 57 96 58 97
REMARK H PARENT 89 20 82 47 48 58
REMARK Flexibility Score: inf
ROOT
ATOM      1  C   UNL A   1      33.621  28.873  27.154  1.00  0.00     0.188 C 
ENDROOT
BRANCH   1   2
ATOM      2  O   UNL A   1      33.440  28.620  25.766  1.00  0.00    -0.376 OA
BRANCH   2   3
ATOM      3  C   UNL A   1      32.308  27.826  25.404  1.00  0.00     0.202 C 
BRANCH   3   4
ATOM      4  C   UNL A   1      32.074  26.548  26.233  1.00  0.00     0.261 C 
BRANCH   4   5
ATOM      5  O   UNL A   1      31.756  25.393  25.421  1.00  0.00    -0.463 OA
BRANCH   5   6
ATOM      6  C   UNL A   1      31.712  24.206  26.083  1.00  0.00     0.308 C 
ATOM      7  O   UNL A   1      31.348  24.076  27.248  1.00  0.00    -0.252 OA
BRANCH   6   8
ATOM      8  C   UNL A   1      31.987  23.020  25.185  1.00  0.00     0.152 C 
BRANCH   8   9
ATOM      9  C   UNL A   1      33.426  22.488  25.177  1.00  0.00     0.123 C 
BRANCH   9  10
ATOM     10  C   UNL A   1      33.406  21.018  24.705  1.00  0.00    -0.025 A 
ATOM     11  C   UNL A   1      33.376  18.293  23.918  1.00  0.00     0.118 A 
ATOM     12  C   UNL A   1      34.453  18.820  24.633  1.00  0.00     0.047 A 
ATOM     13  C   UNL A   1      32.308  19.122  23.602  1.00  0.00     0.047 A 
ATOM     14  C   UNL A   1      34.482  20.171  25.004  1.00  0.00     0.010 A 
ATOM     15  C   UNL A   1      32.317  20.458  24.007  1.00  0.00     0.010 A 
BRANCH  11  16
ATOM     16  O   UNL A   1      33.466  16.965  23.605  1.00  0.00    -0.497 OA
ATOM     17  C   UNL A   1      33.879  16.099  24.658  1.00  0.00     0.278 C 
ENDBRANCH  11  16
ENDBRANCH   9  10
BRANCH   9  18
ATOM     18  N   UNL A   1      34.291  23.245  24.270  1.00  0.00    -0.349 N 
ATOM     19  C   UNL A   1      35.608  23.494  24.605  1.00  0.00     0.217 C 
ATOM     20  H   UNL A   1      33.931  23.578  23.417  1.00  0.00     0.164 HD
ATOM     21  C   UNL A   1      36.568  23.368  23.446  1.00  0.00     0.114 C 
ATOM     22  O   UNL A   1      35.995  23.684  25.753  1.00  0.00    -0.275 OA
ENDBRANCH   9  18
ENDBRANCH   8   9
ENDBRANCH   6   8
ENDBRANCH   5   6
ENDBRANCH   4   5
ENDBRANCH   3   4
ENDBRANCH   2   3
ENDBRANCH   1   2
BRANCH   1  23
ATOM     23  C   UNL A   1      34.751  29.842  27.526  1.00  0.00     0.188 C 
BRANCH  23  24
ATOM     24  O   UNL A   1      34.429  31.218  27.374  1.00  0.00    -0.376 OA
BRANCH  24  25
ATOM     25  C   UNL A   1      33.082  31.603  27.648  1.00  0.00     0.202 C 
BRANCH  25  26
ATOM     26  C   UNL A   1      32.752  33.090  27.435  1.00  0.00     0.261 C 
BRANCH  26  27
ATOM     27  O   UNL A   1      32.512  33.807  28.666  1.00  0.00    -0.460 OA
BRANCH  27  28
ATOM     28  C   UNL A   1      33.371  34.812  28.950  1.00  0.00     0.338 C 
ATOM     29  O   UNL A   1      33.127  36.005  28.916  1.00  0.00    -0.246 OA
BRANCH  28  30
ATOM     30  C   UNL A   1      34.589  34.238  29.558  1.00  0.00     0.060 A 
ATOM     31  C   UNL A   1      34.456  33.395  30.672  1.00  0.00     0.016 A 
ATOM     32  C   UNL A   1      35.849  34.505  29.028  1.00  0.00     0.016 A 
ATOM     33  C   UNL A   1      35.580  32.816  31.262  1.00  0.00     0.010 A 
ATOM     34  C   UNL A   1      36.977  33.947  29.635  1.00  0.00     0.010 A 
ATOM     35  C   UNL A   1      36.852  33.110  30.759  1.00  0.00    -0.014 A 
BRANCH  35  36
ATOM     36  C   UNL A   1      38.073  32.641  31.456  1.00  0.00     0.031 A 
ATOM     37  C   UNL A   1      38.791  31.436  30.918  1.00  0.00     0.074 A 
ATOM     38  C   UNL A   1      38.510  33.252  32.572  1.00  0.00     0.049 A 
ATOM     39  N   UNL A   1      39.740  30.727  31.466  1.00  0.00    -0.248 NA
ATOM     40  C   UNL A   1      38.382  30.972  29.582  1.00  0.00     0.031 C 
ATOM     41  C   UNL A   1      37.950  34.475  33.145  1.00  0.00     0.029 A 
ATOM     42  N   UNL A   1      39.517  32.906  33.439  1.00  0.00    -0.354 N 
ATOM     43  C   UNL A   1      40.018  29.707  30.564  1.00  0.00     0.074 A 
ATOM     44  C   UNL A   1      39.144  29.898  29.426  1.00  0.00     0.031 C 
ATOM     45  C   UNL A   1      38.601  34.759  34.287  1.00  0.00     0.029 A 
ATOM     46  C   UNL A   1      39.580  33.708  34.555  1.00  0.00     0.049 A 
ATOM     47  H   UNL A   1      40.134  32.155  33.278  1.00  0.00     0.167 HD
ATOM     48  C   UNL A   1      40.911  28.698  30.684  1.00  0.00     0.037 A 
ATOM     49  C   UNL A   1      40.305  33.575  35.684  1.00  0.00     0.037 A 
ATOM     50  C   UNL A   1      41.786  28.528  31.815  1.00  0.00     0.049 A 
ATOM     51  C   UNL A   1      41.222  32.385  35.836  1.00  0.00     0.074 A 
ATOM     52  C   UNL A   1      42.749  27.556  32.017  1.00  0.00     0.029 A 
ATOM     53  N   UNL A   1      41.796  29.340  32.939  1.00  0.00    -0.354 N 
ATOM     54  N   UNL A   1      41.480  31.426  34.978  1.00  0.00    -0.248 NA
ATOM     55  C   UNL A   1      41.932  32.251  37.116  1.00  0.00     0.031 C 
ATOM     56  C   UNL A   1      43.301  27.743  33.288  1.00  0.00     0.029 A 
ATOM     57  C   UNL A   1      42.723  28.867  33.854  1.00  0.00     0.049 A 
ATOM     58  H   UNL A   1      41.229  30.134  33.069  1.00  0.00     0.167 HD
ATOM     59  C   UNL A   1      42.405  30.595  35.603  1.00  0.00     0.074 A 
ATOM     60  C   UNL A   1      42.668  31.168  36.906  1.00  0.00     0.031 C 
ATOM     61  C   UNL A   1      42.984  29.459  35.143  1.00  0.00     0.037 A 
BRANCH  48  62
ATOM     62  C   UNL A   1      40.961  27.665  29.595  1.00  0.00     0.058 A 
ATOM     63  C   UNL A   1      42.027  27.586  28.689  1.00  0.00     0.135 A 
ATOM     64  C   UNL A   1      39.950  26.692  29.506  1.00  0.00     0.135 A 
ATOM     65  F   UNL A   1      43.007  28.504  28.715  1.00  0.00    -0.206 F 
ATOM     66  C   UNL A   1      42.089  26.582  27.727  1.00  0.00     0.059 A 
ATOM     67  C   UNL A   1      40.002  25.667  28.569  1.00  0.00     0.059 A 
ATOM     68  F   UNL A   1      38.903  26.730  30.345  1.00  0.00    -0.206 F 
ATOM     69  C   UNL A   1      41.074  25.624  27.679  1.00  0.00     0.060 A 
BRANCH  69  70
ATOM     70  S   UNL A   1      41.186  24.309  26.447  1.00  0.00     0.124 S 
ATOM     71  O   UNL A   1      39.776  24.033  26.188  1.00  0.00    -0.237 OA
ATOM     72  O   UNL A   1      41.913  24.962  25.362  1.00  0.00    -0.237 OA
ATOM     73  O   UNL A   1      41.915  23.253  27.141  1.00  0.00    -0.744 OA
ENDBRANCH  69  70
ENDBRANCH  48  62
BRANCH  49  74
ATOM     74  C   UNL A   1      40.162  34.556  36.795  1.00  0.00     0.058 A 
ATOM     75  C   UNL A   1      39.120  34.444  37.727  1.00  0.00     0.135 A 
ATOM     76  C   UNL A   1      41.035  35.649  36.922  1.00  0.00     0.135 A 
ATOM     77  F   UNL A   1      38.250  33.426  37.639  1.00  0.00    -0.206 F 
ATOM     78  C   UNL A   1      38.930  35.392  38.727  1.00  0.00     0.059 A 
ATOM     79  C   UNL A   1      40.884  36.594  37.931  1.00  0.00     0.059 A 
ATOM     80  F   UNL A   1      42.053  35.801  36.059  1.00  0.00    -0.206 F 
ATOM     81  C   UNL A   1      39.818  36.466  38.819  1.00  0.00     0.060 A 
BRANCH  81  82
ATOM     82  S   UNL A   1      39.570  37.685  40.129  1.00  0.00     0.124 S 
ATOM     83  O   UNL A   1      40.589  38.676  39.803  1.00  0.00    -0.237 OA
ATOM     84  O   UNL A   1      38.186  38.095  39.907  1.00  0.00    -0.237 OA
ATOM     85  O   UNL A   1      39.801  36.917  41.348  1.00  0.00    -0.744 OA
ENDBRANCH  81  82
ENDBRANCH  49  74
BRANCH  61  86
ATOM     86  C   UNL A   1      43.993  28.778  36.029  1.00  0.00     0.058 A 
ATOM     87  C   UNL A   1      45.323  29.217  36.108  1.00  0.00     0.135 A 
ATOM     88  C   UNL A   1      43.604  27.709  36.854  1.00  0.00     0.135 A 
ATOM     89  F   UNL A   1      45.748  30.229  35.337  1.00  0.00    -0.206 F 
ATOM     90  C   UNL A   1      46.238  28.608  36.962  1.00  0.00     0.059 A 
ATOM     91  C   UNL A   1      44.495  27.105  37.736  1.00  0.00     0.059 A 
ATOM     92  F   UNL A   1      42.341  27.257  36.825  1.00  0.00    -0.206 F 
ATOM     93  C   UNL A   1      45.814  27.555  37.774  1.00  0.00     0.060 A 
BRANCH  93  94
ATOM     94  S   UNL A   1      47.001  26.802  38.907  1.00  0.00     0.124 S 
ATOM     95  O   UNL A   1      46.697  25.384  38.751  1.00  0.00    -0.237 OA
ATOM     96  O   UNL A   1      48.280  27.241  38.356  1.00  0.00    -0.237 OA
ATOM     97  O   UNL A   1      46.651  27.381  40.201  1.00  0.00    -0.744 OA
ENDBRANCH  93  94
ENDBRANCH  61  86
ENDBRANCH  35  36
ENDBRANCH  28  30
ENDBRANCH  27  28
ENDBRANCH  26  27
ENDBRANCH  25  26
ENDBRANCH  24  25
ENDBRANCH  23  24
ENDBRANCH   1  23
TORSDOF 24
ENDMDL
MODEL 3
REMARK VINA RESULT:      -9.3      1.100      2.507
REMARK SMILES COc1ccc([C@H](CC(=O)OCCOCCOCCOC(=O)c2ccc(-c3c4nc(c(-c5c(F)cc(S(=O)(=O)[O-])cc5F)c5ccc([nH]5)c(-c5c(F)cc(S(=O)(=O)[O-])cc5F)c5nc(c(-c6c(F)cc(S(=O)(=O)[O-])cc6F)c6ccc3[nH]6)C=C5)C=C4)cc2)NC(C)=O)cc1
REMARK SMILES IDX 15 1 14 2 13 3 12 4 11 5 9 6 10 7 8 8 7 9 6 10 3 11 4 12
REMARK SMILES IDX 94 13 5 14 93 15 2 16 1 17 89 18 90 19 91 21 92 22 16 23
REMARK SMILES IDX 17 24 18 25 19 26 20 27 21 28 22 29 23 30 24 31 88 32 25 33
REMARK SMILES IDX 87 34 26 35 27 36 28 37 81 38 29 39 86 40 80 41 82 42 30 43
REMARK SMILES IDX 85 44 79 45 78 46 31 48 65 49 44 50 64 51 45 52 48 53 63 54
REMARK SMILES IDX 83 55 46 56 47 57 62 59 84 60 49 61 32 62 33 63 42 64 34 65
REMARK SMILES IDX 35 66 41 67 43 68 36 69 37 70 38 71 39 72 40 73 66 74 67 75
REMARK SMILES IDX 76 76 68 77 69 78 75 79 77 80 70 81 71 82 72 83 73 84 74 85
REMARK SMILES IDX 50 86 51 87 60 88 52 89 53 90 59 91 61 92 54 93 55 94 56 95
REMARK SMILES IDX 57 96 58 97
REMARK H PARENT 89 20 82 47 48 58
REMARK Flexibility Score: inf
ROOT
ATOM      1  C   UNL A   1      40.343  21.654  27.004  1.00  0.00     0.188 C 
ENDROOT
BRANCH   1   2
ATOM      2  O   UNL A   1      39.542  21.341  25.872  1.00  0.00    -0.376 OA
BRANCH   2   3
ATOM      3  C   UNL A   1      38.273  21.995  25.788  1.00  0.00     0.202 C 
BRANCH   3   4
ATOM      4  C   UNL A   1      37.271  21.416  24.771  1.00  0.00     0.261 C 
BRANCH   4   5
ATOM      5  O   UNL A   1      36.054  22.195  24.663  1.00  0.00    -0.463 OA
BRANCH   5   6
ATOM      6  C   UNL A   1      36.005  23.063  23.618  1.00  0.00     0.308 C 
ATOM      7  O   UNL A   1      36.587  22.895  22.551  1.00  0.00    -0.252 OA
BRANCH   6   8
ATOM      8  C   UNL A   1      35.009  24.182  23.829  1.00  0.00     0.152 C 
BRANCH   8   9
ATOM      9  C   UNL A   1      34.054  24.031  25.019  1.00  0.00     0.123 C 
BRANCH   9  10
ATOM     10  C   UNL A   1      33.313  25.370  25.231  1.00  0.00    -0.025 A 
ATOM     11  C   UNL A   1      32.009  27.866  25.570  1.00  0.00     0.118 A 
ATOM     12  C   UNL A   1      33.348  27.702  25.932  1.00  0.00     0.047 A 
ATOM     13  C   UNL A   1      31.322  26.787  25.030  1.00  0.00     0.047 A 
ATOM     14  C   UNL A   1      33.989  26.464  25.787  1.00  0.00     0.010 A 
ATOM     15  C   UNL A   1      31.972  25.565  24.847  1.00  0.00     0.010 A 
BRANCH  11  16
ATOM     16  O   UNL A   1      31.492  29.116  25.766  1.00  0.00    -0.497 OA
ATOM     17  C   UNL A   1      30.920  29.746  24.624  1.00  0.00     0.278 C 
ENDBRANCH  11  16
ENDBRANCH   9  10
BRANCH   9  18
ATOM     18  N   UNL A   1      33.052  22.988  24.796  1.00  0.00    -0.349 N 
ATOM     19  C   UNL A   1      32.547  22.263  25.859  1.00  0.00     0.217 C 
ATOM     20  H   UNL A   1      32.736  22.802  23.883  1.00  0.00     0.164 HD
ATOM     21  C   UNL A   1      31.062  21.997  25.767  1.00  0.00     0.114 C 
ATOM     22  O   UNL A   1      33.202  21.961  26.850  1.00  0.00    -0.275 OA
ENDBRANCH   9  18
ENDBRANCH   8   9
ENDBRANCH   6   8
ENDBRANCH   5   6
ENDBRANCH   4   5
ENDBRANCH   3   4
ENDBRANCH   2   3
ENDBRANCH   1   2
BRANCH   1  23
ATOM     23  C   UNL A   1      41.802  21.182  26.954  1.00  0.00     0.188 C 
BRANCH  23  24
ATOM     24  O   UNL A   1      42.747  22.115  27.465  1.00  0.00    -0.376 OA
BRANCH  24  25
ATOM     25  C   UNL A   1      43.743  22.590  26.560  1.00  0.00     0.202 C 
BRANCH  25  26
ATOM     26  C   UNL A   1      43.343  23.794  25.692  1.00  0.00     0.261 C 
BRANCH  26  27
ATOM     27  O   UNL A   1      43.660  25.068  26.294  1.00  0.00    -0.460 OA
BRANCH  27  28
ATOM     28  C   UNL A   1      42.885  26.114  25.928  1.00  0.00     0.338 C 
ATOM     29  O   UNL A   1      42.462  26.346  24.810  1.00  0.00    -0.246 OA
BRANCH  28  30
ATOM     30  C   UNL A   1      42.413  26.804  27.148  1.00  0.00     0.060 A 
ATOM     31  C   UNL A   1      42.890  28.094  27.421  1.00  0.00     0.016 A 
ATOM     32  C   UNL A   1      41.494  26.199  28.002  1.00  0.00     0.016 A 
ATOM     33  C   UNL A   1      42.452  28.787  28.551  1.00  0.00     0.010 A 
ATOM     34  C   UNL A   1      41.076  26.882  29.147  1.00  0.00     0.010 A 
ATOM     35  C   UNL A   1      41.559  28.172  29.434  1.00  0.00    -0.014 A 
BRANCH  35  36
ATOM     36  C   UNL A   1      41.197  28.814  30.720  1.00  0.00     0.031 A 
ATOM     37  C   UNL A   1      40.040  29.772  30.747  1.00  0.00     0.074 A 
ATOM     38  C   UNL A   1      41.912  28.580  31.835  1.00  0.00     0.049 A 
ATOM     39  N   UNL A   1      39.673  30.600  31.687  1.00  0.00    -0.248 NA
ATOM     40  C   UNL A   1      39.183  29.797  29.550  1.00  0.00     0.031 C 
ATOM     41  C   UNL A   1      43.002  27.614  31.957  1.00  0.00     0.029 A 
ATOM     42  N   UNL A   1      41.841  29.164  33.076  1.00  0.00    -0.354 N 
ATOM     43  C   UNL A   1      38.568  31.276  31.185  1.00  0.00     0.074 A 
ATOM     44  C   UNL A   1      38.316  30.751  29.859  1.00  0.00     0.031 C 
ATOM     45  C   UNL A   1      43.519  27.693  33.197  1.00  0.00     0.029 A 
ATOM     46  C   UNL A   1      42.837  28.756  33.932  1.00  0.00     0.049 A 
ATOM     47  H   UNL A   1      41.144  29.813  33.329  1.00  0.00     0.167 HD
ATOM     48  C   UNL A   1      37.842  32.254  31.774  1.00  0.00     0.037 A 
ATOM     49  C   UNL A   1      43.191  29.226  35.146  1.00  0.00     0.037 A 
ATOM     50  C   UNL A   1      38.093  32.756  33.099  1.00  0.00     0.049 A 
ATOM     51  C   UNL A   1      42.426  30.385  35.739  1.00  0.00     0.074 A 
ATOM     52  C   UNL A   1      37.393  33.724  33.798  1.00  0.00     0.029 A 
ATOM     53  N   UNL A   1      39.131  32.343  33.921  1.00  0.00    -0.354 N 
ATOM     54  N   UNL A   1      41.380  31.017  35.259  1.00  0.00    -0.248 NA
ATOM     55  C   UNL A   1      42.899  30.904  37.030  1.00  0.00     0.031 C 
ATOM     56  C   UNL A   1      38.042  33.938  35.018  1.00  0.00     0.029 A 
ATOM     57  C   UNL A   1      39.112  33.063  35.104  1.00  0.00     0.049 A 
ATOM     58  H   UNL A   1      39.785  31.642  33.696  1.00  0.00     0.167 HD
ATOM     59  C   UNL A   1      41.055  31.986  36.204  1.00  0.00     0.074 A 
ATOM     60  C   UNL A   1      42.006  31.850  37.286  1.00  0.00     0.031 C 
ATOM     61  C   UNL A   1      40.059  32.906  36.180  1.00  0.00     0.037 A 
BRANCH  48  62
ATOM     62  C   UNL A   1      36.735  32.887  30.980  1.00  0.00     0.058 A 
ATOM     63  C   UNL A   1      35.395  32.500  31.126  1.00  0.00     0.135 A 
ATOM     64  C   UNL A   1      37.020  33.951  30.107  1.00  0.00     0.135 A 
ATOM     65  F   UNL A   1      35.070  31.474  31.929  1.00  0.00    -0.206 F 
ATOM     66  C   UNL A   1      34.375  33.142  30.430  1.00  0.00     0.059 A 
ATOM     67  C   UNL A   1      36.015  34.623  29.420  1.00  0.00     0.059 A 
ATOM     68  F   UNL A   1      38.288  34.353  29.926  1.00  0.00    -0.206 F 
ATOM     69  C   UNL A   1      34.695  34.206  29.584  1.00  0.00     0.060 A 
BRANCH  69  70
ATOM     70  S   UNL A   1      33.357  35.050  28.714  1.00  0.00     0.124 S 
ATOM     71  O   UNL A   1      32.808  33.965  27.906  1.00  0.00    -0.237 OA
ATOM     72  O   UNL A   1      32.514  35.510  29.813  1.00  0.00    -0.237 OA
ATOM     73  O   UNL A   1      34.043  36.101  27.970  1.00  0.00    -0.744 OA
ENDBRANCH  69  70
ENDBRANCH  48  62
BRANCH  49  74
ATOM     74  C   UNL A   1      44.357  28.651  35.870  1.00  0.00     0.058 A 
ATOM     75  C   UNL A   1      44.193  27.600  36.784  1.00  0.00     0.135 A 
ATOM     76  C   UNL A   1      45.652  29.169  35.699  1.00  0.00     0.135 A 
ATOM     77  F   UNL A   1      42.974  27.081  36.996  1.00  0.00    -0.206 F 
ATOM     78  C   UNL A   1      45.262  27.101  37.523  1.00  0.00     0.059 A 
ATOM     79  C   UNL A   1      46.741  28.667  36.403  1.00  0.00     0.059 A 
ATOM     80  F   UNL A   1      45.866  30.172  34.832  1.00  0.00    -0.206 F 
ATOM     81  C   UNL A   1      46.533  27.644  37.325  1.00  0.00     0.060 A 
BRANCH  81  82
ATOM     82  S   UNL A   1      47.916  26.981  38.279  1.00  0.00     0.124 S 
ATOM     83  O   UNL A   1      48.925  28.017  38.092  1.00  0.00    -0.237 OA
ATOM     84  O   UNL A   1      47.343  26.880  39.619  1.00  0.00    -0.237 OA
ATOM     85  O   UNL A   1      48.191  25.704  37.626  1.00  0.00    -0.744 OA
ENDBRANCH  81  82
ENDBRANCH  49  74
BRANCH  61  86
ATOM     86  C   UNL A   1      39.914  33.812  37.372  1.00  0.00     0.058 A 
ATOM     87  C   UNL A   1      40.646  35.003  37.490  1.00  0.00     0.135 A 
ATOM     88  C   UNL A   1      38.985  33.512  38.383  1.00  0.00     0.135 A 
ATOM     89  F   UNL A   1      41.552  35.335  36.556  1.00  0.00    -0.206 F 
ATOM     90  C   UNL A   1      40.476  35.857  38.576  1.00  0.00     0.059 A 
ATOM     91  C   UNL A   1      38.777  34.364  39.462  1.00  0.00     0.059 A 
ATOM     92  F   UNL A   1      38.251  32.390  38.314  1.00  0.00    -0.206 F 
ATOM     93  C   UNL A   1      39.537  35.530  39.555  1.00  0.00     0.060 A 
BRANCH  93  94
ATOM     94  S   UNL A   1      39.295  36.667  40.937  1.00  0.00     0.124 S 
ATOM     95  O   UNL A   1      38.492  37.716  40.317  1.00  0.00    -0.237 OA
ATOM     96  O   UNL A   1      38.601  35.830  41.912  1.00  0.00    -0.237 OA
ATOM     97  O   UNL A   1      40.654  37.052  41.304  1.00  0.00    -0.744 OA
ENDBRANCH  93  94
ENDBRANCH  61  86
ENDBRANCH  35  36
ENDBRANCH  28  30
ENDBRANCH  27  28
ENDBRANCH  26  27
ENDBRANCH  25  26
ENDBRANCH  24  25
ENDBRANCH  23  24
ENDBRANCH   1  23
TORSDOF 24
ENDMDL
