MODEL 1
REMARK VINA RESULT:      -8.9      0.000      0.000
REMARK SMILES C=C(C)C(=O)OCC[C@@H](C(C)=O)C(=O)OCCOCCOCCOC(=O)c1ccc(-c2c3nc(c(-c4c(F)cc(S(=O)(=O)[O-])cc4F)c4ccc([nH]4)c(-c4c(F)cc(S(=O)(=O)[O-])cc4F)c4nc(c(-c5c(F)cc(S(=O)(=O)[O-])cc5F)c5ccc2[nH]5)C=C4)C=C3)cc1
REMARK SMILES IDX 19 1 18 2 17 3 16 4 15 5 13 6 14 7 9 8 8 9 7 10 6 11 4 12
REMARK SMILES IDX 5 13 2 14 1 15 3 16 10 17 11 18 12 19 20 20 21 21 22 22
REMARK SMILES IDX 23 23 24 24 25 25 26 26 27 27 28 28 92 29 29 30 91 31 30 32
REMARK SMILES IDX 31 33 32 34 85 35 33 36 90 37 84 38 86 39 34 40 89 41 83 42
REMARK SMILES IDX 82 43 35 45 69 46 48 47 68 48 49 49 52 50 67 51 87 52 50 53
REMARK SMILES IDX 51 54 66 56 88 57 53 58 36 59 37 60 46 61 38 62 39 63 45 64
REMARK SMILES IDX 47 65 40 66 41 67 42 68 43 69 44 70 70 71 71 72 80 73 72 74
REMARK SMILES IDX 73 75 79 76 81 77 74 78 75 79 76 80 77 81 78 82 54 83 55 84
REMARK SMILES IDX 64 85 56 86 57 87 63 88 65 89 58 90 59 91 60 92 61 93 62 94
REMARK H PARENT 86 44 52 55
REMARK Flexibility Score: inf
ROOT
ATOM      1  C   UNL A   1      40.146  21.985  26.146  1.00  0.00     0.188 C 
ENDROOT
BRANCH   1   2
ATOM      2  O   UNL A   1      38.782  22.209  26.468  1.00  0.00    -0.376 OA
BRANCH   2   3
ATOM      3  C   UNL A   1      37.838  22.161  25.403  1.00  0.00     0.202 C 
BRANCH   3   4
ATOM      4  C   UNL A   1      36.362  21.877  25.738  1.00  0.00     0.261 C 
BRANCH   4   5
ATOM      5  O   UNL A   1      35.356  22.605  24.984  1.00  0.00    -0.463 OA
BRANCH   5   6
ATOM      6  C   UNL A   1      34.245  22.957  25.680  1.00  0.00     0.316 C 
ATOM      7  O   UNL A   1      34.233  23.147  26.894  1.00  0.00    -0.251 OA
BRANCH   6   8
ATOM      8  C   UNL A   1      32.953  22.983  24.888  1.00  0.00     0.169 C 
BRANCH   8   9
ATOM      9  C   UNL A   1      32.527  21.681  24.186  1.00  0.00     0.065 C 
BRANCH   9  10
ATOM     10  C   UNL A   1      32.939  20.407  24.949  1.00  0.00     0.234 C 
BRANCH  10  11
ATOM     11  O   UNL A   1      32.018  19.319  24.731  1.00  0.00    -0.462 OA
BRANCH  11  12
ATOM     12  C   UNL A   1      32.543  18.067  24.790  1.00  0.00     0.333 C 
ATOM     13  O   UNL A   1      32.587  17.350  25.777  1.00  0.00    -0.247 OA
BRANCH  12  14
ATOM     14  C   UNL A   1      33.028  17.653  23.453  1.00  0.00     0.027 C 
ATOM     15  C   UNL A   1      32.364  18.110  22.380  1.00  0.00     0.020 C 
ATOM     16  C   UNL A   1      34.158  16.679  23.381  1.00  0.00     0.051 C 
ENDBRANCH  12  14
ENDBRANCH  11  12
ENDBRANCH  10  11
ENDBRANCH   9  10
ENDBRANCH   8   9
BRANCH   8  17
ATOM     17  C   UNL A   1      31.805  23.533  25.721  1.00  0.00     0.144 C 
ATOM     18  C   UNL A   1      31.818  24.992  26.103  1.00  0.00     0.088 C 
ATOM     19  O   UNL A   1      30.840  22.831  26.037  1.00  0.00    -0.299 OA
ENDBRANCH   8  17
ENDBRANCH   6   8
ENDBRANCH   5   6
ENDBRANCH   4   5
ENDBRANCH   3   4
ENDBRANCH   2   3
ENDBRANCH   1   2
BRANCH   1  20
ATOM     20  C   UNL A   1      41.068  21.603  27.304  1.00  0.00     0.188 C 
BRANCH  20  21
ATOM     21  O   UNL A   1      42.437  21.521  26.977  1.00  0.00    -0.376 OA
BRANCH  21  22
ATOM     22  C   UNL A   1      43.195  22.712  26.780  1.00  0.00     0.202 C 
BRANCH  22  23
ATOM     23  C   UNL A   1      42.893  23.714  25.635  1.00  0.00     0.261 C 
BRANCH  23  24
ATOM     24  O   UNL A   1      43.218  25.104  25.816  1.00  0.00    -0.460 OA
BRANCH  24  25
ATOM     25  C   UNL A   1      42.198  26.003  25.817  1.00  0.00     0.338 C 
ATOM     26  O   UNL A   1      41.342  26.115  24.968  1.00  0.00    -0.246 OA
BRANCH  25  27
ATOM     27  C   UNL A   1      42.133  26.596  27.191  1.00  0.00     0.060 A 
ATOM     28  C   UNL A   1      41.295  25.988  28.142  1.00  0.00     0.016 A 
ATOM     29  C   UNL A   1      42.961  27.654  27.577  1.00  0.00     0.016 A 
ATOM     30  C   UNL A   1      41.246  26.462  29.459  1.00  0.00     0.010 A 
ATOM     31  C   UNL A   1      42.892  28.146  28.887  1.00  0.00     0.010 A 
ATOM     32  C   UNL A   1      42.006  27.580  29.825  1.00  0.00    -0.014 A 
BRANCH  32  33
ATOM     33  C   UNL A   1      41.695  28.346  31.062  1.00  0.00     0.031 A 
ATOM     34  C   UNL A   1      40.537  29.310  30.996  1.00  0.00     0.074 A 
ATOM     35  C   UNL A   1      42.417  28.244  32.194  1.00  0.00     0.049 A 
ATOM     36  N   UNL A   1      40.168  30.234  31.842  1.00  0.00    -0.248 NA
ATOM     37  C   UNL A   1      39.692  29.221  29.793  1.00  0.00     0.031 C 
ATOM     38  C   UNL A   1      43.515  27.311  32.423  1.00  0.00     0.029 A 
ATOM     39  N   UNL A   1      42.339  28.968  33.362  1.00  0.00    -0.354 N 
ATOM     40  C   UNL A   1      39.068  30.856  31.263  1.00  0.00     0.074 A 
ATOM     41  C   UNL A   1      38.842  30.218  29.984  1.00  0.00     0.031 C 
ATOM     42  C   UNL A   1      44.033  27.540  33.645  1.00  0.00     0.029 A 
ATOM     43  C   UNL A   1      43.332  28.666  34.265  1.00  0.00     0.049 A 
ATOM     44  H   UNL A   1      41.640  29.639  33.535  1.00  0.00     0.167 HD
ATOM     45  C   UNL A   1      38.312  31.868  31.748  1.00  0.00     0.037 A 
ATOM     46  C   UNL A   1      43.661  29.257  35.434  1.00  0.00     0.037 A 
ATOM     47  C   UNL A   1      38.542  32.504  33.016  1.00  0.00     0.049 A 
ATOM     48  C   UNL A   1      42.860  30.443  35.924  1.00  0.00     0.074 A 
ATOM     49  C   UNL A   1      37.831  33.536  33.601  1.00  0.00     0.029 A 
ATOM     50  N   UNL A   1      39.564  32.173  33.895  1.00  0.00    -0.354 N 
ATOM     51  N   UNL A   1      41.825  31.028  35.366  1.00  0.00    -0.248 NA
ATOM     52  C   UNL A   1      43.273  31.053  37.198  1.00  0.00     0.031 C 
ATOM     53  C   UNL A   1      38.457  33.868  34.806  1.00  0.00     0.029 A 
ATOM     54  C   UNL A   1      39.513  32.994  35.007  1.00  0.00     0.049 A 
ATOM     55  H   UNL A   1      40.226  31.460  33.748  1.00  0.00     0.167 HD
ATOM     56  C   UNL A   1      41.437  32.039  36.244  1.00  0.00     0.074 A 
ATOM     57  C   UNL A   1      42.351  31.992  37.364  1.00  0.00     0.031 C 
ATOM     58  C   UNL A   1      40.410  32.918  36.134  1.00  0.00     0.037 A 
BRANCH  45  59
ATOM     59  C   UNL A   1      37.194  32.377  30.881  1.00  0.00     0.058 A 
ATOM     60  C   UNL A   1      37.398  33.370  29.909  1.00  0.00     0.135 A 
ATOM     61  C   UNL A   1      35.898  31.849  31.015  1.00  0.00     0.135 A 
ATOM     62  F   UNL A   1      38.610  33.926  29.755  1.00  0.00    -0.206 F 
ATOM     63  C   UNL A   1      36.352  33.843  29.124  1.00  0.00     0.059 A 
ATOM     64  C   UNL A   1      34.845  32.284  30.216  1.00  0.00     0.059 A 
ATOM     65  F   UNL A   1      35.645  30.902  31.931  1.00  0.00    -0.206 F 
ATOM     66  C   UNL A   1      35.079  33.293  29.285  1.00  0.00     0.060 A 
BRANCH  66  67
ATOM     67  S   UNL A   1      33.734  33.921  28.258  1.00  0.00     0.124 S 
ATOM     68  O   UNL A   1      33.220  32.689  27.668  1.00  0.00    -0.237 OA
ATOM     69  O   UNL A   1      32.868  34.563  29.241  1.00  0.00    -0.237 OA
ATOM     70  O   UNL A   1      34.407  34.827  27.332  1.00  0.00    -0.744 OA
ENDBRANCH  66  67
ENDBRANCH  45  59
BRANCH  46  71
ATOM     71  C   UNL A   1      44.820  28.757  36.228  1.00  0.00     0.058 A 
ATOM     72  C   UNL A   1      44.663  27.730  37.171  1.00  0.00     0.135 A 
ATOM     73  C   UNL A   1      46.105  29.304  36.072  1.00  0.00     0.135 A 
ATOM     74  F   UNL A   1      43.453  27.187  37.375  1.00  0.00    -0.206 F 
ATOM     75  C   UNL A   1      45.731  27.271  37.938  1.00  0.00     0.059 A 
ATOM     76  C   UNL A   1      47.194  28.841  36.806  1.00  0.00     0.059 A 
ATOM     77  F   UNL A   1      46.313  30.289  35.184  1.00  0.00    -0.206 F 
ATOM     78  C   UNL A   1      46.995  27.829  37.743  1.00  0.00     0.060 A 
BRANCH  78  79
ATOM     79  S   UNL A   1      48.382  27.186  38.705  1.00  0.00     0.124 S 
ATOM     80  O   UNL A   1      48.630  28.280  39.635  1.00  0.00    -0.237 OA
ATOM     81  O   UNL A   1      47.812  25.972  39.283  1.00  0.00    -0.237 OA
ATOM     82  O   UNL A   1      49.415  26.965  37.698  1.00  0.00    -0.744 OA
ENDBRANCH  78  79
ENDBRANCH  46  71
BRANCH  58  83
ATOM     83  C   UNL A   1      40.151  33.860  37.281  1.00  0.00     0.058 A 
ATOM     84  C   UNL A   1      40.749  35.126  37.363  1.00  0.00     0.135 A 
ATOM     85  C   UNL A   1      39.205  33.520  38.264  1.00  0.00     0.135 A 
ATOM     86  F   UNL A   1      41.662  35.502  36.453  1.00  0.00    -0.206 F 
ATOM     87  C   UNL A   1      40.427  36.018  38.383  1.00  0.00     0.059 A 
ATOM     88  C   UNL A   1      38.846  34.406  39.275  1.00  0.00     0.059 A 
ATOM     89  F   UNL A   1      38.593  32.325  38.229  1.00  0.00    -0.206 F 
ATOM     90  C   UNL A   1      39.467  35.653  39.329  1.00  0.00     0.060 A 
BRANCH  90  91
ATOM     91  S   UNL A   1      39.011  36.844  40.607  1.00  0.00     0.124 S 
ATOM     92  O   UNL A   1      40.308  37.146  41.204  1.00  0.00    -0.237 OA
ATOM     93  O   UNL A   1      38.405  37.919  39.829  1.00  0.00    -0.237 OA
ATOM     94  O   UNL A   1      38.090  36.097  41.458  1.00  0.00    -0.744 OA
ENDBRANCH  90  91
ENDBRANCH  58  83
ENDBRANCH  32  33
ENDBRANCH  25  27
ENDBRANCH  24  25
ENDBRANCH  23  24
ENDBRANCH  22  23
ENDBRANCH  21  22
ENDBRANCH  20  21
ENDBRANCH   1  20
TORSDOF 26
ENDMDL
MODEL 2
REMARK VINA RESULT:      -8.9      2.206      8.413
REMARK SMILES C=C(C)C(=O)OCC[C@@H](C(C)=O)C(=O)OCCOCCOCCOC(=O)c1ccc(-c2c3nc(c(-c4c(F)cc(S(=O)(=O)[O-])cc4F)c4ccc([nH]4)c(-c4c(F)cc(S(=O)(=O)[O-])cc4F)c4nc(c(-c5c(F)cc(S(=O)(=O)[O-])cc5F)c5ccc2[nH]5)C=C4)C=C3)cc1
REMARK SMILES IDX 19 1 18 2 17 3 16 4 15 5 13 6 14 7 9 8 8 9 7 10 6 11 4 12
REMARK SMILES IDX 5 13 2 14 1 15 3 16 10 17 11 18 12 19 20 20 21 21 22 22
REMARK SMILES IDX 23 23 24 24 25 25 26 26 27 27 28 28 92 29 29 30 91 31 30 32
REMARK SMILES IDX 31 33 32 34 85 35 33 36 90 37 84 38 86 39 34 40 89 41 83 42
REMARK SMILES IDX 82 43 35 45 69 46 48 47 68 48 49 49 52 50 67 51 87 52 50 53
REMARK SMILES IDX 51 54 66 56 88 57 53 58 36 59 37 60 46 61 38 62 39 63 45 64
REMARK SMILES IDX 47 65 40 66 41 67 42 68 43 69 44 70 70 71 71 72 80 73 72 74
REMARK SMILES IDX 73 75 79 76 81 77 74 78 75 79 76 80 77 81 78 82 54 83 55 84
REMARK SMILES IDX 64 85 56 86 57 87 63 88 65 89 58 90 59 91 60 92 61 93 62 94
REMARK H PARENT 86 44 52 55
REMARK Flexibility Score: inf
ROOT
ATOM      1  C   UNL A   1      33.933  28.226  26.073  1.00  0.00     0.188 C 
ENDROOT
BRANCH   1   2
ATOM      2  O   UNL A   1      33.738  26.849  26.358  1.00  0.00    -0.376 OA
BRANCH   2   3
ATOM      3  C   UNL A   1      33.577  25.966  25.253  1.00  0.00     0.202 C 
BRANCH   3   4
ATOM      4  C   UNL A   1      32.176  25.396  24.963  1.00  0.00     0.261 C 
BRANCH   4   5
ATOM      5  O   UNL A   1      31.868  25.052  23.585  1.00  0.00    -0.463 OA
BRANCH   5   6
ATOM      6  C   UNL A   1      31.542  23.752  23.366  1.00  0.00     0.316 C 
ATOM      7  O   UNL A   1      30.398  23.367  23.131  1.00  0.00    -0.251 OA
BRANCH   6   8
ATOM      8  C   UNL A   1      32.664  22.751  23.554  1.00  0.00     0.169 C 
BRANCH   8   9
ATOM      9  C   UNL A   1      32.311  21.260  23.419  1.00  0.00     0.065 C 
BRANCH   9  10
ATOM     10  C   UNL A   1      32.837  20.394  24.582  1.00  0.00     0.234 C 
BRANCH  10  11
ATOM     11  O   UNL A   1      32.141  19.135  24.682  1.00  0.00    -0.462 OA
BRANCH  11  12
ATOM     12  C   UNL A   1      32.409  18.223  23.711  1.00  0.00     0.333 C 
ATOM     13  O   UNL A   1      32.066  18.294  22.541  1.00  0.00    -0.247 OA
BRANCH  12  14
ATOM     14  C   UNL A   1      33.233  17.120  24.260  1.00  0.00     0.027 C 
ATOM     15  C   UNL A   1      33.003  16.742  25.527  1.00  0.00     0.020 C 
ATOM     16  C   UNL A   1      34.330  16.568  23.411  1.00  0.00     0.051 C 
ENDBRANCH  12  14
ENDBRANCH  11  12
ENDBRANCH  10  11
ENDBRANCH   9  10
ENDBRANCH   8   9
BRANCH   8  17
ATOM     17  C   UNL A   1      33.861  23.092  22.679  1.00  0.00     0.144 C 
ATOM     18  C   UNL A   1      35.245  22.987  23.267  1.00  0.00     0.088 C 
ATOM     19  O   UNL A   1      33.728  23.391  21.488  1.00  0.00    -0.299 OA
ENDBRANCH   8  17
ENDBRANCH   6   8
ENDBRANCH   5   6
ENDBRANCH   4   5
ENDBRANCH   3   4
ENDBRANCH   2   3
ENDBRANCH   1   2
BRANCH   1  20
ATOM     20  C   UNL A   1      32.713  29.136  26.225  1.00  0.00     0.188 C 
BRANCH  20  21
ATOM     21  O   UNL A   1      32.789  30.067  27.281  1.00  0.00    -0.376 OA
BRANCH  21  22
ATOM     22  C   UNL A   1      34.042  30.650  27.626  1.00  0.00     0.202 C 
BRANCH  22  23
ATOM     23  C   UNL A   1      34.261  32.185  27.683  1.00  0.00     0.261 C 
BRANCH  23  24
ATOM     24  O   UNL A   1      33.181  33.033  28.110  1.00  0.00    -0.460 OA
BRANCH  24  25
ATOM     25  C   UNL A   1      33.494  34.209  28.716  1.00  0.00     0.338 C 
ATOM     26  O   UNL A   1      32.812  35.210  28.731  1.00  0.00    -0.246 OA
BRANCH  25  27
ATOM     27  C   UNL A   1      34.657  33.944  29.622  1.00  0.00     0.060 A 
ATOM     28  C   UNL A   1      35.927  34.402  29.230  1.00  0.00     0.016 A 
ATOM     29  C   UNL A   1      34.492  33.364  30.883  1.00  0.00     0.016 A 
ATOM     30  C   UNL A   1      37.037  34.238  30.069  1.00  0.00     0.010 A 
ATOM     31  C   UNL A   1      35.605  33.177  31.711  1.00  0.00     0.010 A 
ATOM     32  C   UNL A   1      36.890  33.575  31.294  1.00  0.00    -0.014 A 
BRANCH  32  33
ATOM     33  C   UNL A   1      38.073  33.035  32.018  1.00  0.00     0.031 A 
ATOM     34  C   UNL A   1      38.737  31.816  31.429  1.00  0.00     0.074 A 
ATOM     35  C   UNL A   1      38.533  33.555  33.171  1.00  0.00     0.049 A 
ATOM     36  N   UNL A   1      39.646  31.030  31.939  1.00  0.00    -0.248 NA
ATOM     37  C   UNL A   1      38.294  31.429  30.079  1.00  0.00     0.031 C 
ATOM     38  C   UNL A   1      38.034  34.765  33.819  1.00  0.00     0.029 A 
ATOM     39  N   UNL A   1      39.518  33.101  34.018  1.00  0.00    -0.354 N 
ATOM     40  C   UNL A   1      39.863  30.039  30.988  1.00  0.00     0.074 A 
ATOM     41  C   UNL A   1      38.976  30.312  29.879  1.00  0.00     0.031 C 
ATOM     42  C   UNL A   1      38.695  34.940  34.980  1.00  0.00     0.029 A 
ATOM     43  C   UNL A   1      39.628  33.831  35.179  1.00  0.00     0.049 A 
ATOM     44  H   UNL A   1      40.089  32.326  33.813  1.00  0.00     0.167 HD
ATOM     45  C   UNL A   1      40.721  28.994  31.032  1.00  0.00     0.037 A 
ATOM     46  C   UNL A   1      40.365  33.605  36.288  1.00  0.00     0.037 A 
ATOM     47  C   UNL A   1      41.599  28.722  32.138  1.00  0.00     0.049 A 
ATOM     48  C   UNL A   1      41.258  32.385  36.357  1.00  0.00     0.074 A 
ATOM     49  C   UNL A   1      42.509  27.691  32.278  1.00  0.00     0.029 A 
ATOM     50  N   UNL A   1      41.672  29.481  33.296  1.00  0.00    -0.354 N 
ATOM     51  N   UNL A   1      41.451  31.452  35.455  1.00  0.00    -0.248 NA
ATOM     52  C   UNL A   1      42.028  32.186  37.595  1.00  0.00     0.031 C 
ATOM     53  C   UNL A   1      43.092  27.793  33.545  1.00  0.00     0.029 A 
ATOM     54  C   UNL A   1      42.598  28.929  34.164  1.00  0.00     0.049 A 
ATOM     55  H   UNL A   1      41.143  30.292  33.474  1.00  0.00     0.167 HD
ATOM     56  C   UNL A   1      42.399  30.585  35.998  1.00  0.00     0.074 A 
ATOM     57  C   UNL A   1      42.733  31.100  37.308  1.00  0.00     0.031 C 
ATOM     58  C   UNL A   1      42.947  29.469  35.455  1.00  0.00     0.037 A 
BRANCH  45  59
ATOM     59  C   UNL A   1      40.719  28.045  29.866  1.00  0.00     0.058 A 
ATOM     60  C   UNL A   1      39.759  27.028  29.736  1.00  0.00     0.135 A 
ATOM     61  C   UNL A   1      41.685  28.165  28.853  1.00  0.00     0.135 A 
ATOM     62  F   UNL A   1      38.828  26.851  30.686  1.00  0.00    -0.206 F 
ATOM     63  C   UNL A   1      39.777  26.146  28.661  1.00  0.00     0.059 A 
ATOM     64  C   UNL A   1      41.700  27.316  27.751  1.00  0.00     0.059 A 
ATOM     65  F   UNL A   1      42.630  29.116  28.928  1.00  0.00    -0.206 F 
ATOM     66  C   UNL A   1      40.751  26.299  27.672  1.00  0.00     0.060 A 
BRANCH  66  67
ATOM     67  S   UNL A   1      40.759  25.145  26.285  1.00  0.00     0.124 S 
ATOM     68  O   UNL A   1      41.213  26.003  25.195  1.00  0.00    -0.237 OA
ATOM     69  O   UNL A   1      41.709  24.130  26.732  1.00  0.00    -0.237 OA
ATOM     70  O   UNL A   1      39.370  24.704  26.200  1.00  0.00    -0.744 OA
ENDBRANCH  66  67
ENDBRANCH  45  59
BRANCH  46  71
ATOM     71  C   UNL A   1      40.286  34.541  37.446  1.00  0.00     0.058 A 
ATOM     72  C   UNL A   1      41.194  35.602  37.584  1.00  0.00     0.135 A 
ATOM     73  C   UNL A   1      39.310  34.388  38.445  1.00  0.00     0.135 A 
ATOM     74  F   UNL A   1      42.159  35.782  36.669  1.00  0.00    -0.206 F 
ATOM     75  C   UNL A   1      41.147  36.469  38.673  1.00  0.00     0.059 A 
ATOM     76  C   UNL A   1      39.225  35.259  39.528  1.00  0.00     0.059 A 
ATOM     77  F   UNL A   1      38.416  33.390  38.364  1.00  0.00    -0.206 F 
ATOM     78  C   UNL A   1      40.153  36.292  39.637  1.00  0.00     0.060 A 
BRANCH  78  79
ATOM     79  S   UNL A   1      40.071  37.457  41.015  1.00  0.00     0.124 S 
ATOM     80  O   UNL A   1      39.494  38.633  40.376  1.00  0.00    -0.237 OA
ATOM     81  O   UNL A   1      39.205  36.752  41.957  1.00  0.00    -0.237 OA
ATOM     82  O   UNL A   1      41.464  37.583  41.432  1.00  0.00    -0.744 OA
ENDBRANCH  78  79
ENDBRANCH  46  71
BRANCH  58  83
ATOM     83  C   UNL A   1      44.029  28.758  36.225  1.00  0.00     0.058 A 
ATOM     84  C   UNL A   1      43.775  27.610  36.989  1.00  0.00     0.135 A 
ATOM     85  C   UNL A   1      45.364  29.184  36.110  1.00  0.00     0.135 A 
ATOM     86  F   UNL A   1      42.519  27.159  37.136  1.00  0.00    -0.206 F 
ATOM     87  C   UNL A   1      44.804  26.913  37.619  1.00  0.00     0.059 A 
ATOM     88  C   UNL A   1      46.410  28.488  36.707  1.00  0.00     0.059 A 
ATOM     89  F   UNL A   1      45.666  30.272  35.382  1.00  0.00    -0.206 F 
ATOM     90  C   UNL A   1      46.120  27.355  37.464  1.00  0.00     0.060 A 
BRANCH  90  91
ATOM     91  S   UNL A   1      47.450  26.406  38.233  1.00  0.00     0.124 S 
ATOM     92  O   UNL A   1      46.716  25.604  39.206  1.00  0.00    -0.237 OA
ATOM     93  O   UNL A   1      48.006  25.675  37.099  1.00  0.00    -0.237 OA
ATOM     94  O   UNL A   1      48.321  27.433  38.797  1.00  0.00    -0.744 OA
ENDBRANCH  90  91
ENDBRANCH  58  83
ENDBRANCH  32  33
ENDBRANCH  25  27
ENDBRANCH  24  25
ENDBRANCH  23  24
ENDBRANCH  22  23
ENDBRANCH  21  22
ENDBRANCH  20  21
ENDBRANCH   1  20
TORSDOF 26
ENDMDL
MODEL 3
REMARK VINA RESULT:      -8.8      6.558     11.752
REMARK SMILES C=C(C)C(=O)OCC[C@@H](C(C)=O)C(=O)OCCOCCOCCOC(=O)c1ccc(-c2c3nc(c(-c4c(F)cc(S(=O)(=O)[O-])cc4F)c4ccc([nH]4)c(-c4c(F)cc(S(=O)(=O)[O-])cc4F)c4nc(c(-c5c(F)cc(S(=O)(=O)[O-])cc5F)c5ccc2[nH]5)C=C4)C=C3)cc1
REMARK SMILES IDX 19 1 18 2 17 3 16 4 15 5 13 6 14 7 9 8 8 9 7 10 6 11 4 12
REMARK SMILES IDX 5 13 2 14 1 15 3 16 10 17 11 18 12 19 20 20 21 21 22 22
REMARK SMILES IDX 23 23 24 24 25 25 26 26 27 27 28 28 92 29 29 30 91 31 30 32
REMARK SMILES IDX 31 33 32 34 85 35 33 36 90 37 84 38 86 39 34 40 89 41 83 42
REMARK SMILES IDX 82 43 35 45 69 46 48 47 68 48 49 49 52 50 67 51 87 52 50 53
REMARK SMILES IDX 51 54 66 56 88 57 53 58 36 59 37 60 46 61 38 62 39 63 45 64
REMARK SMILES IDX 47 65 40 66 41 67 42 68 43 69 44 70 70 71 71 72 80 73 72 74
REMARK SMILES IDX 73 75 79 76 81 77 74 78 75 79 76 80 77 81 78 82 54 83 55 84
REMARK SMILES IDX 64 85 56 86 57 87 63 88 65 89 58 90 59 91 60 92 61 93 62 94
REMARK H PARENT 86 44 52 55
REMARK Flexibility Score: inf
ROOT
ATOM      1  C   UNL A   1      33.405  28.506  25.207  1.00  0.00     0.188 C 
ENDROOT
BRANCH   1   2
ATOM      2  O   UNL A   1      33.951  27.523  26.073  1.00  0.00    -0.376 OA
BRANCH   2   3
ATOM      3  C   UNL A   1      33.358  26.229  26.055  1.00  0.00     0.202 C 
BRANCH   3   4
ATOM      4  C   UNL A   1      32.120  25.998  25.167  1.00  0.00     0.261 C 
BRANCH   4   5
ATOM      5  O   UNL A   1      32.350  25.494  23.824  1.00  0.00    -0.463 OA
BRANCH   5   6
ATOM      6  C   UNL A   1      31.766  24.302  23.538  1.00  0.00     0.316 C 
ATOM      7  O   UNL A   1      30.576  24.176  23.257  1.00  0.00    -0.251 OA
BRANCH   6   8
ATOM      8  C   UNL A   1      32.646  23.080  23.712  1.00  0.00     0.169 C 
BRANCH   8   9
ATOM      9  C   UNL A   1      32.125  21.747  23.147  1.00  0.00     0.065 C 
BRANCH   9  10
ATOM     10  C   UNL A   1      32.190  20.583  24.155  1.00  0.00     0.234 C 
BRANCH  10  11
ATOM     11  O   UNL A   1      32.551  19.336  23.525  1.00  0.00    -0.462 OA
BRANCH  11  12
ATOM     12  C   UNL A   1      32.735  18.276  24.355  1.00  0.00     0.333 C 
ATOM     13  O   UNL A   1      31.914  17.823  25.137  1.00  0.00    -0.247 OA
BRANCH  12  14
ATOM     14  C   UNL A   1      34.082  17.695  24.149  1.00  0.00     0.027 C 
ATOM     15  C   UNL A   1      35.142  18.437  24.507  1.00  0.00     0.020 C 
ATOM     16  C   UNL A   1      34.184  16.370  23.468  1.00  0.00     0.051 C 
ENDBRANCH  12  14
ENDBRANCH  11  12
ENDBRANCH  10  11
ENDBRANCH   9  10
ENDBRANCH   8   9
BRANCH   8  17
ATOM     17  C   UNL A   1      34.062  23.345  23.221  1.00  0.00     0.144 C 
ATOM     18  C   UNL A   1      35.169  23.478  24.235  1.00  0.00     0.088 C 
ATOM     19  O   UNL A   1      34.331  23.391  22.017  1.00  0.00    -0.299 OA
ENDBRANCH   8  17
ENDBRANCH   6   8
ENDBRANCH   5   6
ENDBRANCH   4   5
ENDBRANCH   3   4
ENDBRANCH   2   3
ENDBRANCH   1   2
BRANCH   1  20
ATOM     20  C   UNL A   1      32.850  29.769  25.867  1.00  0.00     0.188 C 
BRANCH  20  21
ATOM     21  O   UNL A   1      33.366  30.050  27.149  1.00  0.00    -0.376 OA
BRANCH  21  22
ATOM     22  C   UNL A   1      34.215  31.178  27.342  1.00  0.00     0.202 C 
BRANCH  22  23
ATOM     23  C   UNL A   1      34.867  31.508  28.710  1.00  0.00     0.261 C 
BRANCH  23  24
ATOM     24  O   UNL A   1      35.844  30.604  29.258  1.00  0.00    -0.460 OA
BRANCH  24  25
ATOM     25  C   UNL A   1      36.809  31.120  30.064  1.00  0.00     0.338 C 
ATOM     26  O   UNL A   1      36.631  31.708  31.108  1.00  0.00    -0.246 OA
BRANCH  25  27
ATOM     27  C   UNL A   1      38.117  30.552  29.607  1.00  0.00     0.060 A 
ATOM     28  C   UNL A   1      39.138  30.375  30.557  1.00  0.00     0.016 A 
ATOM     29  C   UNL A   1      38.305  30.092  28.300  1.00  0.00     0.016 A 
ATOM     30  C   UNL A   1      40.358  29.788  30.196  1.00  0.00     0.010 A 
ATOM     31  C   UNL A   1      39.534  29.529  27.933  1.00  0.00     0.010 A 
ATOM     32  C   UNL A   1      40.581  29.410  28.867  1.00  0.00    -0.014 A 
BRANCH  32  33
ATOM     33  C   UNL A   1      41.959  29.161  28.364  1.00  0.00     0.031 A 
ATOM     34  C   UNL A   1      42.298  27.745  27.970  1.00  0.00     0.074 A 
ATOM     35  C   UNL A   1      42.903  30.118  28.289  1.00  0.00     0.049 A 
ATOM     36  N   UNL A   1      43.454  27.208  27.689  1.00  0.00    -0.248 NA
ATOM     37  C   UNL A   1      41.164  26.806  27.901  1.00  0.00     0.031 C 
ATOM     38  C   UNL A   1      42.701  31.536  28.572  1.00  0.00     0.029 A 
ATOM     39  N   UNL A   1      44.239  30.023  27.976  1.00  0.00    -0.354 N 
ATOM     40  C   UNL A   1      43.194  25.865  27.440  1.00  0.00     0.074 A 
ATOM     41  C   UNL A   1      41.773  25.665  27.623  1.00  0.00     0.031 C 
ATOM     42  C   UNL A   1      43.880  32.176  28.450  1.00  0.00     0.029 A 
ATOM     43  C   UNL A   1      44.927  31.206  28.127  1.00  0.00     0.049 A 
ATOM     44  H   UNL A   1      44.663  29.189  27.671  1.00  0.00     0.167 HD
ATOM     45  C   UNL A   1      44.059  24.883  27.093  1.00  0.00     0.037 A 
ATOM     46  C   UNL A   1      46.251  31.463  28.054  1.00  0.00     0.037 A 
ATOM     47  C   UNL A   1      45.471  25.084  26.916  1.00  0.00     0.049 A 
ATOM     48  C   UNL A   1      47.215  30.338  27.748  1.00  0.00     0.074 A 
ATOM     49  C   UNL A   1      46.433  24.155  26.561  1.00  0.00     0.029 A 
ATOM     50  N   UNL A   1      46.127  26.294  27.089  1.00  0.00    -0.354 N 
ATOM     51  N   UNL A   1      46.961  29.071  27.520  1.00  0.00    -0.248 NA
ATOM     52  C   UNL A   1      48.646  30.677  27.694  1.00  0.00     0.031 C 
ATOM     53  C   UNL A   1      47.678  24.790  26.574  1.00  0.00     0.029 A 
ATOM     54  C   UNL A   1      47.483  26.131  26.866  1.00  0.00     0.049 A 
ATOM     55  H   UNL A   1      45.692  27.142  27.333  1.00  0.00     0.167 HD
ATOM     56  C   UNL A   1      48.192  28.475  27.249  1.00  0.00     0.074 A 
ATOM     57  C   UNL A   1      49.190  29.517  27.349  1.00  0.00     0.031 C 
ATOM     58  C   UNL A   1      48.466  27.184  26.936  1.00  0.00     0.037 A 
BRANCH  45  59
ATOM     59  C   UNL A   1      43.503  23.496  26.922  1.00  0.00     0.058 A 
ATOM     60  C   UNL A   1      43.224  22.667  28.020  1.00  0.00     0.135 A 
ATOM     61  C   UNL A   1      43.229  22.996  25.638  1.00  0.00     0.135 A 
ATOM     62  F   UNL A   1      43.489  23.084  29.268  1.00  0.00    -0.206 F 
ATOM     63  C   UNL A   1      42.725  21.380  27.850  1.00  0.00     0.059 A 
ATOM     64  C   UNL A   1      42.696  21.725  25.447  1.00  0.00     0.059 A 
ATOM     65  F   UNL A   1      43.481  23.745  24.553  1.00  0.00    -0.206 F 
ATOM     66  C   UNL A   1      42.463  20.919  26.558  1.00  0.00     0.060 A 
BRANCH  66  67
ATOM     67  S   UNL A   1      41.816  19.246  26.356  1.00  0.00     0.124 S 
ATOM     68  O   UNL A   1      40.470  19.513  25.859  1.00  0.00    -0.237 OA
ATOM     69  O   UNL A   1      42.746  18.669  25.390  1.00  0.00    -0.237 OA
ATOM     70  O   UNL A   1      41.889  18.688  27.703  1.00  0.00    -0.744 OA
ENDBRANCH  66  67
ENDBRANCH  45  59
BRANCH  46  71
ATOM     71  C   UNL A   1      46.762  32.843  28.294  1.00  0.00     0.058 A 
ATOM     72  C   UNL A   1      47.209  33.240  29.563  1.00  0.00     0.135 A 
ATOM     73  C   UNL A   1      46.801  33.797  27.264  1.00  0.00     0.135 A 
ATOM     74  F   UNL A   1      47.174  32.373  30.588  1.00  0.00    -0.206 F 
ATOM     75  C   UNL A   1      47.665  34.533  29.808  1.00  0.00     0.059 A 
ATOM     76  C   UNL A   1      47.280  35.088  27.477  1.00  0.00     0.059 A 
ATOM     77  F   UNL A   1      46.386  33.473  26.030  1.00  0.00    -0.206 F 
ATOM     78  C   UNL A   1      47.702  35.448  28.755  1.00  0.00     0.060 A 
BRANCH  78  79
ATOM     79  S   UNL A   1      48.347  37.105  29.074  1.00  0.00     0.124 S 
ATOM     80  O   UNL A   1      47.985  37.300  30.473  1.00  0.00    -0.237 OA
ATOM     81  O   UNL A   1      49.771  36.934  28.800  1.00  0.00    -0.237 OA
ATOM     82  O   UNL A   1      47.627  37.936  28.114  1.00  0.00    -0.744 OA
ENDBRANCH  78  79
ENDBRANCH  46  71
BRANCH  58  83
ATOM     83  C   UNL A   1      49.887  26.819  26.595  1.00  0.00     0.058 A 
ATOM     84  C   UNL A   1      50.386  26.888  25.286  1.00  0.00     0.135 A 
ATOM     85  C   UNL A   1      50.790  26.489  27.621  1.00  0.00     0.135 A 
ATOM     86  F   UNL A   1      49.568  27.194  24.265  1.00  0.00    -0.206 F 
ATOM     87  C   UNL A   1      51.726  26.634  25.003  1.00  0.00     0.059 A 
ATOM     88  C   UNL A   1      52.139  26.261  27.366  1.00  0.00     0.059 A 
ATOM     89  F   UNL A   1      50.370  26.420  28.894  1.00  0.00    -0.206 F 
ATOM     90  C   UNL A   1      52.597  26.331  26.052  1.00  0.00     0.060 A 
BRANCH  90  91
ATOM     91  S   UNL A   1      54.345  26.068  25.681  1.00  0.00     0.124 S 
ATOM     92  O   UNL A   1      54.309  25.843  24.240  1.00  0.00    -0.237 OA
ATOM     93  O   UNL A   1      54.946  27.326  26.112  1.00  0.00    -0.237 OA
ATOM     94  O   UNL A   1      54.695  24.904  26.489  1.00  0.00    -0.744 OA
ENDBRANCH  90  91
ENDBRANCH  58  83
ENDBRANCH  32  33
ENDBRANCH  25  27
ENDBRANCH  24  25
ENDBRANCH  23  24
ENDBRANCH  22  23
ENDBRANCH  21  22
ENDBRANCH  20  21
ENDBRANCH   1  20
TORSDOF 26
ENDMDL
