MODEL 1
REMARK VINA RESULT:     -10.1      0.000      0.000
REMARK SMILES C[C@@H]1CC[C@@](C(=O)OCCOCCOCCOC(=O)c2ccc(-c3c4nc(c(-c5c(F)cc(S(=O)(=O)[O-])cc5F)c5ccc([nH]5)c(-c5c(F)cc(S(=O)(=O)[O-])cc5F)c5nc(c(-c6c(F)cc(S(=O)(=O)[O-])cc6F)c6ccc3[nH]6)C=C5)C=C4)cc2)([C@@H]2CCC[C@H](S(C)(=O)=O)C2)C1
REMARK SMILES IDX 13 1 12 2 11 3 10 4 9 5 8 6 6 7 7 8 5 9 1 10 2 11 3 12 96 13
REMARK SMILES IDX 4 14 86 15 87 16 95 17 88 18 90 19 89 20 91 21 92 22 93 23
REMARK SMILES IDX 94 24 14 25 15 26 16 27 17 28 18 29 19 30 20 31 21 32 85 33
REMARK SMILES IDX 22 34 84 35 23 36 24 37 25 38 78 39 26 40 83 41 77 42 79 43
REMARK SMILES IDX 27 44 82 45 76 46 75 47 28 49 62 50 41 51 61 52 42 53 45 54
REMARK SMILES IDX 60 55 80 56 43 57 44 58 59 60 81 61 46 62 29 63 30 64 39 65
REMARK SMILES IDX 31 66 32 67 38 68 40 69 33 70 34 71 35 72 36 73 37 74 63 75
REMARK SMILES IDX 64 76 73 77 65 78 66 79 72 80 74 81 67 82 68 83 69 84 70 85
REMARK SMILES IDX 71 86 47 87 48 88 57 89 49 90 50 91 56 92 58 93 51 94 52 95
REMARK SMILES IDX 53 96 54 97 55 98
REMARK H PARENT 79 48 45 59
REMARK Flexibility Score: inf
ROOT
ATOM      1  C   UNL A   1      41.635  21.358  27.156  1.00  0.00     0.188 C 
ENDROOT
BRANCH   1   2
ATOM      2  C   UNL A   1      40.529  22.151  26.436  1.00  0.00     0.188 C 
BRANCH   2   3
ATOM      3  O   UNL A   1      39.826  23.035  27.295  1.00  0.00    -0.376 OA
BRANCH   3   4
ATOM      4  C   UNL A   1      38.814  23.807  26.670  1.00  0.00     0.202 C 
BRANCH   4   5
ATOM      5  C   UNL A   1      37.854  23.087  25.708  1.00  0.00     0.261 C 
BRANCH   5   6
ATOM      6  O   UNL A   1      36.900  23.898  24.998  1.00  0.00    -0.463 OA
BRANCH   6   7
ATOM      7  C   UNL A   1      36.164  23.316  24.021  1.00  0.00     0.312 C 
ATOM      8  O   UNL A   1      36.661  22.770  23.042  1.00  0.00    -0.252 OA
BRANCH   7   9
ATOM      9  C   UNL A   1      34.629  23.517  24.202  1.00  0.00     0.071 C 
ATOM     10  C   UNL A   1      34.389  20.299  24.748  1.00  0.00     0.007 C 
ATOM     11  C   UNL A   1      33.500  21.494  25.096  1.00  0.00    -0.013 C 
ATOM     12  C   UNL A   1      32.714  21.984  23.893  1.00  0.00     0.004 C 
ATOM     13  C   UNL A   1      34.293  22.741  25.509  1.00  0.00     0.022 C 
ATOM     14  C   UNL A   1      33.720  22.836  23.131  1.00  0.00     0.019 C 
BRANCH   9  15
ATOM     15  C   UNL A   1      34.341  25.072  24.322  1.00  0.00     0.008 C 
ATOM     16  C   UNL A   1      33.952  25.553  25.735  1.00  0.00     0.005 C 
ATOM     17  C   UNL A   1      33.247  25.500  23.330  1.00  0.00     0.024 C 
ATOM     18  C   UNL A   1      33.708  27.060  25.759  1.00  0.00     0.002 C 
ATOM     19  C   UNL A   1      32.691  26.930  23.468  1.00  0.00     0.108 C 
ATOM     20  C   UNL A   1      32.516  27.419  24.897  1.00  0.00     0.020 C 
BRANCH  19  21
ATOM     21  S   UNL A   1      31.120  26.940  22.602  1.00  0.00     0.150 S 
ATOM     22  C   UNL A   1      30.626  28.648  22.500  1.00  0.00     0.158 C 
ATOM     23  O   UNL A   1      31.428  26.424  21.284  1.00  0.00    -0.229 OA
ATOM     24  O   UNL A   1      30.147  26.249  23.432  1.00  0.00    -0.229 OA
ENDBRANCH  19  21
ENDBRANCH   9  15
ENDBRANCH   7   9
ENDBRANCH   6   7
ENDBRANCH   5   6
ENDBRANCH   4   5
ENDBRANCH   3   4
ENDBRANCH   2   3
ENDBRANCH   1   2
BRANCH   1  25
ATOM     25  O   UNL A   1      41.431  20.003  27.539  1.00  0.00    -0.376 OA
BRANCH  25  26
ATOM     26  C   UNL A   1      42.403  19.031  27.185  1.00  0.00     0.202 C 
BRANCH  26  27
ATOM     27  C   UNL A   1      42.712  18.739  25.704  1.00  0.00     0.261 C 
BRANCH  27  28
ATOM     28  O   UNL A   1      44.100  18.595  25.353  1.00  0.00    -0.460 OA
BRANCH  28  29
ATOM     29  C   UNL A   1      44.515  19.364  24.309  1.00  0.00     0.338 C 
ATOM     30  O   UNL A   1      44.623  19.007  23.152  1.00  0.00    -0.246 OA
BRANCH  29  31
ATOM     31  C   UNL A   1      44.640  20.789  24.729  1.00  0.00     0.060 A 
ATOM     32  C   UNL A   1      45.300  21.033  25.931  1.00  0.00     0.016 A 
ATOM     33  C   UNL A   1      44.152  21.870  23.983  1.00  0.00     0.016 A 
ATOM     34  C   UNL A   1      45.480  22.345  26.378  1.00  0.00     0.010 A 
ATOM     35  C   UNL A   1      44.331  23.196  24.446  1.00  0.00     0.010 A 
ATOM     36  C   UNL A   1      45.011  23.454  25.645  1.00  0.00    -0.014 A 
BRANCH  36  37
ATOM     37  C   UNL A   1      45.193  24.825  26.241  1.00  0.00     0.031 A 
ATOM     38  C   UNL A   1      46.524  25.511  26.034  1.00  0.00     0.074 A 
ATOM     39  C   UNL A   1      44.190  25.547  26.793  1.00  0.00     0.049 A 
ATOM     40  N   UNL A   1      46.865  26.754  26.265  1.00  0.00    -0.248 NA
ATOM     41  C   UNL A   1      47.599  24.690  25.453  1.00  0.00     0.031 C 
ATOM     42  C   UNL A   1      42.813  25.095  26.973  1.00  0.00     0.029 A 
ATOM     43  N   UNL A   1      44.151  26.864  27.222  1.00  0.00    -0.354 N 
ATOM     44  C   UNL A   1      48.190  26.859  25.861  1.00  0.00     0.074 A 
ATOM     45  C   UNL A   1      48.570  25.576  25.312  1.00  0.00     0.031 C 
ATOM     46  C   UNL A   1      42.051  26.130  27.375  1.00  0.00     0.029 A 
ATOM     47  C   UNL A   1      42.893  27.309  27.581  1.00  0.00     0.049 A 
ATOM     48  H   UNL A   1      44.952  27.435  27.266  1.00  0.00     0.167 HD
ATOM     49  C   UNL A   1      49.046  27.900  25.989  1.00  0.00     0.037 A 
ATOM     50  C   UNL A   1      42.462  28.512  28.032  1.00  0.00     0.037 A 
ATOM     51  C   UNL A   1      48.739  29.147  26.632  1.00  0.00     0.049 A 
ATOM     52  C   UNL A   1      43.468  29.623  28.269  1.00  0.00     0.074 A 
ATOM     53  C   UNL A   1      49.597  30.195  26.919  1.00  0.00     0.029 A 
ATOM     54  N   UNL A   1      47.495  29.504  27.122  1.00  0.00    -0.354 N 
ATOM     55  N   UNL A   1      44.730  29.686  27.921  1.00  0.00    -0.248 NA
ATOM     56  C   UNL A   1      42.995  30.810  29.003  1.00  0.00     0.031 C 
ATOM     57  C   UNL A   1      48.888  31.156  27.645  1.00  0.00     0.029 A 
ATOM     58  C   UNL A   1      47.570  30.742  27.740  1.00  0.00     0.049 A 
ATOM     59  H   UNL A   1      46.679  28.960  27.043  1.00  0.00     0.167 HD
ATOM     60  C   UNL A   1      45.198  30.910  28.400  1.00  0.00     0.074 A 
ATOM     61  C   UNL A   1      44.075  31.579  29.015  1.00  0.00     0.031 C 
ATOM     62  C   UNL A   1      46.455  31.419  28.353  1.00  0.00     0.037 A 
BRANCH  49  63
ATOM     63  C   UNL A   1      50.461  27.656  25.554  1.00  0.00     0.058 A 
ATOM     64  C   UNL A   1      50.876  27.825  24.226  1.00  0.00     0.135 A 
ATOM     65  C   UNL A   1      51.406  27.216  26.494  1.00  0.00     0.135 A 
ATOM     66  F   UNL A   1      49.997  28.209  23.285  1.00  0.00    -0.206 F 
ATOM     67  C   UNL A   1      52.181  27.545  23.838  1.00  0.00     0.059 A 
ATOM     68  C   UNL A   1      52.722  26.954  26.135  1.00  0.00     0.059 A 
ATOM     69  F   UNL A   1      51.048  27.023  27.773  1.00  0.00    -0.206 F 
ATOM     70  C   UNL A   1      53.095  27.109  24.802  1.00  0.00     0.060 A 
BRANCH  70  71
ATOM     71  S   UNL A   1      54.784  26.737  24.286  1.00  0.00     0.124 S 
ATOM     72  O   UNL A   1      54.998  25.434  24.910  1.00  0.00    -0.237 OA
ATOM     73  O   UNL A   1      54.669  26.731  22.831  1.00  0.00    -0.237 OA
ATOM     74  O   UNL A   1      55.562  27.836  24.847  1.00  0.00    -0.744 OA
ENDBRANCH  70  71
ENDBRANCH  49  63
BRANCH  50  75
ATOM     75  C   UNL A   1      41.023  28.754  28.380  1.00  0.00     0.058 A 
ATOM     76  C   UNL A   1      40.082  29.137  27.405  1.00  0.00     0.135 A 
ATOM     77  C   UNL A   1      40.575  28.706  29.710  1.00  0.00     0.135 A 
ATOM     78  F   UNL A   1      40.451  29.230  26.118  1.00  0.00    -0.206 F 
ATOM     79  C   UNL A   1      38.773  29.486  27.738  1.00  0.00     0.059 A 
ATOM     80  C   UNL A   1      39.261  29.006  30.062  1.00  0.00     0.059 A 
ATOM     81  F   UNL A   1      41.422  28.367  30.694  1.00  0.00    -0.206 F 
ATOM     82  C   UNL A   1      38.372  29.415  29.071  1.00  0.00     0.060 A 
BRANCH  82  83
ATOM     83  S   UNL A   1      36.668  29.841  29.501  1.00  0.00     0.124 S 
ATOM     84  O   UNL A   1      35.932  29.292  28.368  1.00  0.00    -0.237 OA
ATOM     85  O   UNL A   1      36.491  29.149  30.773  1.00  0.00    -0.237 OA
ATOM     86  O   UNL A   1      36.699  31.298  29.589  1.00  0.00    -0.744 OA
ENDBRANCH  82  83
ENDBRANCH  50  75
BRANCH  62  87
ATOM     87  C   UNL A   1      46.708  32.773  28.972  1.00  0.00     0.058 A 
ATOM     88  C   UNL A   1      46.538  33.964  28.247  1.00  0.00     0.135 A 
ATOM     89  C   UNL A   1      47.039  32.884  30.334  1.00  0.00     0.135 A 
ATOM     90  F   UNL A   1      46.219  33.922  26.944  1.00  0.00    -0.206 F 
ATOM     91  C   UNL A   1      46.707  35.213  28.842  1.00  0.00     0.059 A 
ATOM     92  C   UNL A   1      47.182  34.122  30.957  1.00  0.00     0.059 A 
ATOM     93  F   UNL A   1      47.200  31.781  31.082  1.00  0.00    -0.206 F 
ATOM     94  C   UNL A   1      47.025  35.281  30.200  1.00  0.00     0.060 A 
BRANCH  94  95
ATOM     95  S   UNL A   1      47.202  36.906  30.968  1.00  0.00     0.124 S 
ATOM     96  O   UNL A   1      46.194  36.848  32.020  1.00  0.00    -0.237 OA
ATOM     97  O   UNL A   1      48.590  36.890  31.418  1.00  0.00    -0.237 OA
ATOM     98  O   UNL A   1      46.915  37.832  29.876  1.00  0.00    -0.744 OA
ENDBRANCH  94  95
ENDBRANCH  62  87
ENDBRANCH  36  37
ENDBRANCH  29  31
ENDBRANCH  28  29
ENDBRANCH  27  28
ENDBRANCH  26  27
ENDBRANCH  25  26
ENDBRANCH   1  25
TORSDOF 22
ENDMDL
MODEL 2
REMARK VINA RESULT:     -10.0      2.596      9.340
REMARK SMILES C[C@@H]1CC[C@@](C(=O)OCCOCCOCCOC(=O)c2ccc(-c3c4nc(c(-c5c(F)cc(S(=O)(=O)[O-])cc5F)c5ccc([nH]5)c(-c5c(F)cc(S(=O)(=O)[O-])cc5F)c5nc(c(-c6c(F)cc(S(=O)(=O)[O-])cc6F)c6ccc3[nH]6)C=C5)C=C4)cc2)([C@@H]2CCC[C@H](S(C)(=O)=O)C2)C1
REMARK SMILES IDX 13 1 12 2 11 3 10 4 9 5 8 6 6 7 7 8 5 9 1 10 2 11 3 12 96 13
REMARK SMILES IDX 4 14 86 15 87 16 95 17 88 18 90 19 89 20 91 21 92 22 93 23
REMARK SMILES IDX 94 24 14 25 15 26 16 27 17 28 18 29 19 30 20 31 21 32 85 33
REMARK SMILES IDX 22 34 84 35 23 36 24 37 25 38 78 39 26 40 83 41 77 42 79 43
REMARK SMILES IDX 27 44 82 45 76 46 75 47 28 49 62 50 41 51 61 52 42 53 45 54
REMARK SMILES IDX 60 55 80 56 43 57 44 58 59 60 81 61 46 62 29 63 30 64 39 65
REMARK SMILES IDX 31 66 32 67 38 68 40 69 33 70 34 71 35 72 36 73 37 74 63 75
REMARK SMILES IDX 64 76 73 77 65 78 66 79 72 80 74 81 67 82 68 83 69 84 70 85
REMARK SMILES IDX 71 86 47 87 48 88 57 89 49 90 50 91 56 92 58 93 51 94 52 95
REMARK SMILES IDX 53 96 54 97 55 98
REMARK H PARENT 79 48 45 59
REMARK Flexibility Score: inf
ROOT
ATOM      1  C   UNL A   1      35.335  32.837  27.995  1.00  0.00     0.188 C 
ENDROOT
BRANCH   1   2
ATOM      2  C   UNL A   1      33.906  32.374  27.657  1.00  0.00     0.188 C 
BRANCH   2   3
ATOM      3  O   UNL A   1      33.661  31.019  28.002  1.00  0.00    -0.376 OA
BRANCH   3   4
ATOM      4  C   UNL A   1      33.262  30.184  26.927  1.00  0.00     0.202 C 
BRANCH   4   5
ATOM      5  C   UNL A   1      32.695  28.797  27.269  1.00  0.00     0.261 C 
BRANCH   5   6
ATOM      6  O   UNL A   1      33.191  27.676  26.513  1.00  0.00    -0.463 OA
BRANCH   6   7
ATOM      7  C   UNL A   1      32.332  26.671  26.217  1.00  0.00     0.312 C 
ATOM      8  O   UNL A   1      31.301  26.463  26.846  1.00  0.00    -0.252 OA
BRANCH   7   9
ATOM      9  C   UNL A   1      32.844  25.737  25.080  1.00  0.00     0.071 C 
ATOM     10  C   UNL A   1      32.082  28.102  22.950  1.00  0.00     0.007 C 
ATOM     11  C   UNL A   1      33.031  26.905  22.896  1.00  0.00    -0.013 C 
ATOM     12  C   UNL A   1      32.286  25.601  22.675  1.00  0.00     0.004 C 
ATOM     13  C   UNL A   1      33.765  26.651  24.219  1.00  0.00     0.022 C 
ATOM     14  C   UNL A   1      31.768  25.245  24.062  1.00  0.00     0.019 C 
BRANCH   9  15
ATOM     15  C   UNL A   1      33.628  24.529  25.743  1.00  0.00     0.008 C 
ATOM     16  C   UNL A   1      35.129  24.457  25.392  1.00  0.00     0.005 C 
ATOM     17  C   UNL A   1      32.967  23.189  25.383  1.00  0.00     0.024 C 
ATOM     18  C   UNL A   1      35.804  23.276  26.084  1.00  0.00     0.002 C 
ATOM     19  C   UNL A   1      33.727  21.903  25.763  1.00  0.00     0.108 C 
ATOM     20  C   UNL A   1      35.235  21.967  25.578  1.00  0.00     0.020 C 
BRANCH  19  21
ATOM     21  S   UNL A   1      33.024  20.593  24.758  1.00  0.00     0.150 S 
ATOM     22  C   UNL A   1      32.620  21.339  23.192  1.00  0.00     0.158 C 
ATOM     23  O   UNL A   1      34.102  19.638  24.599  1.00  0.00    -0.229 OA
ATOM     24  O   UNL A   1      31.779  20.171  25.378  1.00  0.00    -0.229 OA
ENDBRANCH  19  21
ENDBRANCH   9  15
ENDBRANCH   7   9
ENDBRANCH   6   7
ENDBRANCH   5   6
ENDBRANCH   4   5
ENDBRANCH   3   4
ENDBRANCH   2   3
ENDBRANCH   1   2
BRANCH   1  25
ATOM     25  O   UNL A   1      35.566  33.817  28.999  1.00  0.00    -0.376 OA
BRANCH  25  26
ATOM     26  C   UNL A   1      34.842  33.742  30.218  1.00  0.00     0.202 C 
BRANCH  26  27
ATOM     27  C   UNL A   1      35.311  32.805  31.348  1.00  0.00     0.261 C 
BRANCH  27  28
ATOM     28  O   UNL A   1      35.755  31.495  30.955  1.00  0.00    -0.460 OA
BRANCH  28  29
ATOM     29  C   UNL A   1      36.707  30.942  31.756  1.00  0.00     0.338 C 
ATOM     30  O   UNL A   1      36.584  30.670  32.934  1.00  0.00    -0.246 OA
BRANCH  29  31
ATOM     31  C   UNL A   1      37.886  30.518  30.948  1.00  0.00     0.060 A 
ATOM     32  C   UNL A   1      38.931  29.907  31.638  1.00  0.00     0.016 A 
ATOM     33  C   UNL A   1      37.985  30.684  29.561  1.00  0.00     0.016 A 
ATOM     34  C   UNL A   1      40.059  29.458  30.946  1.00  0.00     0.010 A 
ATOM     35  C   UNL A   1      39.134  30.235  28.867  1.00  0.00     0.010 A 
ATOM     36  C   UNL A   1      40.184  29.601  29.549  1.00  0.00    -0.014 A 
BRANCH  36  37
ATOM     37  C   UNL A   1      41.466  29.146  28.902  1.00  0.00     0.031 A 
ATOM     38  C   UNL A   1      42.665  30.061  28.998  1.00  0.00     0.074 A 
ATOM     39  C   UNL A   1      41.657  27.904  28.400  1.00  0.00     0.049 A 
ATOM     40  N   UNL A   1      43.920  29.822  28.708  1.00  0.00    -0.248 NA
ATOM     41  C   UNL A   1      42.417  31.412  29.527  1.00  0.00     0.031 C 
ATOM     42  C   UNL A   1      40.651  26.848  28.328  1.00  0.00     0.029 A 
ATOM     43  N   UNL A   1      42.805  27.281  27.936  1.00  0.00    -0.354 N 
ATOM     44  C   UNL A   1      44.604  30.991  29.017  1.00  0.00     0.074 A 
ATOM     45  C   UNL A   1      43.639  31.912  29.576  1.00  0.00     0.031 C 
ATOM     46  C   UNL A   1      41.236  25.697  27.949  1.00  0.00     0.029 A 
ATOM     47  C   UNL A   1      42.649  25.938  27.651  1.00  0.00     0.049 A 
ATOM     48  H   UNL A   1      43.660  27.756  27.821  1.00  0.00     0.167 HD
ATOM     49  C   UNL A   1      45.902  31.309  28.800  1.00  0.00     0.037 A 
ATOM     50  C   UNL A   1      43.525  25.010  27.197  1.00  0.00     0.037 A 
ATOM     51  C   UNL A   1      46.860  30.464  28.144  1.00  0.00     0.049 A 
ATOM     52  C   UNL A   1      44.944  25.427  26.859  1.00  0.00     0.074 A 
ATOM     53  C   UNL A   1      48.156  30.772  27.769  1.00  0.00     0.029 A 
ATOM     54  N   UNL A   1      46.623  29.164  27.730  1.00  0.00    -0.354 N 
ATOM     55  N   UNL A   1      45.560  26.555  27.118  1.00  0.00    -0.248 NA
ATOM     56  C   UNL A   1      45.772  24.453  26.125  1.00  0.00     0.031 C 
ATOM     57  C   UNL A   1      48.680  29.684  27.066  1.00  0.00     0.029 A 
ATOM     58  C   UNL A   1      47.737  28.669  27.074  1.00  0.00     0.049 A 
ATOM     59  H   UNL A   1      45.788  28.666  27.882  1.00  0.00     0.167 HD
ATOM     60  C   UNL A   1      46.839  26.426  26.572  1.00  0.00     0.074 A 
ATOM     61  C   UNL A   1      46.927  25.096  26.017  1.00  0.00     0.031 C 
ATOM     62  C   UNL A   1      47.838  27.343  26.519  1.00  0.00     0.037 A 
BRANCH  49  63
ATOM     63  C   UNL A   1      46.311  32.710  29.145  1.00  0.00     0.058 A 
ATOM     64  C   UNL A   1      46.804  33.057  30.410  1.00  0.00     0.135 A 
ATOM     65  C   UNL A   1      46.175  33.725  28.184  1.00  0.00     0.135 A 
ATOM     66  F   UNL A   1      46.916  32.126  31.372  1.00  0.00    -0.206 F 
ATOM     67  C   UNL A   1      47.130  34.373  30.720  1.00  0.00     0.059 A 
ATOM     68  C   UNL A   1      46.517  35.041  28.463  1.00  0.00     0.059 A 
ATOM     69  F   UNL A   1      45.689  33.441  26.965  1.00  0.00    -0.206 F 
ATOM     70  C   UNL A   1      46.981  35.357  29.738  1.00  0.00     0.060 A 
BRANCH  70  71
ATOM     71  S   UNL A   1      47.395  37.063  30.154  1.00  0.00     0.124 S 
ATOM     72  O   UNL A   1      48.836  37.079  29.919  1.00  0.00    -0.237 OA
ATOM     73  O   UNL A   1      46.589  37.819  29.200  1.00  0.00    -0.237 OA
ATOM     74  O   UNL A   1      46.986  37.182  31.549  1.00  0.00    -0.744 OA
ENDBRANCH  70  71
ENDBRANCH  49  63
BRANCH  50  75
ATOM     75  C   UNL A   1      43.108  23.591  26.941  1.00  0.00     0.058 A 
ATOM     76  C   UNL A   1      42.993  22.656  27.987  1.00  0.00     0.135 A 
ATOM     77  C   UNL A   1      42.914  23.111  25.636  1.00  0.00     0.135 A 
ATOM     78  F   UNL A   1      43.195  23.043  29.257  1.00  0.00    -0.206 F 
ATOM     79  C   UNL A   1      42.730  21.307  27.748  1.00  0.00     0.059 A 
ATOM     80  C   UNL A   1      42.606  21.778  25.374  1.00  0.00     0.059 A 
ATOM     81  F   UNL A   1      43.027  23.942  24.588  1.00  0.00    -0.206 F 
ATOM     82  C   UNL A   1      42.536  20.878  26.435  1.00  0.00     0.060 A 
BRANCH  82  83
ATOM     83  S   UNL A   1      42.168  19.136  26.124  1.00  0.00     0.124 S 
ATOM     84  O   UNL A   1      40.744  19.187  25.812  1.00  0.00    -0.237 OA
ATOM     85  O   UNL A   1      43.056  18.829  25.008  1.00  0.00    -0.237 OA
ATOM     86  O   UNL A   1      42.516  18.490  27.386  1.00  0.00    -0.744 OA
ENDBRANCH  82  83
ENDBRANCH  50  75
BRANCH  62  87
ATOM     87  C   UNL A   1      49.133  26.958  25.845  1.00  0.00     0.058 A 
ATOM     88  C   UNL A   1      49.383  27.254  24.495  1.00  0.00     0.135 A 
ATOM     89  C   UNL A   1      50.173  26.366  26.583  1.00  0.00     0.135 A 
ATOM     90  F   UNL A   1      48.430  27.822  23.740  1.00  0.00    -0.206 F 
ATOM     91  C   UNL A   1      50.606  26.957  23.896  1.00  0.00     0.059 A 
ATOM     92  C   UNL A   1      51.414  26.089  26.013  1.00  0.00     0.059 A 
ATOM     93  F   UNL A   1      49.999  26.073  27.882  1.00  0.00    -0.206 F 
ATOM     94  C   UNL A   1      51.618  26.379  24.665  1.00  0.00     0.060 A 
BRANCH  94  95
ATOM     95  S   UNL A   1      53.211  26.036  23.887  1.00  0.00     0.124 S 
ATOM     96  O   UNL A   1      52.878  26.147  22.471  1.00  0.00    -0.237 OA
ATOM     97  O   UNL A   1      54.056  27.098  24.424  1.00  0.00    -0.237 OA
ATOM     98  O   UNL A   1      53.535  24.691  24.351  1.00  0.00    -0.744 OA
ENDBRANCH  94  95
ENDBRANCH  62  87
ENDBRANCH  36  37
ENDBRANCH  29  31
ENDBRANCH  28  29
ENDBRANCH  27  28
ENDBRANCH  26  27
ENDBRANCH  25  26
ENDBRANCH   1  25
TORSDOF 22
ENDMDL
MODEL 3
REMARK VINA RESULT:     -10.0      3.020      4.778
REMARK SMILES C[C@@H]1CC[C@@](C(=O)OCCOCCOCCOC(=O)c2ccc(-c3c4nc(c(-c5c(F)cc(S(=O)(=O)[O-])cc5F)c5ccc([nH]5)c(-c5c(F)cc(S(=O)(=O)[O-])cc5F)c5nc(c(-c6c(F)cc(S(=O)(=O)[O-])cc6F)c6ccc3[nH]6)C=C5)C=C4)cc2)([C@@H]2CCC[C@H](S(C)(=O)=O)C2)C1
REMARK SMILES IDX 13 1 12 2 11 3 10 4 9 5 8 6 6 7 7 8 5 9 1 10 2 11 3 12 96 13
REMARK SMILES IDX 4 14 86 15 87 16 95 17 88 18 90 19 89 20 91 21 92 22 93 23
REMARK SMILES IDX 94 24 14 25 15 26 16 27 17 28 18 29 19 30 20 31 21 32 85 33
REMARK SMILES IDX 22 34 84 35 23 36 24 37 25 38 78 39 26 40 83 41 77 42 79 43
REMARK SMILES IDX 27 44 82 45 76 46 75 47 28 49 62 50 41 51 61 52 42 53 45 54
REMARK SMILES IDX 60 55 80 56 43 57 44 58 59 60 81 61 46 62 29 63 30 64 39 65
REMARK SMILES IDX 31 66 32 67 38 68 40 69 33 70 34 71 35 72 36 73 37 74 63 75
REMARK SMILES IDX 64 76 73 77 65 78 66 79 72 80 74 81 67 82 68 83 69 84 70 85
REMARK SMILES IDX 71 86 47 87 48 88 57 89 49 90 50 91 56 92 58 93 51 94 52 95
REMARK SMILES IDX 53 96 54 97 55 98
REMARK H PARENT 79 48 45 59
REMARK Flexibility Score: inf
ROOT
ATOM      1  C   UNL A   1      33.759  20.960  25.604  1.00  0.00     0.188 C 
ENDROOT
BRANCH   1   2
ATOM      2  C   UNL A   1      33.293  20.394  24.250  1.00  0.00     0.188 C 
BRANCH   2   3
ATOM      3  O   UNL A   1      32.723  21.378  23.400  1.00  0.00    -0.376 OA
BRANCH   3   4
ATOM      4  C   UNL A   1      33.189  22.700  23.609  1.00  0.00     0.202 C 
BRANCH   4   5
ATOM      5  C   UNL A   1      32.874  23.750  22.531  1.00  0.00     0.261 C 
BRANCH   5   6
ATOM      6  O   UNL A   1      31.950  24.797  22.879  1.00  0.00    -0.463 OA
BRANCH   6   7
ATOM      7  C   UNL A   1      32.425  25.879  23.541  1.00  0.00     0.312 C 
ATOM      8  O   UNL A   1      33.588  26.257  23.460  1.00  0.00    -0.252 OA
BRANCH   7   9
ATOM      9  C   UNL A   1      31.383  26.518  24.508  1.00  0.00     0.071 C 
ATOM     10  C   UNL A   1      31.371  23.699  26.171  1.00  0.00     0.007 C 
ATOM     11  C   UNL A   1      30.985  25.133  26.531  1.00  0.00    -0.013 C 
ATOM     12  C   UNL A   1      29.638  25.521  25.948  1.00  0.00     0.004 C 
ATOM     13  C   UNL A   1      31.925  26.185  25.929  1.00  0.00     0.022 C 
ATOM     14  C   UNL A   1      29.961  25.873  24.503  1.00  0.00     0.019 C 
BRANCH   9  15
ATOM     15  C   UNL A   1      31.328  28.077  24.223  1.00  0.00     0.008 C 
ATOM     16  C   UNL A   1      31.414  28.970  25.478  1.00  0.00     0.005 C 
ATOM     17  C   UNL A   1      30.058  28.441  23.438  1.00  0.00     0.024 C 
ATOM     18  C   UNL A   1      31.368  30.450  25.108  1.00  0.00     0.002 C 
ATOM     19  C   UNL A   1      29.738  29.939  23.268  1.00  0.00     0.108 C 
ATOM     20  C   UNL A   1      30.034  30.802  24.485  1.00  0.00     0.020 C 
BRANCH  19  21
ATOM     21  S   UNL A   1      27.999  30.032  22.837  1.00  0.00     0.150 S 
ATOM     22  C   UNL A   1      27.940  30.647  21.167  1.00  0.00     0.158 C 
ATOM     23  O   UNL A   1      27.538  28.660  22.887  1.00  0.00    -0.229 OA
ATOM     24  O   UNL A   1      27.378  31.029  23.694  1.00  0.00    -0.229 OA
ENDBRANCH  19  21
ENDBRANCH   9  15
ENDBRANCH   7   9
ENDBRANCH   6   7
ENDBRANCH   5   6
ENDBRANCH   4   5
ENDBRANCH   3   4
ENDBRANCH   2   3
ENDBRANCH   1   2
BRANCH   1  25
ATOM     25  O   UNL A   1      35.142  21.146  25.880  1.00  0.00    -0.376 OA
BRANCH  25  26
ATOM     26  C   UNL A   1      36.104  20.599  24.991  1.00  0.00     0.202 C 
BRANCH  26  27
ATOM     27  C   UNL A   1      37.378  21.391  24.637  1.00  0.00     0.261 C 
BRANCH  27  28
ATOM     28  O   UNL A   1      37.864  22.308  25.634  1.00  0.00    -0.460 OA
BRANCH  28  29
ATOM     29  C   UNL A   1      39.055  21.969  26.198  1.00  0.00     0.338 C 
ATOM     30  O   UNL A   1      39.632  20.906  26.074  1.00  0.00    -0.246 OA
BRANCH  29  31
ATOM     31  C   UNL A   1      39.681  23.156  26.848  1.00  0.00     0.060 A 
ATOM     32  C   UNL A   1      39.198  24.406  26.467  1.00  0.00     0.016 A 
ATOM     33  C   UNL A   1      40.695  23.077  27.811  1.00  0.00     0.016 A 
ATOM     34  C   UNL A   1      39.716  25.565  27.052  1.00  0.00     0.010 A 
ATOM     35  C   UNL A   1      41.221  24.255  28.393  1.00  0.00     0.010 A 
ATOM     36  C   UNL A   1      40.729  25.518  28.031  1.00  0.00    -0.014 A 
BRANCH  36  37
ATOM     37  C   UNL A   1      41.270  26.824  28.553  1.00  0.00     0.031 A 
ATOM     38  C   UNL A   1      42.714  27.155  28.256  1.00  0.00     0.074 A 
ATOM     39  C   UNL A   1      40.502  27.788  29.113  1.00  0.00     0.049 A 
ATOM     40  N   UNL A   1      43.358  28.285  28.413  1.00  0.00    -0.248 NA
ATOM     41  C   UNL A   1      43.526  26.077  27.669  1.00  0.00     0.031 C 
ATOM     42  C   UNL A   1      39.069  27.693  29.373  1.00  0.00     0.029 A 
ATOM     43  N   UNL A   1      40.807  29.089  29.480  1.00  0.00    -0.354 N 
ATOM     44  C   UNL A   1      44.646  28.049  27.948  1.00  0.00     0.074 A 
ATOM     45  C   UNL A   1      44.673  26.693  27.444  1.00  0.00     0.031 C 
ATOM     46  C   UNL A   1      38.603  28.896  29.759  1.00  0.00     0.029 A 
ATOM     47  C   UNL A   1      39.715  29.840  29.872  1.00  0.00     0.049 A 
ATOM     48  H   UNL A   1      41.724  29.447  29.462  1.00  0.00     0.167 HD
ATOM     49  C   UNL A   1      45.734  28.852  27.990  1.00  0.00     0.037 A 
ATOM     50  C   UNL A   1      39.614  31.127  30.283  1.00  0.00     0.037 A 
ATOM     51  C   UNL A   1      45.773  30.159  28.585  1.00  0.00     0.049 A 
ATOM     52  C   UNL A   1      40.870  31.966  30.424  1.00  0.00     0.074 A 
ATOM     53  C   UNL A   1      46.874  30.974  28.785  1.00  0.00     0.029 A 
ATOM     54  N   UNL A   1      44.681  30.826  29.111  1.00  0.00    -0.354 N 
ATOM     55  N   UNL A   1      42.089  31.706  30.019  1.00  0.00    -0.248 NA
ATOM     56  C   UNL A   1      40.738  33.259  31.120  1.00  0.00     0.031 C 
ATOM     57  C   UNL A   1      46.459  32.105  29.494  1.00  0.00     0.029 A 
ATOM     58  C   UNL A   1      45.086  32.029  29.665  1.00  0.00     0.049 A 
ATOM     59  H   UNL A   1      43.754  30.496  29.092  1.00  0.00     0.167 HD
ATOM     60  C   UNL A   1      42.865  32.796  30.419  1.00  0.00     0.074 A 
ATOM     61  C   UNL A   1      41.972  33.740  31.049  1.00  0.00     0.031 C 
ATOM     62  C   UNL A   1      44.204  32.980  30.293  1.00  0.00     0.037 A 
BRANCH  49  63
ATOM     63  C   UNL A   1      47.022  28.255  27.506  1.00  0.00     0.058 A 
ATOM     64  C   UNL A   1      47.431  28.340  26.167  1.00  0.00     0.135 A 
ATOM     65  C   UNL A   1      47.843  27.560  28.408  1.00  0.00     0.135 A 
ATOM     66  F   UNL A   1      46.660  28.964  25.261  1.00  0.00    -0.206 F 
ATOM     67  C   UNL A   1      48.606  27.735  25.734  1.00  0.00     0.059 A 
ATOM     68  C   UNL A   1      49.033  26.969  28.003  1.00  0.00     0.059 A 
ATOM     69  F   UNL A   1      47.481  27.438  29.695  1.00  0.00    -0.206 F 
ATOM     70  C   UNL A   1      49.398  27.051  26.661  1.00  0.00     0.060 A 
BRANCH  70  71
ATOM     71  S   UNL A   1      50.914  26.259  26.086  1.00  0.00     0.124 S 
ATOM     72  O   UNL A   1      50.712  26.259  24.640  1.00  0.00    -0.237 OA
ATOM     73  O   UNL A   1      51.944  27.167  26.582  1.00  0.00    -0.237 OA
ATOM     74  O   UNL A   1      50.876  24.948  26.725  1.00  0.00    -0.744 OA
ENDBRANCH  70  71
ENDBRANCH  49  63
BRANCH  50  75
ATOM     75  C   UNL A   1      38.296  31.726  30.681  1.00  0.00     0.058 A 
ATOM     76  C   UNL A   1      37.463  32.366  29.744  1.00  0.00     0.135 A 
ATOM     77  C   UNL A   1      37.886  31.762  32.024  1.00  0.00     0.135 A 
ATOM     78  F   UNL A   1      37.810  32.393  28.447  1.00  0.00    -0.206 F 
ATOM     79  C   UNL A   1      36.299  33.034  30.124  1.00  0.00     0.059 A 
ATOM     80  C   UNL A   1      36.706  32.383  32.422  1.00  0.00     0.059 A 
ATOM     81  F   UNL A   1      38.641  31.188  32.974  1.00  0.00    -0.206 F 
ATOM     82  C   UNL A   1      35.928  33.035  31.468  1.00  0.00     0.060 A 
BRANCH  82  83
ATOM     83  S   UNL A   1      34.406  33.878  31.959  1.00  0.00     0.124 S 
ATOM     84  O   UNL A   1      33.656  32.792  32.581  1.00  0.00    -0.237 OA
ATOM     85  O   UNL A   1      34.905  34.909  32.864  1.00  0.00    -0.237 OA
ATOM     86  O   UNL A   1      33.873  34.371  30.693  1.00  0.00    -0.744 OA
ENDBRANCH  82  83
ENDBRANCH  50  75
BRANCH  62  87
ATOM     87  C   UNL A   1      44.810  34.251  30.835  1.00  0.00     0.058 A 
ATOM     88  C   UNL A   1      44.873  35.429  30.071  1.00  0.00     0.135 A 
ATOM     89  C   UNL A   1      45.252  34.319  32.168  1.00  0.00     0.135 A 
ATOM     90  F   UNL A   1      44.462  35.428  28.794  1.00  0.00    -0.206 F 
ATOM     91  C   UNL A   1      45.371  36.618  30.600  1.00  0.00     0.059 A 
ATOM     92  C   UNL A   1      45.725  35.505  32.726  1.00  0.00     0.059 A 
ATOM     93  F   UNL A   1      45.203  33.231  32.953  1.00  0.00    -0.206 F 
ATOM     94  C   UNL A   1      45.791  36.647  31.931  1.00  0.00     0.060 A 
BRANCH  94  95
ATOM     95  S   UNL A   1      46.398  38.204  32.615  1.00  0.00     0.124 S 
ATOM     96  O   UNL A   1      47.463  37.745  33.498  1.00  0.00    -0.237 OA
ATOM     97  O   UNL A   1      46.830  38.923  31.420  1.00  0.00    -0.237 OA
ATOM     98  O   UNL A   1      45.226  38.763  33.284  1.00  0.00    -0.744 OA
ENDBRANCH  94  95
ENDBRANCH  62  87
ENDBRANCH  36  37
ENDBRANCH  29  31
ENDBRANCH  28  29
ENDBRANCH  27  28
ENDBRANCH  26  27
ENDBRANCH  25  26
ENDBRANCH   1  25
TORSDOF 22
ENDMDL
