MODEL 1
REMARK VINA RESULT:     -10.8      0.000      0.000
REMARK SMILES CCc1nn(-c2ccncn2)c(Cl)c1C(=O)OCCOCCOCCOC(=O)c1ccc(-c2c3nc(c(-c4c(F)cc(S(=O)(=O)[O-])cc4F)c4ccc([nH]4)c(-c4c(F)cc(S(=O)(=O)[O-])cc4F)c4nc(c(-c5c(F)cc(S(=O)(=O)[O-])cc5F)c5ccc2[nH]5)C=C4)C=C3)cc1
REMARK SMILES IDX 22 1 21 2 20 3 19 4 18 5 17 6 15 7 16 8 14 9 3 10 4 11 5 12
REMARK SMILES IDX 12 13 13 14 2 15 1 16 6 17 7 18 11 19 8 20 10 21 9 22 23 23
REMARK SMILES IDX 24 24 25 25 26 26 27 27 28 28 29 29 30 30 94 31 31 32 93 33
REMARK SMILES IDX 32 34 33 35 34 36 87 37 35 38 92 39 86 40 88 41 36 42 91 43
REMARK SMILES IDX 85 44 84 45 37 47 71 48 50 49 70 50 51 51 54 52 69 53 89 54
REMARK SMILES IDX 52 55 53 56 68 58 90 59 55 60 38 61 39 62 48 63 40 64 41 65
REMARK SMILES IDX 47 66 49 67 42 68 43 69 44 70 45 71 46 72 72 73 73 74 82 75
REMARK SMILES IDX 74 76 75 77 81 78 83 79 76 80 77 81 78 82 79 83 80 84 56 85
REMARK SMILES IDX 57 86 66 87 58 88 59 89 65 90 67 91 60 92 61 93 62 94 63 95
REMARK SMILES IDX 64 96
REMARK H PARENT 88 46 54 57
REMARK Flexibility Score: inf
ROOT
ATOM      1  C   UNL A   1      30.999  29.612  24.809  1.00  0.00     0.188 C 
ENDROOT
BRANCH   1   2
ATOM      2  C   UNL A   1      31.350  28.760  23.567  1.00  0.00     0.188 C 
BRANCH   2   3
ATOM      3  O   UNL A   1      31.892  27.453  23.705  1.00  0.00    -0.376 OA
BRANCH   3   4
ATOM      4  C   UNL A   1      31.594  26.446  22.748  1.00  0.00     0.202 C 
BRANCH   4   5
ATOM      5  C   UNL A   1      31.487  24.963  23.164  1.00  0.00     0.261 C 
BRANCH   5   6
ATOM      6  O   UNL A   1      32.698  24.373  23.658  1.00  0.00    -0.460 OA
BRANCH   6   7
ATOM      7  C   UNL A   1      33.223  23.352  22.917  1.00  0.00     0.343 C 
ATOM      8  O   UNL A   1      33.411  23.397  21.723  1.00  0.00    -0.246 OA
BRANCH   7   9
ATOM      9  C   UNL A   1      33.658  22.243  23.754  1.00  0.00     0.120 A 
ATOM     10  C   UNL A   1      34.646  22.152  24.778  1.00  0.00     0.079 A 
ATOM     11  N   UNL A   1      34.723  20.912  25.292  1.00  0.00    -0.169 NA
ATOM     12  N   UNL A   1      33.854  20.173  24.550  1.00  0.00    -0.203 N 
ATOM     13  C   UNL A   1      33.218  20.947  23.614  1.00  0.00     0.149 A 
ATOM     14  Cl  UNL A   1      32.101  20.266  22.512  1.00  0.00    -0.061 Cl
BRANCH  10  15
ATOM     15  C   UNL A   1      35.589  23.216  25.258  1.00  0.00     0.056 C 
ATOM     16  C   UNL A   1      37.014  23.062  24.747  1.00  0.00     0.011 C 
ENDBRANCH  10  15
BRANCH  12  17
ATOM     17  C   UNL A   1      33.669  18.787  24.789  1.00  0.00     0.158 A 
ATOM     18  C   UNL A   1      34.563  17.892  24.227  1.00  0.00     0.069 A 
ATOM     19  N   UNL A   1      32.550  18.411  25.451  1.00  0.00    -0.217 NA
ATOM     20  C   UNL A   1      34.234  16.564  24.365  1.00  0.00     0.117 A 
ATOM     21  C   UNL A   1      32.327  17.093  25.497  1.00  0.00     0.224 A 
ATOM     22  N   UNL A   1      33.115  16.138  24.980  1.00  0.00    -0.245 NA
ENDBRANCH  12  17
ENDBRANCH   7   9
ENDBRANCH   6   7
ENDBRANCH   5   6
ENDBRANCH   4   5
ENDBRANCH   3   4
ENDBRANCH   2   3
ENDBRANCH   1   2
BRANCH   1  23
ATOM     23  O   UNL A   1      32.090  30.323  25.360  1.00  0.00    -0.376 OA
BRANCH  23  24
ATOM     24  C   UNL A   1      32.435  30.139  26.725  1.00  0.00     0.202 C 
BRANCH  24  25
ATOM     25  C   UNL A   1      33.378  31.107  27.443  1.00  0.00     0.261 C 
BRANCH  25  26
ATOM     26  O   UNL A   1      34.721  30.683  27.538  1.00  0.00    -0.460 OA
BRANCH  26  27
ATOM     27  C   UNL A   1      35.582  31.627  27.964  1.00  0.00     0.338 C 
ATOM     28  O   UNL A   1      35.676  32.771  27.553  1.00  0.00    -0.246 OA
BRANCH  27  29
ATOM     29  C   UNL A   1      36.433  31.035  28.999  1.00  0.00     0.060 A 
ATOM     30  C   UNL A   1      37.386  31.876  29.574  1.00  0.00     0.016 A 
ATOM     31  C   UNL A   1      36.502  29.637  29.093  1.00  0.00     0.016 A 
ATOM     32  C   UNL A   1      38.572  31.312  29.970  1.00  0.00     0.010 A 
ATOM     33  C   UNL A   1      37.693  29.075  29.467  1.00  0.00     0.010 A 
ATOM     34  C   UNL A   1      38.741  29.937  29.780  1.00  0.00    -0.014 A 
BRANCH  34  35
ATOM     35  C   UNL A   1      40.087  29.426  29.838  1.00  0.00     0.031 A 
ATOM     36  C   UNL A   1      40.610  29.287  31.208  1.00  0.00     0.074 A 
ATOM     37  C   UNL A   1      40.727  29.052  28.713  1.00  0.00     0.049 A 
ATOM     38  N   UNL A   1      41.594  29.915  31.758  1.00  0.00    -0.248 NA
ATOM     39  C   UNL A   1      39.823  28.456  32.133  1.00  0.00     0.031 C 
ATOM     40  C   UNL A   1      40.172  28.879  27.365  1.00  0.00     0.029 A 
ATOM     41  N   UNL A   1      42.007  28.634  28.569  1.00  0.00    -0.354 N 
ATOM     42  C   UNL A   1      41.682  29.393  33.043  1.00  0.00     0.074 A 
ATOM     43  C   UNL A   1      40.467  28.660  33.279  1.00  0.00     0.031 C 
ATOM     44  C   UNL A   1      41.048  28.176  26.613  1.00  0.00     0.029 A 
ATOM     45  C   UNL A   1      42.261  27.960  27.384  1.00  0.00     0.049 A 
ATOM     46  H   UNL A   1      42.701  28.797  29.249  1.00  0.00     0.167 HD
ATOM     47  C   UNL A   1      42.853  29.386  33.734  1.00  0.00     0.037 A 
ATOM     48  C   UNL A   1      43.350  27.193  27.131  1.00  0.00     0.037 A 
ATOM     49  C   UNL A   1      43.789  30.344  33.208  1.00  0.00     0.049 A 
ATOM     50  C   UNL A   1      44.395  27.577  28.123  1.00  0.00     0.074 A 
ATOM     51  C   UNL A   1      43.771  31.718  33.061  1.00  0.00     0.029 A 
ATOM     52  N   UNL A   1      44.787  29.891  32.379  1.00  0.00    -0.354 N 
ATOM     53  N   UNL A   1      44.981  28.745  28.156  1.00  0.00    -0.248 NA
ATOM     54  C   UNL A   1      44.456  26.822  29.368  1.00  0.00     0.031 C 
ATOM     55  C   UNL A   1      44.425  31.970  31.821  1.00  0.00     0.029 A 
ATOM     56  C   UNL A   1      44.847  30.744  31.303  1.00  0.00     0.049 A 
ATOM     57  H   UNL A   1      45.356  29.101  32.529  1.00  0.00     0.167 HD
ATOM     58  C   UNL A   1      45.128  29.041  29.506  1.00  0.00     0.074 A 
ATOM     59  C   UNL A   1      44.863  27.785  30.200  1.00  0.00     0.031 C 
ATOM     60  C   UNL A   1      45.174  30.333  29.951  1.00  0.00     0.037 A 
BRANCH  47  61
ATOM     61  C   UNL A   1      43.228  28.275  34.676  1.00  0.00     0.058 A 
ATOM     62  C   UNL A   1      43.556  28.564  36.012  1.00  0.00     0.135 A 
ATOM     63  C   UNL A   1      43.500  26.954  34.248  1.00  0.00     0.135 A 
ATOM     64  F   UNL A   1      43.373  29.798  36.507  1.00  0.00    -0.206 F 
ATOM     65  C   UNL A   1      44.140  27.615  36.852  1.00  0.00     0.059 A 
ATOM     66  C   UNL A   1      44.017  25.977  35.085  1.00  0.00     0.059 A 
ATOM     67  F   UNL A   1      43.366  26.574  32.970  1.00  0.00    -0.206 F 
ATOM     68  C   UNL A   1      44.373  26.327  36.375  1.00  0.00     0.060 A 
BRANCH  68  69
ATOM     69  S   UNL A   1      45.212  25.126  37.421  1.00  0.00     0.124 S 
ATOM     70  O   UNL A   1      46.357  25.900  37.886  1.00  0.00    -0.237 OA
ATOM     71  O   UNL A   1      44.191  24.827  38.421  1.00  0.00    -0.237 OA
ATOM     72  O   UNL A   1      45.517  24.034  36.501  1.00  0.00    -0.744 OA
ENDBRANCH  68  69
ENDBRANCH  47  61
BRANCH  48  73
ATOM     73  C   UNL A   1      43.382  25.907  26.384  1.00  0.00     0.058 A 
ATOM     74  C   UNL A   1      44.307  25.692  25.347  1.00  0.00     0.135 A 
ATOM     75  C   UNL A   1      42.692  24.765  26.845  1.00  0.00     0.135 A 
ATOM     76  F   UNL A   1      45.029  26.715  24.866  1.00  0.00    -0.206 F 
ATOM     77  C   UNL A   1      44.563  24.416  24.828  1.00  0.00     0.059 A 
ATOM     78  C   UNL A   1      42.919  23.489  26.333  1.00  0.00     0.059 A 
ATOM     79  F   UNL A   1      41.838  24.837  27.877  1.00  0.00    -0.206 F 
ATOM     80  C   UNL A   1      43.875  23.317  25.342  1.00  0.00     0.060 A 
BRANCH  80  81
ATOM     81  S   UNL A   1      44.321  21.651  24.801  1.00  0.00     0.124 S 
ATOM     82  O   UNL A   1      43.152  20.880  25.209  1.00  0.00    -0.237 OA
ATOM     83  O   UNL A   1      44.498  21.832  23.364  1.00  0.00    -0.237 OA
ATOM     84  O   UNL A   1      45.546  21.369  25.545  1.00  0.00    -0.744 OA
ENDBRANCH  80  81
ENDBRANCH  48  73
BRANCH  60  85
ATOM     85  C   UNL A   1      45.331  31.433  28.928  1.00  0.00     0.058 A 
ATOM     86  C   UNL A   1      46.564  31.822  28.372  1.00  0.00     0.135 A 
ATOM     87  C   UNL A   1      44.177  32.005  28.374  1.00  0.00     0.135 A 
ATOM     88  F   UNL A   1      47.708  31.245  28.766  1.00  0.00    -0.206 F 
ATOM     89  C   UNL A   1      46.648  32.763  27.345  1.00  0.00     0.059 A 
ATOM     90  C   UNL A   1      44.233  32.923  27.326  1.00  0.00     0.059 A 
ATOM     91  F   UNL A   1      42.963  31.629  28.812  1.00  0.00    -0.206 F 
ATOM     92  C   UNL A   1      45.475  33.308  26.825  1.00  0.00     0.060 A 
BRANCH  92  93
ATOM     93  S   UNL A   1      45.580  34.460  25.437  1.00  0.00     0.124 S 
ATOM     94  O   UNL A   1      47.020  34.542  25.215  1.00  0.00    -0.237 OA
ATOM     95  O   UNL A   1      44.817  33.775  24.396  1.00  0.00    -0.237 OA
ATOM     96  O   UNL A   1      44.957  35.676  25.954  1.00  0.00    -0.744 OA
ENDBRANCH  92  93
ENDBRANCH  60  85
ENDBRANCH  34  35
ENDBRANCH  27  29
ENDBRANCH  26  27
ENDBRANCH  25  26
ENDBRANCH  24  25
ENDBRANCH  23  24
ENDBRANCH   1  23
TORSDOF 22
ENDMDL
MODEL 2
REMARK VINA RESULT:     -10.1      4.243      6.188
REMARK SMILES CCc1nn(-c2ccncn2)c(Cl)c1C(=O)OCCOCCOCCOC(=O)c1ccc(-c2c3nc(c(-c4c(F)cc(S(=O)(=O)[O-])cc4F)c4ccc([nH]4)c(-c4c(F)cc(S(=O)(=O)[O-])cc4F)c4nc(c(-c5c(F)cc(S(=O)(=O)[O-])cc5F)c5ccc2[nH]5)C=C4)C=C3)cc1
REMARK SMILES IDX 22 1 21 2 20 3 19 4 18 5 17 6 15 7 16 8 14 9 3 10 4 11 5 12
REMARK SMILES IDX 12 13 13 14 2 15 1 16 6 17 7 18 11 19 8 20 10 21 9 22 23 23
REMARK SMILES IDX 24 24 25 25 26 26 27 27 28 28 29 29 30 30 94 31 31 32 93 33
REMARK SMILES IDX 32 34 33 35 34 36 87 37 35 38 92 39 86 40 88 41 36 42 91 43
REMARK SMILES IDX 85 44 84 45 37 47 71 48 50 49 70 50 51 51 54 52 69 53 89 54
REMARK SMILES IDX 52 55 53 56 68 58 90 59 55 60 38 61 39 62 48 63 40 64 41 65
REMARK SMILES IDX 47 66 49 67 42 68 43 69 44 70 45 71 46 72 72 73 73 74 82 75
REMARK SMILES IDX 74 76 75 77 81 78 83 79 76 80 77 81 78 82 79 83 80 84 56 85
REMARK SMILES IDX 57 86 66 87 58 88 59 89 65 90 67 91 60 92 61 93 62 94 63 95
REMARK SMILES IDX 64 96
REMARK H PARENT 88 46 54 57
REMARK Flexibility Score: inf
ROOT
ATOM      1  C   UNL A   1      35.276  32.781  27.654  1.00  0.00     0.188 C 
ENDROOT
BRANCH   1   2
ATOM      2  C   UNL A   1      34.604  31.546  28.299  1.00  0.00     0.188 C 
BRANCH   2   3
ATOM      3  O   UNL A   1      34.842  30.238  27.797  1.00  0.00    -0.376 OA
BRANCH   3   4
ATOM      4  C   UNL A   1      33.927  29.638  26.889  1.00  0.00     0.202 C 
BRANCH   4   5
ATOM      5  C   UNL A   1      34.114  28.179  26.423  1.00  0.00     0.261 C 
BRANCH   5   6
ATOM      6  O   UNL A   1      33.602  27.878  25.117  1.00  0.00    -0.460 OA
BRANCH   6   7
ATOM      7  C   UNL A   1      32.413  27.208  25.070  1.00  0.00     0.343 C 
ATOM      8  O   UNL A   1      32.071  26.358  25.862  1.00  0.00    -0.246 OA
BRANCH   7   9
ATOM      9  C   UNL A   1      31.538  27.729  24.030  1.00  0.00     0.120 A 
ATOM     10  C   UNL A   1      31.151  27.208  22.760  1.00  0.00     0.079 A 
ATOM     11  N   UNL A   1      30.316  28.039  22.110  1.00  0.00    -0.169 NA
ATOM     12  N   UNL A   1      30.227  29.137  22.908  1.00  0.00    -0.203 N 
ATOM     13  C   UNL A   1      30.963  28.978  24.055  1.00  0.00     0.149 A 
ATOM     14  Cl  UNL A   1      31.065  30.227  25.220  1.00  0.00    -0.061 Cl
BRANCH  10  15
ATOM     15  C   UNL A   1      31.605  25.941  22.097  1.00  0.00     0.056 C 
ATOM     16  C   UNL A   1      33.103  25.876  21.839  1.00  0.00     0.011 C 
ENDBRANCH  10  15
BRANCH  12  17
ATOM     17  C   UNL A   1      29.435  30.256  22.542  1.00  0.00     0.158 A 
ATOM     18  C   UNL A   1      28.921  31.060  23.545  1.00  0.00     0.069 A 
ATOM     19  N   UNL A   1      29.123  30.400  21.234  1.00  0.00    -0.217 NA
ATOM     20  C   UNL A   1      28.036  32.027  23.130  1.00  0.00     0.117 A 
ATOM     21  C   UNL A   1      28.232  31.359  20.958  1.00  0.00     0.224 A 
ATOM     22  N   UNL A   1      27.662  32.188  21.846  1.00  0.00    -0.245 NA
ENDBRANCH  12  17
ENDBRANCH   7   9
ENDBRANCH   6   7
ENDBRANCH   5   6
ENDBRANCH   4   5
ENDBRANCH   3   4
ENDBRANCH   2   3
ENDBRANCH   1   2
BRANCH   1  23
ATOM     23  O   UNL A   1      35.087  33.990  28.364  1.00  0.00    -0.376 OA
BRANCH  23  24
ATOM     24  C   UNL A   1      33.923  34.167  29.158  1.00  0.00     0.202 C 
BRANCH  24  25
ATOM     25  C   UNL A   1      33.920  35.109  30.363  1.00  0.00     0.261 C 
BRANCH  25  26
ATOM     26  O   UNL A   1      33.400  34.562  31.556  1.00  0.00    -0.460 OA
BRANCH  26  27
ATOM     27  C   UNL A   1      33.815  35.169  32.684  1.00  0.00     0.338 C 
ATOM     28  O   UNL A   1      33.461  36.259  33.102  1.00  0.00    -0.246 OA
BRANCH  27  29
ATOM     29  C   UNL A   1      34.812  34.308  33.325  1.00  0.00     0.060 A 
ATOM     30  C   UNL A   1      35.960  34.940  33.804  1.00  0.00     0.016 A 
ATOM     31  C   UNL A   1      34.745  32.924  33.105  1.00  0.00     0.016 A 
ATOM     32  C   UNL A   1      37.135  34.234  33.763  1.00  0.00     0.010 A 
ATOM     33  C   UNL A   1      35.920  32.226  33.043  1.00  0.00     0.010 A 
ATOM     34  C   UNL A   1      37.101  32.932  33.254  1.00  0.00    -0.014 A 
BRANCH  34  35
ATOM     35  C   UNL A   1      38.359  32.346  32.864  1.00  0.00     0.031 A 
ATOM     36  C   UNL A   1      39.304  32.171  33.981  1.00  0.00     0.074 A 
ATOM     37  C   UNL A   1      38.563  31.942  31.596  1.00  0.00     0.049 A 
ATOM     38  N   UNL A   1      40.448  32.740  34.161  1.00  0.00    -0.248 NA
ATOM     39  C   UNL A   1      38.829  31.380  35.128  1.00  0.00     0.031 C 
ATOM     40  C   UNL A   1      37.578  31.808  30.514  1.00  0.00     0.029 A 
ATOM     41  N   UNL A   1      39.695  31.454  31.036  1.00  0.00    -0.354 N 
ATOM     42  C   UNL A   1      40.934  32.207  35.348  1.00  0.00     0.074 A 
ATOM     43  C   UNL A   1      39.831  31.543  35.989  1.00  0.00     0.031 C 
ATOM     44  C   UNL A   1      38.112  31.060  29.522  1.00  0.00     0.029 A 
ATOM     45  C   UNL A   1      39.499  30.773  29.845  1.00  0.00     0.049 A 
ATOM     46  H   UNL A   1      40.585  31.574  31.441  1.00  0.00     0.167 HD
ATOM     47  C   UNL A   1      42.266  32.132  35.606  1.00  0.00     0.037 A 
ATOM     48  C   UNL A   1      40.397  29.947  29.251  1.00  0.00     0.037 A 
ATOM     49  C   UNL A   1      43.022  33.038  34.784  1.00  0.00     0.049 A 
ATOM     50  C   UNL A   1      41.734  30.267  29.830  1.00  0.00     0.074 A 
ATOM     51  C   UNL A   1      43.031  34.412  34.632  1.00  0.00     0.029 A 
ATOM     52  N   UNL A   1      43.658  32.534  33.674  1.00  0.00    -0.354 N 
ATOM     53  N   UNL A   1      42.359  31.400  29.648  1.00  0.00    -0.248 NA
ATOM     54  C   UNL A   1      42.167  29.504  30.992  1.00  0.00     0.031 C 
ATOM     55  C   UNL A   1      43.243  34.632  33.240  1.00  0.00     0.029 A 
ATOM     56  C   UNL A   1      43.399  33.388  32.628  1.00  0.00     0.049 A 
ATOM     57  H   UNL A   1      44.200  31.713  33.636  1.00  0.00     0.167 HD
ATOM     58  C   UNL A   1      42.967  31.681  30.866  1.00  0.00     0.074 A 
ATOM     59  C   UNL A   1      42.882  30.438  31.626  1.00  0.00     0.031 C 
ATOM     60  C   UNL A   1      43.230  32.965  31.252  1.00  0.00     0.037 A 
BRANCH  47  61
ATOM     61  C   UNL A   1      42.874  30.997  36.384  1.00  0.00     0.058 A 
ATOM     62  C   UNL A   1      43.726  31.263  37.470  1.00  0.00     0.135 A 
ATOM     63  C   UNL A   1      42.832  29.650  35.952  1.00  0.00     0.135 A 
ATOM     64  F   UNL A   1      43.867  32.514  37.935  1.00  0.00    -0.206 F 
ATOM     65  C   UNL A   1      44.500  30.266  38.065  1.00  0.00     0.059 A 
ATOM     66  C   UNL A   1      43.542  28.632  36.570  1.00  0.00     0.059 A 
ATOM     67  F   UNL A   1      42.172  29.274  34.847  1.00  0.00    -0.206 F 
ATOM     68  C   UNL A   1      44.406  28.955  37.600  1.00  0.00     0.060 A 
BRANCH  68  69
ATOM     69  S   UNL A   1      45.471  27.683  38.298  1.00  0.00     0.124 S 
ATOM     70  O   UNL A   1      44.631  26.499  38.163  1.00  0.00    -0.237 OA
ATOM     71  O   UNL A   1      46.637  27.747  37.421  1.00  0.00    -0.237 OA
ATOM     72  O   UNL A   1      45.697  28.146  39.664  1.00  0.00    -0.744 OA
ENDBRANCH  68  69
ENDBRANCH  47  61
BRANCH  48  73
ATOM     73  C   UNL A   1      40.106  28.665  28.555  1.00  0.00     0.058 A 
ATOM     74  C   UNL A   1      40.628  28.397  27.278  1.00  0.00     0.135 A 
ATOM     75  C   UNL A   1      39.536  27.566  29.234  1.00  0.00     0.135 A 
ATOM     76  F   UNL A   1      41.214  29.376  26.572  1.00  0.00    -0.206 F 
ATOM     77  C   UNL A   1      40.623  27.111  26.724  1.00  0.00     0.059 A 
ATOM     78  C   UNL A   1      39.506  26.281  28.697  1.00  0.00     0.059 A 
ATOM     79  F   UNL A   1      39.070  27.686  30.486  1.00  0.00    -0.206 F 
ATOM     80  C   UNL A   1      40.075  26.054  27.451  1.00  0.00     0.060 A 
BRANCH  80  81
ATOM     81  S   UNL A   1      40.219  24.366  26.821  1.00  0.00     0.124 S 
ATOM     82  O   UNL A   1      41.406  24.460  25.978  1.00  0.00    -0.237 OA
ATOM     83  O   UNL A   1      40.368  23.592  28.049  1.00  0.00    -0.237 OA
ATOM     84  O   UNL A   1      38.961  24.161  26.108  1.00  0.00    -0.744 OA
ENDBRANCH  80  81
ENDBRANCH  48  73
BRANCH  60  85
ATOM     85  C   UNL A   1      43.094  34.060  30.220  1.00  0.00     0.058 A 
ATOM     86  C   UNL A   1      41.878  34.692  29.896  1.00  0.00     0.135 A 
ATOM     87  C   UNL A   1      44.259  34.598  29.654  1.00  0.00     0.135 A 
ATOM     88  F   UNL A   1      40.731  34.314  30.476  1.00  0.00    -0.206 F 
ATOM     89  C   UNL A   1      41.820  35.778  29.021  1.00  0.00     0.059 A 
ATOM     90  C   UNL A   1      44.229  35.702  28.803  1.00  0.00     0.059 A 
ATOM     91  F   UNL A   1      45.459  34.086  29.972  1.00  0.00    -0.206 F 
ATOM     92  C   UNL A   1      43.003  36.279  28.480  1.00  0.00     0.060 A 
BRANCH  92  93
ATOM     93  S   UNL A   1      42.934  37.740  27.418  1.00  0.00     0.124 S 
ATOM     94  O   UNL A   1      41.867  37.391  26.485  1.00  0.00    -0.237 OA
ATOM     95  O   UNL A   1      42.624  38.808  28.364  1.00  0.00    -0.237 OA
ATOM     96  O   UNL A   1      44.274  37.804  26.839  1.00  0.00    -0.744 OA
ENDBRANCH  92  93
ENDBRANCH  60  85
ENDBRANCH  34  35
ENDBRANCH  27  29
ENDBRANCH  26  27
ENDBRANCH  25  26
ENDBRANCH  24  25
ENDBRANCH  23  24
ENDBRANCH   1  23
TORSDOF 22
ENDMDL
MODEL 3
REMARK VINA RESULT:     -10.1      1.324      2.290
REMARK SMILES CCc1nn(-c2ccncn2)c(Cl)c1C(=O)OCCOCCOCCOC(=O)c1ccc(-c2c3nc(c(-c4c(F)cc(S(=O)(=O)[O-])cc4F)c4ccc([nH]4)c(-c4c(F)cc(S(=O)(=O)[O-])cc4F)c4nc(c(-c5c(F)cc(S(=O)(=O)[O-])cc5F)c5ccc2[nH]5)C=C4)C=C3)cc1
REMARK SMILES IDX 22 1 21 2 20 3 19 4 18 5 17 6 15 7 16 8 14 9 3 10 4 11 5 12
REMARK SMILES IDX 12 13 13 14 2 15 1 16 6 17 7 18 11 19 8 20 10 21 9 22 23 23
REMARK SMILES IDX 24 24 25 25 26 26 27 27 28 28 29 29 30 30 94 31 31 32 93 33
REMARK SMILES IDX 32 34 33 35 34 36 87 37 35 38 92 39 86 40 88 41 36 42 91 43
REMARK SMILES IDX 85 44 84 45 37 47 71 48 50 49 70 50 51 51 54 52 69 53 89 54
REMARK SMILES IDX 52 55 53 56 68 58 90 59 55 60 38 61 39 62 48 63 40 64 41 65
REMARK SMILES IDX 47 66 49 67 42 68 43 69 44 70 45 71 46 72 72 73 73 74 82 75
REMARK SMILES IDX 74 76 75 77 81 78 83 79 76 80 77 81 78 82 79 83 80 84 56 85
REMARK SMILES IDX 57 86 66 87 58 88 59 89 65 90 67 91 60 92 61 93 62 94 63 95
REMARK SMILES IDX 64 96
REMARK H PARENT 88 46 54 57
REMARK Flexibility Score: inf
ROOT
ATOM      1  C   UNL A   1      31.341  28.570  24.804  1.00  0.00     0.188 C 
ENDROOT
BRANCH   1   2
ATOM      2  C   UNL A   1      31.808  27.773  23.563  1.00  0.00     0.188 C 
BRANCH   2   3
ATOM      3  O   UNL A   1      33.015  27.022  23.586  1.00  0.00    -0.376 OA
BRANCH   3   4
ATOM      4  C   UNL A   1      33.365  26.189  22.490  1.00  0.00     0.202 C 
BRANCH   4   5
ATOM      5  C   UNL A   1      33.495  24.661  22.665  1.00  0.00     0.261 C 
BRANCH   5   6
ATOM      6  O   UNL A   1      32.705  24.092  23.719  1.00  0.00    -0.460 OA
BRANCH   6   7
ATOM      7  C   UNL A   1      33.325  23.932  24.925  1.00  0.00     0.343 C 
ATOM      8  O   UNL A   1      33.101  24.602  25.907  1.00  0.00    -0.246 OA
BRANCH   7   9
ATOM      9  C   UNL A   1      34.198  22.767  24.935  1.00  0.00     0.120 A 
ATOM     10  C   UNL A   1      33.928  21.372  24.814  1.00  0.00     0.079 A 
ATOM     11  N   UNL A   1      35.051  20.635  24.885  1.00  0.00    -0.169 NA
ATOM     12  N   UNL A   1      36.041  21.533  25.140  1.00  0.00    -0.203 N 
ATOM     13  C   UNL A   1      35.549  22.813  25.189  1.00  0.00     0.149 A 
ATOM     14  Cl  UNL A   1      36.570  24.141  25.539  1.00  0.00    -0.061 Cl
BRANCH  10  15
ATOM     15  C   UNL A   1      32.598  20.689  24.690  1.00  0.00     0.056 C 
ATOM     16  C   UNL A   1      32.644  19.369  23.935  1.00  0.00     0.011 C 
ENDBRANCH  10  15
BRANCH  12  17
ATOM     17  C   UNL A   1      37.390  21.124  25.301  1.00  0.00     0.158 A 
ATOM     18  C   UNL A   1      37.732  19.825  24.966  1.00  0.00     0.069 A 
ATOM     19  N   UNL A   1      38.241  21.993  25.894  1.00  0.00    -0.217 NA
ATOM     20  C   UNL A   1      39.013  19.449  25.295  1.00  0.00     0.117 A 
ATOM     21  C   UNL A   1      39.450  21.502  26.186  1.00  0.00     0.224 A 
ATOM     22  N   UNL A   1      39.886  20.262  25.920  1.00  0.00    -0.245 NA
ENDBRANCH  12  17
ENDBRANCH   7   9
ENDBRANCH   6   7
ENDBRANCH   5   6
ENDBRANCH   4   5
ENDBRANCH   3   4
ENDBRANCH   2   3
ENDBRANCH   1   2
BRANCH   1  23
ATOM     23  O   UNL A   1      32.256  29.553  25.248  1.00  0.00    -0.376 OA
BRANCH  23  24
ATOM     24  C   UNL A   1      32.741  29.515  26.582  1.00  0.00     0.202 C 
BRANCH  24  25
ATOM     25  C   UNL A   1      33.514  30.692  27.180  1.00  0.00     0.261 C 
BRANCH  25  26
ATOM     26  O   UNL A   1      34.905  30.494  27.317  1.00  0.00    -0.460 OA
BRANCH  26  27
ATOM     27  C   UNL A   1      35.569  31.521  27.882  1.00  0.00     0.338 C 
ATOM     28  O   UNL A   1      35.495  32.698  27.572  1.00  0.00    -0.246 OA
BRANCH  27  29
ATOM     29  C   UNL A   1      36.440  30.981  28.928  1.00  0.00     0.060 A 
ATOM     30  C   UNL A   1      37.400  31.852  29.445  1.00  0.00     0.016 A 
ATOM     31  C   UNL A   1      36.516  29.589  29.086  1.00  0.00     0.016 A 
ATOM     32  C   UNL A   1      38.595  31.310  29.846  1.00  0.00     0.010 A 
ATOM     33  C   UNL A   1      37.716  29.050  29.464  1.00  0.00     0.010 A 
ATOM     34  C   UNL A   1      38.766  29.929  29.717  1.00  0.00    -0.014 A 
BRANCH  34  35
ATOM     35  C   UNL A   1      40.116  29.426  29.774  1.00  0.00     0.031 A 
ATOM     36  C   UNL A   1      40.643  29.297  31.144  1.00  0.00     0.074 A 
ATOM     37  C   UNL A   1      40.755  29.049  28.651  1.00  0.00     0.049 A 
ATOM     38  N   UNL A   1      41.625  29.934  31.689  1.00  0.00    -0.248 NA
ATOM     39  C   UNL A   1      39.863  28.467  32.076  1.00  0.00     0.031 C 
ATOM     40  C   UNL A   1      40.197  28.865  27.305  1.00  0.00     0.029 A 
ATOM     41  N   UNL A   1      42.036  28.637  28.505  1.00  0.00    -0.354 N 
ATOM     42  C   UNL A   1      41.719  29.419  32.976  1.00  0.00     0.074 A 
ATOM     43  C   UNL A   1      40.509  28.682  33.220  1.00  0.00     0.031 C 
ATOM     44  C   UNL A   1      41.076  28.163  26.555  1.00  0.00     0.029 A 
ATOM     45  C   UNL A   1      42.291  27.958  27.324  1.00  0.00     0.049 A 
ATOM     46  H   UNL A   1      42.731  28.807  29.183  1.00  0.00     0.167 HD
ATOM     47  C   UNL A   1      42.892  29.424  33.664  1.00  0.00     0.037 A 
ATOM     48  C   UNL A   1      43.384  27.195  27.072  1.00  0.00     0.037 A 
ATOM     49  C   UNL A   1      43.821  30.383  33.130  1.00  0.00     0.049 A 
ATOM     50  C   UNL A   1      44.430  27.591  28.060  1.00  0.00     0.074 A 
ATOM     51  C   UNL A   1      43.795  31.756  32.976  1.00  0.00     0.029 A 
ATOM     52  N   UNL A   1      44.820  29.931  32.302  1.00  0.00    -0.354 N 
ATOM     53  N   UNL A   1      45.009  28.762  28.085  1.00  0.00    -0.248 NA
ATOM     54  C   UNL A   1      44.498  26.843  29.308  1.00  0.00     0.031 C 
ATOM     55  C   UNL A   1      44.444  32.005  31.732  1.00  0.00     0.029 A 
ATOM     56  C   UNL A   1      44.872  30.779  31.220  1.00  0.00     0.049 A 
ATOM     57  H   UNL A   1      45.393  29.146  32.455  1.00  0.00     0.167 HD
ATOM     58  C   UNL A   1      45.157  29.067  29.433  1.00  0.00     0.074 A 
ATOM     59  C   UNL A   1      44.901  27.813  30.134  1.00  0.00     0.031 C 
ATOM     60  C   UNL A   1      45.197  30.361  29.870  1.00  0.00     0.037 A 
BRANCH  47  61
ATOM     61  C   UNL A   1      43.275  28.320  34.611  1.00  0.00     0.058 A 
ATOM     62  C   UNL A   1      43.561  28.613  35.956  1.00  0.00     0.135 A 
ATOM     63  C   UNL A   1      43.595  27.009  34.186  1.00  0.00     0.135 A 
ATOM     64  F   UNL A   1      43.329  29.839  36.451  1.00  0.00    -0.206 F 
ATOM     65  C   UNL A   1      44.151  27.678  36.808  1.00  0.00     0.059 A 
ATOM     66  C   UNL A   1      44.120  26.044  35.032  1.00  0.00     0.059 A 
ATOM     67  F   UNL A   1      43.505  26.631  32.904  1.00  0.00    -0.206 F 
ATOM     68  C   UNL A   1      44.434  26.399  36.332  1.00  0.00     0.060 A 
BRANCH  68  69
ATOM     69  S   UNL A   1      45.280  25.219  37.395  1.00  0.00     0.124 S 
ATOM     70  O   UNL A   1      44.176  24.715  38.203  1.00  0.00    -0.237 OA
ATOM     71  O   UNL A   1      45.845  24.285  36.425  1.00  0.00    -0.237 OA
ATOM     72  O   UNL A   1      46.256  26.044  38.101  1.00  0.00    -0.744 OA
ENDBRANCH  68  69
ENDBRANCH  47  61
BRANCH  48  73
ATOM     73  C   UNL A   1      43.422  25.905  26.333  1.00  0.00     0.058 A 
ATOM     74  C   UNL A   1      44.391  25.663  25.343  1.00  0.00     0.135 A 
ATOM     75  C   UNL A   1      42.683  24.782  26.764  1.00  0.00     0.135 A 
ATOM     76  F   UNL A   1      45.159  26.666  24.894  1.00  0.00    -0.206 F 
ATOM     77  C   UNL A   1      44.641  24.379  24.842  1.00  0.00     0.059 A 
ATOM     78  C   UNL A   1      42.903  23.499  26.269  1.00  0.00     0.059 A 
ATOM     79  F   UNL A   1      41.782  24.879  27.752  1.00  0.00    -0.206 F 
ATOM     80  C   UNL A   1      43.902  23.300  25.326  1.00  0.00     0.060 A 
BRANCH  80  81
ATOM     81  S   UNL A   1      44.334  21.621  24.813  1.00  0.00     0.124 S 
ATOM     82  O   UNL A   1      43.239  20.842  25.382  1.00  0.00    -0.237 OA
ATOM     83  O   UNL A   1      44.346  21.737  23.359  1.00  0.00    -0.237 OA
ATOM     84  O   UNL A   1      45.640  21.403  25.428  1.00  0.00    -0.744 OA
ENDBRANCH  80  81
ENDBRANCH  48  73
BRANCH  60  85
ATOM     85  C   UNL A   1      45.346  31.456  28.841  1.00  0.00     0.058 A 
ATOM     86  C   UNL A   1      44.263  32.088  28.199  1.00  0.00     0.135 A 
ATOM     87  C   UNL A   1      46.620  31.996  28.612  1.00  0.00     0.135 A 
ATOM     88  F   UNL A   1      43.002  31.708  28.446  1.00  0.00    -0.206 F 
ATOM     89  C   UNL A   1      44.443  33.174  27.341  1.00  0.00     0.059 A 
ATOM     90  C   UNL A   1      46.821  33.100  27.786  1.00  0.00     0.059 A 
ATOM     91  F   UNL A   1      47.690  31.484  29.245  1.00  0.00    -0.206 F 
ATOM     92  C   UNL A   1      45.728  33.676  27.142  1.00  0.00     0.060 A 
BRANCH  92  93
ATOM     93  S   UNL A   1      45.949  35.137  26.101  1.00  0.00     0.124 S 
ATOM     94  O   UNL A   1      47.311  35.546  26.432  1.00  0.00    -0.237 OA
ATOM     95  O   UNL A   1      45.758  34.603  24.756  1.00  0.00    -0.237 OA
ATOM     96  O   UNL A   1      44.897  36.043  26.557  1.00  0.00    -0.744 OA
ENDBRANCH  92  93
ENDBRANCH  60  85
ENDBRANCH  34  35
ENDBRANCH  27  29
ENDBRANCH  26  27
ENDBRANCH  25  26
ENDBRANCH  24  25
ENDBRANCH  23  24
ENDBRANCH   1  23
TORSDOF 22
ENDMDL
