MODEL 1
REMARK VINA RESULT:     -10.0      0.000      0.000
REMARK SMILES O=C(N[C@@H](Cc1ccc(O)cc1)C(=O)N[C@@H](CO)C(=O)OCCOCCOCCOC(=O)c1ccc(-c2c3nc(c(-c4c(F)cc(S(=O)(=O)[O-])cc4F)c4ccc([nH]4)c(-c4c(F)cc(S(=O)(=O)[O-])cc4F)c4nc(c(-c5c(F)cc(S(=O)(=O)[O-])cc5F)c5ccc2[nH]5)C=C4)C=C3)cc1)c1ccc(F)cc1
REMARK SMILES IDX 25 1 24 2 23 3 22 4 21 5 19 6 20 7 16 8 15 9 13 10 14 11
REMARK SMILES IDX 4 13 3 14 1 15 2 16 99 18 100 19 105 20 101 21 104 22 102 23
REMARK SMILES IDX 103 24 5 25 6 26 7 27 12 28 8 29 11 30 9 31 10 32 17 34
REMARK SMILES IDX 18 35 26 37 27 38 28 39 29 40 30 41 31 42 32 43 33 44 34 45
REMARK SMILES IDX 98 46 35 47 97 48 36 49 37 50 38 51 91 52 39 53 96 54 90 55
REMARK SMILES IDX 92 56 40 57 95 58 89 59 88 60 41 62 75 63 54 64 74 65 55 66
REMARK SMILES IDX 58 67 73 68 93 69 56 70 57 71 72 73 94 74 59 75 42 76 43 77
REMARK SMILES IDX 52 78 44 79 45 80 51 81 53 82 46 83 47 84 48 85 49 86 50 87
REMARK SMILES IDX 76 88 77 89 86 90 78 91 79 92 85 93 87 94 80 95 81 96 82 97
REMARK SMILES IDX 83 98 84 99 60 100 61 101 70 102 62 103 63 104 69 105 71 106
REMARK SMILES IDX 64 107 65 108 66 109 67 110 68 111
REMARK H PARENT 15 12 3 17 10 33 18 36 92 61 58 72
REMARK Flexibility Score: inf
ROOT
ATOM      1  C   UNL A   1      39.501  21.253  25.773  1.00  0.00     0.188 C 
ENDROOT
BRANCH   1   2
ATOM      2  O   UNL A   1      38.259  21.016  25.111  1.00  0.00    -0.376 OA
BRANCH   2   3
ATOM      3  C   UNL A   1      37.124  21.578  25.766  1.00  0.00     0.202 C 
BRANCH   3   4
ATOM      4  C   UNL A   1      35.859  20.788  25.444  1.00  0.00     0.261 C 
BRANCH   4   5
ATOM      5  O   UNL A   1      34.729  21.658  25.227  1.00  0.00    -0.462 OA
BRANCH   5   6
ATOM      6  C   UNL A   1      33.964  21.969  26.317  1.00  0.00     0.331 C 
ATOM      7  O   UNL A   1      34.379  22.590  27.288  1.00  0.00    -0.250 OA
BRANCH   6   8
ATOM      8  C   UNL A   1      32.551  21.347  26.206  1.00  0.00     0.218 C 
BRANCH   8   9
ATOM      9  N   UNL A   1      31.548  22.170  26.906  1.00  0.00    -0.339 N 
ATOM     10  C   UNL A   1      30.985  23.377  26.670  1.00  0.00     0.243 C 
ATOM     11  O   UNL A   1      29.952  23.608  27.314  1.00  0.00    -0.273 OA
ATOM     12  H   UNL A   1      31.213  21.746  27.728  1.00  0.00     0.164 HD
BRANCH  10  13
ATOM     13  C   UNL A   1      31.473  24.428  25.648  1.00  0.00     0.176 C 
BRANCH  13  14
ATOM     14  N   UNL A   1      32.920  24.517  25.472  1.00  0.00    -0.340 N 
ATOM     15  O   UNL A   1      34.866  25.618  25.147  1.00  0.00    -0.269 OA
ATOM     16  C   UNL A   1      33.683  25.668  25.468  1.00  0.00     0.251 C 
ATOM     17  H   UNL A   1      33.401  23.669  25.344  1.00  0.00     0.164 HD
BRANCH  16  18
ATOM     18  C   UNL A   1      33.076  26.979  25.821  1.00  0.00     0.040 A 
ATOM     19  C   UNL A   1      33.340  28.126  25.059  1.00  0.00     0.017 A 
ATOM     20  C   UNL A   1      32.214  27.053  26.923  1.00  0.00     0.017 A 
ATOM     21  C   UNL A   1      32.793  29.356  25.437  1.00  0.00     0.040 A 
ATOM     22  C   UNL A   1      31.659  28.283  27.290  1.00  0.00     0.040 A 
ATOM     23  C   UNL A   1      31.960  29.422  26.549  1.00  0.00     0.123 A 
ATOM     24  F   UNL A   1      31.434  30.602  26.905  1.00  0.00    -0.207 F 
ENDBRANCH  16  18
ENDBRANCH  13  14
BRANCH  13  25
ATOM     25  C   UNL A   1      30.686  24.535  24.334  1.00  0.00     0.070 C 
BRANCH  25  26
ATOM     26  C   UNL A   1      30.643  25.870  23.646  1.00  0.00    -0.045 A 
ATOM     27  C   UNL A   1      29.759  26.854  24.107  1.00  0.00     0.007 A 
ATOM     28  C   UNL A   1      31.480  26.161  22.563  1.00  0.00     0.007 A 
ATOM     29  C   UNL A   1      29.639  28.073  23.442  1.00  0.00     0.046 A 
ATOM     30  C   UNL A   1      31.374  27.390  21.908  1.00  0.00     0.046 A 
ATOM     31  C   UNL A   1      30.427  28.317  22.326  1.00  0.00     0.115 A 
BRANCH  31  32
ATOM     32  O   UNL A   1      30.286  29.459  21.599  1.00  0.00    -0.508 OA
ATOM     33  H   UNL A   1      30.640  29.508  20.732  1.00  0.00     0.293 HD
ENDBRANCH  31  32
ENDBRANCH  25  26
ENDBRANCH  13  25
ENDBRANCH  10  13
ENDBRANCH   8   9
BRANCH   8  34
ATOM     34  C   UNL A   1      32.219  21.244  24.714  1.00  0.00     0.193 C 
BRANCH  34  35
ATOM     35  O   UNL A   1      32.523  19.944  24.200  1.00  0.00    -0.394 OA
ATOM     36  H   UNL A   1      31.740  19.375  24.277  1.00  0.00     0.210 HD
ENDBRANCH  34  35
ENDBRANCH   8  34
ENDBRANCH   6   8
ENDBRANCH   5   6
ENDBRANCH   4   5
ENDBRANCH   3   4
ENDBRANCH   2   3
ENDBRANCH   1   2
BRANCH   1  37
ATOM     37  C   UNL A   1      40.175  19.950  26.221  1.00  0.00     0.188 C 
BRANCH  37  38
ATOM     38  O   UNL A   1      41.358  20.067  27.008  1.00  0.00    -0.376 OA
BRANCH  38  39
ATOM     39  C   UNL A   1      42.256  18.962  27.003  1.00  0.00     0.202 C 
BRANCH  39  40
ATOM     40  C   UNL A   1      42.782  18.560  25.626  1.00  0.00     0.261 C 
BRANCH  40  41
ATOM     41  O   UNL A   1      44.219  18.629  25.548  1.00  0.00    -0.460 OA
BRANCH  41  42
ATOM     42  C   UNL A   1      44.696  19.540  24.669  1.00  0.00     0.338 C 
ATOM     43  O   UNL A   1      45.287  19.325  23.621  1.00  0.00    -0.246 OA
BRANCH  42  44
ATOM     44  C   UNL A   1      44.402  20.903  25.133  1.00  0.00     0.060 A 
ATOM     45  C   UNL A   1      43.834  21.819  24.242  1.00  0.00     0.016 A 
ATOM     46  C   UNL A   1      44.888  21.324  26.372  1.00  0.00     0.016 A 
ATOM     47  C   UNL A   1      43.799  23.178  24.576  1.00  0.00     0.010 A 
ATOM     48  C   UNL A   1      44.846  22.682  26.702  1.00  0.00     0.010 A 
ATOM     49  C   UNL A   1      44.337  23.623  25.790  1.00  0.00    -0.014 A 
BRANCH  49  50
ATOM     50  C   UNL A   1      44.565  25.071  26.033  1.00  0.00     0.031 A 
ATOM     51  C   UNL A   1      45.943  25.626  25.798  1.00  0.00     0.074 A 
ATOM     52  C   UNL A   1      43.583  25.894  26.440  1.00  0.00     0.049 A 
ATOM     53  N   UNL A   1      46.458  26.764  26.181  1.00  0.00    -0.248 NA
ATOM     54  C   UNL A   1      46.860  24.778  25.020  1.00  0.00     0.031 C 
ATOM     55  C   UNL A   1      42.173  25.538  26.574  1.00  0.00     0.029 A 
ATOM     56  N   UNL A   1      43.639  27.209  26.835  1.00  0.00    -0.354 N 
ATOM     57  C   UNL A   1      47.772  26.752  25.730  1.00  0.00     0.074 A 
ATOM     58  C   UNL A   1      47.970  25.501  25.031  1.00  0.00     0.031 C 
ATOM     59  C   UNL A   1      41.498  26.604  27.041  1.00  0.00     0.029 A 
ATOM     60  C   UNL A   1      42.440  27.691  27.306  1.00  0.00     0.049 A 
ATOM     61  H   UNL A   1      44.457  27.753  26.785  1.00  0.00     0.167 HD
ATOM     62  C   UNL A   1      48.733  27.692  25.900  1.00  0.00     0.037 A 
ATOM     63  C   UNL A   1      42.152  28.851  27.932  1.00  0.00     0.037 A 
ATOM     64  C   UNL A   1      48.530  28.939  26.590  1.00  0.00     0.049 A 
ATOM     65  C   UNL A   1      43.257  29.837  28.221  1.00  0.00     0.074 A 
ATOM     66  C   UNL A   1      49.452  29.931  26.870  1.00  0.00     0.029 A 
ATOM     67  N   UNL A   1      47.314  29.366  27.099  1.00  0.00    -0.354 N 
ATOM     68  N   UNL A   1      44.527  29.776  27.896  1.00  0.00    -0.248 NA
ATOM     69  C   UNL A   1      42.894  31.039  28.990  1.00  0.00     0.031 C 
ATOM     70  C   UNL A   1      48.798  30.948  27.576  1.00  0.00     0.029 A 
ATOM     71  C   UNL A   1      47.461  30.605  27.698  1.00  0.00     0.049 A 
ATOM     72  H   UNL A   1      46.469  28.864  27.043  1.00  0.00     0.167 HD
ATOM     73  C   UNL A   1      45.106  30.939  28.396  1.00  0.00     0.074 A 
ATOM     74  C   UNL A   1      44.051  31.686  29.047  1.00  0.00     0.031 C 
ATOM     75  C   UNL A   1      46.396  31.349  28.322  1.00  0.00     0.037 A 
BRANCH  62  76
ATOM     76  C   UNL A   1      50.107  27.366  25.390  1.00  0.00     0.058 A 
ATOM     77  C   UNL A   1      51.120  26.889  26.235  1.00  0.00     0.135 A 
ATOM     78  C   UNL A   1      50.414  27.552  24.033  1.00  0.00     0.135 A 
ATOM     79  F   UNL A   1      50.881  26.717  27.545  1.00  0.00    -0.206 F 
ATOM     80  C   UNL A   1      52.403  26.642  25.759  1.00  0.00     0.059 A 
ATOM     81  C   UNL A   1      51.685  27.288  23.530  1.00  0.00     0.059 A 
ATOM     82  F   UNL A   1      49.481  28.009  23.184  1.00  0.00    -0.206 F 
ATOM     83  C   UNL A   1      52.678  26.854  24.406  1.00  0.00     0.060 A 
BRANCH  83  84
ATOM     84  S   UNL A   1      54.355  26.564  23.803  1.00  0.00     0.124 S 
ATOM     85  O   UNL A   1      54.125  26.423  22.368  1.00  0.00    -0.237 OA
ATOM     86  O   UNL A   1      55.054  27.776  24.216  1.00  0.00    -0.237 OA
ATOM     87  O   UNL A   1      54.758  25.346  24.497  1.00  0.00    -0.744 OA
ENDBRANCH  83  84
ENDBRANCH  62  76
BRANCH  63  88
ATOM     88  C   UNL A   1      40.763  29.125  28.387  1.00  0.00     0.058 A 
ATOM     89  C   UNL A   1      39.747  29.419  27.467  1.00  0.00     0.135 A 
ATOM     90  C   UNL A   1      40.427  29.107  29.750  1.00  0.00     0.135 A 
ATOM     91  F   UNL A   1      40.025  29.467  26.155  1.00  0.00    -0.206 F 
ATOM     92  C   UNL A   1      38.447  29.692  27.880  1.00  0.00     0.059 A 
ATOM     93  C   UNL A   1      39.129  29.352  30.186  1.00  0.00     0.059 A 
ATOM     94  F   UNL A   1      41.363  28.830  30.670  1.00  0.00    -0.206 F 
ATOM     95  C   UNL A   1      38.148  29.653  29.243  1.00  0.00     0.060 A 
BRANCH  95  96
ATOM     96  S   UNL A   1      36.445  29.955  29.768  1.00  0.00     0.124 S 
ATOM     97  O   UNL A   1      36.400  29.240  31.038  1.00  0.00    -0.237 OA
ATOM     98  O   UNL A   1      36.402  31.410  29.852  1.00  0.00    -0.237 OA
ATOM     99  O   UNL A   1      35.655  29.373  28.687  1.00  0.00    -0.744 OA
ENDBRANCH  95  96
ENDBRANCH  63  88
BRANCH  75 100
ATOM    100  C   UNL A   1      46.742  32.690  28.908  1.00  0.00     0.058 A 
ATOM    101  C   UNL A   1      46.637  33.871  28.159  1.00  0.00     0.135 A 
ATOM    102  C   UNL A   1      47.103  32.799  30.261  1.00  0.00     0.135 A 
ATOM    103  F   UNL A   1      46.303  33.821  26.860  1.00  0.00    -0.206 F 
ATOM    104  C   UNL A   1      46.881  35.116  28.731  1.00  0.00     0.059 A 
ATOM    105  C   UNL A   1      47.333  34.034  30.858  1.00  0.00     0.059 A 
ATOM    106  F   UNL A   1      47.208  31.698  31.022  1.00  0.00    -0.206 F 
ATOM    107  C   UNL A   1      47.224  35.188  30.083  1.00  0.00     0.060 A 
BRANCH 107 108
ATOM    108  S   UNL A   1      47.478  36.812  30.832  1.00  0.00     0.124 S 
ATOM    109  O   UNL A   1      46.264  37.515  30.430  1.00  0.00    -0.237 OA
ATOM    110  O   UNL A   1      47.581  36.490  32.253  1.00  0.00    -0.237 OA
ATOM    111  O   UNL A   1      48.713  37.282  30.212  1.00  0.00    -0.744 OA
ENDBRANCH 107 108
ENDBRANCH  75 100
ENDBRANCH  49  50
ENDBRANCH  42  44
ENDBRANCH  41  42
ENDBRANCH  40  41
ENDBRANCH  39  40
ENDBRANCH  38  39
ENDBRANCH  37  38
ENDBRANCH   1  37
TORSDOF 29
ENDMDL
MODEL 2
REMARK VINA RESULT:      -9.6      5.898     10.190
REMARK SMILES O=C(N[C@@H](Cc1ccc(O)cc1)C(=O)N[C@@H](CO)C(=O)OCCOCCOCCOC(=O)c1ccc(-c2c3nc(c(-c4c(F)cc(S(=O)(=O)[O-])cc4F)c4ccc([nH]4)c(-c4c(F)cc(S(=O)(=O)[O-])cc4F)c4nc(c(-c5c(F)cc(S(=O)(=O)[O-])cc5F)c5ccc2[nH]5)C=C4)C=C3)cc1)c1ccc(F)cc1
REMARK SMILES IDX 25 1 24 2 23 3 22 4 21 5 19 6 20 7 16 8 15 9 13 10 14 11
REMARK SMILES IDX 4 13 3 14 1 15 2 16 99 18 100 19 105 20 101 21 104 22 102 23
REMARK SMILES IDX 103 24 5 25 6 26 7 27 12 28 8 29 11 30 9 31 10 32 17 34
REMARK SMILES IDX 18 35 26 37 27 38 28 39 29 40 30 41 31 42 32 43 33 44 34 45
REMARK SMILES IDX 98 46 35 47 97 48 36 49 37 50 38 51 91 52 39 53 96 54 90 55
REMARK SMILES IDX 92 56 40 57 95 58 89 59 88 60 41 62 75 63 54 64 74 65 55 66
REMARK SMILES IDX 58 67 73 68 93 69 56 70 57 71 72 73 94 74 59 75 42 76 43 77
REMARK SMILES IDX 52 78 44 79 45 80 51 81 53 82 46 83 47 84 48 85 49 86 50 87
REMARK SMILES IDX 76 88 77 89 86 90 78 91 79 92 85 93 87 94 80 95 81 96 82 97
REMARK SMILES IDX 83 98 84 99 60 100 61 101 70 102 62 103 63 104 69 105 71 106
REMARK SMILES IDX 64 107 65 108 66 109 67 110 68 111
REMARK H PARENT 15 12 3 17 10 33 18 36 92 61 58 72
REMARK Flexibility Score: inf
ROOT
ATOM      1  C   UNL A   1      38.997  21.910  25.802  1.00  0.00     0.188 C 
ENDROOT
BRANCH   1   2
ATOM      2  O   UNL A   1      37.956  20.966  25.557  1.00  0.00    -0.376 OA
BRANCH   2   3
ATOM      3  C   UNL A   1      36.642  21.521  25.555  1.00  0.00     0.202 C 
BRANCH   3   4
ATOM      4  C   UNL A   1      35.701  20.698  24.680  1.00  0.00     0.261 C 
BRANCH   4   5
ATOM      5  O   UNL A   1      34.374  20.633  25.241  1.00  0.00    -0.462 OA
BRANCH   5   6
ATOM      6  C   UNL A   1      33.528  19.687  24.733  1.00  0.00     0.331 C 
ATOM      7  O   UNL A   1      33.835  18.513  24.566  1.00  0.00    -0.250 OA
BRANCH   6   8
ATOM      8  C   UNL A   1      32.179  20.315  24.301  1.00  0.00     0.218 C 
BRANCH   8   9
ATOM      9  N   UNL A   1      31.629  21.181  25.360  1.00  0.00    -0.339 N 
ATOM     10  C   UNL A   1      31.404  22.510  25.472  1.00  0.00     0.243 C 
ATOM     11  O   UNL A   1      30.643  22.836  26.393  1.00  0.00    -0.273 OA
ATOM     12  H   UNL A   1      31.368  20.679  26.165  1.00  0.00     0.164 HD
BRANCH  10  13
ATOM     13  C   UNL A   1      31.948  23.610  24.535  1.00  0.00     0.176 C 
BRANCH  13  14
ATOM     14  N   UNL A   1      33.303  23.401  24.032  1.00  0.00    -0.340 N 
ATOM     15  O   UNL A   1      35.322  24.082  23.277  1.00  0.00    -0.269 OA
ATOM     16  C   UNL A   1      34.280  24.363  23.862  1.00  0.00     0.251 C 
ATOM     17  H   UNL A   1      33.547  22.479  23.789  1.00  0.00     0.164 HD
BRANCH  16  18
ATOM     18  C   UNL A   1      34.069  25.750  24.356  1.00  0.00     0.040 A 
ATOM     19  C   UNL A   1      34.088  26.841  23.475  1.00  0.00     0.017 A 
ATOM     20  C   UNL A   1      33.831  25.955  25.721  1.00  0.00     0.017 A 
ATOM     21  C   UNL A   1      33.931  28.139  23.970  1.00  0.00     0.040 A 
ATOM     22  C   UNL A   1      33.663  27.255  26.209  1.00  0.00     0.040 A 
ATOM     23  C   UNL A   1      33.723  28.333  25.332  1.00  0.00     0.123 A 
ATOM     24  F   UNL A   1      33.569  29.578  25.801  1.00  0.00    -0.207 F 
ENDBRANCH  16  18
ENDBRANCH  13  14
BRANCH  13  25
ATOM     25  C   UNL A   1      30.980  24.165  23.479  1.00  0.00     0.070 C 
BRANCH  25  26
ATOM     26  C   UNL A   1      30.724  25.644  23.467  1.00  0.00    -0.045 A 
ATOM     27  C   UNL A   1      30.843  26.354  22.265  1.00  0.00     0.007 A 
ATOM     28  C   UNL A   1      30.351  26.332  24.628  1.00  0.00     0.007 A 
ATOM     29  C   UNL A   1      30.689  27.739  22.236  1.00  0.00     0.046 A 
ATOM     30  C   UNL A   1      30.179  27.717  24.596  1.00  0.00     0.046 A 
ATOM     31  C   UNL A   1      30.389  28.413  23.412  1.00  0.00     0.115 A 
BRANCH  31  32
ATOM     32  O   UNL A   1      30.311  29.771  23.447  1.00  0.00    -0.508 OA
ATOM     33  H   UNL A   1      30.798  30.252  24.086  1.00  0.00     0.293 HD
ENDBRANCH  31  32
ENDBRANCH  25  26
ENDBRANCH  13  25
ENDBRANCH  10  13
ENDBRANCH   8   9
BRANCH   8  34
ATOM     34  C   UNL A   1      32.445  21.123  23.027  1.00  0.00     0.193 C 
BRANCH  34  35
ATOM     35  O   UNL A   1      31.451  20.867  22.031  1.00  0.00    -0.394 OA
ATOM     36  H   UNL A   1      31.869  20.464  21.253  1.00  0.00     0.210 HD
ENDBRANCH  34  35
ENDBRANCH   8  34
ENDBRANCH   6   8
ENDBRANCH   5   6
ENDBRANCH   4   5
ENDBRANCH   3   4
ENDBRANCH   2   3
ENDBRANCH   1   2
BRANCH   1  37
ATOM     37  C   UNL A   1      40.275  21.240  26.321  1.00  0.00     0.188 C 
BRANCH  37  38
ATOM     38  O   UNL A   1      41.131  22.023  27.149  1.00  0.00    -0.376 OA
BRANCH  38  39
ATOM     39  C   UNL A   1      42.067  22.875  26.496  1.00  0.00     0.202 C 
BRANCH  39  40
ATOM     40  C   UNL A   1      41.566  24.290  26.209  1.00  0.00     0.261 C 
BRANCH  40  41
ATOM     41  O   UNL A   1      42.639  25.195  25.883  1.00  0.00    -0.460 OA
BRANCH  41  42
ATOM     42  C   UNL A   1      42.312  26.506  25.941  1.00  0.00     0.338 C 
ATOM     43  O   UNL A   1      41.957  27.227  25.021  1.00  0.00    -0.246 OA
BRANCH  42  44
ATOM     44  C   UNL A   1      42.428  27.002  27.321  1.00  0.00     0.060 A 
ATOM     45  C   UNL A   1      41.853  26.266  28.360  1.00  0.00     0.016 A 
ATOM     46  C   UNL A   1      42.913  28.292  27.545  1.00  0.00     0.016 A 
ATOM     47  C   UNL A   1      41.716  26.847  29.626  1.00  0.00     0.010 A 
ATOM     48  C   UNL A   1      42.777  28.866  28.813  1.00  0.00     0.010 A 
ATOM     49  C   UNL A   1      42.143  28.162  29.851  1.00  0.00    -0.014 A 
BRANCH  49  50
ATOM     50  C   UNL A   1      41.752  28.884  31.089  1.00  0.00     0.031 A 
ATOM     51  C   UNL A   1      40.553  29.792  31.038  1.00  0.00     0.074 A 
ATOM     52  C   UNL A   1      42.423  28.743  32.246  1.00  0.00     0.049 A 
ATOM     53  N   UNL A   1      40.173  30.716  31.879  1.00  0.00    -0.248 NA
ATOM     54  C   UNL A   1      39.663  29.626  29.878  1.00  0.00     0.031 C 
ATOM     55  C   UNL A   1      43.511  27.800  32.490  1.00  0.00     0.029 A 
ATOM     56  N   UNL A   1      42.289  29.420  33.434  1.00  0.00    -0.354 N 
ATOM     57  C   UNL A   1      39.024  31.274  31.331  1.00  0.00     0.074 A 
ATOM     58  C   UNL A   1      38.761  30.572  30.093  1.00  0.00     0.031 C 
ATOM     59  C   UNL A   1      43.961  27.972  33.746  1.00  0.00     0.029 A 
ATOM     60  C   UNL A   1      43.241  29.084  34.367  1.00  0.00     0.049 A 
ATOM     61  H   UNL A   1      41.579  30.081  33.602  1.00  0.00     0.167 HD
ATOM     62  C   UNL A   1      38.267  32.291  31.807  1.00  0.00     0.037 A 
ATOM     63  C   UNL A   1      43.535  29.649  35.556  1.00  0.00     0.037 A 
ATOM     64  C   UNL A   1      38.528  32.981  33.043  1.00  0.00     0.049 A 
ATOM     65  C   UNL A   1      42.760  30.858  36.020  1.00  0.00     0.074 A 
ATOM     66  C   UNL A   1      37.860  34.064  33.585  1.00  0.00     0.029 A 
ATOM     67  N   UNL A   1      39.535  32.645  33.934  1.00  0.00    -0.354 N 
ATOM     68  N   UNL A   1      41.744  31.459  35.446  1.00  0.00    -0.248 NA
ATOM     69  C   UNL A   1      43.191  31.484  37.280  1.00  0.00     0.031 C 
ATOM     70  C   UNL A   1      38.483  34.402  34.792  1.00  0.00     0.029 A 
ATOM     71  C   UNL A   1      39.513  33.503  35.019  1.00  0.00     0.049 A 
ATOM     72  H   UNL A   1      40.173  31.905  33.813  1.00  0.00     0.167 HD
ATOM     73  C   UNL A   1      41.400  32.515  36.286  1.00  0.00     0.074 A 
ATOM     74  C   UNL A   1      42.315  32.473  37.408  1.00  0.00     0.031 C 
ATOM     75  C   UNL A   1      40.416  33.435  36.141  1.00  0.00     0.037 A 
BRANCH  62  76
ATOM     76  C   UNL A   1      37.131  32.759  30.946  1.00  0.00     0.058 A 
ATOM     77  C   UNL A   1      37.327  33.633  29.867  1.00  0.00     0.135 A 
ATOM     78  C   UNL A   1      35.820  32.336  31.221  1.00  0.00     0.135 A 
ATOM     79  F   UNL A   1      38.558  34.084  29.578  1.00  0.00    -0.206 F 
ATOM     80  C   UNL A   1      36.258  34.101  29.110  1.00  0.00     0.059 A 
ATOM     81  C   UNL A   1      34.739  32.772  30.463  1.00  0.00     0.059 A 
ATOM     82  F   UNL A   1      35.579  31.502  32.245  1.00  0.00    -0.206 F 
ATOM     83  C   UNL A   1      34.966  33.672  29.423  1.00  0.00     0.060 A 
BRANCH  83  84
ATOM     84  S   UNL A   1      33.579  34.311  28.458  1.00  0.00     0.124 S 
ATOM     85  O   UNL A   1      32.660  34.725  29.514  1.00  0.00    -0.237 OA
ATOM     86  O   UNL A   1      34.195  35.390  27.695  1.00  0.00    -0.237 OA
ATOM     87  O   UNL A   1      33.154  33.157  27.673  1.00  0.00    -0.744 OA
ENDBRANCH  83  84
ENDBRANCH  62  76
BRANCH  63  88
ATOM     88  C   UNL A   1      44.657  29.119  36.375  1.00  0.00     0.058 A 
ATOM     89  C   UNL A   1      44.468  28.030  37.239  1.00  0.00     0.135 A 
ATOM     90  C   UNL A   1      45.936  29.693  36.317  1.00  0.00     0.135 A 
ATOM     91  F   UNL A   1      43.258  27.460  37.343  1.00  0.00    -0.206 F 
ATOM     92  C   UNL A   1      45.505  27.533  38.021  1.00  0.00     0.059 A 
ATOM     93  C   UNL A   1      46.995  29.199  37.071  1.00  0.00     0.059 A 
ATOM     94  F   UNL A   1      46.169  30.737  35.506  1.00  0.00    -0.206 F 
ATOM     95  C   UNL A   1      46.767  28.123  37.927  1.00  0.00     0.060 A 
BRANCH  95  96
ATOM     96  S   UNL A   1      48.122  27.437  38.906  1.00  0.00     0.124 S 
ATOM     97  O   UNL A   1      47.731  26.036  39.007  1.00  0.00    -0.237 OA
ATOM     98  O   UNL A   1      49.282  27.718  38.067  1.00  0.00    -0.237 OA
ATOM     99  O   UNL A   1      48.057  28.203  40.148  1.00  0.00    -0.744 OA
ENDBRANCH  95  96
ENDBRANCH  63  88
BRANCH  75 100
ATOM    100  C   UNL A   1      40.228  34.444  37.239  1.00  0.00     0.058 A 
ATOM    101  C   UNL A   1      40.975  35.630  37.289  1.00  0.00     0.135 A 
ATOM    102  C   UNL A   1      39.226  34.258  38.206  1.00  0.00     0.135 A 
ATOM    103  F   UNL A   1      41.949  35.852  36.391  1.00  0.00    -0.206 F 
ATOM    104  C   UNL A   1      40.740  36.596  38.262  1.00  0.00     0.059 A 
ATOM    105  C   UNL A   1      38.960  35.219  39.177  1.00  0.00     0.059 A 
ATOM    106  F   UNL A   1      38.477  33.145  38.197  1.00  0.00    -0.206 F 
ATOM    107  C   UNL A   1      39.726  36.384  39.199  1.00  0.00     0.060 A 
BRANCH 107 108
ATOM    108  S   UNL A   1      39.386  37.671  40.420  1.00  0.00     0.124 S 
ATOM    109  O   UNL A   1      40.599  38.478  40.343  1.00  0.00    -0.237 OA
ATOM    110  O   UNL A   1      38.176  38.295  39.891  1.00  0.00    -0.237 OA
ATOM    111  O   UNL A   1      39.205  36.923  41.660  1.00  0.00    -0.744 OA
ENDBRANCH 107 108
ENDBRANCH  75 100
ENDBRANCH  49  50
ENDBRANCH  42  44
ENDBRANCH  41  42
ENDBRANCH  40  41
ENDBRANCH  39  40
ENDBRANCH  38  39
ENDBRANCH  37  38
ENDBRANCH   1  37
TORSDOF 29
ENDMDL
MODEL 3
REMARK VINA RESULT:      -9.0      5.561     11.915
REMARK SMILES O=C(N[C@@H](Cc1ccc(O)cc1)C(=O)N[C@@H](CO)C(=O)OCCOCCOCCOC(=O)c1ccc(-c2c3nc(c(-c4c(F)cc(S(=O)(=O)[O-])cc4F)c4ccc([nH]4)c(-c4c(F)cc(S(=O)(=O)[O-])cc4F)c4nc(c(-c5c(F)cc(S(=O)(=O)[O-])cc5F)c5ccc2[nH]5)C=C4)C=C3)cc1)c1ccc(F)cc1
REMARK SMILES IDX 25 1 24 2 23 3 22 4 21 5 19 6 20 7 16 8 15 9 13 10 14 11
REMARK SMILES IDX 4 13 3 14 1 15 2 16 99 18 100 19 105 20 101 21 104 22 102 23
REMARK SMILES IDX 103 24 5 25 6 26 7 27 12 28 8 29 11 30 9 31 10 32 17 34
REMARK SMILES IDX 18 35 26 37 27 38 28 39 29 40 30 41 31 42 32 43 33 44 34 45
REMARK SMILES IDX 98 46 35 47 97 48 36 49 37 50 38 51 91 52 39 53 96 54 90 55
REMARK SMILES IDX 92 56 40 57 95 58 89 59 88 60 41 62 75 63 54 64 74 65 55 66
REMARK SMILES IDX 58 67 73 68 93 69 56 70 57 71 72 73 94 74 59 75 42 76 43 77
REMARK SMILES IDX 52 78 44 79 45 80 51 81 53 82 46 83 47 84 48 85 49 86 50 87
REMARK SMILES IDX 76 88 77 89 86 90 78 91 79 92 85 93 87 94 80 95 81 96 82 97
REMARK SMILES IDX 83 98 84 99 60 100 61 101 70 102 62 103 63 104 69 105 71 106
REMARK SMILES IDX 64 107 65 108 66 109 67 110 68 111
REMARK H PARENT 15 12 3 17 10 33 18 36 92 61 58 72
REMARK Flexibility Score: inf
ROOT
ATOM      1  C   UNL A   1      37.492  33.688  31.041  1.00  0.00     0.188 C 
ENDROOT
BRANCH   1   2
ATOM      2  O   UNL A   1      37.017  34.020  29.737  1.00  0.00    -0.376 OA
BRANCH   2   3
ATOM      3  C   UNL A   1      37.080  32.951  28.795  1.00  0.00     0.202 C 
BRANCH   3   4
ATOM      4  C   UNL A   1      37.252  31.609  29.501  1.00  0.00     0.261 C 
BRANCH   4   5
ATOM      5  O   UNL A   1      38.482  30.961  29.117  1.00  0.00    -0.462 OA
BRANCH   5   6
ATOM      6  C   UNL A   1      38.406  29.647  28.750  1.00  0.00     0.331 C 
ATOM      7  O   UNL A   1      37.448  29.154  28.167  1.00  0.00    -0.250 OA
BRANCH   6   8
ATOM      8  C   UNL A   1      39.633  28.850  29.258  1.00  0.00     0.218 C 
BRANCH   8   9
ATOM      9  N   UNL A   1      40.813  29.721  29.405  1.00  0.00    -0.339 N 
ATOM     10  C   UNL A   1      42.045  29.744  28.846  1.00  0.00     0.243 C 
ATOM     11  O   UNL A   1      42.663  30.809  28.985  1.00  0.00    -0.273 OA
ATOM     12  H   UNL A   1      40.673  30.447  30.053  1.00  0.00     0.164 HD
BRANCH  10  13
ATOM     13  C   UNL A   1      42.695  28.612  28.021  1.00  0.00     0.176 C 
BRANCH  13  14
ATOM     14  N   UNL A   1      42.689  28.799  26.573  1.00  0.00    -0.340 N 
ATOM     15  O   UNL A   1      42.527  28.098  24.431  1.00  0.00    -0.269 OA
ATOM     16  C   UNL A   1      42.331  27.866  25.619  1.00  0.00     0.251 C 
ATOM     17  H   UNL A   1      42.969  29.682  26.241  1.00  0.00     0.164 HD
BRANCH  16  18
ATOM     18  C   UNL A   1      41.735  26.565  26.022  1.00  0.00     0.040 A 
ATOM     19  C   UNL A   1      42.377  25.353  25.727  1.00  0.00     0.017 A 
ATOM     20  C   UNL A   1      40.522  26.562  26.724  1.00  0.00     0.017 A 
ATOM     21  C   UNL A   1      41.774  24.141  26.076  1.00  0.00     0.040 A 
ATOM     22  C   UNL A   1      39.930  25.347  27.083  1.00  0.00     0.040 A 
ATOM     23  C   UNL A   1      40.557  24.150  26.749  1.00  0.00     0.123 A 
ATOM     24  F   UNL A   1      39.986  22.986  27.087  1.00  0.00    -0.207 F 
ENDBRANCH  16  18
ENDBRANCH  13  14
BRANCH  13  25
ATOM     25  C   UNL A   1      44.009  28.027  28.560  1.00  0.00     0.070 C 
BRANCH  25  26
ATOM     26  C   UNL A   1      44.125  26.533  28.662  1.00  0.00    -0.045 A 
ATOM     27  C   UNL A   1      43.106  25.804  29.288  1.00  0.00     0.007 A 
ATOM     28  C   UNL A   1      45.222  25.847  28.127  1.00  0.00     0.007 A 
ATOM     29  C   UNL A   1      43.222  24.427  29.468  1.00  0.00     0.046 A 
ATOM     30  C   UNL A   1      45.330  24.465  28.291  1.00  0.00     0.046 A 
ATOM     31  C   UNL A   1      44.352  23.774  28.995  1.00  0.00     0.115 A 
BRANCH  31  32
ATOM     32  O   UNL A   1      44.544  22.445  29.219  1.00  0.00    -0.508 OA
ATOM     33  H   UNL A   1      45.159  21.967  28.698  1.00  0.00     0.293 HD
ENDBRANCH  31  32
ENDBRANCH  25  26
ENDBRANCH  13  25
ENDBRANCH  10  13
ENDBRANCH   8   9
BRANCH   8  34
ATOM     34  C   UNL A   1      39.245  28.235  30.606  1.00  0.00     0.193 C 
BRANCH  34  35
ATOM     35  O   UNL A   1      37.861  28.449  30.898  1.00  0.00    -0.394 OA
ATOM     36  H   UNL A   1      37.675  29.401  30.907  1.00  0.00     0.210 HD
ENDBRANCH  34  35
ENDBRANCH   8  34
ENDBRANCH   6   8
ENDBRANCH   5   6
ENDBRANCH   4   5
ENDBRANCH   3   4
ENDBRANCH   2   3
ENDBRANCH   1   2
BRANCH   1  37
ATOM     37  C   UNL A   1      36.894  34.597  32.122  1.00  0.00     0.188 C 
BRANCH  37  38
ATOM     38  O   UNL A   1      35.579  34.287  32.579  1.00  0.00    -0.376 OA
BRANCH  38  39
ATOM     39  C   UNL A   1      35.158  34.882  33.802  1.00  0.00     0.202 C 
BRANCH  39  40
ATOM     40  C   UNL A   1      35.502  34.088  35.061  1.00  0.00     0.261 C 
BRANCH  40  41
ATOM     41  O   UNL A   1      36.916  34.097  35.344  1.00  0.00    -0.460 OA
BRANCH  41  42
ATOM     42  C   UNL A   1      37.308  33.224  36.300  1.00  0.00     0.338 C 
ATOM     43  O   UNL A   1      36.787  33.026  37.387  1.00  0.00    -0.246 OA
BRANCH  42  44
ATOM     44  C   UNL A   1      38.499  32.484  35.859  1.00  0.00     0.060 A 
ATOM     45  C   UNL A   1      39.717  32.701  36.510  1.00  0.00     0.016 A 
ATOM     46  C   UNL A   1      38.448  31.750  34.673  1.00  0.00     0.016 A 
ATOM     47  C   UNL A   1      40.902  32.221  35.940  1.00  0.00     0.010 A 
ATOM     48  C   UNL A   1      39.635  31.269  34.110  1.00  0.00     0.010 A 
ATOM     49  C   UNL A   1      40.873  31.535  34.720  1.00  0.00    -0.014 A 
BRANCH  49  50
ATOM     50  C   UNL A   1      42.127  31.273  33.968  1.00  0.00     0.031 A 
ATOM     51  C   UNL A   1      42.608  32.315  32.995  1.00  0.00     0.074 A 
ATOM     52  C   UNL A   1      42.845  30.148  34.137  1.00  0.00     0.049 A 
ATOM     53  N   UNL A   1      43.499  32.218  32.045  1.00  0.00    -0.248 NA
ATOM     54  C   UNL A   1      41.998  33.649  33.119  1.00  0.00     0.031 C 
ATOM     55  C   UNL A   1      42.587  29.116  35.138  1.00  0.00     0.029 A 
ATOM     56  N   UNL A   1      43.937  29.684  33.445  1.00  0.00    -0.354 N 
ATOM     57  C   UNL A   1      43.527  33.462  31.428  1.00  0.00     0.074 A 
ATOM     58  C   UNL A   1      42.576  34.302  32.123  1.00  0.00     0.031 C 
ATOM     59  C   UNL A   1      43.486  28.127  34.983  1.00  0.00     0.029 A 
ATOM     60  C   UNL A   1      44.333  28.424  33.827  1.00  0.00     0.049 A 
ATOM     61  H   UNL A   1      44.393  30.204  32.745  1.00  0.00     0.167 HD
ATOM     62  C   UNL A   1      44.267  33.863  30.366  1.00  0.00     0.037 A 
ATOM     63  C   UNL A   1      45.231  27.586  33.271  1.00  0.00     0.037 A 
ATOM     64  C   UNL A   1      45.218  33.027  29.683  1.00  0.00     0.049 A 
ATOM     65  C   UNL A   1      45.962  28.000  32.017  1.00  0.00     0.074 A 
ATOM     66  C   UNL A   1      45.972  33.317  28.560  1.00  0.00     0.029 A 
ATOM     67  N   UNL A   1      45.551  31.738  30.068  1.00  0.00    -0.354 N 
ATOM     68  N   UNL A   1      45.905  29.137  31.364  1.00  0.00    -0.248 NA
ATOM     69  C   UNL A   1      46.858  27.004  31.407  1.00  0.00     0.031 C 
ATOM     70  C   UNL A   1      46.742  32.189  28.249  1.00  0.00     0.029 A 
ATOM     71  C   UNL A   1      46.495  31.214  29.203  1.00  0.00     0.049 A 
ATOM     72  H   UNL A   1      45.172  31.264  30.843  1.00  0.00     0.167 HD
ATOM     73  C   UNL A   1      46.775  29.002  30.285  1.00  0.00     0.074 A 
ATOM     74  C   UNL A   1      47.345  27.674  30.370  1.00  0.00     0.031 C 
ATOM     75  C   UNL A   1      47.073  29.898  29.312  1.00  0.00     0.037 A 
BRANCH  62  76
ATOM     76  C   UNL A   1      44.016  35.247  29.841  1.00  0.00     0.058 A 
ATOM     77  C   UNL A   1      42.967  35.527  28.954  1.00  0.00     0.135 A 
ATOM     78  C   UNL A   1      44.855  36.306  30.224  1.00  0.00     0.135 A 
ATOM     79  F   UNL A   1      42.151  34.543  28.541  1.00  0.00    -0.206 F 
ATOM     80  C   UNL A   1      42.778  36.803  28.434  1.00  0.00     0.059 A 
ATOM     81  C   UNL A   1      44.671  37.596  29.735  1.00  0.00     0.059 A 
ATOM     82  F   UNL A   1      45.875  36.091  31.068  1.00  0.00    -0.206 F 
ATOM     83  C   UNL A   1      43.642  37.829  28.823  1.00  0.00     0.060 A 
BRANCH  83  84
ATOM     84  S   UNL A   1      43.413  39.475  28.117  1.00  0.00     0.124 S 
ATOM     85  O   UNL A   1      43.659  39.219  26.702  1.00  0.00    -0.237 OA
ATOM     86  O   UNL A   1      42.033  39.783  28.475  1.00  0.00    -0.237 OA
ATOM     87  O   UNL A   1      44.426  40.277  28.796  1.00  0.00    -0.744 OA
ENDBRANCH  83  84
ENDBRANCH  62  76
BRANCH  63  88
ATOM     88  C   UNL A   1      45.453  26.237  33.857  1.00  0.00     0.058 A 
ATOM     89  C   UNL A   1      46.360  26.050  34.911  1.00  0.00     0.135 A 
ATOM     90  C   UNL A   1      44.773  25.110  33.371  1.00  0.00     0.135 A 
ATOM     91  F   UNL A   1      47.049  27.094  35.396  1.00  0.00    -0.206 F 
ATOM     92  C   UNL A   1      46.588  24.791  35.459  1.00  0.00     0.059 A 
ATOM     93  C   UNL A   1      44.966  23.847  33.919  1.00  0.00     0.059 A 
ATOM     94  F   UNL A   1      43.894  25.237  32.364  1.00  0.00    -0.206 F 
ATOM     95  C   UNL A   1      45.883  23.696  34.958  1.00  0.00     0.060 A 
BRANCH  95  96
ATOM     96  S   UNL A   1      46.145  22.075  35.711  1.00  0.00     0.124 S 
ATOM     97  O   UNL A   1      47.513  21.780  35.304  1.00  0.00    -0.237 OA
ATOM     98  O   UNL A   1      45.947  22.357  37.129  1.00  0.00    -0.237 OA
ATOM     99  O   UNL A   1      45.110  21.250  35.094  1.00  0.00    -0.744 OA
ENDBRANCH  95  96
ENDBRANCH  63  88
BRANCH  75 100
ATOM    100  C   UNL A   1      48.100  29.507  28.287  1.00  0.00     0.058 A 
ATOM    101  C   UNL A   1      49.472  29.696  28.507  1.00  0.00     0.135 A 
ATOM    102  C   UNL A   1      47.707  28.858  27.105  1.00  0.00     0.135 A 
ATOM    103  F   UNL A   1      49.898  30.318  29.618  1.00  0.00    -0.206 F 
ATOM    104  C   UNL A   1      50.421  29.259  27.589  1.00  0.00     0.059 A 
ATOM    105  C   UNL A   1      48.639  28.395  26.181  1.00  0.00     0.059 A 
ATOM    106  F   UNL A   1      46.406  28.646  26.852  1.00  0.00    -0.206 F 
ATOM    107  C   UNL A   1      49.995  28.604  26.431  1.00  0.00     0.060 A 
BRANCH 107 108
ATOM    108  S   UNL A   1      51.236  27.984  25.274  1.00  0.00     0.124 S 
ATOM    109  O   UNL A   1      51.329  29.087  24.323  1.00  0.00    -0.237 OA
ATOM    110  O   UNL A   1      52.400  27.792  26.135  1.00  0.00    -0.237 OA
ATOM    111  O   UNL A   1      50.637  26.757  24.759  1.00  0.00    -0.744 OA
ENDBRANCH 107 108
ENDBRANCH  75 100
ENDBRANCH  49  50
ENDBRANCH  42  44
ENDBRANCH  41  42
ENDBRANCH  40  41
ENDBRANCH  39  40
ENDBRANCH  38  39
ENDBRANCH  37  38
ENDBRANCH   1  37
TORSDOF 29
ENDMDL
