MODEL 1
REMARK VINA RESULT:      -9.8      0.000      0.000
REMARK SMILES Cc1ccc(OCC(=O)Oc2ccc(C(=O)OCCOCCOCCOC(=O)c3ccc(-c4c5nc(c(-c6c(F)cc(S(=O)(=O)[O-])cc6F)c6ccc([nH]6)c(-c6c(F)cc(S(=O)(=O)[O-])cc6F)c6nc(c(-c7c(F)cc(S(=O)(=O)[O-])cc7F)c7ccc4[nH]7)C=C6)C=C5)cc3)cc2)cc1C
REMARK SMILES IDX 21 1 20 2 19 3 18 4 17 5 15 6 16 7 14 8 11 9 12 10 96 11
REMARK SMILES IDX 13 12 95 13 10 14 8 15 9 16 7 17 6 18 5 19 1 20 2 21 3 22
REMARK SMILES IDX 98 23 4 24 97 25 99 26 22 27 23 28 24 29 25 30 26 31 27 32
REMARK SMILES IDX 28 33 29 34 30 35 94 36 31 37 93 38 32 39 33 40 34 41 87 42
REMARK SMILES IDX 35 43 92 44 86 45 88 46 36 47 91 48 85 49 84 50 37 52 71 53
REMARK SMILES IDX 50 54 70 55 51 56 54 57 69 58 89 59 52 60 53 61 68 63 90 64
REMARK SMILES IDX 55 65 38 66 39 67 48 68 40 69 41 70 47 71 49 72 42 73 43 74
REMARK SMILES IDX 44 75 45 76 46 77 72 78 73 79 82 80 74 81 75 82 81 83 83 84
REMARK SMILES IDX 76 85 77 86 78 87 79 88 80 89 56 90 57 91 66 92 58 93 59 94
REMARK SMILES IDX 65 95 67 96 60 97 61 98 62 99 63 100 64 101
REMARK H PARENT 88 51 54 62
REMARK Flexibility Score: inf
ROOT
ATOM      1  C   UNL A   1      34.361  23.355  26.856  1.00  0.00     0.188 C 
ENDROOT
BRANCH   1   2
ATOM      2  O   UNL A   1      33.425  22.306  26.995  1.00  0.00    -0.376 OA
BRANCH   2   3
ATOM      3  C   UNL A   1      33.711  21.004  26.515  1.00  0.00     0.202 C 
BRANCH   3   4
ATOM      4  C   UNL A   1      33.083  20.400  25.250  1.00  0.00     0.261 C 
BRANCH   4   5
ATOM      5  O   UNL A   1      33.548  20.931  24.007  1.00  0.00    -0.460 OA
BRANCH   5   6
ATOM      6  C   UNL A   1      32.589  21.113  23.068  1.00  0.00     0.338 C 
ATOM      7  O   UNL A   1      31.920  20.240  22.530  1.00  0.00    -0.246 OA
BRANCH   6   8
ATOM      8  C   UNL A   1      32.331  22.554  22.867  1.00  0.00     0.060 A 
ATOM      9  C   UNL A   1      31.688  25.222  22.431  1.00  0.00     0.131 A 
ATOM     10  C   UNL A   1      30.894  24.458  23.286  1.00  0.00     0.048 A 
ATOM     11  C   UNL A   1      32.857  24.696  21.878  1.00  0.00     0.048 A 
ATOM     12  C   UNL A   1      31.212  23.117  23.496  1.00  0.00     0.019 A 
ATOM     13  C   UNL A   1      33.173  23.352  22.081  1.00  0.00     0.019 A 
BRANCH   9  14
ATOM     14  O   UNL A   1      31.233  26.520  22.157  1.00  0.00    -0.424 OA
BRANCH  14  15
ATOM     15  C   UNL A   1      31.138  27.370  23.255  1.00  0.00     0.349 C 
ATOM     16  O   UNL A   1      30.130  27.952  23.650  1.00  0.00    -0.248 OA
BRANCH  15  17
ATOM     17  C   UNL A   1      32.490  27.511  23.939  1.00  0.00     0.352 C 
BRANCH  17  18
ATOM     18  O   UNL A   1      32.524  27.408  25.350  1.00  0.00    -0.482 OA
BRANCH  18  19
ATOM     19  C   UNL A   1      32.952  28.487  26.076  1.00  0.00     0.120 A 
ATOM     20  C   UNL A   1      34.081  32.197  28.002  1.00  0.00     0.044 C 
ATOM     21  C   UNL A   1      33.637  30.913  27.357  1.00  0.00    -0.048 A 
ATOM     22  C   UNL A   1      34.492  29.802  27.399  1.00  0.00     0.007 A 
ATOM     23  C   UNL A   1      32.399  30.792  26.702  1.00  0.00    -0.045 A 
ATOM     24  C   UNL A   1      34.148  28.596  26.777  1.00  0.00     0.047 A 
ATOM     25  C   UNL A   1      32.081  29.579  26.060  1.00  0.00     0.050 A 
ATOM     26  C   UNL A   1      31.385  31.902  26.647  1.00  0.00     0.045 C 
ENDBRANCH  18  19
ENDBRANCH  17  18
ENDBRANCH  15  17
ENDBRANCH  14  15
ENDBRANCH   9  14
ENDBRANCH   6   8
ENDBRANCH   5   6
ENDBRANCH   4   5
ENDBRANCH   3   4
ENDBRANCH   2   3
ENDBRANCH   1   2
BRANCH   1  27
ATOM     27  C   UNL A   1      34.683  23.920  25.459  1.00  0.00     0.188 C 
BRANCH  27  28
ATOM     28  O   UNL A   1      36.022  24.015  25.026  1.00  0.00    -0.376 OA
BRANCH  28  29
ATOM     29  C   UNL A   1      36.657  22.915  24.398  1.00  0.00     0.202 C 
BRANCH  29  30
ATOM     30  C   UNL A   1      37.709  22.000  25.050  1.00  0.00     0.261 C 
BRANCH  30  31
ATOM     31  O   UNL A   1      38.184  22.352  26.351  1.00  0.00    -0.460 OA
BRANCH  31  32
ATOM     32  C   UNL A   1      39.531  22.398  26.480  1.00  0.00     0.338 C 
ATOM     33  O   UNL A   1      40.342  21.578  26.067  1.00  0.00    -0.246 OA
BRANCH  32  34
ATOM     34  C   UNL A   1      39.915  23.697  27.055  1.00  0.00     0.060 A 
ATOM     35  C   UNL A   1      39.286  24.855  26.579  1.00  0.00     0.016 A 
ATOM     36  C   UNL A   1      40.913  23.775  28.026  1.00  0.00     0.016 A 
ATOM     37  C   UNL A   1      39.669  26.104  27.064  1.00  0.00     0.010 A 
ATOM     38  C   UNL A   1      41.310  25.030  28.496  1.00  0.00     0.010 A 
ATOM     39  C   UNL A   1      40.707  26.201  28.000  1.00  0.00    -0.014 A 
BRANCH  39  40
ATOM     40  C   UNL A   1      41.272  27.529  28.342  1.00  0.00     0.031 A 
ATOM     41  C   UNL A   1      42.751  27.747  28.178  1.00  0.00     0.074 A 
ATOM     42  C   UNL A   1      40.483  28.526  28.779  1.00  0.00     0.049 A 
ATOM     43  N   UNL A   1      43.472  28.800  28.467  1.00  0.00    -0.248 NA
ATOM     44  C   UNL A   1      43.521  26.626  27.615  1.00  0.00     0.031 C 
ATOM     45  C   UNL A   1      39.032  28.448  28.942  1.00  0.00     0.029 A 
ATOM     46  N   UNL A   1      40.798  29.801  29.180  1.00  0.00    -0.354 N 
ATOM     47  C   UNL A   1      44.778  28.468  28.129  1.00  0.00     0.074 A 
ATOM     48  C   UNL A   1      44.756  27.105  27.640  1.00  0.00     0.031 C 
ATOM     49  C   UNL A   1      38.584  29.620  29.425  1.00  0.00     0.029 A 
ATOM     50  C   UNL A   1      39.719  30.519  29.636  1.00  0.00     0.049 A 
ATOM     51  H   UNL A   1      41.712  30.166  29.143  1.00  0.00     0.167 HD
ATOM     52  C   UNL A   1      45.893  29.230  28.212  1.00  0.00     0.037 A 
ATOM     53  C   UNL A   1      39.658  31.748  30.185  1.00  0.00     0.037 A 
ATOM     54  C   UNL A   1      45.910  30.584  28.705  1.00  0.00     0.049 A 
ATOM     55  C   UNL A   1      40.925  32.554  30.336  1.00  0.00     0.074 A 
ATOM     56  C   UNL A   1      46.987  31.445  28.814  1.00  0.00     0.029 A 
ATOM     57  N   UNL A   1      44.800  31.268  29.181  1.00  0.00    -0.354 N 
ATOM     58  N   UNL A   1      42.152  32.239  29.989  1.00  0.00    -0.248 NA
ATOM     59  C   UNL A   1      40.800  33.883  30.950  1.00  0.00     0.031 C 
ATOM     60  C   UNL A   1      46.539  32.631  29.405  1.00  0.00     0.029 A 
ATOM     61  C   UNL A   1      45.172  32.531  29.610  1.00  0.00     0.049 A 
ATOM     62  H   UNL A   1      43.885  30.907  29.211  1.00  0.00     0.167 HD
ATOM     63  C   UNL A   1      42.936  33.341  30.316  1.00  0.00     0.074 A 
ATOM     64  C   UNL A   1      42.045  34.334  30.877  1.00  0.00     0.031 C 
ATOM     65  C   UNL A   1      44.273  33.516  30.161  1.00  0.00     0.037 A 
BRANCH  52  66
ATOM     66  C   UNL A   1      47.195  28.609  27.785  1.00  0.00     0.058 A 
ATOM     67  C   UNL A   1      48.017  27.919  28.691  1.00  0.00     0.135 A 
ATOM     68  C   UNL A   1      47.611  28.678  26.446  1.00  0.00     0.135 A 
ATOM     69  F   UNL A   1      47.678  27.838  29.987  1.00  0.00    -0.206 F 
ATOM     70  C   UNL A   1      49.218  27.342  28.288  1.00  0.00     0.059 A 
ATOM     71  C   UNL A   1      48.793  28.084  26.016  1.00  0.00     0.059 A 
ATOM     72  F   UNL A   1      46.865  29.328  25.539  1.00  0.00    -0.206 F 
ATOM     73  C   UNL A   1      49.597  27.429  26.948  1.00  0.00     0.060 A 
BRANCH  73  74
ATOM     74  S   UNL A   1      51.154  26.671  26.441  1.00  0.00     0.124 S 
ATOM     75  O   UNL A   1      51.839  27.799  25.817  1.00  0.00    -0.237 OA
ATOM     76  O   UNL A   1      51.709  26.218  27.713  1.00  0.00    -0.237 OA
ATOM     77  O   UNL A   1      50.736  25.609  25.530  1.00  0.00    -0.744 OA
ENDBRANCH  73  74
ENDBRANCH  52  66
BRANCH  53  78
ATOM     78  C   UNL A   1      38.354  32.296  30.648  1.00  0.00     0.058 A 
ATOM     79  C   UNL A   1      37.833  31.964  31.907  1.00  0.00     0.135 A 
ATOM     80  C   UNL A   1      37.598  33.157  29.835  1.00  0.00     0.135 A 
ATOM     81  F   UNL A   1      38.510  31.134  32.715  1.00  0.00    -0.206 F 
ATOM     82  C   UNL A   1      36.605  32.452  32.339  1.00  0.00     0.059 A 
ATOM     83  C   UNL A   1      36.380  33.680  30.256  1.00  0.00     0.059 A 
ATOM     84  F   UNL A   1      38.055  33.511  28.624  1.00  0.00    -0.206 F 
ATOM     85  C   UNL A   1      35.886  33.312  31.508  1.00  0.00     0.060 A 
BRANCH  85  86
ATOM     86  S   UNL A   1      34.312  33.975  32.098  1.00  0.00     0.124 S 
ATOM     87  O   UNL A   1      33.714  34.459  30.859  1.00  0.00    -0.237 OA
ATOM     88  O   UNL A   1      33.688  32.796  32.690  1.00  0.00    -0.237 OA
ATOM     89  O   UNL A   1      34.717  35.006  33.049  1.00  0.00    -0.744 OA
ENDBRANCH  85  86
ENDBRANCH  53  78
BRANCH  65  90
ATOM     90  C   UNL A   1      44.855  34.844  30.564  1.00  0.00     0.058 A 
ATOM     91  C   UNL A   1      45.397  35.060  31.841  1.00  0.00     0.135 A 
ATOM     92  C   UNL A   1      44.922  35.900  29.639  1.00  0.00     0.135 A 
ATOM     93  F   UNL A   1      45.356  34.088  32.766  1.00  0.00    -0.206 F 
ATOM     94  C   UNL A   1      45.963  36.282  32.194  1.00  0.00     0.059 A 
ATOM     95  C   UNL A   1      45.510  37.119  29.961  1.00  0.00     0.059 A 
ATOM     96  F   UNL A   1      44.430  35.745  28.400  1.00  0.00    -0.206 F 
ATOM     97  C   UNL A   1      46.017  37.305  31.246  1.00  0.00     0.060 A 
BRANCH  97  98
ATOM     98  S   UNL A   1      46.783  38.874  31.707  1.00  0.00     0.124 S 
ATOM     99  O   UNL A   1      48.199  38.526  31.693  1.00  0.00    -0.237 OA
ATOM    100  O   UNL A   1      46.338  39.764  30.639  1.00  0.00    -0.237 OA
ATOM    101  O   UNL A   1      46.219  39.155  33.023  1.00  0.00    -0.744 OA
ENDBRANCH  97  98
ENDBRANCH  65  90
ENDBRANCH  39  40
ENDBRANCH  32  34
ENDBRANCH  31  32
ENDBRANCH  30  31
ENDBRANCH  29  30
ENDBRANCH  28  29
ENDBRANCH  27  28
ENDBRANCH   1  27
TORSDOF 25
ENDMDL
MODEL 2
REMARK VINA RESULT:      -8.9      7.795     12.239
REMARK SMILES Cc1ccc(OCC(=O)Oc2ccc(C(=O)OCCOCCOCCOC(=O)c3ccc(-c4c5nc(c(-c6c(F)cc(S(=O)(=O)[O-])cc6F)c6ccc([nH]6)c(-c6c(F)cc(S(=O)(=O)[O-])cc6F)c6nc(c(-c7c(F)cc(S(=O)(=O)[O-])cc7F)c7ccc4[nH]7)C=C6)C=C5)cc3)cc2)cc1C
REMARK SMILES IDX 21 1 20 2 19 3 18 4 17 5 15 6 16 7 14 8 11 9 12 10 96 11
REMARK SMILES IDX 13 12 95 13 10 14 8 15 9 16 7 17 6 18 5 19 1 20 2 21 3 22
REMARK SMILES IDX 98 23 4 24 97 25 99 26 22 27 23 28 24 29 25 30 26 31 27 32
REMARK SMILES IDX 28 33 29 34 30 35 94 36 31 37 93 38 32 39 33 40 34 41 87 42
REMARK SMILES IDX 35 43 92 44 86 45 88 46 36 47 91 48 85 49 84 50 37 52 71 53
REMARK SMILES IDX 50 54 70 55 51 56 54 57 69 58 89 59 52 60 53 61 68 63 90 64
REMARK SMILES IDX 55 65 38 66 39 67 48 68 40 69 41 70 47 71 49 72 42 73 43 74
REMARK SMILES IDX 44 75 45 76 46 77 72 78 73 79 82 80 74 81 75 82 81 83 83 84
REMARK SMILES IDX 76 85 77 86 78 87 79 88 80 89 56 90 57 91 66 92 58 93 59 94
REMARK SMILES IDX 65 95 67 96 60 97 61 98 62 99 63 100 64 101
REMARK H PARENT 88 51 54 62
REMARK Flexibility Score: inf
ROOT
ATOM      1  C   UNL A   1      50.079  19.893  37.376  1.00  0.00     0.188 C 
ENDROOT
BRANCH   1   2
ATOM      2  O   UNL A   1      48.771  19.612  37.830  1.00  0.00    -0.376 OA
BRANCH   2   3
ATOM      3  C   UNL A   1      47.639  19.950  37.048  1.00  0.00     0.202 C 
BRANCH   3   4
ATOM      4  C   UNL A   1      46.514  20.880  37.525  1.00  0.00     0.261 C 
BRANCH   4   5
ATOM      5  O   UNL A   1      46.392  22.122  36.826  1.00  0.00    -0.460 OA
BRANCH   5   6
ATOM      6  C   UNL A   1      45.487  22.124  35.818  1.00  0.00     0.338 C 
ATOM      7  O   UNL A   1      45.155  21.165  35.132  1.00  0.00    -0.246 OA
BRANCH   6   8
ATOM      8  C   UNL A   1      44.812  23.437  35.735  1.00  0.00     0.060 A 
ATOM      9  C   UNL A   1      43.651  25.945  35.448  1.00  0.00     0.131 A 
ATOM     10  C   UNL A   1      43.664  25.069  34.363  1.00  0.00     0.048 A 
ATOM     11  C   UNL A   1      44.116  25.540  36.701  1.00  0.00     0.048 A 
ATOM     12  C   UNL A   1      44.255  23.815  34.505  1.00  0.00     0.019 A 
ATOM     13  C   UNL A   1      44.715  24.288  36.843  1.00  0.00     0.019 A 
BRANCH   9  14
ATOM     14  O   UNL A   1      43.165  27.237  35.197  1.00  0.00    -0.424 OA
BRANCH  14  15
ATOM     15  C   UNL A   1      41.788  27.396  35.314  1.00  0.00     0.349 C 
ATOM     16  O   UNL A   1      41.116  27.267  36.334  1.00  0.00    -0.248 OA
BRANCH  15  17
ATOM     17  C   UNL A   1      41.177  27.756  33.967  1.00  0.00     0.352 C 
BRANCH  17  18
ATOM     18  O   UNL A   1      39.985  28.519  33.971  1.00  0.00    -0.482 OA
BRANCH  18  19
ATOM     19  C   UNL A   1      39.514  29.004  32.781  1.00  0.00     0.120 A 
ATOM     20  C   UNL A   1      38.362  30.214  28.787  1.00  0.00     0.044 C 
ATOM     21  C   UNL A   1      38.727  29.748  30.170  1.00  0.00    -0.048 A 
ATOM     22  C   UNL A   1      38.753  30.682  31.215  1.00  0.00     0.007 A 
ATOM     23  C   UNL A   1      39.057  28.410  30.447  1.00  0.00    -0.045 A 
ATOM     24  C   UNL A   1      39.128  30.313  32.511  1.00  0.00     0.047 A 
ATOM     25  C   UNL A   1      39.456  28.061  31.752  1.00  0.00     0.050 A 
ATOM     26  C   UNL A   1      39.006  27.318  29.413  1.00  0.00     0.045 C 
ENDBRANCH  18  19
ENDBRANCH  17  18
ENDBRANCH  15  17
ENDBRANCH  14  15
ENDBRANCH   9  14
ENDBRANCH   6   8
ENDBRANCH   5   6
ENDBRANCH   4   5
ENDBRANCH   3   4
ENDBRANCH   2   3
ENDBRANCH   1   2
BRANCH   1  27
ATOM     27  C   UNL A   1      51.212  18.876  37.613  1.00  0.00     0.188 C 
BRANCH  27  28
ATOM     28  O   UNL A   1      51.949  18.370  36.523  1.00  0.00    -0.376 OA
BRANCH  28  29
ATOM     29  C   UNL A   1      52.772  19.226  35.750  1.00  0.00     0.202 C 
BRANCH  29  30
ATOM     30  C   UNL A   1      52.397  19.835  34.387  1.00  0.00     0.261 C 
BRANCH  30  31
ATOM     31  O   UNL A   1      51.993  21.205  34.358  1.00  0.00    -0.460 OA
BRANCH  31  32
ATOM     32  C   UNL A   1      51.667  21.684  33.134  1.00  0.00     0.338 C 
ATOM     33  O   UNL A   1      52.079  21.288  32.050  1.00  0.00    -0.246 OA
BRANCH  32  34
ATOM     34  C   UNL A   1      50.583  22.668  33.276  1.00  0.00     0.060 A 
ATOM     35  C   UNL A   1      50.712  23.907  32.634  1.00  0.00     0.016 A 
ATOM     36  C   UNL A   1      49.469  22.388  34.068  1.00  0.00     0.016 A 
ATOM     37  C   UNL A   1      49.727  24.881  32.797  1.00  0.00     0.010 A 
ATOM     38  C   UNL A   1      48.495  23.374  34.247  1.00  0.00     0.010 A 
ATOM     39  C   UNL A   1      48.631  24.632  33.632  1.00  0.00    -0.014 A 
BRANCH  39  40
ATOM     40  C   UNL A   1      47.710  25.738  33.992  1.00  0.00     0.031 A 
ATOM     41  C   UNL A   1      46.820  26.310  32.923  1.00  0.00     0.074 A 
ATOM     42  C   UNL A   1      47.659  26.217  35.247  1.00  0.00     0.049 A 
ATOM     43  N   UNL A   1      45.981  27.312  32.991  1.00  0.00    -0.248 NA
ATOM     44  C   UNL A   1      46.886  25.668  31.600  1.00  0.00     0.031 C 
ATOM     45  C   UNL A   1      48.444  25.718  36.375  1.00  0.00     0.029 A 
ATOM     46  N   UNL A   1      46.918  27.243  35.779  1.00  0.00    -0.354 N 
ATOM     47  C   UNL A   1      45.426  27.425  31.722  1.00  0.00     0.074 A 
ATOM     48  C   UNL A   1      46.043  26.409  30.896  1.00  0.00     0.031 C 
ATOM     49  C   UNL A   1      48.155  26.452  37.464  1.00  0.00     0.029 A 
ATOM     50  C   UNL A   1      47.190  27.491  37.103  1.00  0.00     0.049 A 
ATOM     51  H   UNL A   1      46.254  27.753  35.260  1.00  0.00     0.167 HD
ATOM     52  C   UNL A   1      44.483  28.293  31.286  1.00  0.00     0.037 A 
ATOM     53  C   UNL A   1      46.734  28.461  37.920  1.00  0.00     0.037 A 
ATOM     54  C   UNL A   1      43.877  29.307  32.110  1.00  0.00     0.049 A 
ATOM     55  C   UNL A   1      45.738  29.463  37.393  1.00  0.00     0.074 A 
ATOM     56  C   UNL A   1      42.900  30.224  31.766  1.00  0.00     0.029 A 
ATOM     57  N   UNL A   1      44.197  29.543  33.440  1.00  0.00    -0.354 N 
ATOM     58  N   UNL A   1      45.200  29.546  36.198  1.00  0.00    -0.248 NA
ATOM     59  C   UNL A   1      45.282  30.504  38.325  1.00  0.00     0.031 C 
ATOM     60  C   UNL A   1      42.669  31.051  32.871  1.00  0.00     0.029 A 
ATOM     61  C   UNL A   1      43.456  30.610  33.922  1.00  0.00     0.049 A 
ATOM     62  H   UNL A   1      44.854  29.030  33.962  1.00  0.00     0.167 HD
ATOM     63  C   UNL A   1      44.324  30.626  36.246  1.00  0.00     0.074 A 
ATOM     64  C   UNL A   1      44.396  31.160  37.589  1.00  0.00     0.031 C 
ATOM     65  C   UNL A   1      43.530  31.128  35.267  1.00  0.00     0.037 A 
BRANCH  52  66
ATOM     66  C   UNL A   1      44.068  28.203  29.843  1.00  0.00     0.058 A 
ATOM     67  C   UNL A   1      44.807  28.819  28.820  1.00  0.00     0.135 A 
ATOM     68  C   UNL A   1      42.931  27.465  29.475  1.00  0.00     0.135 A 
ATOM     69  F   UNL A   1      45.891  29.554  29.117  1.00  0.00    -0.206 F 
ATOM     70  C   UNL A   1      44.420  28.728  27.487  1.00  0.00     0.059 A 
ATOM     71  C   UNL A   1      42.543  27.335  28.145  1.00  0.00     0.059 A 
ATOM     72  F   UNL A   1      42.187  26.858  30.412  1.00  0.00    -0.206 F 
ATOM     73  C   UNL A   1      43.286  27.982  27.159  1.00  0.00     0.060 A 
BRANCH  73  74
ATOM     74  S   UNL A   1      42.801  27.869  25.425  1.00  0.00     0.124 S 
ATOM     75  O   UNL A   1      44.100  27.804  24.762  1.00  0.00    -0.237 OA
ATOM     76  O   UNL A   1      42.016  26.638  25.400  1.00  0.00    -0.237 OA
ATOM     77  O   UNL A   1      42.044  29.097  25.201  1.00  0.00    -0.744 OA
ENDBRANCH  73  74
ENDBRANCH  52  66
BRANCH  53  78
ATOM     78  C   UNL A   1      47.222  28.545  39.324  1.00  0.00     0.058 A 
ATOM     79  C   UNL A   1      46.587  27.839  40.356  1.00  0.00     0.135 A 
ATOM     80  C   UNL A   1      48.329  29.339  39.661  1.00  0.00     0.135 A 
ATOM     81  F   UNL A   1      45.516  27.076  40.087  1.00  0.00    -0.206 F 
ATOM     82  C   UNL A   1      47.021  27.929  41.674  1.00  0.00     0.059 A 
ATOM     83  C   UNL A   1      48.800  29.424  40.968  1.00  0.00     0.059 A 
ATOM     84  F   UNL A   1      48.976  30.030  38.710  1.00  0.00    -0.206 F 
ATOM     85  C   UNL A   1      48.131  28.722  41.971  1.00  0.00     0.060 A 
BRANCH  85  86
ATOM     86  S   UNL A   1      48.713  28.795  43.679  1.00  0.00     0.124 S 
ATOM     87  O   UNL A   1      49.518  27.583  43.768  1.00  0.00    -0.237 OA
ATOM     88  O   UNL A   1      49.451  30.054  43.696  1.00  0.00    -0.237 OA
ATOM     89  O   UNL A   1      47.476  28.791  44.456  1.00  0.00    -0.744 OA
ENDBRANCH  85  86
ENDBRANCH  53  78
BRANCH  65  90
ATOM     90  C   UNL A   1      42.639  32.290  35.616  1.00  0.00     0.058 A 
ATOM     91  C   UNL A   1      41.313  32.108  36.039  1.00  0.00     0.135 A 
ATOM     92  C   UNL A   1      43.138  33.603  35.580  1.00  0.00     0.135 A 
ATOM     93  F   UNL A   1      40.782  30.875  36.088  1.00  0.00    -0.206 F 
ATOM     94  C   UNL A   1      40.506  33.186  36.391  1.00  0.00     0.059 A 
ATOM     95  C   UNL A   1      42.359  34.693  35.956  1.00  0.00     0.059 A 
ATOM     96  F   UNL A   1      44.403  33.835  35.195  1.00  0.00    -0.206 F 
ATOM     97  C   UNL A   1      41.040  34.475  36.349  1.00  0.00     0.060 A 
BRANCH  97  98
ATOM     98  S   UNL A   1      39.993  35.863  36.839  1.00  0.00     0.124 S 
ATOM     99  O   UNL A   1      39.521  36.347  35.547  1.00  0.00    -0.237 OA
ATOM    100  O   UNL A   1      38.990  35.215  37.678  1.00  0.00    -0.237 OA
ATOM    101  O   UNL A   1      40.912  36.750  37.544  1.00  0.00    -0.744 OA
ENDBRANCH  97  98
ENDBRANCH  65  90
ENDBRANCH  39  40
ENDBRANCH  32  34
ENDBRANCH  31  32
ENDBRANCH  30  31
ENDBRANCH  29  30
ENDBRANCH  28  29
ENDBRANCH  27  28
ENDBRANCH   1  27
TORSDOF 25
ENDMDL
MODEL 3
REMARK VINA RESULT:      -8.6      9.701     15.113
REMARK SMILES Cc1ccc(OCC(=O)Oc2ccc(C(=O)OCCOCCOCCOC(=O)c3ccc(-c4c5nc(c(-c6c(F)cc(S(=O)(=O)[O-])cc6F)c6ccc([nH]6)c(-c6c(F)cc(S(=O)(=O)[O-])cc6F)c6nc(c(-c7c(F)cc(S(=O)(=O)[O-])cc7F)c7ccc4[nH]7)C=C6)C=C5)cc3)cc2)cc1C
REMARK SMILES IDX 21 1 20 2 19 3 18 4 17 5 15 6 16 7 14 8 11 9 12 10 96 11
REMARK SMILES IDX 13 12 95 13 10 14 8 15 9 16 7 17 6 18 5 19 1 20 2 21 3 22
REMARK SMILES IDX 98 23 4 24 97 25 99 26 22 27 23 28 24 29 25 30 26 31 27 32
REMARK SMILES IDX 28 33 29 34 30 35 94 36 31 37 93 38 32 39 33 40 34 41 87 42
REMARK SMILES IDX 35 43 92 44 86 45 88 46 36 47 91 48 85 49 84 50 37 52 71 53
REMARK SMILES IDX 50 54 70 55 51 56 54 57 69 58 89 59 52 60 53 61 68 63 90 64
REMARK SMILES IDX 55 65 38 66 39 67 48 68 40 69 41 70 47 71 49 72 42 73 43 74
REMARK SMILES IDX 44 75 45 76 46 77 72 78 73 79 82 80 74 81 75 82 81 83 83 84
REMARK SMILES IDX 76 85 77 86 78 87 79 88 80 89 56 90 57 91 66 92 58 93 59 94
REMARK SMILES IDX 65 95 67 96 60 97 61 98 62 99 63 100 64 101
REMARK H PARENT 88 51 54 62
REMARK Flexibility Score: inf
ROOT
ATOM      1  C   UNL A   1      51.658  23.112  36.674  1.00  0.00     0.188 C 
ENDROOT
BRANCH   1   2
ATOM      2  O   UNL A   1      50.848  21.975  36.891  1.00  0.00    -0.376 OA
BRANCH   2   3
ATOM      3  C   UNL A   1      50.854  21.302  38.137  1.00  0.00     0.202 C 
BRANCH   3   4
ATOM      4  C   UNL A   1      49.963  20.094  38.464  1.00  0.00     0.261 C 
BRANCH   4   5
ATOM      5  O   UNL A   1      49.651  19.905  39.846  1.00  0.00    -0.460 OA
BRANCH   5   6
ATOM      6  C   UNL A   1      49.443  18.617  40.215  1.00  0.00     0.338 C 
ATOM      7  O   UNL A   1      50.302  17.769  40.418  1.00  0.00    -0.246 OA
BRANCH   6   8
ATOM      8  C   UNL A   1      48.010  18.387  40.498  1.00  0.00     0.060 A 
ATOM      9  C   UNL A   1      45.340  18.041  41.180  1.00  0.00     0.131 A 
ATOM     10  C   UNL A   1      45.857  19.332  41.076  1.00  0.00     0.048 A 
ATOM     11  C   UNL A   1      46.114  16.929  40.844  1.00  0.00     0.048 A 
ATOM     12  C   UNL A   1      47.200  19.504  40.743  1.00  0.00     0.019 A 
ATOM     13  C   UNL A   1      47.461  17.099  40.519  1.00  0.00     0.019 A 
BRANCH   9  14
ATOM     14  O   UNL A   1      44.022  17.937  41.651  1.00  0.00    -0.424 OA
BRANCH  14  15
ATOM     15  C   UNL A   1      43.883  17.808  43.030  1.00  0.00     0.349 C 
ATOM     16  O   UNL A   1      44.144  18.658  43.878  1.00  0.00    -0.248 OA
BRANCH  15  17
ATOM     17  C   UNL A   1      43.355  16.426  43.386  1.00  0.00     0.352 C 
BRANCH  17  18
ATOM     18  O   UNL A   1      42.783  15.656  42.345  1.00  0.00    -0.482 OA
BRANCH  18  19
ATOM     19  C   UNL A   1      42.563  14.323  42.562  1.00  0.00     0.120 A 
ATOM     20  C   UNL A   1      42.332  10.100  43.490  1.00  0.00     0.044 C 
ATOM     21  C   UNL A   1      42.393  11.578  43.221  1.00  0.00    -0.048 A 
ATOM     22  C   UNL A   1      41.867  12.071  42.018  1.00  0.00     0.007 A 
ATOM     23  C   UNL A   1      42.973  12.482  44.128  1.00  0.00    -0.045 A 
ATOM     24  C   UNL A   1      41.937  13.431  41.697  1.00  0.00     0.047 A 
ATOM     25  C   UNL A   1      43.058  13.843  43.778  1.00  0.00     0.050 A 
ATOM     26  C   UNL A   1      43.515  12.067  45.469  1.00  0.00     0.045 C 
ENDBRANCH  18  19
ENDBRANCH  17  18
ENDBRANCH  15  17
ENDBRANCH  14  15
ENDBRANCH   9  14
ENDBRANCH   6   8
ENDBRANCH   5   6
ENDBRANCH   4   5
ENDBRANCH   3   4
ENDBRANCH   2   3
ENDBRANCH   1   2
BRANCH   1  27
ATOM     27  C   UNL A   1      51.759  24.204  37.757  1.00  0.00     0.188 C 
BRANCH  27  28
ATOM     28  O   UNL A   1      50.616  24.947  38.121  1.00  0.00    -0.376 OA
BRANCH  28  29
ATOM     29  C   UNL A   1      50.702  26.345  38.331  1.00  0.00     0.202 C 
BRANCH  29  30
ATOM     30  C   UNL A   1      49.645  27.379  37.903  1.00  0.00     0.261 C 
BRANCH  30  31
ATOM     31  O   UNL A   1      48.269  27.034  38.071  1.00  0.00    -0.460 OA
BRANCH  31  32
ATOM     32  C   UNL A   1      47.687  26.447  36.998  1.00  0.00     0.338 C 
ATOM     33  O   UNL A   1      47.956  25.353  36.517  1.00  0.00    -0.246 OA
BRANCH  32  34
ATOM     34  C   UNL A   1      46.532  27.255  36.576  1.00  0.00     0.060 A 
ATOM     35  C   UNL A   1      45.243  26.770  36.833  1.00  0.00     0.016 A 
ATOM     36  C   UNL A   1      46.719  28.460  35.898  1.00  0.00     0.016 A 
ATOM     37  C   UNL A   1      44.130  27.486  36.395  1.00  0.00     0.010 A 
ATOM     38  C   UNL A   1      45.602  29.164  35.442  1.00  0.00     0.010 A 
ATOM     39  C   UNL A   1      44.304  28.669  35.666  1.00  0.00    -0.014 A 
BRANCH  39  40
ATOM     40  C   UNL A   1      43.141  29.306  35.002  1.00  0.00     0.031 A 
ATOM     41  C   UNL A   1      42.755  28.842  33.624  1.00  0.00     0.074 A 
ATOM     42  C   UNL A   1      42.434  30.271  35.616  1.00  0.00     0.049 A 
ATOM     43  N   UNL A   1      41.816  29.289  32.831  1.00  0.00    -0.248 NA
ATOM     44  C   UNL A   1      43.534  27.725  33.065  1.00  0.00     0.031 C 
ATOM     45  C   UNL A   1      42.688  30.777  36.964  1.00  0.00     0.029 A 
ATOM     46  N   UNL A   1      41.363  31.007  35.175  1.00  0.00    -0.354 N 
ATOM     47  C   UNL A   1      41.895  28.515  31.679  1.00  0.00     0.074 A 
ATOM     48  C   UNL A   1      42.993  27.589  31.865  1.00  0.00     0.031 C 
ATOM     49  C   UNL A   1      41.805  31.755  37.235  1.00  0.00     0.029 A 
ATOM     50  C   UNL A   1      40.947  31.965  36.068  1.00  0.00     0.049 A 
ATOM     51  H   UNL A   1      40.932  30.862  34.301  1.00  0.00     0.167 HD
ATOM     52  C   UNL A   1      41.121  28.567  30.570  1.00  0.00     0.037 A 
ATOM     53  C   UNL A   1      40.002  32.919  35.948  1.00  0.00     0.037 A 
ATOM     54  C   UNL A   1      40.034  29.495  30.388  1.00  0.00     0.049 A 
ATOM     55  C   UNL A   1      39.199  33.006  34.674  1.00  0.00     0.074 A 
ATOM     56  C   UNL A   1      39.179  29.616  29.308  1.00  0.00     0.029 A 
ATOM     57  N   UNL A   1      39.659  30.467  31.305  1.00  0.00    -0.354 N 
ATOM     58  N   UNL A   1      39.265  32.253  33.601  1.00  0.00    -0.248 NA
ATOM     59  C   UNL A   1      38.189  34.071  34.594  1.00  0.00     0.031 C 
ATOM     60  C   UNL A   1      38.323  30.696  29.547  1.00  0.00     0.029 A 
ATOM     61  C   UNL A   1      38.604  31.209  30.803  1.00  0.00     0.049 A 
ATOM     62  H   UNL A   1      40.083  30.608  32.182  1.00  0.00     0.167 HD
ATOM     63  C   UNL A   1      38.289  32.735  32.734  1.00  0.00     0.074 A 
ATOM     64  C   UNL A   1      37.638  33.836  33.411  1.00  0.00     0.031 C 
ATOM     65  C   UNL A   1      37.958  32.301  31.491  1.00  0.00     0.037 A 
BRANCH  52  66
ATOM     66  C   UNL A   1      41.438  27.611  29.453  1.00  0.00     0.058 A 
ATOM     67  C   UNL A   1      40.592  26.535  29.138  1.00  0.00     0.135 A 
ATOM     68  C   UNL A   1      42.588  27.791  28.668  1.00  0.00     0.135 A 
ATOM     69  F   UNL A   1      39.489  26.304  29.868  1.00  0.00    -0.206 F 
ATOM     70  C   UNL A   1      40.889  25.657  28.100  1.00  0.00     0.059 A 
ATOM     71  C   UNL A   1      42.889  26.943  27.606  1.00  0.00     0.059 A 
ATOM     72  F   UNL A   1      43.432  28.802  28.927  1.00  0.00    -0.206 F 
ATOM     73  C   UNL A   1      42.040  25.871  27.339  1.00  0.00     0.060 A 
BRANCH  73  74
ATOM     74  S   UNL A   1      42.407  24.726  25.993  1.00  0.00     0.124 S 
ATOM     75  O   UNL A   1      41.372  23.714  26.179  1.00  0.00    -0.237 OA
ATOM     76  O   UNL A   1      42.259  25.574  24.813  1.00  0.00    -0.237 OA
ATOM     77  O   UNL A   1      43.770  24.288  26.279  1.00  0.00    -0.744 OA
ENDBRANCH  73  74
ENDBRANCH  52  66
BRANCH  53  78
ATOM     78  C   UNL A   1      39.767  33.881  37.058  1.00  0.00     0.058 A 
ATOM     79  C   UNL A   1      39.034  33.512  38.196  1.00  0.00     0.135 A 
ATOM     80  C   UNL A   1      40.264  35.193  37.000  1.00  0.00     0.135 A 
ATOM     81  F   UNL A   1      38.526  32.274  38.294  1.00  0.00    -0.206 F 
ATOM     82  C   UNL A   1      38.790  34.411  39.229  1.00  0.00     0.059 A 
ATOM     83  C   UNL A   1      40.057  36.102  38.033  1.00  0.00     0.059 A 
ATOM     84  F   UNL A   1      40.977  35.595  35.936  1.00  0.00    -0.206 F 
ATOM     85  C   UNL A   1      39.308  35.704  39.140  1.00  0.00     0.060 A 
BRANCH  85  86
ATOM     86  S   UNL A   1      39.021  36.848  40.507  1.00  0.00     0.124 S 
ATOM     87  O   UNL A   1      40.343  36.912  41.119  1.00  0.00    -0.237 OA
ATOM     88  O   UNL A   1      38.582  38.053  39.810  1.00  0.00    -0.237 OA
ATOM     89  O   UNL A   1      37.992  36.178  41.297  1.00  0.00    -0.744 OA
ENDBRANCH  85  86
ENDBRANCH  53  78
BRANCH  65  90
ATOM     90  C   UNL A   1      36.815  32.988  30.792  1.00  0.00     0.058 A 
ATOM     91  C   UNL A   1      35.476  32.707  31.107  1.00  0.00     0.135 A 
ATOM     92  C   UNL A   1      37.066  33.982  29.832  1.00  0.00     0.135 A 
ATOM     93  F   UNL A   1      35.178  31.762  32.014  1.00  0.00    -0.206 F 
ATOM     94  C   UNL A   1      34.426  33.370  30.478  1.00  0.00     0.059 A 
ATOM     95  C   UNL A   1      36.032  34.679  29.212  1.00  0.00     0.059 A 
ATOM     96  F   UNL A   1      38.327  34.300  29.501  1.00  0.00    -0.206 F 
ATOM     97  C   UNL A   1      34.715  34.357  29.534  1.00  0.00     0.060 A 
BRANCH  97  98
ATOM     98  S   UNL A   1      33.344  35.233  28.749  1.00  0.00     0.124 S 
ATOM     99  O   UNL A   1      34.048  36.245  27.970  1.00  0.00    -0.237 OA
ATOM    100  O   UNL A   1      32.699  34.174  27.978  1.00  0.00    -0.237 OA
ATOM    101  O   UNL A   1      32.571  35.737  29.879  1.00  0.00    -0.744 OA
ENDBRANCH  97  98
ENDBRANCH  65  90
ENDBRANCH  39  40
ENDBRANCH  32  34
ENDBRANCH  31  32
ENDBRANCH  30  31
ENDBRANCH  29  30
ENDBRANCH  28  29
ENDBRANCH  27  28
ENDBRANCH   1  27
TORSDOF 25
ENDMDL
