MODEL 1
REMARK VINA RESULT:     -10.8      0.000      0.000
REMARK SMILES CC1=C(C(=O)OCCOCCOCCOC(=O)c2ccc(-c3c4nc(c(-c5c(F)cc(S(=O)(=O)[O-])cc5F)c5ccc([nH]5)c(-c5c(F)cc(S(=O)(=O)[O-])cc5F)c5nc(c(-c6c(F)cc(S(=O)(=O)[O-])cc6F)c6ccc3[nH]6)C=C5)C=C4)cc2)N2C(=O)[C@@H](NC(=O)c3ccn(C)n3)[C@H]2SC1
REMARK SMILES IDX 11 1 10 2 9 3 8 4 7 5 6 6 4 7 5 8 3 9 1 10 2 11 99 12 84 13
REMARK SMILES IDX 98 14 85 15 97 16 86 17 87 18 88 19 89 20 90 22 91 23 92 24
REMARK SMILES IDX 96 25 93 26 94 27 95 28 12 29 13 30 14 31 15 32 16 33 17 34
REMARK SMILES IDX 18 35 19 36 83 37 20 38 82 39 21 40 22 41 23 42 76 43 24 44
REMARK SMILES IDX 81 45 75 46 77 47 25 48 80 49 74 50 73 51 26 53 60 54 39 55
REMARK SMILES IDX 59 56 40 57 43 58 58 59 78 60 41 61 42 62 57 64 79 65 44 66
REMARK SMILES IDX 27 67 28 68 37 69 29 70 30 71 36 72 38 73 31 74 32 75 33 76
REMARK SMILES IDX 34 77 35 78 61 79 62 80 71 81 63 82 64 83 70 84 72 85 65 86
REMARK SMILES IDX 66 87 67 88 68 89 69 90 45 91 46 92 55 93 47 94 48 95 54 96
REMARK SMILES IDX 56 97 49 98 50 99 51 100 52 101 53 102
REMARK H PARENT 88 21 77 52 43 63
REMARK Flexibility Score: inf
ROOT
ATOM      1  C   UNL A   1      30.913  29.313  23.588  1.00  0.00     0.188 C 
ENDROOT
BRANCH   1   2
ATOM      2  C   UNL A   1      29.993  28.099  23.333  1.00  0.00     0.188 C 
BRANCH   2   3
ATOM      3  O   UNL A   1      30.411  26.808  23.739  1.00  0.00    -0.376 OA
BRANCH   3   4
ATOM      4  C   UNL A   1      29.721  26.145  24.791  1.00  0.00     0.202 C 
BRANCH   4   5
ATOM      5  C   UNL A   1      30.392  25.932  26.150  1.00  0.00     0.261 C 
BRANCH   5   6
ATOM      6  O   UNL A   1      30.585  24.544  26.460  1.00  0.00    -0.459 OA
BRANCH   6   7
ATOM      7  C   UNL A   1      31.871  24.188  26.711  1.00  0.00     0.355 C 
ATOM      8  O   UNL A   1      32.397  24.124  27.813  1.00  0.00    -0.244 OA
BRANCH   7   9
ATOM      9  C   UNL A   1      32.603  23.823  25.456  1.00  0.00     0.131 C 
ATOM     10  C   UNL A   1      33.546  26.142  25.070  1.00  0.00     0.043 C 
ATOM     11  C   UNL A   1      33.341  24.689  24.721  1.00  0.00    -0.032 C 
ATOM     12  C   UNL A   1      34.052  24.307  23.429  1.00  0.00     0.105 C 
ATOM     13  N   UNL A   1      32.561  22.509  25.108  1.00  0.00    -0.289 N 
ATOM     14  S   UNL A   1      33.489  22.748  22.677  1.00  0.00    -0.129 SA
ATOM     15  C   UNL A   1      31.677  21.495  25.170  1.00  0.00     0.253 C 
ATOM     16  C   UNL A   1      33.529  21.862  24.259  1.00  0.00     0.181 C 
ATOM     17  O   UNL A   1      30.534  21.430  25.576  1.00  0.00    -0.272 OA
ATOM     18  C   UNL A   1      32.675  20.573  24.407  1.00  0.00     0.206 C 
BRANCH  18  19
ATOM     19  N   UNL A   1      32.229  19.921  23.154  1.00  0.00    -0.336 N 
ATOM     20  C   UNL A   1      32.484  18.610  22.795  1.00  0.00     0.272 C 
ATOM     21  H   UNL A   1      31.706  20.467  22.523  1.00  0.00     0.164 HD
ATOM     22  O   UNL A   1      32.305  18.264  21.630  1.00  0.00    -0.267 OA
BRANCH  20  23
ATOM     23  C   UNL A   1      32.984  17.726  23.853  1.00  0.00     0.150 A 
ATOM     24  C   UNL A   1      32.272  17.309  25.009  1.00  0.00     0.056 A 
ATOM     25  N   UNL A   1      34.264  17.310  23.905  1.00  0.00    -0.168 NA
ATOM     26  C   UNL A   1      33.164  16.575  25.748  1.00  0.00     0.109 A 
ATOM     27  N   UNL A   1      34.320  16.563  25.027  1.00  0.00    -0.275 N 
ATOM     28  C   UNL A   1      35.550  15.916  25.414  1.00  0.00     0.173 C 
ENDBRANCH  20  23
ENDBRANCH  18  19
ENDBRANCH   7   9
ENDBRANCH   6   7
ENDBRANCH   5   6
ENDBRANCH   4   5
ENDBRANCH   3   4
ENDBRANCH   2   3
ENDBRANCH   1   2
BRANCH   1  29
ATOM     29  O   UNL A   1      31.105  29.834  24.892  1.00  0.00    -0.376 OA
BRANCH  29  30
ATOM     30  C   UNL A   1      32.376  29.711  25.509  1.00  0.00     0.202 C 
BRANCH  30  31
ATOM     31  C   UNL A   1      32.693  30.417  26.833  1.00  0.00     0.261 C 
BRANCH  31  32
ATOM     32  O   UNL A   1      33.759  29.838  27.592  1.00  0.00    -0.460 OA
BRANCH  32  33
ATOM     33  C   UNL A   1      34.616  30.731  28.150  1.00  0.00     0.338 C 
ATOM     34  O   UNL A   1      34.343  31.825  28.611  1.00  0.00    -0.246 OA
BRANCH  33  35
ATOM     35  C   UNL A   1      35.943  30.104  28.293  1.00  0.00     0.060 A 
ATOM     36  C   UNL A   1      36.294  29.567  29.538  1.00  0.00     0.016 A 
ATOM     37  C   UNL A   1      36.844  30.080  27.227  1.00  0.00     0.016 A 
ATOM     38  C   UNL A   1      37.561  29.019  29.730  1.00  0.00     0.010 A 
ATOM     39  C   UNL A   1      38.123  29.555  27.428  1.00  0.00     0.010 A 
ATOM     40  C   UNL A   1      38.494  29.047  28.687  1.00  0.00    -0.014 A 
BRANCH  40  41
ATOM     41  C   UNL A   1      39.910  28.705  28.957  1.00  0.00     0.031 A 
ATOM     42  C   UNL A   1      40.779  29.723  29.638  1.00  0.00     0.074 A 
ATOM     43  C   UNL A   1      40.416  27.513  28.597  1.00  0.00     0.049 A 
ATOM     44  N   UNL A   1      42.050  29.665  29.935  1.00  0.00    -0.248 NA
ATOM     45  C   UNL A   1      40.126  30.985  30.022  1.00  0.00     0.031 C 
ATOM     46  C   UNL A   1      39.668  26.440  27.947  1.00  0.00     0.029 A 
ATOM     47  N   UNL A   1      41.688  27.013  28.724  1.00  0.00    -0.354 N 
ATOM     48  C   UNL A   1      42.353  30.882  30.533  1.00  0.00     0.074 A 
ATOM     49  C   UNL A   1      41.138  31.668  30.533  1.00  0.00     0.031 C 
ATOM     50  C   UNL A   1      40.499  25.406  27.728  1.00  0.00     0.029 A 
ATOM     51  C   UNL A   1      41.836  25.748  28.209  1.00  0.00     0.049 A 
ATOM     52  H   UNL A   1      42.423  27.512  29.145  1.00  0.00     0.167 HD
ATOM     53  C   UNL A   1      43.537  31.307  31.035  1.00  0.00     0.037 A 
ATOM     54  C   UNL A   1      42.930  24.963  28.129  1.00  0.00     0.037 A 
ATOM     55  C   UNL A   1      44.745  30.525  31.024  1.00  0.00     0.049 A 
ATOM     56  C   UNL A   1      44.248  25.475  28.652  1.00  0.00     0.074 A 
ATOM     57  C   UNL A   1      45.992  30.860  31.523  1.00  0.00     0.029 A 
ATOM     58  N   UNL A   1      44.863  29.256  30.477  1.00  0.00    -0.354 N 
ATOM     59  N   UNL A   1      44.520  26.618  29.236  1.00  0.00    -0.248 NA
ATOM     60  C   UNL A   1      45.414  24.594  28.491  1.00  0.00     0.031 C 
ATOM     61  C   UNL A   1      46.875  29.815  31.229  1.00  0.00     0.029 A 
ATOM     62  C   UNL A   1      46.168  28.806  30.596  1.00  0.00     0.049 A 
ATOM     63  H   UNL A   1      44.126  28.748  30.064  1.00  0.00     0.167 HD
ATOM     64  C   UNL A   1      45.879  26.583  29.532  1.00  0.00     0.074 A 
ATOM     65  C   UNL A   1      46.374  25.303  29.071  1.00  0.00     0.031 C 
ATOM     66  C   UNL A   1      46.648  27.527  30.132  1.00  0.00     0.037 A 
BRANCH  53  67
ATOM     67  C   UNL A   1      43.584  32.700  31.595  1.00  0.00     0.058 A 
ATOM     68  C   UNL A   1      43.915  33.809  30.801  1.00  0.00     0.135 A 
ATOM     69  C   UNL A   1      43.299  32.928  32.951  1.00  0.00     0.135 A 
ATOM     70  F   UNL A   1      44.215  33.646  29.503  1.00  0.00    -0.206 F 
ATOM     71  C   UNL A   1      43.998  35.090  31.338  1.00  0.00     0.059 A 
ATOM     72  C   UNL A   1      43.350  34.204  33.504  1.00  0.00     0.059 A 
ATOM     73  F   UNL A   1      42.980  31.903  33.757  1.00  0.00    -0.206 F 
ATOM     74  C   UNL A   1      43.719  35.275  32.694  1.00  0.00     0.060 A 
BRANCH  74  75
ATOM     75  S   UNL A   1      43.853  36.938  33.384  1.00  0.00     0.124 S 
ATOM     76  O   UNL A   1      43.835  37.757  32.176  1.00  0.00    -0.237 OA
ATOM     77  O   UNL A   1      42.665  37.026  34.226  1.00  0.00    -0.237 OA
ATOM     78  O   UNL A   1      45.124  36.906  34.102  1.00  0.00    -0.744 OA
ENDBRANCH  74  75
ENDBRANCH  53  67
BRANCH  54  79
ATOM     79  C   UNL A   1      42.825  23.604  27.538  1.00  0.00     0.058 A 
ATOM     80  C   UNL A   1      43.193  23.369  26.206  1.00  0.00     0.135 A 
ATOM     81  C   UNL A   1      42.368  22.511  28.292  1.00  0.00     0.135 A 
ATOM     82  F   UNL A   1      43.625  24.380  25.437  1.00  0.00    -0.206 F 
ATOM     83  C   UNL A   1      43.113  22.101  25.641  1.00  0.00     0.059 A 
ATOM     84  C   UNL A   1      42.306  21.228  27.757  1.00  0.00     0.059 A 
ATOM     85  F   UNL A   1      42.005  22.681  29.573  1.00  0.00    -0.206 F 
ATOM     86  C   UNL A   1      42.678  21.034  26.428  1.00  0.00     0.060 A 
BRANCH  86  87
ATOM     87  S   UNL A   1      42.670  19.381  25.703  1.00  0.00     0.124 S 
ATOM     88  O   UNL A   1      43.199  18.576  26.796  1.00  0.00    -0.237 OA
ATOM     89  O   UNL A   1      41.254  19.193  25.399  1.00  0.00    -0.237 OA
ATOM     90  O   UNL A   1      43.541  19.520  24.540  1.00  0.00    -0.744 OA
ENDBRANCH  86  87
ENDBRANCH  54  79
BRANCH  66  91
ATOM     91  C   UNL A   1      48.103  27.207  30.348  1.00  0.00     0.058 A 
ATOM     92  C   UNL A   1      49.081  27.533  29.395  1.00  0.00     0.135 A 
ATOM     93  C   UNL A   1      48.531  26.623  31.551  1.00  0.00     0.135 A 
ATOM     94  F   UNL A   1      48.726  28.089  28.226  1.00  0.00    -0.206 F 
ATOM     95  C   UNL A   1      50.429  27.274  29.619  1.00  0.00     0.059 A 
ATOM     96  C   UNL A   1      49.877  26.377  31.807  1.00  0.00     0.059 A 
ATOM     97  F   UNL A   1      47.639  26.300  32.501  1.00  0.00    -0.206 F 
ATOM     98  C   UNL A   1      50.818  26.696  30.830  1.00  0.00     0.060 A 
BRANCH  98  99
ATOM     99  S   UNL A   1      52.575  26.398  31.123  1.00  0.00     0.124 S 
ATOM    100  O   UNL A   1      52.546  25.100  31.790  1.00  0.00    -0.237 OA
ATOM    101  O   UNL A   1      53.125  26.404  29.772  1.00  0.00    -0.237 OA
ATOM    102  O   UNL A   1      52.976  27.525  31.961  1.00  0.00    -0.744 OA
ENDBRANCH  98  99
ENDBRANCH  66  91
ENDBRANCH  40  41
ENDBRANCH  33  35
ENDBRANCH  32  33
ENDBRANCH  31  32
ENDBRANCH  30  31
ENDBRANCH  29  30
ENDBRANCH   1  29
TORSDOF 22
ENDMDL
MODEL 2
REMARK VINA RESULT:     -10.6      3.343      9.152
REMARK SMILES CC1=C(C(=O)OCCOCCOCCOC(=O)c2ccc(-c3c4nc(c(-c5c(F)cc(S(=O)(=O)[O-])cc5F)c5ccc([nH]5)c(-c5c(F)cc(S(=O)(=O)[O-])cc5F)c5nc(c(-c6c(F)cc(S(=O)(=O)[O-])cc6F)c6ccc3[nH]6)C=C5)C=C4)cc2)N2C(=O)[C@@H](NC(=O)c3ccn(C)n3)[C@H]2SC1
REMARK SMILES IDX 11 1 10 2 9 3 8 4 7 5 6 6 4 7 5 8 3 9 1 10 2 11 99 12 84 13
REMARK SMILES IDX 98 14 85 15 97 16 86 17 87 18 88 19 89 20 90 22 91 23 92 24
REMARK SMILES IDX 96 25 93 26 94 27 95 28 12 29 13 30 14 31 15 32 16 33 17 34
REMARK SMILES IDX 18 35 19 36 83 37 20 38 82 39 21 40 22 41 23 42 76 43 24 44
REMARK SMILES IDX 81 45 75 46 77 47 25 48 80 49 74 50 73 51 26 53 60 54 39 55
REMARK SMILES IDX 59 56 40 57 43 58 58 59 78 60 41 61 42 62 57 64 79 65 44 66
REMARK SMILES IDX 27 67 28 68 37 69 29 70 30 71 36 72 38 73 31 74 32 75 33 76
REMARK SMILES IDX 34 77 35 78 61 79 62 80 71 81 63 82 64 83 70 84 72 85 65 86
REMARK SMILES IDX 66 87 67 88 68 89 69 90 45 91 46 92 55 93 47 94 48 95 54 96
REMARK SMILES IDX 56 97 49 98 50 99 51 100 52 101 53 102
REMARK H PARENT 88 21 77 52 43 63
REMARK Flexibility Score: inf
ROOT
ATOM      1  C   UNL A   1      36.628  33.458  29.106  1.00  0.00     0.188 C 
ENDROOT
BRANCH   1   2
ATOM      2  C   UNL A   1      35.446  32.482  28.918  1.00  0.00     0.188 C 
BRANCH   2   3
ATOM      3  O   UNL A   1      35.088  32.061  27.613  1.00  0.00    -0.376 OA
BRANCH   3   4
ATOM      4  C   UNL A   1      34.688  30.713  27.396  1.00  0.00     0.202 C 
BRANCH   4   5
ATOM      5  C   UNL A   1      33.222  30.370  27.130  1.00  0.00     0.261 C 
BRANCH   5   6
ATOM      6  O   UNL A   1      32.999  29.883  25.798  1.00  0.00    -0.459 OA
BRANCH   6   7
ATOM      7  C   UNL A   1      31.711  29.943  25.375  1.00  0.00     0.355 C 
ATOM      8  O   UNL A   1      30.976  30.917  25.445  1.00  0.00    -0.244 OA
BRANCH   7   9
ATOM      9  C   UNL A   1      31.271  28.655  24.746  1.00  0.00     0.131 C 
ATOM     10  C   UNL A   1      30.673  29.697  22.515  1.00  0.00     0.043 C 
ATOM     11  C   UNL A   1      30.803  28.545  23.479  1.00  0.00    -0.032 C 
ATOM     12  C   UNL A   1      30.329  27.232  22.867  1.00  0.00     0.105 C 
ATOM     13  N   UNL A   1      31.441  27.539  25.503  1.00  0.00    -0.289 N 
ATOM     14  S   UNL A   1      29.995  25.904  24.067  1.00  0.00    -0.129 SA
ATOM     15  C   UNL A   1      31.367  27.203  26.805  1.00  0.00     0.253 C 
ATOM     16  C   UNL A   1      31.538  26.203  24.970  1.00  0.00     0.181 C 
ATOM     17  O   UNL A   1      31.086  27.841  27.799  1.00  0.00    -0.272 OA
ATOM     18  C   UNL A   1      31.643  25.713  26.440  1.00  0.00     0.206 C 
BRANCH  18  19
ATOM     19  N   UNL A   1      30.670  24.682  26.870  1.00  0.00    -0.336 N 
ATOM     20  C   UNL A   1      30.876  23.315  26.829  1.00  0.00     0.272 C 
ATOM     21  H   UNL A   1      29.802  24.996  27.214  1.00  0.00     0.164 HD
ATOM     22  O   UNL A   1      29.913  22.562  26.950  1.00  0.00    -0.267 OA
BRANCH  20  23
ATOM     23  C   UNL A   1      32.256  22.867  26.616  1.00  0.00     0.150 A 
ATOM     24  C   UNL A   1      33.223  22.603  27.623  1.00  0.00     0.056 A 
ATOM     25  N   UNL A   1      32.810  22.784  25.390  1.00  0.00    -0.168 NA
ATOM     26  C   UNL A   1      34.382  22.306  26.954  1.00  0.00     0.109 A 
ATOM     27  N   UNL A   1      34.074  22.378  25.629  1.00  0.00    -0.275 N 
ATOM     28  C   UNL A   1      34.987  22.152  24.536  1.00  0.00     0.173 C 
ENDBRANCH  20  23
ENDBRANCH  18  19
ENDBRANCH   7   9
ENDBRANCH   6   7
ENDBRANCH   5   6
ENDBRANCH   4   5
ENDBRANCH   3   4
ENDBRANCH   2   3
ENDBRANCH   1   2
BRANCH   1  29
ATOM     29  O   UNL A   1      36.925  34.025  30.370  1.00  0.00    -0.376 OA
BRANCH  29  30
ATOM     30  C   UNL A   1      36.026  33.828  31.449  1.00  0.00     0.202 C 
BRANCH  30  31
ATOM     31  C   UNL A   1      36.238  32.705  32.471  1.00  0.00     0.261 C 
BRANCH  31  32
ATOM     32  O   UNL A   1      37.359  31.853  32.215  1.00  0.00    -0.460 OA
BRANCH  32  33
ATOM     33  C   UNL A   1      37.053  30.659  31.646  1.00  0.00     0.338 C 
ATOM     34  O   UNL A   1      35.955  30.137  31.576  1.00  0.00    -0.246 OA
BRANCH  33  35
ATOM     35  C   UNL A   1      38.239  30.142  30.938  1.00  0.00     0.060 A 
ATOM     36  C   UNL A   1      39.271  29.574  31.696  1.00  0.00     0.016 A 
ATOM     37  C   UNL A   1      38.350  30.251  29.551  1.00  0.00     0.016 A 
ATOM     38  C   UNL A   1      40.433  29.127  31.069  1.00  0.00     0.010 A 
ATOM     39  C   UNL A   1      39.526  29.829  28.927  1.00  0.00     0.010 A 
ATOM     40  C   UNL A   1      40.581  29.290  29.686  1.00  0.00    -0.014 A 
BRANCH  40  41
ATOM     41  C   UNL A   1      41.902  29.057  29.056  1.00  0.00     0.031 A 
ATOM     42  C   UNL A   1      42.203  27.693  28.505  1.00  0.00     0.074 A 
ATOM     43  C   UNL A   1      42.819  30.037  28.983  1.00  0.00     0.049 A 
ATOM     44  N   UNL A   1      43.299  27.244  27.953  1.00  0.00    -0.248 NA
ATOM     45  C   UNL A   1      41.125  26.696  28.603  1.00  0.00     0.031 C 
ATOM     46  C   UNL A   1      42.635  31.402  29.467  1.00  0.00     0.029 A 
ATOM     47  N   UNL A   1      44.093  30.024  28.476  1.00  0.00    -0.354 N 
ATOM     48  C   UNL A   1      43.049  25.913  27.645  1.00  0.00     0.074 A 
ATOM     49  C   UNL A   1      41.705  25.620  28.095  1.00  0.00     0.031 C 
ATOM     50  C   UNL A   1      43.762  32.097  29.236  1.00  0.00     0.029 A 
ATOM     51  C   UNL A   1      44.748  31.225  28.602  1.00  0.00     0.049 A 
ATOM     52  H   UNL A   1      44.500  29.230  28.061  1.00  0.00     0.167 HD
ATOM     53  C   UNL A   1      43.865  25.015  27.044  1.00  0.00     0.037 A 
ATOM     54  C   UNL A   1      46.003  31.574  28.252  1.00  0.00     0.037 A 
ATOM     55  C   UNL A   1      45.205  25.308  26.606  1.00  0.00     0.049 A 
ATOM     56  C   UNL A   1      46.910  30.545  27.627  1.00  0.00     0.074 A 
ATOM     57  C   UNL A   1      46.106  24.471  25.972  1.00  0.00     0.029 A 
ATOM     58  N   UNL A   1      45.841  26.530  26.767  1.00  0.00    -0.354 N 
ATOM     59  N   UNL A   1      46.656  29.295  27.319  1.00  0.00    -0.248 NA
ATOM     60  C   UNL A   1      48.282  30.971  27.314  1.00  0.00     0.031 C 
ATOM     61  C   UNL A   1      47.304  25.171  25.798  1.00  0.00     0.029 A 
ATOM     62  C   UNL A   1      47.134  26.460  26.275  1.00  0.00     0.049 A 
ATOM     63  H   UNL A   1      45.433  27.330  27.173  1.00  0.00     0.167 HD
ATOM     64  C   UNL A   1      47.826  28.794  26.757  1.00  0.00     0.074 A 
ATOM     65  C   UNL A   1      48.787  29.877  26.758  1.00  0.00     0.031 C 
ATOM     66  C   UNL A   1      48.082  27.548  26.282  1.00  0.00     0.037 A 
BRANCH  53  67
ATOM     67  C   UNL A   1      43.338  23.619  26.869  1.00  0.00     0.058 A 
ATOM     68  C   UNL A   1      43.178  22.744  27.956  1.00  0.00     0.135 A 
ATOM     69  C   UNL A   1      42.993  23.146  25.592  1.00  0.00     0.135 A 
ATOM     70  F   UNL A   1      43.510  23.137  29.195  1.00  0.00    -0.206 F 
ATOM     71  C   UNL A   1      42.730  21.439  27.778  1.00  0.00     0.059 A 
ATOM     72  C   UNL A   1      42.518  21.853  25.395  1.00  0.00     0.059 A 
ATOM     73  F   UNL A   1      43.130  23.939  24.518  1.00  0.00    -0.206 F 
ATOM     74  C   UNL A   1      42.408  21.001  26.492  1.00  0.00     0.060 A 
BRANCH  74  75
ATOM     75  S   UNL A   1      41.851  19.298  26.272  1.00  0.00     0.124 S 
ATOM     76  O   UNL A   1      40.402  19.470  26.226  1.00  0.00    -0.237 OA
ATOM     77  O   UNL A   1      42.483  18.920  25.013  1.00  0.00    -0.237 OA
ATOM     78  O   UNL A   1      42.364  18.617  27.457  1.00  0.00    -0.744 OA
ENDBRANCH  74  75
ENDBRANCH  53  67
BRANCH  54  79
ATOM     79  C   UNL A   1      46.475  32.965  28.476  1.00  0.00     0.058 A 
ATOM     80  C   UNL A   1      46.344  33.938  27.475  1.00  0.00     0.135 A 
ATOM     81  C   UNL A   1      47.054  33.355  29.693  1.00  0.00     0.135 A 
ATOM     82  F   UNL A   1      45.809  33.617  26.287  1.00  0.00    -0.206 F 
ATOM     83  C   UNL A   1      46.769  35.247  27.671  1.00  0.00     0.059 A 
ATOM     84  C   UNL A   1      47.462  34.665  29.924  1.00  0.00     0.059 A 
ATOM     85  F   UNL A   1      47.202  32.462  30.685  1.00  0.00    -0.206 F 
ATOM     86  C   UNL A   1      47.317  35.604  28.903  1.00  0.00     0.060 A 
BRANCH  86  87
ATOM     87  S   UNL A   1      47.776  37.330  29.171  1.00  0.00     0.124 S 
ATOM     88  O   UNL A   1      46.993  37.664  30.353  1.00  0.00    -0.237 OA
ATOM     89  O   UNL A   1      49.220  37.229  29.369  1.00  0.00    -0.237 OA
ATOM     90  O   UNL A   1      47.365  37.982  27.932  1.00  0.00    -0.744 OA
ENDBRANCH  86  87
ENDBRANCH  54  79
BRANCH  66  91
ATOM     91  C   UNL A   1      49.446  27.289  25.701  1.00  0.00     0.058 A 
ATOM     92  C   UNL A   1      50.526  26.887  26.503  1.00  0.00     0.135 A 
ATOM     93  C   UNL A   1      49.659  27.386  24.317  1.00  0.00     0.135 A 
ATOM     94  F   UNL A   1      50.379  26.783  27.832  1.00  0.00    -0.206 F 
ATOM     95  C   UNL A   1      51.774  26.608  25.954  1.00  0.00     0.059 A 
ATOM     96  C   UNL A   1      50.892  27.087  23.743  1.00  0.00     0.059 A 
ATOM     97  F   UNL A   1      48.658  27.757  23.503  1.00  0.00    -0.206 F 
ATOM     98  C   UNL A   1      51.947  26.709  24.572  1.00  0.00     0.060 A 
BRANCH  98  99
ATOM     99  S   UNL A   1      53.561  26.309  23.868  1.00  0.00     0.124 S 
ATOM    100  O   UNL A   1      53.221  26.067  22.470  1.00  0.00    -0.237 OA
ATOM    101  O   UNL A   1      54.329  27.522  24.133  1.00  0.00    -0.237 OA
ATOM    102  O   UNL A   1      53.980  25.133  24.625  1.00  0.00    -0.744 OA
ENDBRANCH  98  99
ENDBRANCH  66  91
ENDBRANCH  40  41
ENDBRANCH  33  35
ENDBRANCH  32  33
ENDBRANCH  31  32
ENDBRANCH  30  31
ENDBRANCH  29  30
ENDBRANCH   1  29
TORSDOF 22
ENDMDL
MODEL 3
REMARK VINA RESULT:     -10.6      1.615      8.675
REMARK SMILES CC1=C(C(=O)OCCOCCOCCOC(=O)c2ccc(-c3c4nc(c(-c5c(F)cc(S(=O)(=O)[O-])cc5F)c5ccc([nH]5)c(-c5c(F)cc(S(=O)(=O)[O-])cc5F)c5nc(c(-c6c(F)cc(S(=O)(=O)[O-])cc6F)c6ccc3[nH]6)C=C5)C=C4)cc2)N2C(=O)[C@@H](NC(=O)c3ccn(C)n3)[C@H]2SC1
REMARK SMILES IDX 11 1 10 2 9 3 8 4 7 5 6 6 4 7 5 8 3 9 1 10 2 11 99 12 84 13
REMARK SMILES IDX 98 14 85 15 97 16 86 17 87 18 88 19 89 20 90 22 91 23 92 24
REMARK SMILES IDX 96 25 93 26 94 27 95 28 12 29 13 30 14 31 15 32 16 33 17 34
REMARK SMILES IDX 18 35 19 36 83 37 20 38 82 39 21 40 22 41 23 42 76 43 24 44
REMARK SMILES IDX 81 45 75 46 77 47 25 48 80 49 74 50 73 51 26 53 60 54 39 55
REMARK SMILES IDX 59 56 40 57 43 58 58 59 78 60 41 61 42 62 57 64 79 65 44 66
REMARK SMILES IDX 27 67 28 68 37 69 29 70 30 71 36 72 38 73 31 74 32 75 33 76
REMARK SMILES IDX 34 77 35 78 61 79 62 80 71 81 63 82 64 83 70 84 72 85 65 86
REMARK SMILES IDX 66 87 67 88 68 89 69 90 45 91 46 92 55 93 47 94 48 95 54 96
REMARK SMILES IDX 56 97 49 98 50 99 51 100 52 101 53 102
REMARK H PARENT 88 21 77 52 43 63
REMARK Flexibility Score: inf
ROOT
ATOM      1  C   UNL A   1      30.978  26.583  26.306  1.00  0.00     0.188 C 
ENDROOT
BRANCH   1   2
ATOM      2  C   UNL A   1      31.210  25.070  26.103  1.00  0.00     0.188 C 
BRANCH   2   3
ATOM      3  O   UNL A   1      32.427  24.485  26.535  1.00  0.00    -0.376 OA
BRANCH   3   4
ATOM      4  C   UNL A   1      32.395  23.285  27.298  1.00  0.00     0.202 C 
BRANCH   4   5
ATOM      5  C   UNL A   1      33.691  22.551  27.647  1.00  0.00     0.261 C 
BRANCH   5   6
ATOM      6  O   UNL A   1      33.762  21.242  27.062  1.00  0.00    -0.459 OA
BRANCH   6   7
ATOM      7  C   UNL A   1      34.459  21.173  25.900  1.00  0.00     0.355 C 
ATOM      8  O   UNL A   1      35.676  21.167  25.790  1.00  0.00    -0.244 OA
BRANCH   7   9
ATOM      9  C   UNL A   1      33.551  21.053  24.713  1.00  0.00     0.131 C 
ATOM     10  C   UNL A   1      33.083  18.585  25.045  1.00  0.00     0.043 C 
ATOM     11  C   UNL A   1      32.945  19.904  24.327  1.00  0.00    -0.032 C 
ATOM     12  C   UNL A   1      32.052  19.794  23.097  1.00  0.00     0.105 C 
ATOM     13  N   UNL A   1      33.284  22.211  24.054  1.00  0.00    -0.289 N 
ATOM     14  S   UNL A   1      32.202  21.170  21.915  1.00  0.00    -0.129 SA
ATOM     15  C   UNL A   1      33.938  23.346  23.738  1.00  0.00     0.253 C 
ATOM     16  C   UNL A   1      32.126  22.424  23.222  1.00  0.00     0.181 C 
ATOM     17  O   UNL A   1      35.074  23.720  23.946  1.00  0.00    -0.272 OA
ATOM     18  C   UNL A   1      32.701  23.837  22.927  1.00  0.00     0.206 C 
BRANCH  18  19
ATOM     19  N   UNL A   1      32.881  24.199  21.502  1.00  0.00    -0.336 N 
ATOM     20  C   UNL A   1      32.685  25.457  20.961  1.00  0.00     0.272 C 
ATOM     21  H   UNL A   1      33.165  23.484  20.887  1.00  0.00     0.164 HD
ATOM     22  O   UNL A   1      32.597  25.576  19.741  1.00  0.00    -0.267 OA
BRANCH  20  23
ATOM     23  C   UNL A   1      32.569  26.568  21.911  1.00  0.00     0.150 A 
ATOM     24  C   UNL A   1      33.604  27.084  22.736  1.00  0.00     0.056 A 
ATOM     25  N   UNL A   1      31.389  27.149  22.206  1.00  0.00    -0.168 NA
ATOM     26  C   UNL A   1      33.012  28.044  23.516  1.00  0.00     0.109 A 
ATOM     27  N   UNL A   1      31.705  28.080  23.130  1.00  0.00    -0.275 N 
ATOM     28  C   UNL A   1      30.686  28.937  23.682  1.00  0.00     0.173 C 
ENDBRANCH  20  23
ENDBRANCH  18  19
ENDBRANCH   7   9
ENDBRANCH   6   7
ENDBRANCH   5   6
ENDBRANCH   4   5
ENDBRANCH   3   4
ENDBRANCH   2   3
ENDBRANCH   1   2
BRANCH   1  29
ATOM     29  O   UNL A   1      31.592  27.290  27.370  1.00  0.00    -0.376 OA
BRANCH  29  30
ATOM     30  C   UNL A   1      31.520  28.705  27.397  1.00  0.00     0.202 C 
BRANCH  30  31
ATOM     31  C   UNL A   1      32.739  29.574  27.062  1.00  0.00     0.261 C 
BRANCH  31  32
ATOM     32  O   UNL A   1      33.953  29.201  27.723  1.00  0.00    -0.460 OA
BRANCH  32  33
ATOM     33  C   UNL A   1      34.725  30.240  28.132  1.00  0.00     0.338 C 
ATOM     34  O   UNL A   1      34.348  31.348  28.472  1.00  0.00    -0.246 OA
BRANCH  33  35
ATOM     35  C   UNL A   1      36.116  29.778  28.288  1.00  0.00     0.060 A 
ATOM     36  C   UNL A   1      36.532  29.338  29.552  1.00  0.00     0.016 A 
ATOM     37  C   UNL A   1      37.009  29.814  27.217  1.00  0.00     0.016 A 
ATOM     38  C   UNL A   1      37.854  28.948  29.755  1.00  0.00     0.010 A 
ATOM     39  C   UNL A   1      38.341  29.449  27.428  1.00  0.00     0.010 A 
ATOM     40  C   UNL A   1      38.774  29.041  28.703  1.00  0.00    -0.014 A 
BRANCH  40  41
ATOM     41  C   UNL A   1      40.221  28.875  28.974  1.00  0.00     0.031 A 
ATOM     42  C   UNL A   1      40.874  27.571  28.617  1.00  0.00     0.074 A 
ATOM     43  C   UNL A   1      40.939  29.863  29.536  1.00  0.00     0.049 A 
ATOM     44  N   UNL A   1      42.108  27.183  28.801  1.00  0.00    -0.248 NA
ATOM     45  C   UNL A   1      40.013  26.564  27.977  1.00  0.00     0.031 C 
ATOM     46  C   UNL A   1      40.419  31.176  29.911  1.00  0.00     0.029 A 
ATOM     47  N   UNL A   1      42.263  29.905  29.894  1.00  0.00    -0.354 N 
ATOM     48  C   UNL A   1      42.172  25.885  28.309  1.00  0.00     0.074 A 
ATOM     49  C   UNL A   1      40.846  25.543  27.842  1.00  0.00     0.031 C 
ATOM     50  C   UNL A   1      41.417  31.896  30.452  1.00  0.00     0.029 A 
ATOM     51  C   UNL A   1      42.638  31.093  30.474  1.00  0.00     0.049 A 
ATOM     52  H   UNL A   1      42.884  29.157  29.750  1.00  0.00     0.167 HD
ATOM     53  C   UNL A   1      43.239  25.053  28.253  1.00  0.00     0.037 A 
ATOM     54  C   UNL A   1      43.830  31.480  30.972  1.00  0.00     0.037 A 
ATOM     55  C   UNL A   1      44.555  25.393  28.728  1.00  0.00     0.049 A 
ATOM     56  C   UNL A   1      44.992  30.520  30.942  1.00  0.00     0.074 A 
ATOM     57  C   UNL A   1      45.705  24.625  28.701  1.00  0.00     0.029 A 
ATOM     58  N   UNL A   1      44.894  26.598  29.327  1.00  0.00    -0.354 N 
ATOM     59  N   UNL A   1      45.049  29.303  30.454  1.00  0.00    -0.248 NA
ATOM     60  C   UNL A   1      46.251  30.982  31.545  1.00  0.00     0.031 C 
ATOM     61  C   UNL A   1      46.726  25.346  29.331  1.00  0.00     0.029 A 
ATOM     62  C   UNL A   1      46.227  26.583  29.703  1.00  0.00     0.049 A 
ATOM     63  H   UNL A   1      44.276  27.354  29.464  1.00  0.00     0.167 HD
ATOM     64  C   UNL A   1      46.351  28.864  30.670  1.00  0.00     0.074 A 
ATOM     65  C   UNL A   1      47.053  29.948  31.325  1.00  0.00     0.031 C 
ATOM     66  C   UNL A   1      46.915  27.670  30.355  1.00  0.00     0.037 A 
BRANCH  53  67
ATOM     67  C   UNL A   1      43.007  23.676  27.698  1.00  0.00     0.058 A 
ATOM     68  C   UNL A   1      43.183  23.387  26.335  1.00  0.00     0.135 A 
ATOM     69  C   UNL A   1      42.598  22.631  28.541  1.00  0.00     0.135 A 
ATOM     70  F   UNL A   1      43.554  24.352  25.480  1.00  0.00    -0.206 F 
ATOM     71  C   UNL A   1      42.924  22.119  25.822  1.00  0.00     0.059 A 
ATOM     72  C   UNL A   1      42.360  21.350  28.055  1.00  0.00     0.059 A 
ATOM     73  F   UNL A   1      42.412  22.854  29.852  1.00  0.00    -0.206 F 
ATOM     74  C   UNL A   1      42.507  21.108  26.691  1.00  0.00     0.060 A 
BRANCH  74  75
ATOM     75  S   UNL A   1      42.153  19.475  26.010  1.00  0.00     0.124 S 
ATOM     76  O   UNL A   1      42.929  19.500  24.774  1.00  0.00    -0.237 OA
ATOM     77  O   UNL A   1      42.652  18.584  27.052  1.00  0.00    -0.237 OA
ATOM     78  O   UNL A   1      40.703  19.485  25.839  1.00  0.00    -0.744 OA
ENDBRANCH  74  75
ENDBRANCH  53  67
BRANCH  54  79
ATOM     79  C   UNL A   1      43.990  32.847  31.534  1.00  0.00     0.058 A 
ATOM     80  C   UNL A   1      44.417  33.910  30.726  1.00  0.00     0.135 A 
ATOM     81  C   UNL A   1      43.709  33.122  32.881  1.00  0.00     0.135 A 
ATOM     82  F   UNL A   1      44.711  33.701  29.434  1.00  0.00    -0.206 F 
ATOM     83  C   UNL A   1      44.561  35.197  31.232  1.00  0.00     0.059 A 
ATOM     84  C   UNL A   1      43.817  34.407  33.404  1.00  0.00     0.059 A 
ATOM     85  F   UNL A   1      43.295  32.140  33.697  1.00  0.00    -0.206 F 
ATOM     86  C   UNL A   1      44.248  35.438  32.570  1.00  0.00     0.060 A 
BRANCH  86  87
ATOM     87  S   UNL A   1      44.350  37.133  33.183  1.00  0.00     0.124 S 
ATOM     88  O   UNL A   1      45.647  37.129  33.848  1.00  0.00    -0.237 OA
ATOM     89  O   UNL A   1      44.270  37.905  31.946  1.00  0.00    -0.237 OA
ATOM     90  O   UNL A   1      43.189  37.244  34.059  1.00  0.00    -0.744 OA
ENDBRANCH  86  87
ENDBRANCH  54  79
BRANCH  66  91
ATOM     91  C   UNL A   1      48.369  27.475  30.690  1.00  0.00     0.058 A 
ATOM     92  C   UNL A   1      48.776  26.847  31.878  1.00  0.00     0.135 A 
ATOM     93  C   UNL A   1      49.367  27.867  29.783  1.00  0.00     0.135 A 
ATOM     94  F   UNL A   1      47.864  26.458  32.783  1.00  0.00    -0.206 F 
ATOM     95  C   UNL A   1      50.120  26.632  32.162  1.00  0.00     0.059 A 
ATOM     96  C   UNL A   1      50.716  27.639  30.035  1.00  0.00     0.059 A 
ATOM     97  F   UNL A   1      49.033  28.463  28.627  1.00  0.00    -0.206 F 
ATOM     98  C   UNL A   1      51.084  27.030  31.234  1.00  0.00     0.060 A 
BRANCH  98  99
ATOM     99  S   UNL A   1      52.824  26.711  31.598  1.00  0.00     0.124 S 
ATOM    100  O   UNL A   1      52.725  25.809  32.742  1.00  0.00    -0.237 OA
ATOM    101  O   UNL A   1      53.301  26.111  30.356  1.00  0.00    -0.237 OA
ATOM    102  O   UNL A   1      53.359  28.038  31.890  1.00  0.00    -0.744 OA
ENDBRANCH  98  99
ENDBRANCH  66  91
ENDBRANCH  40  41
ENDBRANCH  33  35
ENDBRANCH  32  33
ENDBRANCH  31  32
ENDBRANCH  30  31
ENDBRANCH  29  30
ENDBRANCH   1  29
TORSDOF 22
ENDMDL
