MODEL 1
REMARK VINA RESULT:     -10.0      0.000      0.000
REMARK SMILES O=C(C[C@H]1C(=O)Nc2ccccc21)OCCOCCOCCOC(=O)c1ccc(-c2c3nc(c(-c4c(F)cc(S(=O)(=O)[O-])cc4F)c4ccc([nH]4)c(-c4c(F)cc(S(=O)(=O)[O-])cc4F)c4nc(c(-c5c(F)cc(S(=O)(=O)[O-])cc5F)c5ccc2[nH]5)C=C4)C=C3)cc1
REMARK SMILES IDX 19 1 18 2 17 3 16 4 15 5 14 6 2 7 1 8 3 9 4 10 5 11 13 12
REMARK SMILES IDX 6 13 7 14 8 15 12 16 9 18 11 19 10 20 20 21 21 22 22 23
REMARK SMILES IDX 23 24 24 25 25 26 26 27 27 28 91 29 28 30 90 31 29 32 30 33
REMARK SMILES IDX 31 34 84 35 32 36 89 37 83 38 85 39 33 40 88 41 82 42 81 43
REMARK SMILES IDX 34 45 68 46 47 47 67 48 48 49 51 50 66 51 86 52 49 53 50 54
REMARK SMILES IDX 65 56 87 57 52 58 35 59 36 60 45 61 37 62 38 63 44 64 46 65
REMARK SMILES IDX 39 66 40 67 41 68 42 69 43 70 69 71 70 72 79 73 71 74 72 75
REMARK SMILES IDX 78 76 80 77 73 78 74 79 75 80 76 81 77 82 53 83 54 84 63 85
REMARK SMILES IDX 55 86 56 87 62 88 64 89 57 90 58 91 59 92 60 93 61 94
REMARK H PARENT 7 17 85 44 51 55
REMARK Flexibility Score: inf
ROOT
ATOM      1  C   UNL A   1      35.835  20.952  25.342  1.00  0.00     0.188 C 
ENDROOT
BRANCH   1   2
ATOM      2  C   UNL A   1      34.484  21.115  24.628  1.00  0.00     0.188 C 
BRANCH   2   3
ATOM      3  O   UNL A   1      34.106  22.449  24.364  1.00  0.00    -0.376 OA
BRANCH   3   4
ATOM      4  C   UNL A   1      34.395  23.011  23.104  1.00  0.00     0.202 C 
BRANCH   4   5
ATOM      5  C   UNL A   1      33.245  23.187  22.115  1.00  0.00     0.261 C 
BRANCH   5   6
ATOM      6  O   UNL A   1      32.592  24.469  22.048  1.00  0.00    -0.463 OA
BRANCH   6   7
ATOM      7  C   UNL A   1      33.105  25.687  22.317  1.00  0.00     0.307 C 
ATOM      8  O   UNL A   1      33.662  26.324  21.424  1.00  0.00    -0.252 OA
BRANCH   7   9
ATOM      9  C   UNL A   1      33.074  26.199  23.730  1.00  0.00     0.141 C 
BRANCH   9  10
ATOM     10  C   UNL A   1      31.695  26.465  24.311  1.00  0.00     0.122 C 
ATOM     11  C   UNL A   1      31.452  25.329  25.317  1.00  0.00     0.232 C 
ATOM     12  C   UNL A   1      31.647  27.676  25.199  1.00  0.00    -0.011 A 
ATOM     13  O   UNL A   1      31.319  24.149  25.043  1.00  0.00    -0.274 OA
ATOM     14  N   UNL A   1      31.512  25.883  26.587  1.00  0.00    -0.325 N 
ATOM     15  C   UNL A   1      31.637  27.261  26.526  1.00  0.00     0.045 A 
ATOM     16  C   UNL A   1      31.692  29.022  24.877  1.00  0.00     0.007 A 
ATOM     17  H   UNL A   1      31.470  25.364  27.423  1.00  0.00     0.169 HD
ATOM     18  C   UNL A   1      31.752  28.152  27.568  1.00  0.00     0.026 A 
ATOM     19  C   UNL A   1      31.814  29.943  25.913  1.00  0.00     0.000 A 
ATOM     20  C   UNL A   1      31.860  29.510  27.248  1.00  0.00     0.002 A 
ENDBRANCH   9  10
ENDBRANCH   7   9
ENDBRANCH   6   7
ENDBRANCH   5   6
ENDBRANCH   4   5
ENDBRANCH   3   4
ENDBRANCH   2   3
ENDBRANCH   1   2
BRANCH   1  21
ATOM     21  O   UNL A   1      36.472  22.099  25.884  1.00  0.00    -0.376 OA
BRANCH  21  22
ATOM     22  C   UNL A   1      37.880  22.246  25.735  1.00  0.00     0.202 C 
BRANCH  22  23
ATOM     23  C   UNL A   1      38.785  21.015  25.517  1.00  0.00     0.261 C 
BRANCH  23  24
ATOM     24  O   UNL A   1      39.641  20.640  26.617  1.00  0.00    -0.460 OA
BRANCH  24  25
ATOM     25  C   UNL A   1      40.887  20.214  26.300  1.00  0.00     0.338 C 
ATOM     26  O   UNL A   1      41.179  19.161  25.748  1.00  0.00    -0.246 OA
BRANCH  25  27
ATOM     27  C   UNL A   1      41.881  21.289  26.537  1.00  0.00     0.060 A 
ATOM     28  C   UNL A   1      42.255  21.578  27.862  1.00  0.00     0.016 A 
ATOM     29  C   UNL A   1      42.419  22.028  25.484  1.00  0.00     0.016 A 
ATOM     30  C   UNL A   1      43.145  22.621  28.139  1.00  0.00     0.010 A 
ATOM     31  C   UNL A   1      43.273  23.101  25.766  1.00  0.00     0.010 A 
ATOM     32  C   UNL A   1      43.612  23.426  27.095  1.00  0.00    -0.014 A 
BRANCH  32  33
ATOM     33  C   UNL A   1      44.203  24.759  27.386  1.00  0.00     0.031 A 
ATOM     34  C   UNL A   1      43.254  25.867  27.765  1.00  0.00     0.074 A 
ATOM     35  C   UNL A   1      45.522  25.005  27.294  1.00  0.00     0.049 A 
ATOM     36  N   UNL A   1      43.479  27.146  27.913  1.00  0.00    -0.248 NA
ATOM     37  C   UNL A   1      41.854  25.471  27.991  1.00  0.00     0.031 C 
ATOM     38  C   UNL A   1      46.552  24.014  27.001  1.00  0.00     0.029 A 
ATOM     39  N   UNL A   1      46.214  26.187  27.418  1.00  0.00    -0.354 N 
ATOM     40  C   UNL A   1      42.246  27.709  28.225  1.00  0.00     0.074 A 
ATOM     41  C   UNL A   1      41.276  26.637  28.223  1.00  0.00     0.031 C 
ATOM     42  C   UNL A   1      47.745  24.634  26.933  1.00  0.00     0.029 A 
ATOM     43  C   UNL A   1      47.555  26.072  27.136  1.00  0.00     0.049 A 
ATOM     44  H   UNL A   1      45.791  27.036  27.682  1.00  0.00     0.167 HD
ATOM     45  C   UNL A   1      41.948  29.003  28.486  1.00  0.00     0.037 A 
ATOM     46  C   UNL A   1      48.509  27.020  27.018  1.00  0.00     0.037 A 
ATOM     47  C   UNL A   1      42.916  30.067  28.474  1.00  0.00     0.049 A 
ATOM     48  C   UNL A   1      48.146  28.470  27.237  1.00  0.00     0.074 A 
ATOM     49  C   UNL A   1      42.720  31.412  28.733  1.00  0.00     0.029 A 
ATOM     50  N   UNL A   1      44.262  29.909  28.175  1.00  0.00    -0.354 N 
ATOM     51  N   UNL A   1      46.980  28.996  27.535  1.00  0.00    -0.248 NA
ATOM     52  C   UNL A   1      49.227  29.458  27.104  1.00  0.00     0.031 C 
ATOM     53  C   UNL A   1      43.934  32.076  28.530  1.00  0.00     0.029 A 
ATOM     54  C   UNL A   1      44.904  31.135  28.218  1.00  0.00     0.049 A 
ATOM     55  H   UNL A   1      44.697  29.052  27.963  1.00  0.00     0.167 HD
ATOM     56  C   UNL A   1      47.196  30.366  27.664  1.00  0.00     0.074 A 
ATOM     57  C   UNL A   1      48.604  30.590  27.408  1.00  0.00     0.031 C 
ATOM     58  C   UNL A   1      46.311  31.345  27.979  1.00  0.00     0.037 A 
BRANCH  45  59
ATOM     59  C   UNL A   1      40.505  29.341  28.752  1.00  0.00     0.058 A 
ATOM     60  C   UNL A   1      40.009  29.524  30.054  1.00  0.00     0.135 A 
ATOM     61  C   UNL A   1      39.603  29.480  27.684  1.00  0.00     0.135 A 
ATOM     62  F   UNL A   1      40.821  29.383  31.113  1.00  0.00    -0.206 F 
ATOM     63  C   UNL A   1      38.664  29.791  30.289  1.00  0.00     0.059 A 
ATOM     64  C   UNL A   1      38.261  29.782  27.895  1.00  0.00     0.059 A 
ATOM     65  F   UNL A   1      40.020  29.314  26.419  1.00  0.00    -0.206 F 
ATOM     66  C   UNL A   1      37.797  29.915  29.201  1.00  0.00     0.060 A 
BRANCH  66  67
ATOM     67  S   UNL A   1      36.051  30.244  29.523  1.00  0.00     0.124 S 
ATOM     68  O   UNL A   1      35.883  29.651  30.847  1.00  0.00    -0.237 OA
ATOM     69  O   UNL A   1      35.994  31.702  29.470  1.00  0.00    -0.237 OA
ATOM     70  O   UNL A   1      35.368  29.553  28.435  1.00  0.00    -0.744 OA
ENDBRANCH  66  67
ENDBRANCH  45  59
BRANCH  46  71
ATOM     71  C   UNL A   1      49.901  26.630  26.659  1.00  0.00     0.058 A 
ATOM     72  C   UNL A   1      50.860  26.367  27.648  1.00  0.00     0.135 A 
ATOM     73  C   UNL A   1      50.297  26.494  25.317  1.00  0.00     0.135 A 
ATOM     74  F   UNL A   1      50.541  26.503  28.944  1.00  0.00    -0.206 F 
ATOM     75  C   UNL A   1      52.159  25.983  27.323  1.00  0.00     0.059 A 
ATOM     76  C   UNL A   1      51.581  26.085  24.968  1.00  0.00     0.059 A 
ATOM     77  F   UNL A   1      49.419  26.736  24.331  1.00  0.00    -0.206 F 
ATOM     78  C   UNL A   1      52.507  25.834  25.980  1.00  0.00     0.060 A 
BRANCH  78  79
ATOM     79  S   UNL A   1      54.172  25.263  25.576  1.00  0.00     0.124 S 
ATOM     80  O   UNL A   1      54.768  26.466  25.005  1.00  0.00    -0.237 OA
ATOM     81  O   UNL A   1      54.681  24.858  26.883  1.00  0.00    -0.237 OA
ATOM     82  O   UNL A   1      53.936  24.170  24.638  1.00  0.00    -0.744 OA
ENDBRANCH  78  79
ENDBRANCH  46  71
BRANCH  58  83
ATOM     83  C   UNL A   1      46.832  32.751  28.134  1.00  0.00     0.058 A 
ATOM     84  C   UNL A   1      47.394  33.215  29.332  1.00  0.00     0.135 A 
ATOM     85  C   UNL A   1      46.850  33.617  27.026  1.00  0.00     0.135 A 
ATOM     86  F   UNL A   1      47.400  32.433  30.423  1.00  0.00    -0.206 F 
ATOM     87  C   UNL A   1      47.944  34.490  29.432  1.00  0.00     0.059 A 
ATOM     88  C   UNL A   1      47.422  34.883  27.094  1.00  0.00     0.059 A 
ATOM     89  F   UNL A   1      46.336  33.221  25.851  1.00  0.00    -0.206 F 
ATOM     90  C   UNL A   1      47.960  35.315  28.304  1.00  0.00     0.060 A 
BRANCH  90  91
ATOM     91  S   UNL A   1      48.727  36.945  28.432  1.00  0.00     0.124 S 
ATOM     92  O   UNL A   1      50.136  36.624  28.227  1.00  0.00    -0.237 OA
ATOM     93  O   UNL A   1      48.081  37.679  27.348  1.00  0.00    -0.237 OA
ATOM     94  O   UNL A   1      48.373  37.385  29.777  1.00  0.00    -0.744 OA
ENDBRANCH  90  91
ENDBRANCH  58  83
ENDBRANCH  32  33
ENDBRANCH  25  27
ENDBRANCH  24  25
ENDBRANCH  23  24
ENDBRANCH  22  23
ENDBRANCH  21  22
ENDBRANCH   1  21
TORSDOF 21
ENDMDL
MODEL 2
REMARK VINA RESULT:     -10.0      1.330      2.244
REMARK SMILES O=C(C[C@H]1C(=O)Nc2ccccc21)OCCOCCOCCOC(=O)c1ccc(-c2c3nc(c(-c4c(F)cc(S(=O)(=O)[O-])cc4F)c4ccc([nH]4)c(-c4c(F)cc(S(=O)(=O)[O-])cc4F)c4nc(c(-c5c(F)cc(S(=O)(=O)[O-])cc5F)c5ccc2[nH]5)C=C4)C=C3)cc1
REMARK SMILES IDX 19 1 18 2 17 3 16 4 15 5 14 6 2 7 1 8 3 9 4 10 5 11 13 12
REMARK SMILES IDX 6 13 7 14 8 15 12 16 9 18 11 19 10 20 20 21 21 22 22 23
REMARK SMILES IDX 23 24 24 25 25 26 26 27 27 28 91 29 28 30 90 31 29 32 30 33
REMARK SMILES IDX 31 34 84 35 32 36 89 37 83 38 85 39 33 40 88 41 82 42 81 43
REMARK SMILES IDX 34 45 68 46 47 47 67 48 48 49 51 50 66 51 86 52 49 53 50 54
REMARK SMILES IDX 65 56 87 57 52 58 35 59 36 60 45 61 37 62 38 63 44 64 46 65
REMARK SMILES IDX 39 66 40 67 41 68 42 69 43 70 69 71 70 72 79 73 71 74 72 75
REMARK SMILES IDX 78 76 80 77 73 78 74 79 75 80 76 81 77 82 53 83 54 84 63 85
REMARK SMILES IDX 55 86 56 87 62 88 64 89 57 90 58 91 59 92 60 93 61 94
REMARK H PARENT 7 17 85 44 51 55
REMARK Flexibility Score: inf
ROOT
ATOM      1  C   UNL A   1      35.895  20.968  25.088  1.00  0.00     0.188 C 
ENDROOT
BRANCH   1   2
ATOM      2  C   UNL A   1      34.368  20.877  24.941  1.00  0.00     0.188 C 
BRANCH   2   3
ATOM      3  O   UNL A   1      33.716  22.109  24.720  1.00  0.00    -0.376 OA
BRANCH   3   4
ATOM      4  C   UNL A   1      32.334  22.119  24.441  1.00  0.00     0.202 C 
BRANCH   4   5
ATOM      5  C   UNL A   1      31.861  22.840  23.182  1.00  0.00     0.261 C 
BRANCH   5   6
ATOM      6  O   UNL A   1      31.792  24.279  23.203  1.00  0.00    -0.463 OA
BRANCH   6   7
ATOM      7  C   UNL A   1      32.426  25.161  22.404  1.00  0.00     0.307 C 
ATOM      8  O   UNL A   1      33.615  24.994  22.135  1.00  0.00    -0.252 OA
BRANCH   7   9
ATOM      9  C   UNL A   1      31.694  26.390  21.942  1.00  0.00     0.141 C 
BRANCH   9  10
ATOM     10  C   UNL A   1      31.527  27.493  22.974  1.00  0.00     0.122 C 
ATOM     11  C   UNL A   1      32.433  28.639  22.497  1.00  0.00     0.232 C 
ATOM     12  C   UNL A   1      30.171  28.139  22.940  1.00  0.00    -0.011 A 
ATOM     13  O   UNL A   1      33.650  28.611  22.443  1.00  0.00    -0.274 OA
ATOM     14  N   UNL A   1      31.606  29.659  22.051  1.00  0.00    -0.325 N 
ATOM     15  C   UNL A   1      30.274  29.369  22.299  1.00  0.00     0.045 A 
ATOM     16  C   UNL A   1      28.941  27.660  23.359  1.00  0.00     0.007 A 
ATOM     17  H   UNL A   1      31.925  30.483  21.616  1.00  0.00     0.169 HD
ATOM     18  C   UNL A   1      29.166  30.119  21.981  1.00  0.00     0.026 A 
ATOM     19  C   UNL A   1      27.804  28.398  23.044  1.00  0.00     0.000 A 
ATOM     20  C   UNL A   1      27.916  29.611  22.346  1.00  0.00     0.002 A 
ENDBRANCH   9  10
ENDBRANCH   7   9
ENDBRANCH   6   7
ENDBRANCH   5   6
ENDBRANCH   4   5
ENDBRANCH   3   4
ENDBRANCH   2   3
ENDBRANCH   1   2
BRANCH   1  21
ATOM     21  O   UNL A   1      36.467  22.145  25.638  1.00  0.00    -0.376 OA
BRANCH  21  22
ATOM     22  C   UNL A   1      37.883  22.251  25.728  1.00  0.00     0.202 C 
BRANCH  22  23
ATOM     23  C   UNL A   1      38.784  21.015  25.522  1.00  0.00     0.261 C 
BRANCH  23  24
ATOM     24  O   UNL A   1      39.630  20.639  26.630  1.00  0.00    -0.460 OA
BRANCH  24  25
ATOM     25  C   UNL A   1      40.870  20.192  26.323  1.00  0.00     0.338 C 
ATOM     26  O   UNL A   1      41.148  19.133  25.777  1.00  0.00    -0.246 OA
BRANCH  25  27
ATOM     27  C   UNL A   1      41.880  21.251  26.563  1.00  0.00     0.060 A 
ATOM     28  C   UNL A   1      42.273  21.519  27.888  1.00  0.00     0.016 A 
ATOM     29  C   UNL A   1      42.415  21.998  25.514  1.00  0.00     0.016 A 
ATOM     30  C   UNL A   1      43.179  22.546  28.168  1.00  0.00     0.010 A 
ATOM     31  C   UNL A   1      43.286  23.057  25.800  1.00  0.00     0.010 A 
ATOM     32  C   UNL A   1      43.643  23.360  27.129  1.00  0.00    -0.014 A 
BRANCH  32  33
ATOM     33  C   UNL A   1      44.254  24.682  27.431  1.00  0.00     0.031 A 
ATOM     34  C   UNL A   1      43.326  25.788  27.864  1.00  0.00     0.074 A 
ATOM     35  C   UNL A   1      45.571  24.920  27.304  1.00  0.00     0.049 A 
ATOM     36  N   UNL A   1      43.566  27.061  28.034  1.00  0.00    -0.248 NA
ATOM     37  C   UNL A   1      41.931  25.397  28.125  1.00  0.00     0.031 C 
ATOM     38  C   UNL A   1      46.584  23.927  26.958  1.00  0.00     0.029 A 
ATOM     39  N   UNL A   1      46.277  26.093  27.432  1.00  0.00    -0.354 N 
ATOM     40  C   UNL A   1      42.348  27.627  28.395  1.00  0.00     0.074 A 
ATOM     41  C   UNL A   1      41.370  26.562  28.400  1.00  0.00     0.031 C 
ATOM     42  C   UNL A   1      47.779  24.540  26.866  1.00  0.00     0.029 A 
ATOM     43  C   UNL A   1      47.608  25.974  27.107  1.00  0.00     0.049 A 
ATOM     44  H   UNL A   1      45.869  26.939  27.728  1.00  0.00     0.167 HD
ATOM     45  C   UNL A   1      42.069  28.917  28.695  1.00  0.00     0.037 A 
ATOM     46  C   UNL A   1      48.565  26.917  26.980  1.00  0.00     0.037 A 
ATOM     47  C   UNL A   1      43.045  29.973  28.676  1.00  0.00     0.049 A 
ATOM     48  C   UNL A   1      48.221  28.365  27.242  1.00  0.00     0.074 A 
ATOM     49  C   UNL A   1      42.868  31.313  28.970  1.00  0.00     0.029 A 
ATOM     50  N   UNL A   1      44.380  29.812  28.332  1.00  0.00    -0.354 N 
ATOM     51  N   UNL A   1      47.069  28.892  27.587  1.00  0.00    -0.248 NA
ATOM     52  C   UNL A   1      49.305  29.347  27.097  1.00  0.00     0.031 C 
ATOM     53  C   UNL A   1      44.080  31.973  28.744  1.00  0.00     0.029 A 
ATOM     54  C   UNL A   1      45.033  31.032  28.382  1.00  0.00     0.049 A 
ATOM     55  H   UNL A   1      44.801  28.956  28.087  1.00  0.00     0.167 HD
ATOM     56  C   UNL A   1      47.300  30.258  27.740  1.00  0.00     0.074 A 
ATOM     57  C   UNL A   1      48.701  30.477  27.445  1.00  0.00     0.031 C 
ATOM     58  C   UNL A   1      46.434  31.236  28.104  1.00  0.00     0.037 A 
BRANCH  45  59
ATOM     59  C   UNL A   1      40.638  29.260  29.012  1.00  0.00     0.058 A 
ATOM     60  C   UNL A   1      39.655  29.358  28.013  1.00  0.00     0.135 A 
ATOM     61  C   UNL A   1      40.245  29.497  30.340  1.00  0.00     0.135 A 
ATOM     62  F   UNL A   1      39.977  29.161  26.725  1.00  0.00    -0.206 F 
ATOM     63  C   UNL A   1      38.346  29.720  28.314  1.00  0.00     0.059 A 
ATOM     64  C   UNL A   1      38.934  29.826  30.667  1.00  0.00     0.059 A 
ATOM     65  F   UNL A   1      41.142  29.420  31.336  1.00  0.00    -0.206 F 
ATOM     66  C   UNL A   1      37.995  29.955  29.645  1.00  0.00     0.060 A 
BRANCH  66  67
ATOM     67  S   UNL A   1      36.297  30.441  30.018  1.00  0.00     0.124 S 
ATOM     68  O   UNL A   1      35.572  29.843  28.900  1.00  0.00    -0.237 OA
ATOM     69  O   UNL A   1      36.075  29.823  31.321  1.00  0.00    -0.237 OA
ATOM     70  O   UNL A   1      36.353  31.899  30.019  1.00  0.00    -0.744 OA
ENDBRANCH  66  67
ENDBRANCH  45  59
BRANCH  46  71
ATOM     71  C   UNL A   1      49.942  26.525  26.569  1.00  0.00     0.058 A 
ATOM     72  C   UNL A   1      50.918  26.197  27.521  1.00  0.00     0.135 A 
ATOM     73  C   UNL A   1      50.305  26.452  25.214  1.00  0.00     0.135 A 
ATOM     74  F   UNL A   1      50.631  26.272  28.829  1.00  0.00    -0.206 F 
ATOM     75  C   UNL A   1      52.204  25.811  27.147  1.00  0.00     0.059 A 
ATOM     76  C   UNL A   1      51.574  26.042  24.814  1.00  0.00     0.059 A 
ATOM     77  F   UNL A   1      49.410  26.757  24.261  1.00  0.00    -0.206 F 
ATOM     78  C   UNL A   1      52.519  25.726  25.790  1.00  0.00     0.060 A 
BRANCH  78  79
ATOM     79  S   UNL A   1      54.165  25.150  25.319  1.00  0.00     0.124 S 
ATOM     80  O   UNL A   1      53.896  23.768  24.936  1.00  0.00    -0.237 OA
ATOM     81  O   UNL A   1      54.506  26.059  24.229  1.00  0.00    -0.237 OA
ATOM     82  O   UNL A   1      54.946  25.324  26.540  1.00  0.00    -0.744 OA
ENDBRANCH  78  79
ENDBRANCH  46  71
BRANCH  58  83
ATOM     83  C   UNL A   1      46.971  32.635  28.273  1.00  0.00     0.058 A 
ATOM     84  C   UNL A   1      46.870  33.604  27.264  1.00  0.00     0.135 A 
ATOM     85  C   UNL A   1      47.512  33.031  29.508  1.00  0.00     0.135 A 
ATOM     86  F   UNL A   1      46.366  33.280  26.064  1.00  0.00    -0.206 F 
ATOM     87  C   UNL A   1      47.298  34.913  27.468  1.00  0.00     0.059 A 
ATOM     88  C   UNL A   1      47.918  34.341  29.745  1.00  0.00     0.059 A 
ATOM     89  F   UNL A   1      47.622  32.149  30.514  1.00  0.00    -0.206 F 
ATOM     90  C   UNL A   1      47.814  35.274  28.716  1.00  0.00     0.060 A 
BRANCH  90  91
ATOM     91  S   UNL A   1      48.313  36.989  28.985  1.00  0.00     0.124 S 
ATOM     92  O   UNL A   1      48.657  36.977  30.403  1.00  0.00    -0.237 OA
ATOM     93  O   UNL A   1      49.434  37.135  28.063  1.00  0.00    -0.237 OA
ATOM     94  O   UNL A   1      47.118  37.751  28.636  1.00  0.00    -0.744 OA
ENDBRANCH  90  91
ENDBRANCH  58  83
ENDBRANCH  32  33
ENDBRANCH  25  27
ENDBRANCH  24  25
ENDBRANCH  23  24
ENDBRANCH  22  23
ENDBRANCH  21  22
ENDBRANCH   1  21
TORSDOF 21
ENDMDL
MODEL 3
REMARK VINA RESULT:      -9.7      6.396     11.445
REMARK SMILES O=C(C[C@H]1C(=O)Nc2ccccc21)OCCOCCOCCOC(=O)c1ccc(-c2c3nc(c(-c4c(F)cc(S(=O)(=O)[O-])cc4F)c4ccc([nH]4)c(-c4c(F)cc(S(=O)(=O)[O-])cc4F)c4nc(c(-c5c(F)cc(S(=O)(=O)[O-])cc5F)c5ccc2[nH]5)C=C4)C=C3)cc1
REMARK SMILES IDX 19 1 18 2 17 3 16 4 15 5 14 6 2 7 1 8 3 9 4 10 5 11 13 12
REMARK SMILES IDX 6 13 7 14 8 15 12 16 9 18 11 19 10 20 20 21 21 22 22 23
REMARK SMILES IDX 23 24 24 25 25 26 26 27 27 28 91 29 28 30 90 31 29 32 30 33
REMARK SMILES IDX 31 34 84 35 32 36 89 37 83 38 85 39 33 40 88 41 82 42 81 43
REMARK SMILES IDX 34 45 68 46 47 47 67 48 48 49 51 50 66 51 86 52 49 53 50 54
REMARK SMILES IDX 65 56 87 57 52 58 35 59 36 60 45 61 37 62 38 63 44 64 46 65
REMARK SMILES IDX 39 66 40 67 41 68 42 69 43 70 69 71 70 72 79 73 71 74 72 75
REMARK SMILES IDX 78 76 80 77 73 78 74 79 75 80 76 81 77 82 53 83 54 84 63 85
REMARK SMILES IDX 55 86 56 87 62 88 64 89 57 90 58 91 59 92 60 93 61 94
REMARK H PARENT 7 17 85 44 51 55
REMARK Flexibility Score: inf
ROOT
ATOM      1  C   UNL A   1      38.820  22.161  25.733  1.00  0.00     0.188 C 
ENDROOT
BRANCH   1   2
ATOM      2  C   UNL A   1      37.390  21.631  25.546  1.00  0.00     0.188 C 
BRANCH   2   3
ATOM      3  O   UNL A   1      36.370  22.583  25.751  1.00  0.00    -0.376 OA
BRANCH   3   4
ATOM      4  C   UNL A   1      36.210  23.634  24.824  1.00  0.00     0.202 C 
BRANCH   4   5
ATOM      5  C   UNL A   1      34.847  23.804  24.159  1.00  0.00     0.261 C 
BRANCH   5   6
ATOM      6  O   UNL A   1      34.273  22.671  23.478  1.00  0.00    -0.463 OA
BRANCH   6   7
ATOM      7  C   UNL A   1      33.010  22.202  23.547  1.00  0.00     0.307 C 
ATOM      8  O   UNL A   1      32.065  22.988  23.494  1.00  0.00    -0.252 OA
BRANCH   7   9
ATOM      9  C   UNL A   1      32.784  20.736  23.791  1.00  0.00     0.141 C 
BRANCH   9  10
ATOM     10  C   UNL A   1      33.827  20.037  24.648  1.00  0.00     0.122 C 
ATOM     11  C   UNL A   1      33.389  20.275  26.101  1.00  0.00     0.232 C 
ATOM     12  C   UNL A   1      33.768  18.538  24.551  1.00  0.00    -0.011 A 
ATOM     13  O   UNL A   1      33.364  21.351  26.672  1.00  0.00    -0.274 OA
ATOM     14  N   UNL A   1      32.936  19.063  26.599  1.00  0.00    -0.325 N 
ATOM     15  C   UNL A   1      33.146  18.038  25.690  1.00  0.00     0.045 A 
ATOM     16  C   UNL A   1      34.150  17.693  23.523  1.00  0.00     0.007 A 
ATOM     17  H   UNL A   1      32.520  18.945  27.484  1.00  0.00     0.169 HD
ATOM     18  C   UNL A   1      32.811  16.710  25.812  1.00  0.00     0.026 A 
ATOM     19  C   UNL A   1      33.817  16.346  23.620  1.00  0.00     0.000 A 
ATOM     20  C   UNL A   1      33.138  15.861  24.750  1.00  0.00     0.002 A 
ENDBRANCH   9  10
ENDBRANCH   7   9
ENDBRANCH   6   7
ENDBRANCH   5   6
ENDBRANCH   4   5
ENDBRANCH   3   4
ENDBRANCH   2   3
ENDBRANCH   1   2
BRANCH   1  21
ATOM     21  O   UNL A   1      39.672  21.531  26.678  1.00  0.00    -0.376 OA
BRANCH  21  22
ATOM     22  C   UNL A   1      41.080  21.713  26.573  1.00  0.00     0.202 C 
BRANCH  22  23
ATOM     23  C   UNL A   1      41.666  22.942  25.848  1.00  0.00     0.261 C 
BRANCH  23  24
ATOM     24  O   UNL A   1      42.340  23.918  26.671  1.00  0.00    -0.460 OA
BRANCH  24  25
ATOM     25  C   UNL A   1      42.192  25.217  26.319  1.00  0.00     0.338 C 
ATOM     26  O   UNL A   1      41.890  25.642  25.212  1.00  0.00    -0.246 OA
BRANCH  25  27
ATOM     27  C   UNL A   1      42.258  26.091  27.516  1.00  0.00     0.060 A 
ATOM     28  C   UNL A   1      41.498  25.741  28.647  1.00  0.00     0.016 A 
ATOM     29  C   UNL A   1      43.027  27.254  27.525  1.00  0.00     0.016 A 
ATOM     30  C   UNL A   1      41.484  26.564  29.777  1.00  0.00     0.010 A 
ATOM     31  C   UNL A   1      42.975  28.101  28.640  1.00  0.00     0.010 A 
ATOM     32  C   UNL A   1      42.176  27.779  29.755  1.00  0.00    -0.014 A 
BRANCH  32  33
ATOM     33  C   UNL A   1      41.852  28.842  30.744  1.00  0.00     0.031 A 
ATOM     34  C   UNL A   1      42.684  28.894  31.999  1.00  0.00     0.074 A 
ATOM     35  C   UNL A   1      40.846  29.717  30.567  1.00  0.00     0.049 A 
ATOM     36  N   UNL A   1      42.518  29.606  33.082  1.00  0.00    -0.248 NA
ATOM     37  C   UNL A   1      43.856  28.004  32.036  1.00  0.00     0.031 C 
ATOM     38  C   UNL A   1      40.008  29.818  29.375  1.00  0.00     0.029 A 
ATOM     39  N   UNL A   1      40.345  30.676  31.415  1.00  0.00    -0.354 N 
ATOM     40  C   UNL A   1      43.548  29.232  33.939  1.00  0.00     0.074 A 
ATOM     41  C   UNL A   1      44.319  28.216  33.257  1.00  0.00     0.031 C 
ATOM     42  C   UNL A   1      39.073  30.763  29.581  1.00  0.00     0.029 A 
ATOM     43  C   UNL A   1      39.220  31.304  30.933  1.00  0.00     0.049 A 
ATOM     44  H   UNL A   1      40.752  30.893  32.285  1.00  0.00     0.167 HD
ATOM     45  C   UNL A   1      43.826  29.690  35.181  1.00  0.00     0.037 A 
ATOM     46  C   UNL A   1      38.386  32.183  31.529  1.00  0.00     0.037 A 
ATOM     47  C   UNL A   1      43.047  30.692  35.859  1.00  0.00     0.049 A 
ATOM     48  C   UNL A   1      38.664  32.628  32.946  1.00  0.00     0.074 A 
ATOM     49  C   UNL A   1      43.247  31.232  37.116  1.00  0.00     0.029 A 
ATOM     50  N   UNL A   1      41.910  31.296  35.340  1.00  0.00    -0.354 N 
ATOM     51  N   UNL A   1      39.642  32.273  33.748  1.00  0.00    -0.248 NA
ATOM     52  C   UNL A   1      37.728  33.593  33.541  1.00  0.00     0.031 C 
ATOM     53  C   UNL A   1      42.197  32.116  37.383  1.00  0.00     0.029 A 
ATOM     54  C   UNL A   1      41.384  32.185  36.261  1.00  0.00     0.049 A 
ATOM     55  H   UNL A   1      41.533  31.118  34.448  1.00  0.00     0.167 HD
ATOM     56  C   UNL A   1      39.461  33.000  34.923  1.00  0.00     0.074 A 
ATOM     57  C   UNL A   1      38.277  33.812  34.729  1.00  0.00     0.031 C 
ATOM     58  C   UNL A   1      40.214  33.003  36.051  1.00  0.00     0.037 A 
BRANCH  45  59
ATOM     59  C   UNL A   1      44.990  29.067  35.904  1.00  0.00     0.058 A 
ATOM     60  C   UNL A   1      46.300  29.557  35.772  1.00  0.00     0.135 A 
ATOM     61  C   UNL A   1      44.791  27.957  36.743  1.00  0.00     0.135 A 
ATOM     62  F   UNL A   1      46.553  30.603  34.969  1.00  0.00    -0.206 F 
ATOM     63  C   UNL A   1      47.374  28.946  36.409  1.00  0.00     0.059 A 
ATOM     64  C   UNL A   1      45.845  27.351  37.417  1.00  0.00     0.059 A 
ATOM     65  F   UNL A   1      43.561  27.444  36.905  1.00  0.00    -0.206 F 
ATOM     66  C   UNL A   1      47.137  27.840  37.229  1.00  0.00     0.060 A 
BRANCH  66  67
ATOM     67  S   UNL A   1      48.542  27.046  38.035  1.00  0.00     0.124 S 
ATOM     68  O   UNL A   1      48.187  25.634  37.915  1.00  0.00    -0.237 OA
ATOM     69  O   UNL A   1      49.664  27.490  37.214  1.00  0.00    -0.237 OA
ATOM     70  O   UNL A   1      48.508  27.587  39.389  1.00  0.00    -0.744 OA
ENDBRANCH  66  67
ENDBRANCH  45  59
BRANCH  46  71
ATOM     71  C   UNL A   1      37.196  32.691  30.793  1.00  0.00     0.058 A 
ATOM     72  C   UNL A   1      37.305  33.746  29.875  1.00  0.00     0.135 A 
ATOM     73  C   UNL A   1      35.926  32.120  30.978  1.00  0.00     0.135 A 
ATOM     74  F   UNL A   1      38.490  34.342  29.677  1.00  0.00    -0.206 F 
ATOM     75  C   UNL A   1      36.201  34.216  29.167  1.00  0.00     0.059 A 
ATOM     76  C   UNL A   1      34.813  32.553  30.262  1.00  0.00     0.059 A 
ATOM     77  F   UNL A   1      35.764  31.108  31.846  1.00  0.00    -0.206 F 
ATOM     78  C   UNL A   1      34.961  33.606  29.359  1.00  0.00     0.060 A 
BRANCH  78  79
ATOM     79  S   UNL A   1      33.556  34.176  28.378  1.00  0.00     0.124 S 
ATOM     80  O   UNL A   1      33.124  32.939  27.733  1.00  0.00    -0.237 OA
ATOM     81  O   UNL A   1      32.662  34.705  29.404  1.00  0.00    -0.237 OA
ATOM     82  O   UNL A   1      34.144  35.176  27.493  1.00  0.00    -0.744 OA
ENDBRANCH  78  79
ENDBRANCH  46  71
BRANCH  58  83
ATOM     83  C   UNL A   1      39.834  33.955  37.157  1.00  0.00     0.058 A 
ATOM     84  C   UNL A   1      39.069  33.555  38.262  1.00  0.00     0.135 A 
ATOM     85  C   UNL A   1      40.330  35.271  37.147  1.00  0.00     0.135 A 
ATOM     86  F   UNL A   1      38.566  32.312  38.321  1.00  0.00    -0.206 F 
ATOM     87  C   UNL A   1      38.798  34.428  39.312  1.00  0.00     0.059 A 
ATOM     88  C   UNL A   1      40.098  36.150  38.201  1.00  0.00     0.059 A 
ATOM     89  F   UNL A   1      41.078  35.704  36.121  1.00  0.00    -0.206 F 
ATOM     90  C   UNL A   1      39.324  35.722  39.276  1.00  0.00     0.060 A 
BRANCH  90  91
ATOM     91  S   UNL A   1      39.012  36.824  40.672  1.00  0.00     0.124 S 
ATOM     92  O   UNL A   1      38.239  37.889  40.040  1.00  0.00    -0.237 OA
ATOM     93  O   UNL A   1      38.271  35.964  41.589  1.00  0.00    -0.237 OA
ATOM     94  O   UNL A   1      40.350  37.199  41.117  1.00  0.00    -0.744 OA
ENDBRANCH  90  91
ENDBRANCH  58  83
ENDBRANCH  32  33
ENDBRANCH  25  27
ENDBRANCH  24  25
ENDBRANCH  23  24
ENDBRANCH  22  23
ENDBRANCH  21  22
ENDBRANCH   1  21
TORSDOF 21
ENDMDL
