MODEL 1
REMARK VINA RESULT:     -12.4      0.000      0.000
REMARK SMILES O=C(C[C@]12CSc3[nH]c(=O)sc3[C@H]1c1cc(Cl)ccc1OC2=O)OCCOCCOCCOC(=O)c1ccc(-c2c3nc(c(-c4c(F)cc(S(=O)(=O)[O-])cc4F)c4ccc([nH]4)c(-c4c(F)cc(S(=O)(=O)[O-])cc4F)c4nc(c(-c5c(F)cc(S(=O)(=O)[O-])cc5F)c5ccc2[nH]5)C=C4)C=C3)cc1
REMARK SMILES IDX 29 1 28 2 27 3 26 4 25 5 24 6 2 7 1 8 3 9 4 10 5 11 13 12
REMARK SMILES IDX 22 13 6 14 12 15 14 16 21 17 23 18 7 19 11 20 15 21 20 22
REMARK SMILES IDX 8 23 9 24 16 25 19 26 10 28 17 29 18 30 30 31 31 32 32 33
REMARK SMILES IDX 33 34 34 35 35 36 36 37 37 38 101 39 38 40 100 41 39 42
REMARK SMILES IDX 40 43 41 44 94 45 42 46 99 47 93 48 95 49 43 50 98 51 92 52
REMARK SMILES IDX 91 53 44 55 78 56 57 57 77 58 58 59 61 60 76 61 96 62 59 63
REMARK SMILES IDX 60 64 75 66 97 67 62 68 45 69 46 70 55 71 47 72 48 73 54 74
REMARK SMILES IDX 56 75 49 76 50 77 51 78 52 79 53 80 79 81 80 82 89 83 81 84
REMARK SMILES IDX 82 85 88 86 90 87 83 88 84 89 85 90 86 91 87 92 63 93 64 94
REMARK SMILES IDX 73 95 65 96 66 97 72 98 74 99 67 100 68 101 69 102 70 103
REMARK SMILES IDX 71 104
REMARK H PARENT 8 27 95 54 61 65
REMARK Flexibility Score: inf
ROOT
ATOM      1  C   UNL A   1      41.260  20.690  27.665  1.00  0.00     0.188 C 
ENDROOT
BRANCH   1   2
ATOM      2  C   UNL A   1      40.428  21.286  26.512  1.00  0.00     0.188 C 
BRANCH   2   3
ATOM      3  O   UNL A   1      39.648  22.337  27.083  1.00  0.00    -0.376 OA
BRANCH   3   4
ATOM      4  C   UNL A   1      39.104  23.338  26.214  1.00  0.00     0.202 C 
BRANCH   4   5
ATOM      5  C   UNL A   1      37.586  23.189  25.864  1.00  0.00     0.261 C 
BRANCH   5   6
ATOM      6  O   UNL A   1      36.821  21.669  25.613  1.00  0.00    -0.463 OA
BRANCH   6   7
ATOM      7  C   UNL A   1      35.685  20.424  24.813  1.00  0.00     0.307 C 
ATOM      8  O   UNL A   1      35.844  19.181  24.886  1.00  0.00    -0.252 OA
BRANCH   7   9
ATOM      9  C   UNL A   1      34.333  20.834  23.925  1.00  0.00     0.143 C 
BRANCH   9  10
ATOM     10  C   UNL A   1      33.432  22.070  24.305  1.00  0.00     0.100 C 
ATOM     11  C   UNL A   1      34.293  23.315  24.576  1.00  0.00     0.097 C 
ATOM     12  C   UNL A   1      32.575  21.657  25.498  1.00  0.00     0.085 C 
ATOM     13  C   UNL A   1      32.448  22.405  23.153  1.00  0.00     0.319 C 
ATOM     14  S   UNL A   1      33.584  24.644  25.615  1.00  0.00    -0.106 SA
ATOM     15  C   UNL A   1      31.660  22.747  25.956  1.00  0.00     0.049 A 
ATOM     16  C   UNL A   1      32.106  20.336  24.916  1.00  0.00     0.006 A 
ATOM     17  O   UNL A   1      32.214  21.375  22.291  1.00  0.00    -0.426 OA
ATOM     18  O   UNL A   1      31.773  23.426  23.094  1.00  0.00    -0.251 OA
ATOM     19  C   UNL A   1      32.042  24.030  25.991  1.00  0.00     0.090 A 
ATOM     20  S   UNL A   1      30.020  22.603  26.528  1.00  0.00    -0.077 S 
ATOM     21  C   UNL A   1      32.557  18.838  25.885  1.00  0.00     0.028 A 
ATOM     22  C   UNL A   1      32.174  20.236  23.071  1.00  0.00     0.134 A 
ATOM     23  N   UNL A   1      31.081  24.901  26.407  1.00  0.00    -0.307 N 
ATOM     24  C   UNL A   1      29.891  24.351  26.740  1.00  0.00     0.305 A 
ATOM     25  C   UNL A   1      32.993  17.296  25.035  1.00  0.00     0.041 A 
ATOM     26  C   UNL A   1      32.775  18.736  22.264  1.00  0.00     0.049 A 
ATOM     27  H   UNL A   1      31.242  25.871  26.462  1.00  0.00     0.171 HD
ATOM     28  O   UNL A   1      28.879  24.933  27.161  1.00  0.00    -0.257 OA
ATOM     29  Cl  UNL A   1      33.311  15.866  25.935  1.00  0.00    -0.084 Cl
ATOM     30  C   UNL A   1      33.151  17.273  23.240  1.00  0.00     0.024 A 
ENDBRANCH   9  10
ENDBRANCH   7   9
ENDBRANCH   6   7
ENDBRANCH   5   6
ENDBRANCH   4   5
ENDBRANCH   3   4
ENDBRANCH   2   3
ENDBRANCH   1   2
BRANCH   1  31
ATOM     31  O   UNL A   1      42.280  19.761  27.300  1.00  0.00    -0.376 OA
BRANCH  31  32
ATOM     32  C   UNL A   1      42.181  19.232  25.986  1.00  0.00     0.202 C 
BRANCH  32  33
ATOM     33  C   UNL A   1      43.523  18.846  25.341  1.00  0.00     0.261 C 
BRANCH  33  34
ATOM     34  O   UNL A   1      44.572  19.811  25.592  1.00  0.00    -0.460 OA
BRANCH  34  35
ATOM     35  C   UNL A   1      44.540  20.919  24.793  1.00  0.00     0.338 C 
ATOM     36  O   UNL A   1      44.616  20.928  23.575  1.00  0.00    -0.246 OA
BRANCH  35  37
ATOM     37  C   UNL A   1      44.147  22.125  25.579  1.00  0.00     0.060 A 
ATOM     38  C   UNL A   1      44.661  22.411  26.844  1.00  0.00     0.016 A 
ATOM     39  C   UNL A   1      43.167  22.967  25.027  1.00  0.00     0.016 A 
ATOM     40  C   UNL A   1      44.213  23.557  27.525  1.00  0.00     0.010 A 
ATOM     41  C   UNL A   1      42.698  24.091  25.725  1.00  0.00     0.010 A 
ATOM     42  C   UNL A   1      43.231  24.411  26.974  1.00  0.00    -0.014 A 
BRANCH  42  43
ATOM     43  C   UNL A   1      43.009  25.726  27.625  1.00  0.00     0.031 A 
ATOM     44  C   UNL A   1      44.095  26.716  27.378  1.00  0.00     0.074 A 
ATOM     45  C   UNL A   1      41.900  26.248  28.198  1.00  0.00     0.049 A 
ATOM     46  N   UNL A   1      44.893  27.286  28.221  1.00  0.00    -0.248 NA
ATOM     47  C   UNL A   1      44.330  27.075  25.972  1.00  0.00     0.031 C 
ATOM     48  C   UNL A   1      40.548  25.720  28.131  1.00  0.00     0.029 A 
ATOM     49  N   UNL A   1      41.748  27.409  28.934  1.00  0.00    -0.354 N 
ATOM     50  C   UNL A   1      45.608  28.224  27.475  1.00  0.00     0.074 A 
ATOM     51  C   UNL A   1      45.314  27.963  26.089  1.00  0.00     0.031 C 
ATOM     52  C   UNL A   1      39.698  26.560  28.758  1.00  0.00     0.029 A 
ATOM     53  C   UNL A   1      40.426  27.721  29.238  1.00  0.00     0.049 A 
ATOM     54  H   UNL A   1      42.509  27.966  29.216  1.00  0.00     0.167 HD
ATOM     55  C   UNL A   1      46.258  29.281  28.035  1.00  0.00     0.037 A 
ATOM     56  C   UNL A   1      39.907  28.869  29.754  1.00  0.00     0.037 A 
ATOM     57  C   UNL A   1      46.469  29.119  29.445  1.00  0.00     0.049 A 
ATOM     58  C   UNL A   1      41.000  29.666  30.363  1.00  0.00     0.074 A 
ATOM     59  C   UNL A   1      47.077  28.161  30.233  1.00  0.00     0.029 A 
ATOM     60  N   UNL A   1      45.761  29.907  30.318  1.00  0.00    -0.354 N 
ATOM     61  N   UNL A   1      41.620  29.379  31.473  1.00  0.00    -0.248 NA
ATOM     62  C   UNL A   1      41.676  30.633  29.512  1.00  0.00     0.031 C 
ATOM     63  C   UNL A   1      46.305  28.118  31.430  1.00  0.00     0.029 A 
ATOM     64  C   UNL A   1      45.296  29.075  31.305  1.00  0.00     0.049 A 
ATOM     65  H   UNL A   1      45.616  30.879  30.250  1.00  0.00     0.167 HD
ATOM     66  C   UNL A   1      42.931  29.782  31.267  1.00  0.00     0.074 A 
ATOM     67  C   UNL A   1      42.880  30.635  30.085  1.00  0.00     0.031 C 
ATOM     68  C   UNL A   1      43.980  29.181  31.904  1.00  0.00     0.037 A 
BRANCH  55  69
ATOM     69  C   UNL A   1      46.452  30.596  27.327  1.00  0.00     0.058 A 
ATOM     70  C   UNL A   1      47.734  31.169  27.238  1.00  0.00     0.135 A 
ATOM     71  C   UNL A   1      45.374  31.428  26.950  1.00  0.00     0.135 A 
ATOM     72  F   UNL A   1      48.820  30.472  27.606  1.00  0.00    -0.206 F 
ATOM     73  C   UNL A   1      47.928  32.493  26.838  1.00  0.00     0.059 A 
ATOM     74  C   UNL A   1      45.549  32.729  26.494  1.00  0.00     0.059 A 
ATOM     75  F   UNL A   1      44.101  31.039  27.098  1.00  0.00    -0.206 F 
ATOM     76  C   UNL A   1      46.826  33.266  26.480  1.00  0.00     0.060 A 
BRANCH  76  77
ATOM     77  S   UNL A   1      47.066  35.007  26.078  1.00  0.00     0.124 S 
ATOM     78  O   UNL A   1      47.994  34.918  24.957  1.00  0.00    -0.237 OA
ATOM     79  O   UNL A   1      45.709  35.435  25.754  1.00  0.00    -0.237 OA
ATOM     80  O   UNL A   1      47.615  35.564  27.311  1.00  0.00    -0.744 OA
ENDBRANCH  76  77
ENDBRANCH  55  69
BRANCH  56  81
ATOM     81  C   UNL A   1      38.555  29.438  29.466  1.00  0.00     0.058 A 
ATOM     82  C   UNL A   1      37.660  29.832  30.479  1.00  0.00     0.135 A 
ATOM     83  C   UNL A   1      38.195  29.821  28.155  1.00  0.00     0.135 A 
ATOM     84  F   UNL A   1      37.932  29.560  31.765  1.00  0.00    -0.206 F 
ATOM     85  C   UNL A   1      36.496  30.569  30.205  1.00  0.00     0.059 A 
ATOM     86  C   UNL A   1      37.028  30.513  27.854  1.00  0.00     0.059 A 
ATOM     87  F   UNL A   1      39.019  29.622  27.117  1.00  0.00    -0.206 F 
ATOM     88  C   UNL A   1      36.197  30.913  28.886  1.00  0.00     0.060 A 
BRANCH  88  89
ATOM     89  S   UNL A   1      34.801  32.002  28.520  1.00  0.00     0.124 S 
ATOM     90  O   UNL A   1      35.409  32.993  27.638  1.00  0.00    -0.237 OA
ATOM     91  O   UNL A   1      33.855  31.084  27.897  1.00  0.00    -0.237 OA
ATOM     92  O   UNL A   1      34.406  32.502  29.836  1.00  0.00    -0.744 OA
ENDBRANCH  88  89
ENDBRANCH  56  81
BRANCH  68  93
ATOM     93  C   UNL A   1      43.719  28.339  33.128  1.00  0.00     0.058 A 
ATOM     94  C   UNL A   1      43.545  28.848  34.426  1.00  0.00     0.135 A 
ATOM     95  C   UNL A   1      43.474  26.963  32.949  1.00  0.00     0.135 A 
ATOM     96  F   UNL A   1      43.594  30.165  34.675  1.00  0.00    -0.206 F 
ATOM     97  C   UNL A   1      43.191  28.025  35.495  1.00  0.00     0.059 A 
ATOM     98  C   UNL A   1      43.046  26.139  33.987  1.00  0.00     0.059 A 
ATOM     99  F   UNL A   1      43.579  26.412  31.726  1.00  0.00    -0.206 F 
ATOM    100  C   UNL A   1      42.907  26.682  35.258  1.00  0.00     0.060 A 
BRANCH 100 101
ATOM    101  S   UNL A   1      42.210  25.713  36.607  1.00  0.00     0.124 S 
ATOM    102  O   UNL A   1      43.402  25.305  37.342  1.00  0.00    -0.237 OA
ATOM    103  O   UNL A   1      41.378  26.713  37.263  1.00  0.00    -0.237 OA
ATOM    104  O   UNL A   1      41.488  24.642  35.927  1.00  0.00    -0.744 OA
ENDBRANCH 100 101
ENDBRANCH  68  93
ENDBRANCH  42  43
ENDBRANCH  35  37
ENDBRANCH  34  35
ENDBRANCH  33  34
ENDBRANCH  32  33
ENDBRANCH  31  32
ENDBRANCH   1  31
TORSDOF 21
ENDMDL
MODEL 2
REMARK VINA RESULT:     -12.4      2.077      2.829
REMARK SMILES O=C(C[C@]12CSc3[nH]c(=O)sc3[C@H]1c1cc(Cl)ccc1OC2=O)OCCOCCOCCOC(=O)c1ccc(-c2c3nc(c(-c4c(F)cc(S(=O)(=O)[O-])cc4F)c4ccc([nH]4)c(-c4c(F)cc(S(=O)(=O)[O-])cc4F)c4nc(c(-c5c(F)cc(S(=O)(=O)[O-])cc5F)c5ccc2[nH]5)C=C4)C=C3)cc1
REMARK SMILES IDX 29 1 28 2 27 3 26 4 25 5 24 6 2 7 1 8 3 9 4 10 5 11 13 12
REMARK SMILES IDX 22 13 6 14 12 15 14 16 21 17 23 18 7 19 11 20 15 21 20 22
REMARK SMILES IDX 8 23 9 24 16 25 19 26 10 28 17 29 18 30 30 31 31 32 32 33
REMARK SMILES IDX 33 34 34 35 35 36 36 37 37 38 101 39 38 40 100 41 39 42
REMARK SMILES IDX 40 43 41 44 94 45 42 46 99 47 93 48 95 49 43 50 98 51 92 52
REMARK SMILES IDX 91 53 44 55 78 56 57 57 77 58 58 59 61 60 76 61 96 62 59 63
REMARK SMILES IDX 60 64 75 66 97 67 62 68 45 69 46 70 55 71 47 72 48 73 54 74
REMARK SMILES IDX 56 75 49 76 50 77 51 78 52 79 53 80 79 81 80 82 89 83 81 84
REMARK SMILES IDX 82 85 88 86 90 87 83 88 84 89 85 90 86 91 87 92 63 93 64 94
REMARK SMILES IDX 73 95 65 96 66 97 72 98 74 99 67 100 68 101 69 102 70 103
REMARK SMILES IDX 71 104
REMARK H PARENT 8 27 95 54 61 65
REMARK Flexibility Score: inf
ROOT
ATOM      1  C   UNL A   1      40.921  20.878  27.245  1.00  0.00     0.188 C 
ENDROOT
BRANCH   1   2
ATOM      2  C   UNL A   1      39.980  21.134  26.050  1.00  0.00     0.188 C 
BRANCH   2   3
ATOM      3  O   UNL A   1      38.992  22.057  26.509  1.00  0.00    -0.376 OA
BRANCH   3   4
ATOM      4  C   UNL A   1      38.002  22.520  25.583  1.00  0.00     0.202 C 
BRANCH   4   5
ATOM      5  C   UNL A   1      36.512  22.308  26.010  1.00  0.00     0.261 C 
BRANCH   5   6
ATOM      6  O   UNL A   1      35.401  23.603  26.234  1.00  0.00    -0.463 OA
BRANCH   6   7
ATOM      7  C   UNL A   1      34.257  24.994  25.747  1.00  0.00     0.307 C 
ATOM      8  O   UNL A   1      33.529  25.618  26.555  1.00  0.00    -0.252 OA
BRANCH   7   9
ATOM      9  C   UNL A   1      34.091  25.558  24.184  1.00  0.00     0.143 C 
BRANCH   9  10
ATOM     10  C   UNL A   1      33.297  26.879  23.858  1.00  0.00     0.100 C 
ATOM     11  C   UNL A   1      33.895  28.080  24.609  1.00  0.00     0.097 C 
ATOM     12  C   UNL A   1      31.831  26.623  24.196  1.00  0.00     0.085 C 
ATOM     13  C   UNL A   1      33.348  27.186  22.337  1.00  0.00     0.319 C 
ATOM     14  S   UNL A   1      32.824  29.533  24.903  1.00  0.00    -0.106 SA
ATOM     15  C   UNL A   1      30.961  27.807  23.921  1.00  0.00     0.049 A 
ATOM     16  C   UNL A   1      31.722  25.295  23.471  1.00  0.00     0.006 A 
ATOM     17  O   UNL A   1      33.629  26.109  21.551  1.00  0.00    -0.426 OA
ATOM     18  O   UNL A   1      32.988  28.243  21.832  1.00  0.00    -0.251 OA
ATOM     19  C   UNL A   1      31.359  29.059  24.179  1.00  0.00     0.090 A 
ATOM     20  S   UNL A   1      29.343  27.822  23.273  1.00  0.00    -0.077 S 
ATOM     21  C   UNL A   1      31.269  23.853  24.520  1.00  0.00     0.028 A 
ATOM     22  C   UNL A   1      32.969  25.042  22.129  1.00  0.00     0.134 A 
ATOM     23  N   UNL A   1      30.457  30.025  23.845  1.00  0.00    -0.307 N 
ATOM     24  C   UNL A   1      29.291  29.587  23.320  1.00  0.00     0.305 A 
ATOM     25  C   UNL A   1      31.991  22.221  24.192  1.00  0.00     0.041 A 
ATOM     26  C   UNL A   1      33.790  23.444  21.942  1.00  0.00     0.049 A 
ATOM     27  H   UNL A   1      30.643  30.983  23.977  1.00  0.00     0.171 HD
ATOM     28  O   UNL A   1      28.318  30.268  22.962  1.00  0.00    -0.257 OA
ATOM     29  Cl  UNL A   1      31.491  20.850  25.100  1.00  0.00    -0.084 Cl
ATOM     30  C   UNL A   1      33.281  22.042  22.947  1.00  0.00     0.024 A 
ENDBRANCH   9  10
ENDBRANCH   7   9
ENDBRANCH   6   7
ENDBRANCH   5   6
ENDBRANCH   4   5
ENDBRANCH   3   4
ENDBRANCH   2   3
ENDBRANCH   1   2
BRANCH   1  31
ATOM     31  O   UNL A   1      41.903  19.857  27.074  1.00  0.00    -0.376 OA
BRANCH  31  32
ATOM     32  C   UNL A   1      42.056  19.375  25.747  1.00  0.00     0.202 C 
BRANCH  32  33
ATOM     33  C   UNL A   1      43.432  18.761  25.437  1.00  0.00     0.261 C 
BRANCH  33  34
ATOM     34  O   UNL A   1      44.524  19.693  25.622  1.00  0.00    -0.460 OA
BRANCH  34  35
ATOM     35  C   UNL A   1      44.483  20.796  24.817  1.00  0.00     0.338 C 
ATOM     36  O   UNL A   1      44.552  20.800  23.599  1.00  0.00    -0.246 OA
BRANCH  35  37
ATOM     37  C   UNL A   1      44.087  22.004  25.599  1.00  0.00     0.060 A 
ATOM     38  C   UNL A   1      44.600  22.295  26.863  1.00  0.00     0.016 A 
ATOM     39  C   UNL A   1      43.107  22.844  25.043  1.00  0.00     0.016 A 
ATOM     40  C   UNL A   1      44.150  23.443  27.540  1.00  0.00     0.010 A 
ATOM     41  C   UNL A   1      42.636  23.970  25.737  1.00  0.00     0.010 A 
ATOM     42  C   UNL A   1      43.168  24.294  26.985  1.00  0.00    -0.014 A 
BRANCH  42  43
ATOM     43  C   UNL A   1      42.943  25.611  27.632  1.00  0.00     0.031 A 
ATOM     44  C   UNL A   1      44.031  26.600  27.387  1.00  0.00     0.074 A 
ATOM     45  C   UNL A   1      41.833  26.135  28.200  1.00  0.00     0.049 A 
ATOM     46  N   UNL A   1      44.825  27.172  28.231  1.00  0.00    -0.248 NA
ATOM     47  C   UNL A   1      44.271  26.955  25.980  1.00  0.00     0.031 C 
ATOM     48  C   UNL A   1      40.480  25.607  28.129  1.00  0.00     0.029 A 
ATOM     49  N   UNL A   1      41.678  27.298  28.931  1.00  0.00    -0.354 N 
ATOM     50  C   UNL A   1      45.544  28.108  27.486  1.00  0.00     0.074 A 
ATOM     51  C   UNL A   1      45.255  27.843  26.099  1.00  0.00     0.031 C 
ATOM     52  C   UNL A   1      39.628  26.449  28.750  1.00  0.00     0.029 A 
ATOM     53  C   UNL A   1      40.355  27.611  29.229  1.00  0.00     0.049 A 
ATOM     54  H   UNL A   1      42.438  27.856  29.215  1.00  0.00     0.167 HD
ATOM     55  C   UNL A   1      46.192  29.166  28.045  1.00  0.00     0.037 A 
ATOM     56  C   UNL A   1      39.834  28.761  29.741  1.00  0.00     0.037 A 
ATOM     57  C   UNL A   1      46.397  29.008  29.457  1.00  0.00     0.049 A 
ATOM     58  C   UNL A   1      40.925  29.559  30.352  1.00  0.00     0.074 A 
ATOM     59  C   UNL A   1      47.002  28.052  30.250  1.00  0.00     0.029 A 
ATOM     60  N   UNL A   1      45.686  29.799  30.325  1.00  0.00    -0.354 N 
ATOM     61  N   UNL A   1      41.540  29.275  31.465  1.00  0.00    -0.248 NA
ATOM     62  C   UNL A   1      41.604  30.523  29.500  1.00  0.00     0.031 C 
ATOM     63  C   UNL A   1      46.225  28.013  31.443  1.00  0.00     0.029 A 
ATOM     64  C   UNL A   1      45.217  28.969  31.312  1.00  0.00     0.049 A 
ATOM     65  H   UNL A   1      45.542  30.770  30.253  1.00  0.00     0.167 HD
ATOM     66  C   UNL A   1      42.853  29.677  31.263  1.00  0.00     0.074 A 
ATOM     67  C   UNL A   1      42.806  30.527  30.078  1.00  0.00     0.031 C 
ATOM     68  C   UNL A   1      43.899  29.077  31.906  1.00  0.00     0.037 A 
BRANCH  55  69
ATOM     69  C   UNL A   1      46.389  30.479  27.334  1.00  0.00     0.058 A 
ATOM     70  C   UNL A   1      47.671  31.050  27.246  1.00  0.00     0.135 A 
ATOM     71  C   UNL A   1      45.313  31.312  26.953  1.00  0.00     0.135 A 
ATOM     72  F   UNL A   1      48.756  30.353  27.617  1.00  0.00    -0.206 F 
ATOM     73  C   UNL A   1      47.869  32.373  26.844  1.00  0.00     0.059 A 
ATOM     74  C   UNL A   1      45.490  32.612  26.495  1.00  0.00     0.059 A 
ATOM     75  F   UNL A   1      44.039  30.925  27.100  1.00  0.00    -0.206 F 
ATOM     76  C   UNL A   1      46.769  33.147  26.482  1.00  0.00     0.060 A 
BRANCH  76  77
ATOM     77  S   UNL A   1      47.011  34.887  26.076  1.00  0.00     0.124 S 
ATOM     78  O   UNL A   1      45.661  35.284  25.697  1.00  0.00    -0.237 OA
ATOM     79  O   UNL A   1      47.507  35.427  27.338  1.00  0.00    -0.237 OA
ATOM     80  O   UNL A   1      47.988  34.845  24.991  1.00  0.00    -0.744 OA
ENDBRANCH  76  77
ENDBRANCH  55  69
BRANCH  56  81
ATOM     81  C   UNL A   1      38.483  29.329  29.445  1.00  0.00     0.058 A 
ATOM     82  C   UNL A   1      37.551  29.644  30.452  1.00  0.00     0.135 A 
ATOM     83  C   UNL A   1      38.160  29.793  28.151  1.00  0.00     0.135 A 
ATOM     84  F   UNL A   1      37.785  29.292  31.726  1.00  0.00    -0.206 F 
ATOM     85  C   UNL A   1      36.385  30.382  30.188  1.00  0.00     0.059 A 
ATOM     86  C   UNL A   1      36.992  30.487  27.858  1.00  0.00     0.059 A 
ATOM     87  F   UNL A   1      39.019  29.673  27.130  1.00  0.00    -0.206 F 
ATOM     88  C   UNL A   1      36.122  30.808  28.885  1.00  0.00     0.060 A 
BRANCH  88  89
ATOM     89  S   UNL A   1      34.723  31.900  28.546  1.00  0.00     0.124 S 
ATOM     90  O   UNL A   1      33.746  30.978  27.975  1.00  0.00    -0.237 OA
ATOM     91  O   UNL A   1      34.413  32.418  29.874  1.00  0.00    -0.237 OA
ATOM     92  O   UNL A   1      35.273  32.879  27.611  1.00  0.00    -0.744 OA
ENDBRANCH  88  89
ENDBRANCH  56  81
BRANCH  68  93
ATOM     93  C   UNL A   1      43.632  28.239  33.131  1.00  0.00     0.058 A 
ATOM     94  C   UNL A   1      43.480  26.842  33.126  1.00  0.00     0.135 A 
ATOM     95  C   UNL A   1      43.695  28.865  34.392  1.00  0.00     0.135 A 
ATOM     96  F   UNL A   1      43.570  26.131  31.993  1.00  0.00    -0.206 F 
ATOM     97  C   UNL A   1      43.351  26.115  34.309  1.00  0.00     0.059 A 
ATOM     98  C   UNL A   1      43.645  28.149  35.585  1.00  0.00     0.059 A 
ATOM     99  F   UNL A   1      43.882  30.194  34.476  1.00  0.00    -0.206 F 
ATOM    100  C   UNL A   1      43.473  26.771  35.531  1.00  0.00     0.060 A 
BRANCH 100 101
ATOM    101  S   UNL A   1      43.557  25.770  37.026  1.00  0.00     0.124 S 
ATOM    102  O   UNL A   1      43.398  26.769  38.076  1.00  0.00    -0.237 OA
ATOM    103  O   UNL A   1      42.420  24.881  36.826  1.00  0.00    -0.237 OA
ATOM    104  O   UNL A   1      44.871  25.139  36.948  1.00  0.00    -0.744 OA
ENDBRANCH 100 101
ENDBRANCH  68  93
ENDBRANCH  42  43
ENDBRANCH  35  37
ENDBRANCH  34  35
ENDBRANCH  33  34
ENDBRANCH  32  33
ENDBRANCH  31  32
ENDBRANCH   1  31
TORSDOF 21
ENDMDL
MODEL 3
REMARK VINA RESULT:     -12.2      1.866      2.908
REMARK SMILES O=C(C[C@]12CSc3[nH]c(=O)sc3[C@H]1c1cc(Cl)ccc1OC2=O)OCCOCCOCCOC(=O)c1ccc(-c2c3nc(c(-c4c(F)cc(S(=O)(=O)[O-])cc4F)c4ccc([nH]4)c(-c4c(F)cc(S(=O)(=O)[O-])cc4F)c4nc(c(-c5c(F)cc(S(=O)(=O)[O-])cc5F)c5ccc2[nH]5)C=C4)C=C3)cc1
REMARK SMILES IDX 29 1 28 2 27 3 26 4 25 5 24 6 2 7 1 8 3 9 4 10 5 11 13 12
REMARK SMILES IDX 22 13 6 14 12 15 14 16 21 17 23 18 7 19 11 20 15 21 20 22
REMARK SMILES IDX 8 23 9 24 16 25 19 26 10 28 17 29 18 30 30 31 31 32 32 33
REMARK SMILES IDX 33 34 34 35 35 36 36 37 37 38 101 39 38 40 100 41 39 42
REMARK SMILES IDX 40 43 41 44 94 45 42 46 99 47 93 48 95 49 43 50 98 51 92 52
REMARK SMILES IDX 91 53 44 55 78 56 57 57 77 58 58 59 61 60 76 61 96 62 59 63
REMARK SMILES IDX 60 64 75 66 97 67 62 68 45 69 46 70 55 71 47 72 48 73 54 74
REMARK SMILES IDX 56 75 49 76 50 77 51 78 52 79 53 80 79 81 80 82 89 83 81 84
REMARK SMILES IDX 82 85 88 86 90 87 83 88 84 89 85 90 86 91 87 92 63 93 64 94
REMARK SMILES IDX 73 95 65 96 66 97 72 98 74 99 67 100 68 101 69 102 70 103
REMARK SMILES IDX 71 104
REMARK H PARENT 8 27 95 54 61 65
REMARK Flexibility Score: inf
ROOT
ATOM      1  C   UNL A   1      40.470  20.879  26.763  1.00  0.00     0.188 C 
ENDROOT
BRANCH   1   2
ATOM      2  C   UNL A   1      40.335  22.404  26.944  1.00  0.00     0.188 C 
BRANCH   2   3
ATOM      3  O   UNL A   1      38.936  22.689  26.906  1.00  0.00    -0.376 OA
BRANCH   3   4
ATOM      4  C   UNL A   1      38.464  23.691  25.997  1.00  0.00     0.202 C 
BRANCH   4   5
ATOM      5  C   UNL A   1      37.000  23.510  25.478  1.00  0.00     0.261 C 
BRANCH   5   6
ATOM      6  O   UNL A   1      35.916  24.825  25.236  1.00  0.00    -0.463 OA
BRANCH   6   7
ATOM      7  C   UNL A   1      34.279  25.682  24.982  1.00  0.00     0.307 C 
ATOM      8  O   UNL A   1      34.162  26.860  24.567  1.00  0.00    -0.252 OA
BRANCH   7   9
ATOM      9  C   UNL A   1      32.799  24.967  25.272  1.00  0.00     0.143 C 
BRANCH   9  10
ATOM     10  C   UNL A   1      32.681  23.497  25.829  1.00  0.00     0.100 C 
ATOM     11  C   UNL A   1      33.613  23.289  27.034  1.00  0.00     0.097 C 
ATOM     12  C   UNL A   1      32.971  22.548  24.670  1.00  0.00     0.085 C 
ATOM     13  C   UNL A   1      31.228  23.200  26.285  1.00  0.00     0.319 C 
ATOM     14  S   UNL A   1      34.127  21.582  27.442  1.00  0.00    -0.106 SA
ATOM     15  C   UNL A   1      32.882  21.110  25.066  1.00  0.00     0.049 A 
ATOM     16  C   UNL A   1      32.046  23.218  23.671  1.00  0.00     0.006 A 
ATOM     17  O   UNL A   1      30.283  24.012  25.731  1.00  0.00    -0.426 OA
ATOM     18  O   UNL A   1      30.893  22.215  26.934  1.00  0.00    -0.251 OA
ATOM     19  C   UNL A   1      33.334  20.667  26.246  1.00  0.00     0.090 A 
ATOM     20  S   UNL A   1      32.240  19.779  24.142  1.00  0.00    -0.077 S 
ATOM     21  C   UNL A   1      32.855  23.862  22.149  1.00  0.00     0.028 A 
ATOM     22  C   UNL A   1      30.685  24.216  24.425  1.00  0.00     0.134 A 
ATOM     23  N   UNL A   1      33.153  19.334  26.463  1.00  0.00    -0.307 N 
ATOM     24  C   UNL A   1      32.562  18.647  25.459  1.00  0.00     0.305 A 
ATOM     25  C   UNL A   1      32.278  25.405  21.389  1.00  0.00     0.041 A 
ATOM     26  C   UNL A   1      30.252  25.829  23.737  1.00  0.00     0.049 A 
ATOM     27  H   UNL A   1      33.434  18.896  27.300  1.00  0.00     0.171 HD
ATOM     28  O   UNL A   1      32.312  17.433  25.416  1.00  0.00    -0.257 OA
ATOM     29  Cl  UNL A   1      32.958  25.954  19.909  1.00  0.00    -0.084 Cl
ATOM     30  C   UNL A   1      31.023  26.399  22.216  1.00  0.00     0.024 A 
ENDBRANCH   9  10
ENDBRANCH   7   9
ENDBRANCH   6   7
ENDBRANCH   5   6
ENDBRANCH   4   5
ENDBRANCH   3   4
ENDBRANCH   2   3
ENDBRANCH   1   2
BRANCH   1  31
ATOM     31  O   UNL A   1      41.379  20.435  25.757  1.00  0.00    -0.376 OA
BRANCH  31  32
ATOM     32  C   UNL A   1      42.112  19.260  26.073  1.00  0.00     0.202 C 
BRANCH  32  33
ATOM     33  C   UNL A   1      43.536  19.211  25.495  1.00  0.00     0.261 C 
BRANCH  33  34
ATOM     34  O   UNL A   1      43.800  20.271  24.546  1.00  0.00    -0.460 OA
BRANCH  34  35
ATOM     35  C   UNL A   1      44.866  21.069  24.853  1.00  0.00     0.338 C 
ATOM     36  O   UNL A   1      45.997  20.960  24.408  1.00  0.00    -0.246 OA
BRANCH  35  37
ATOM     37  C   UNL A   1      44.421  22.267  25.623  1.00  0.00     0.060 A 
ATOM     38  C   UNL A   1      44.799  22.508  26.943  1.00  0.00     0.016 A 
ATOM     39  C   UNL A   1      43.532  23.152  24.988  1.00  0.00     0.016 A 
ATOM     40  C   UNL A   1      44.311  23.651  27.601  1.00  0.00     0.010 A 
ATOM     41  C   UNL A   1      43.020  24.273  25.660  1.00  0.00     0.010 A 
ATOM     42  C   UNL A   1      43.420  24.548  26.968  1.00  0.00    -0.014 A 
BRANCH  42  43
ATOM     43  C   UNL A   1      43.163  25.854  27.625  1.00  0.00     0.031 A 
ATOM     44  C   UNL A   1      44.243  26.859  27.418  1.00  0.00     0.074 A 
ATOM     45  C   UNL A   1      42.033  26.356  28.173  1.00  0.00     0.049 A 
ATOM     46  N   UNL A   1      45.010  27.431  28.287  1.00  0.00    -0.248 NA
ATOM     47  C   UNL A   1      44.511  27.235  26.021  1.00  0.00     0.031 C 
ATOM     48  C   UNL A   1      40.690  25.811  28.064  1.00  0.00     0.029 A 
ATOM     49  N   UNL A   1      41.846  27.507  28.915  1.00  0.00    -0.354 N 
ATOM     50  C   UNL A   1      45.733  28.385  27.570  1.00  0.00     0.074 A 
ATOM     51  C   UNL A   1      45.480  28.134  26.174  1.00  0.00     0.031 C 
ATOM     52  C   UNL A   1      39.812  26.634  28.676  1.00  0.00     0.029 A 
ATOM     53  C   UNL A   1      40.512  27.799  29.186  1.00  0.00     0.049 A 
ATOM     54  H   UNL A   1      42.592  28.071  29.223  1.00  0.00     0.167 HD
ATOM     55  C   UNL A   1      46.354  29.444  28.157  1.00  0.00     0.037 A 
ATOM     56  C   UNL A   1      39.965  28.936  29.699  1.00  0.00     0.037 A 
ATOM     57  C   UNL A   1      46.529  29.272  29.571  1.00  0.00     0.049 A 
ATOM     58  C   UNL A   1      41.031  29.741  30.345  1.00  0.00     0.074 A 
ATOM     59  C   UNL A   1      47.128  28.314  30.366  1.00  0.00     0.029 A 
ATOM     60  N   UNL A   1      45.787  30.042  30.432  1.00  0.00    -0.354 N 
ATOM     61  N   UNL A   1      41.624  29.451  31.469  1.00  0.00    -0.248 NA
ATOM     62  C   UNL A   1      41.717  30.724  29.521  1.00  0.00     0.031 C 
ATOM     63  C   UNL A   1      46.324  28.249  31.541  1.00  0.00     0.029 A 
ATOM     64  C   UNL A   1      45.306  29.194  31.398  1.00  0.00     0.049 A 
ATOM     65  H   UNL A   1      45.632  31.012  30.369  1.00  0.00     0.167 HD
ATOM     66  C   UNL A   1      42.935  29.872  31.302  1.00  0.00     0.074 A 
ATOM     67  C   UNL A   1      42.904  30.736  30.127  1.00  0.00     0.031 C 
ATOM     68  C   UNL A   1      43.974  29.278  31.962  1.00  0.00     0.037 A 
BRANCH  55  69
ATOM     69  C   UNL A   1      46.551  30.768  27.467  1.00  0.00     0.058 A 
ATOM     70  C   UNL A   1      47.838  31.322  27.351  1.00  0.00     0.135 A 
ATOM     71  C   UNL A   1      45.476  31.625  27.136  1.00  0.00     0.135 A 
ATOM     72  F   UNL A   1      48.923  30.601  27.675  1.00  0.00    -0.206 F 
ATOM     73  C   UNL A   1      48.044  32.650  26.970  1.00  0.00     0.059 A 
ATOM     74  C   UNL A   1      45.660  32.932  26.698  1.00  0.00     0.059 A 
ATOM     75  F   UNL A   1      44.201  31.255  27.314  1.00  0.00    -0.206 F 
ATOM     76  C   UNL A   1      46.946  33.448  26.657  1.00  0.00     0.060 A 
BRANCH  76  77
ATOM     77  S   UNL A   1      47.203  35.191  26.279  1.00  0.00     0.124 S 
ATOM     78  O   UNL A   1      48.545  35.166  25.708  1.00  0.00    -0.237 OA
ATOM     79  O   UNL A   1      46.116  35.465  25.346  1.00  0.00    -0.237 OA
ATOM     80  O   UNL A   1      47.083  35.838  27.582  1.00  0.00    -0.744 OA
ENDBRANCH  76  77
ENDBRANCH  55  69
BRANCH  56  81
ATOM     81  C   UNL A   1      38.614  29.491  29.379  1.00  0.00     0.058 A 
ATOM     82  C   UNL A   1      37.724  29.951  30.368  1.00  0.00     0.135 A 
ATOM     83  C   UNL A   1      38.251  29.792  28.048  1.00  0.00     0.135 A 
ATOM     84  F   UNL A   1      37.998  29.760  31.668  1.00  0.00    -0.206 F 
ATOM     85  C   UNL A   1      36.561  30.674  30.052  1.00  0.00     0.059 A 
ATOM     86  C   UNL A   1      37.085  30.467  27.708  1.00  0.00     0.059 A 
ATOM     87  F   UNL A   1      39.070  29.524  27.022  1.00  0.00    -0.206 F 
ATOM     88  C   UNL A   1      36.259  30.935  28.715  1.00  0.00     0.060 A 
BRANCH  88  89
ATOM     89  S   UNL A   1      34.866  32.004  28.286  1.00  0.00     0.124 S 
ATOM     90  O   UNL A   1      34.040  31.119  27.472  1.00  0.00    -0.237 OA
ATOM     91  O   UNL A   1      34.333  32.350  29.599  1.00  0.00    -0.237 OA
ATOM     92  O   UNL A   1      35.494  33.107  27.562  1.00  0.00    -0.744 OA
ENDBRANCH  88  89
ENDBRANCH  56  81
BRANCH  68  93
ATOM     93  C   UNL A   1      43.690  28.421  33.170  1.00  0.00     0.058 A 
ATOM     94  C   UNL A   1      43.514  28.911  34.474  1.00  0.00     0.135 A 
ATOM     95  C   UNL A   1      43.426  27.051  32.967  1.00  0.00     0.135 A 
ATOM     96  F   UNL A   1      43.580  30.224  34.745  1.00  0.00    -0.206 F 
ATOM     97  C   UNL A   1      43.139  28.078  35.527  1.00  0.00     0.059 A 
ATOM     98  C   UNL A   1      42.978  26.218  33.989  1.00  0.00     0.059 A 
ATOM     99  F   UNL A   1      43.534  26.519  31.737  1.00  0.00    -0.206 F 
ATOM    100  C   UNL A   1      42.837  26.743  35.267  1.00  0.00     0.060 A 
BRANCH 100 101
ATOM    101  S   UNL A   1      42.115  25.763  36.595  1.00  0.00     0.124 S 
ATOM    102  O   UNL A   1      43.274  25.479  37.434  1.00  0.00    -0.237 OA
ATOM    103  O   UNL A   1      41.156  26.711  37.146  1.00  0.00    -0.237 OA
ATOM    104  O   UNL A   1      41.539  24.614  35.904  1.00  0.00    -0.744 OA
ENDBRANCH 100 101
ENDBRANCH  68  93
ENDBRANCH  42  43
ENDBRANCH  35  37
ENDBRANCH  34  35
ENDBRANCH  33  34
ENDBRANCH  32  33
ENDBRANCH  31  32
ENDBRANCH   1  31
TORSDOF 21
ENDMDL
