MODEL 1
REMARK VINA RESULT:      -8.7      0.000      0.000
REMARK SMILES C[C@@H](Oc1ccc(/C=C2\C(=O)[NH+]=C(OCCOCCOCCOC(=O)c3ccc(-c4c5nc(c(-c6c(F)cc(S(=O)(=O)[O-])cc6F)c6ccc([nH]6)c(-c6c(F)cc(S(=O)(=O)[O-])cc6F)c6nc(c(-c7c(F)cc(S(=O)(=O)[O-])cc7F)c7ccc4[nH]7)C=C6)C=C5)cc3)N(c3ccc4c(c3)OCO4)C2=O)cc1)C(=O)[O-]
REMARK SMILES IDX 18 1 17 2 16 3 15 4 14 5 13 6 8 7 9 8 10 9 102 10 11 11
REMARK SMILES IDX 12 12 92 13 103 14 7 16 4 17 5 18 105 19 6 20 104 21 3 22
REMARK SMILES IDX 2 23 1 24 106 25 107 26 108 27 93 28 94 29 98 30 95 31 97 32
REMARK SMILES IDX 96 33 99 34 101 35 100 36 19 37 20 38 21 39 22 40 23 41
REMARK SMILES IDX 24 42 25 43 26 44 27 45 91 46 28 47 90 48 29 49 30 50 31 51
REMARK SMILES IDX 84 52 32 53 89 54 83 55 85 56 33 57 88 58 82 59 81 60 34 62
REMARK SMILES IDX 68 63 47 64 67 65 48 66 51 67 66 68 86 69 49 70 50 71 65 73
REMARK SMILES IDX 87 74 52 75 35 76 36 77 45 78 37 79 38 80 44 81 46 82 39 83
REMARK SMILES IDX 40 84 41 85 42 86 43 87 69 88 70 89 79 90 71 91 72 92 78 93
REMARK SMILES IDX 80 94 73 95 74 96 75 97 76 98 77 99 53 100 54 101 63 102
REMARK SMILES IDX 55 103 56 104 62 105 64 106 57 107 58 108 59 109 60 110
REMARK SMILES IDX 61 111
REMARK H PARENT 12 15 85 61 51 72
REMARK Flexibility Score: inf
ROOT
ATOM      1  C   UNL A   1      39.776  27.085  29.286  1.00  0.00     0.188 C 
ENDROOT
BRANCH   1   2
ATOM      2  O   UNL A   1      39.188  28.380  29.184  1.00  0.00    -0.376 OA
BRANCH   2   3
ATOM      3  C   UNL A   1      39.699  29.304  30.146  1.00  0.00     0.202 C 
BRANCH   3   4
ATOM      4  C   UNL A   1      38.697  30.427  30.448  1.00  0.00     0.266 C 
BRANCH   4   5
ATOM      5  O   UNL A   1      37.311  30.043  30.640  1.00  0.00    -0.428 OA
BRANCH   5   6
ATOM      6  C   UNL A   1      36.362  30.308  29.702  1.00  0.00     0.465 C 
ATOM      7  C   UNL A   1      33.058  30.435  27.423  1.00  0.00     0.032 C 
ATOM      8  C   UNL A   1      34.275  30.560  27.991  1.00  0.00     0.155 C 
ATOM      9  C   UNL A   1      35.455  29.739  27.692  1.00  0.00     0.349 C 
ATOM     10  C   UNL A   1      34.498  31.653  28.974  1.00  0.00     0.357 C 
ATOM     11  O   UNL A   1      35.789  29.472  26.547  1.00  0.00    -0.240 OA
ATOM     12  N   UNL A   1      36.224  29.423  28.775  1.00  0.00    -0.171 N 
ATOM     13  N   UNL A   1      35.608  31.468  29.794  1.00  0.00    -0.123 N 
ATOM     14  O   UNL A   1      33.718  32.601  29.049  1.00  0.00    -0.240 OA
ATOM     15  H   UNL A   1      36.661  28.544  28.846  1.00  0.00     0.319 HD
BRANCH   7  16
ATOM     16  C   UNL A   1      32.522  29.485  26.423  1.00  0.00    -0.024 A 
ATOM     17  C   UNL A   1      31.604  27.502  24.623  1.00  0.00     0.120 A 
ATOM     18  C   UNL A   1      31.759  28.818  24.202  1.00  0.00     0.047 A 
ATOM     19  C   UNL A   1      31.935  27.162  25.926  1.00  0.00     0.047 A 
ATOM     20  C   UNL A   1      32.230  29.795  25.089  1.00  0.00     0.012 A 
ATOM     21  C   UNL A   1      32.373  28.146  26.821  1.00  0.00     0.012 A 
BRANCH  17  22
ATOM     22  O   UNL A   1      31.289  26.577  23.671  1.00  0.00    -0.485 OA
BRANCH  22  23
ATOM     23  C   UNL A   1      32.169  25.447  23.600  1.00  0.00     0.216 C 
ATOM     24  C   UNL A   1      32.808  25.295  22.223  1.00  0.00     0.059 C 
BRANCH  23  25
ATOM     25  C   UNL A   1      31.323  24.206  23.860  1.00  0.00     0.082 C 
ATOM     26  O   UNL A   1      30.365  23.833  23.197  1.00  0.00    -0.546 OA
ATOM     27  O   UNL A   1      31.675  23.517  24.967  1.00  0.00    -0.546 OA
ENDBRANCH  23  25
ENDBRANCH  22  23
ENDBRANCH  17  22
ENDBRANCH   7  16
BRANCH  13  28
ATOM     28  C   UNL A   1      35.817  32.440  30.805  1.00  0.00     0.144 A 
ATOM     29  C   UNL A   1      36.567  33.601  30.500  1.00  0.00     0.056 A 
ATOM     30  C   UNL A   1      35.267  32.262  32.081  1.00  0.00     0.103 A 
ATOM     31  C   UNL A   1      36.787  34.584  31.467  1.00  0.00     0.055 A 
ATOM     32  C   UNL A   1      35.460  33.275  32.995  1.00  0.00     0.170 A 
ATOM     33  C   UNL A   1      36.200  34.399  32.698  1.00  0.00     0.166 A 
ATOM     34  O   UNL A   1      34.951  33.314  34.256  1.00  0.00    -0.453 OA
ATOM     35  O   UNL A   1      36.246  35.273  33.742  1.00  0.00    -0.454 OA
ATOM     36  C   UNL A   1      35.274  34.671  34.622  1.00  0.00     0.468 C 
ENDBRANCH  13  28
ENDBRANCH   5   6
ENDBRANCH   4   5
ENDBRANCH   3   4
ENDBRANCH   2   3
ENDBRANCH   1   2
BRANCH   1  37
ATOM     37  C   UNL A   1      39.894  26.253  28.008  1.00  0.00     0.188 C 
BRANCH  37  38
ATOM     38  O   UNL A   1      40.713  25.098  28.056  1.00  0.00    -0.376 OA
BRANCH  38  39
ATOM     39  C   UNL A   1      41.500  24.816  26.897  1.00  0.00     0.202 C 
BRANCH  39  40
ATOM     40  C   UNL A   1      42.969  24.446  27.119  1.00  0.00     0.261 C 
BRANCH  40  41
ATOM     41  O   UNL A   1      43.492  24.973  28.360  1.00  0.00    -0.460 OA
BRANCH  41  42
ATOM     42  C   UNL A   1      44.455  25.914  28.215  1.00  0.00     0.338 C 
ATOM     43  O   UNL A   1      45.456  25.841  27.517  1.00  0.00    -0.246 OA
BRANCH  42  44
ATOM     44  C   UNL A   1      44.154  27.118  29.002  1.00  0.00     0.060 A 
ATOM     45  C   UNL A   1      43.243  28.051  28.494  1.00  0.00     0.016 A 
ATOM     46  C   UNL A   1      44.953  27.430  30.105  1.00  0.00     0.016 A 
ATOM     47  C   UNL A   1      43.181  29.330  29.053  1.00  0.00     0.010 A 
ATOM     48  C   UNL A   1      44.884  28.709  30.665  1.00  0.00     0.010 A 
ATOM     49  C   UNL A   1      44.036  29.683  30.110  1.00  0.00    -0.014 A 
BRANCH  49  50
ATOM     50  C   UNL A   1      44.134  31.098  30.552  1.00  0.00     0.031 A 
ATOM     51  C   UNL A   1      43.273  31.589  31.688  1.00  0.00     0.074 A 
ATOM     52  C   UNL A   1      44.986  31.942  29.945  1.00  0.00     0.049 A 
ATOM     53  N   UNL A   1      43.186  32.789  32.205  1.00  0.00    -0.248 NA
ATOM     54  C   UNL A   1      42.384  30.599  32.318  1.00  0.00     0.031 C 
ATOM     55  C   UNL A   1      45.857  31.592  28.825  1.00  0.00     0.029 A 
ATOM     56  N   UNL A   1      45.251  33.268  30.176  1.00  0.00    -0.354 N 
ATOM     57  C   UNL A   1      42.232  32.702  33.215  1.00  0.00     0.074 A 
ATOM     58  C   UNL A   1      41.746  31.339  33.215  1.00  0.00     0.031 C 
ATOM     59  C   UNL A   1      46.563  32.677  28.465  1.00  0.00     0.029 A 
ATOM     60  C   UNL A   1      46.170  33.805  29.308  1.00  0.00     0.049 A 
ATOM     61  H   UNL A   1      44.823  33.786  30.896  1.00  0.00     0.167 HD
ATOM     62  C   UNL A   1      41.806  33.666  34.067  1.00  0.00     0.037 A 
ATOM     63  C   UNL A   1      46.628  35.067  29.193  1.00  0.00     0.037 A 
ATOM     64  C   UNL A   1      42.290  35.024  34.063  1.00  0.00     0.049 A 
ATOM     65  C   UNL A   1      46.126  36.127  30.137  1.00  0.00     0.074 A 
ATOM     66  C   UNL A   1      41.937  36.070  34.900  1.00  0.00     0.029 A 
ATOM     67  N   UNL A   1      43.227  35.529  33.173  1.00  0.00    -0.354 N 
ATOM     68  N   UNL A   1      45.249  36.021  31.107  1.00  0.00    -0.248 NA
ATOM     69  C   UNL A   1      46.681  37.478  29.975  1.00  0.00     0.031 C 
ATOM     70  C   UNL A   1      42.630  37.215  34.491  1.00  0.00     0.029 A 
ATOM     71  C   UNL A   1      43.453  36.873  33.431  1.00  0.00     0.049 A 
ATOM     72  H   UNL A   1      43.667  35.010  32.462  1.00  0.00     0.167 HD
ATOM     73  C   UNL A   1      45.160  37.286  31.680  1.00  0.00     0.074 A 
ATOM     74  C   UNL A   1      46.089  38.134  30.963  1.00  0.00     0.031 C 
ATOM     75  C   UNL A   1      44.379  37.708  32.707  1.00  0.00     0.037 A 
BRANCH  62  76
ATOM     76  C   UNL A   1      40.752  33.292  35.076  1.00  0.00     0.058 A 
ATOM     77  C   UNL A   1      39.389  33.259  34.739  1.00  0.00     0.135 A 
ATOM     78  C   UNL A   1      41.110  32.922  36.383  1.00  0.00     0.135 A 
ATOM     79  F   UNL A   1      38.987  33.614  33.509  1.00  0.00    -0.206 F 
ATOM     80  C   UNL A   1      38.417  32.897  35.669  1.00  0.00     0.059 A 
ATOM     81  C   UNL A   1      40.158  32.533  37.321  1.00  0.00     0.059 A 
ATOM     82  F   UNL A   1      42.398  32.933  36.759  1.00  0.00    -0.206 F 
ATOM     83  C   UNL A   1      38.812  32.537  36.959  1.00  0.00     0.060 A 
BRANCH  83  84
ATOM     84  S   UNL A   1      37.541  32.064  38.151  1.00  0.00     0.124 S 
ATOM     85  O   UNL A   1      37.290  30.676  37.774  1.00  0.00    -0.237 OA
ATOM     86  O   UNL A   1      38.221  32.261  39.428  1.00  0.00    -0.237 OA
ATOM     87  O   UNL A   1      36.451  32.995  37.875  1.00  0.00    -0.744 OA
ENDBRANCH  83  84
ENDBRANCH  62  76
BRANCH  63  88
ATOM     88  C   UNL A   1      47.622  35.397  28.138  1.00  0.00     0.058 A 
ATOM     89  C   UNL A   1      48.996  35.221  28.360  1.00  0.00     0.135 A 
ATOM     90  C   UNL A   1      47.218  35.885  26.885  1.00  0.00     0.135 A 
ATOM     91  F   UNL A   1      49.431  34.766  29.545  1.00  0.00    -0.206 F 
ATOM     92  C   UNL A   1      49.936  35.530  27.382  1.00  0.00     0.059 A 
ATOM     93  C   UNL A   1      48.137  36.173  25.883  1.00  0.00     0.059 A 
ATOM     94  F   UNL A   1      45.913  36.059  26.621  1.00  0.00    -0.206 F 
ATOM     95  C   UNL A   1      49.495  36.001  26.144  1.00  0.00     0.060 A 
BRANCH  95  96
ATOM     96  S   UNL A   1      50.719  36.344  24.860  1.00  0.00     0.124 S 
ATOM     97  O   UNL A   1      49.881  36.858  23.784  1.00  0.00    -0.237 OA
ATOM     98  O   UNL A   1      51.587  37.317  25.517  1.00  0.00    -0.237 OA
ATOM     99  O   UNL A   1      51.327  35.038  24.621  1.00  0.00    -0.744 OA
ENDBRANCH  95  96
ENDBRANCH  63  88
BRANCH  75 100
ATOM    100  C   UNL A   1      44.522  39.144  33.135  1.00  0.00     0.058 A 
ATOM    101  C   UNL A   1      45.421  39.529  34.144  1.00  0.00     0.135 A 
ATOM    102  C   UNL A   1      43.761  40.151  32.520  1.00  0.00     0.135 A 
ATOM    103  F   UNL A   1      46.171  38.607  34.769  1.00  0.00    -0.206 F 
ATOM    104  C   UNL A   1      45.530  40.855  34.554  1.00  0.00     0.059 A 
ATOM    105  C   UNL A   1      43.874  41.486  32.894  1.00  0.00     0.059 A 
ATOM    106  F   UNL A   1      42.896  39.841  31.540  1.00  0.00    -0.206 F 
ATOM    107  C   UNL A   1      44.747  41.826  33.927  1.00  0.00     0.060 A 
BRANCH 107 108
ATOM    108  S   UNL A   1      44.892  43.542  34.469  1.00  0.00     0.124 S 
ATOM    109  O   UNL A   1      45.350  43.377  35.845  1.00  0.00    -0.237 OA
ATOM    110  O   UNL A   1      45.872  44.086  33.535  1.00  0.00    -0.237 OA
ATOM    111  O   UNL A   1      43.536  44.062  34.317  1.00  0.00    -0.744 OA
ENDBRANCH 107 108
ENDBRANCH  75 100
ENDBRANCH  49  50
ENDBRANCH  42  44
ENDBRANCH  41  42
ENDBRANCH  40  41
ENDBRANCH  39  40
ENDBRANCH  38  39
ENDBRANCH  37  38
ENDBRANCH   1  37
TORSDOF 24
ENDMDL
MODEL 2
REMARK VINA RESULT:      -8.3      3.391      9.735
REMARK SMILES C[C@@H](Oc1ccc(/C=C2\C(=O)[NH+]=C(OCCOCCOCCOC(=O)c3ccc(-c4c5nc(c(-c6c(F)cc(S(=O)(=O)[O-])cc6F)c6ccc([nH]6)c(-c6c(F)cc(S(=O)(=O)[O-])cc6F)c6nc(c(-c7c(F)cc(S(=O)(=O)[O-])cc7F)c7ccc4[nH]7)C=C6)C=C5)cc3)N(c3ccc4c(c3)OCO4)C2=O)cc1)C(=O)[O-]
REMARK SMILES IDX 18 1 17 2 16 3 15 4 14 5 13 6 8 7 9 8 10 9 102 10 11 11
REMARK SMILES IDX 12 12 92 13 103 14 7 16 4 17 5 18 105 19 6 20 104 21 3 22
REMARK SMILES IDX 2 23 1 24 106 25 107 26 108 27 93 28 94 29 98 30 95 31 97 32
REMARK SMILES IDX 96 33 99 34 101 35 100 36 19 37 20 38 21 39 22 40 23 41
REMARK SMILES IDX 24 42 25 43 26 44 27 45 91 46 28 47 90 48 29 49 30 50 31 51
REMARK SMILES IDX 84 52 32 53 89 54 83 55 85 56 33 57 88 58 82 59 81 60 34 62
REMARK SMILES IDX 68 63 47 64 67 65 48 66 51 67 66 68 86 69 49 70 50 71 65 73
REMARK SMILES IDX 87 74 52 75 35 76 36 77 45 78 37 79 38 80 44 81 46 82 39 83
REMARK SMILES IDX 40 84 41 85 42 86 43 87 69 88 70 89 79 90 71 91 72 92 78 93
REMARK SMILES IDX 80 94 73 95 74 96 75 97 76 98 77 99 53 100 54 101 63 102
REMARK SMILES IDX 55 103 56 104 62 105 64 106 57 107 58 108 59 109 60 110
REMARK SMILES IDX 61 111
REMARK H PARENT 12 15 85 61 51 72
REMARK Flexibility Score: inf
ROOT
ATOM      1  C   UNL A   1      46.404  24.745  28.781  1.00  0.00     0.188 C 
ENDROOT
BRANCH   1   2
ATOM      2  O   UNL A   1      46.022  24.952  30.139  1.00  0.00    -0.376 OA
BRANCH   2   3
ATOM      3  C   UNL A   1      44.609  24.885  30.339  1.00  0.00     0.202 C 
BRANCH   3   4
ATOM      4  C   UNL A   1      44.012  26.261  30.664  1.00  0.00     0.266 C 
BRANCH   4   5
ATOM      5  O   UNL A   1      43.505  27.042  29.551  1.00  0.00    -0.428 OA
BRANCH   5   6
ATOM      6  C   UNL A   1      42.180  27.321  29.422  1.00  0.00     0.465 C 
ATOM      7  C   UNL A   1      38.591  28.858  28.483  1.00  0.00     0.032 C 
ATOM      8  C   UNL A   1      39.648  28.179  28.973  1.00  0.00     0.155 C 
ATOM      9  C   UNL A   1      40.397  28.512  30.191  1.00  0.00     0.349 C 
ATOM     10  C   UNL A   1      40.093  26.945  28.275  1.00  0.00     0.357 C 
ATOM     11  O   UNL A   1      39.840  28.806  31.239  1.00  0.00    -0.240 OA
ATOM     12  N   UNL A   1      41.748  28.326  30.104  1.00  0.00    -0.171 N 
ATOM     13  N   UNL A   1      41.392  26.548  28.583  1.00  0.00    -0.123 N 
ATOM     14  O   UNL A   1      39.356  26.377  27.470  1.00  0.00    -0.240 OA
ATOM     15  H   UNL A   1      42.373  28.941  30.550  1.00  0.00     0.319 HD
BRANCH   7  16
ATOM     16  C   UNL A   1      37.905  30.088  28.936  1.00  0.00    -0.024 A 
ATOM     17  C   UNL A   1      36.407  32.367  29.698  1.00  0.00     0.120 A 
ATOM     18  C   UNL A   1      37.789  32.443  29.569  1.00  0.00     0.047 A 
ATOM     19  C   UNL A   1      35.763  31.171  29.417  1.00  0.00     0.047 A 
ATOM     20  C   UNL A   1      38.527  31.319  29.176  1.00  0.00     0.012 A 
ATOM     21  C   UNL A   1      36.506  30.040  29.057  1.00  0.00     0.012 A 
BRANCH  17  22
ATOM     22  O   UNL A   1      35.738  33.533  29.934  1.00  0.00    -0.485 OA
BRANCH  22  23
ATOM     23  C   UNL A   1      34.489  33.672  29.245  1.00  0.00     0.216 C 
ATOM     24  C   UNL A   1      34.650  34.338  27.882  1.00  0.00     0.059 C 
BRANCH  23  25
ATOM     25  C   UNL A   1      33.605  34.573  30.101  1.00  0.00     0.082 C 
ATOM     26  O   UNL A   1      32.553  35.091  29.756  1.00  0.00    -0.546 OA
ATOM     27  O   UNL A   1      34.104  34.833  31.329  1.00  0.00    -0.546 OA
ENDBRANCH  23  25
ENDBRANCH  22  23
ENDBRANCH  17  22
ENDBRANCH   7  16
BRANCH  13  28
ATOM     28  C   UNL A   1      41.895  25.424  27.879  1.00  0.00     0.144 A 
ATOM     29  C   UNL A   1      41.581  24.125  28.345  1.00  0.00     0.056 A 
ATOM     30  C   UNL A   1      42.670  25.600  26.726  1.00  0.00     0.103 A 
ATOM     31  C   UNL A   1      42.050  22.993  27.674  1.00  0.00     0.055 A 
ATOM     32  C   UNL A   1      43.074  24.463  26.061  1.00  0.00     0.170 A 
ATOM     33  C   UNL A   1      42.776  23.199  26.523  1.00  0.00     0.166 A 
ATOM     34  O   UNL A   1      43.774  24.432  24.895  1.00  0.00    -0.453 OA
ATOM     35  O   UNL A   1      43.259  22.226  25.702  1.00  0.00    -0.454 OA
ATOM     36  C   UNL A   1      43.685  23.027  24.580  1.00  0.00     0.468 C 
ENDBRANCH  13  28
ENDBRANCH   5   6
ENDBRANCH   4   5
ENDBRANCH   3   4
ENDBRANCH   2   3
ENDBRANCH   1   2
BRANCH   1  37
ATOM     37  C   UNL A   1      47.820  25.151  28.369  1.00  0.00     0.188 C 
BRANCH  37  38
ATOM     38  O   UNL A   1      48.246  24.793  27.066  1.00  0.00    -0.376 OA
BRANCH  38  39
ATOM     39  C   UNL A   1      47.264  24.846  26.028  1.00  0.00     0.202 C 
BRANCH  39  40
ATOM     40  C   UNL A   1      47.655  25.558  24.729  1.00  0.00     0.261 C 
BRANCH  40  41
ATOM     41  O   UNL A   1      47.319  26.964  24.744  1.00  0.00    -0.460 OA
BRANCH  41  42
ATOM     42  C   UNL A   1      48.210  27.752  25.391  1.00  0.00     0.338 C 
ATOM     43  O   UNL A   1      49.417  27.808  25.200  1.00  0.00    -0.246 OA
BRANCH  42  44
ATOM     44  C   UNL A   1      47.551  28.606  26.388  1.00  0.00     0.060 A 
ATOM     45  C   UNL A   1      46.481  29.415  25.988  1.00  0.00     0.016 A 
ATOM     46  C   UNL A   1      48.149  28.782  27.638  1.00  0.00     0.016 A 
ATOM     47  C   UNL A   1      46.052  30.453  26.819  1.00  0.00     0.010 A 
ATOM     48  C   UNL A   1      47.713  29.819  28.469  1.00  0.00     0.010 A 
ATOM     49  C   UNL A   1      46.697  30.692  28.043  1.00  0.00    -0.014 A 
BRANCH  49  50
ATOM     50  C   UNL A   1      46.399  31.924  28.818  1.00  0.00     0.031 A 
ATOM     51  C   UNL A   1      47.290  33.132  28.677  1.00  0.00     0.074 A 
ATOM     52  C   UNL A   1      45.339  31.967  29.644  1.00  0.00     0.049 A 
ATOM     53  N   UNL A   1      47.221  34.290  29.283  1.00  0.00    -0.248 NA
ATOM     54  C   UNL A   1      48.415  33.016  27.734  1.00  0.00     0.031 C 
ATOM     55  C   UNL A   1      44.415  30.861  29.881  1.00  0.00     0.029 A 
ATOM     56  N   UNL A   1      44.869  32.976  30.446  1.00  0.00    -0.354 N 
ATOM     57  C   UNL A   1      48.292  35.038  28.804  1.00  0.00     0.074 A 
ATOM     58  C   UNL A   1      49.014  34.190  27.879  1.00  0.00     0.031 C 
ATOM     59  C   UNL A   1      43.484  31.250  30.769  1.00  0.00     0.029 A 
ATOM     60  C   UNL A   1      43.767  32.622  31.187  1.00  0.00     0.049 A 
ATOM     61  H   UNL A   1      45.282  33.869  30.487  1.00  0.00     0.167 HD
ATOM     62  C   UNL A   1      48.638  36.315  29.099  1.00  0.00     0.037 A 
ATOM     63  C   UNL A   1      43.077  33.319  32.111  1.00  0.00     0.037 A 
ATOM     64  C   UNL A   1      47.918  37.157  30.022  1.00  0.00     0.049 A 
ATOM     65  C   UNL A   1      43.492  34.729  32.440  1.00  0.00     0.074 A 
ATOM     66  C   UNL A   1      48.177  38.472  30.373  1.00  0.00     0.029 A 
ATOM     67  N   UNL A   1      46.803  36.766  30.748  1.00  0.00    -0.354 N 
ATOM     68  N   UNL A   1      44.486  35.432  31.953  1.00  0.00    -0.248 NA
ATOM     69  C   UNL A   1      42.684  35.442  33.440  1.00  0.00     0.031 C 
ATOM     70  C   UNL A   1      47.242  38.862  31.340  1.00  0.00     0.029 A 
ATOM     71  C   UNL A   1      46.370  37.807  31.555  1.00  0.00     0.049 A 
ATOM     72  H   UNL A   1      46.380  35.878  30.698  1.00  0.00     0.167 HD
ATOM     73  C   UNL A   1      44.414  36.675  32.575  1.00  0.00     0.074 A 
ATOM     74  C   UNL A   1      43.265  36.633  33.455  1.00  0.00     0.031 C 
ATOM     75  C   UNL A   1      45.226  37.753  32.431  1.00  0.00     0.037 A 
BRANCH  62  76
ATOM     76  C   UNL A   1      49.859  36.883  28.425  1.00  0.00     0.058 A 
ATOM     77  C   UNL A   1      49.778  37.540  27.186  1.00  0.00     0.135 A 
ATOM     78  C   UNL A   1      51.119  36.807  29.042  1.00  0.00     0.135 A 
ATOM     79  F   UNL A   1      48.603  37.632  26.545  1.00  0.00    -0.206 F 
ATOM     80  C   UNL A   1      50.906  38.078  26.572  1.00  0.00     0.059 A 
ATOM     81  C   UNL A   1      52.255  37.360  28.459  1.00  0.00     0.059 A 
ATOM     82  F   UNL A   1      51.254  36.192  30.227  1.00  0.00    -0.206 F 
ATOM     83  C   UNL A   1      52.142  37.981  27.215  1.00  0.00     0.060 A 
BRANCH  83  84
ATOM     84  S   UNL A   1      53.594  38.690  26.409  1.00  0.00     0.124 S 
ATOM     85  O   UNL A   1      53.150  38.759  25.020  1.00  0.00    -0.237 OA
ATOM     86  O   UNL A   1      53.738  39.971  27.093  1.00  0.00    -0.237 OA
ATOM     87  O   UNL A   1      54.645  37.715  26.683  1.00  0.00    -0.744 OA
ENDBRANCH  83  84
ENDBRANCH  62  76
BRANCH  63  88
ATOM     88  C   UNL A   1      41.918  32.688  32.795  1.00  0.00     0.058 A 
ATOM     89  C   UNL A   1      40.634  32.734  32.230  1.00  0.00     0.135 A 
ATOM     90  C   UNL A   1      42.071  32.018  34.019  1.00  0.00     0.135 A 
ATOM     91  F   UNL A   1      40.437  33.370  31.065  1.00  0.00    -0.206 F 
ATOM     92  C   UNL A   1      39.540  32.151  32.861  1.00  0.00     0.059 A 
ATOM     93  C   UNL A   1      40.998  31.404  34.655  1.00  0.00     0.059 A 
ATOM     94  F   UNL A   1      43.281  31.937  34.593  1.00  0.00    -0.206 F 
ATOM     95  C   UNL A   1      39.734  31.483  34.072  1.00  0.00     0.060 A 
BRANCH  95  96
ATOM     96  S   UNL A   1      38.319  30.679  34.855  1.00  0.00     0.124 S 
ATOM     97  O   UNL A   1      37.362  31.776  34.931  1.00  0.00    -0.237 OA
ATOM     98  O   UNL A   1      38.004  29.618  33.903  1.00  0.00    -0.237 OA
ATOM     99  O   UNL A   1      38.860  30.221  36.133  1.00  0.00    -0.744 OA
ENDBRANCH  95  96
ENDBRANCH  63  88
BRANCH  75 100
ATOM    100  C   UNL A   1      44.879  38.986  33.221  1.00  0.00     0.058 A 
ATOM    101  C   UNL A   1      43.952  39.931  32.748  1.00  0.00     0.135 A 
ATOM    102  C   UNL A   1      45.469  39.221  34.473  1.00  0.00     0.135 A 
ATOM    103  F   UNL A   1      43.360  39.759  31.555  1.00  0.00    -0.206 F 
ATOM    104  C   UNL A   1      43.655  41.082  33.471  1.00  0.00     0.059 A 
ATOM    105  C   UNL A   1      45.165  40.351  35.225  1.00  0.00     0.059 A 
ATOM    106  F   UNL A   1      46.351  38.344  34.979  1.00  0.00    -0.206 F 
ATOM    107  C   UNL A   1      44.272  41.287  34.707  1.00  0.00     0.060 A 
BRANCH 107 108
ATOM    108  S   UNL A   1      43.883  42.787  35.634  1.00  0.00     0.124 S 
ATOM    109  O   UNL A   1      42.676  43.247  34.954  1.00  0.00    -0.237 OA
ATOM    110  O   UNL A   1      43.693  42.279  36.989  1.00  0.00    -0.237 OA
ATOM    111  O   UNL A   1      45.067  43.619  35.444  1.00  0.00    -0.744 OA
ENDBRANCH 107 108
ENDBRANCH  75 100
ENDBRANCH  49  50
ENDBRANCH  42  44
ENDBRANCH  41  42
ENDBRANCH  40  41
ENDBRANCH  39  40
ENDBRANCH  38  39
ENDBRANCH  37  38
ENDBRANCH   1  37
TORSDOF 24
ENDMDL
MODEL 3
REMARK VINA RESULT:      -8.2      5.027      9.940
REMARK SMILES C[C@@H](Oc1ccc(/C=C2\C(=O)[NH+]=C(OCCOCCOCCOC(=O)c3ccc(-c4c5nc(c(-c6c(F)cc(S(=O)(=O)[O-])cc6F)c6ccc([nH]6)c(-c6c(F)cc(S(=O)(=O)[O-])cc6F)c6nc(c(-c7c(F)cc(S(=O)(=O)[O-])cc7F)c7ccc4[nH]7)C=C6)C=C5)cc3)N(c3ccc4c(c3)OCO4)C2=O)cc1)C(=O)[O-]
REMARK SMILES IDX 18 1 17 2 16 3 15 4 14 5 13 6 8 7 9 8 10 9 102 10 11 11
REMARK SMILES IDX 12 12 92 13 103 14 7 16 4 17 5 18 105 19 6 20 104 21 3 22
REMARK SMILES IDX 2 23 1 24 106 25 107 26 108 27 93 28 94 29 98 30 95 31 97 32
REMARK SMILES IDX 96 33 99 34 101 35 100 36 19 37 20 38 21 39 22 40 23 41
REMARK SMILES IDX 24 42 25 43 26 44 27 45 91 46 28 47 90 48 29 49 30 50 31 51
REMARK SMILES IDX 84 52 32 53 89 54 83 55 85 56 33 57 88 58 82 59 81 60 34 62
REMARK SMILES IDX 68 63 47 64 67 65 48 66 51 67 66 68 86 69 49 70 50 71 65 73
REMARK SMILES IDX 87 74 52 75 35 76 36 77 45 78 37 79 38 80 44 81 46 82 39 83
REMARK SMILES IDX 40 84 41 85 42 86 43 87 69 88 70 89 79 90 71 91 72 92 78 93
REMARK SMILES IDX 80 94 73 95 74 96 75 97 76 98 77 99 53 100 54 101 63 102
REMARK SMILES IDX 55 103 56 104 62 105 64 106 57 107 58 108 59 109 60 110
REMARK SMILES IDX 61 111
REMARK H PARENT 12 15 85 61 51 72
REMARK Flexibility Score: inf
ROOT
ATOM      1  C   UNL A   1      38.778  27.761  29.004  1.00  0.00     0.188 C 
ENDROOT
BRANCH   1   2
ATOM      2  O   UNL A   1      37.928  28.433  29.931  1.00  0.00    -0.376 OA
BRANCH   2   3
ATOM      3  C   UNL A   1      37.592  29.759  29.522  1.00  0.00     0.202 C 
BRANCH   3   4
ATOM      4  C   UNL A   1      37.255  29.827  28.026  1.00  0.00     0.266 C 
BRANCH   4   5
ATOM      5  O   UNL A   1      36.203  30.742  27.625  1.00  0.00    -0.428 OA
BRANCH   5   6
ATOM      6  C   UNL A   1      35.017  30.293  27.133  1.00  0.00     0.465 C 
ATOM      7  C   UNL A   1      31.612  28.307  26.365  1.00  0.00     0.032 C 
ATOM      8  C   UNL A   1      32.691  29.116  26.390  1.00  0.00     0.155 C 
ATOM      9  C   UNL A   1      33.961  28.880  25.691  1.00  0.00     0.349 C 
ATOM     10  C   UNL A   1      32.608  30.399  27.135  1.00  0.00     0.357 C 
ATOM     11  O   UNL A   1      34.006  28.514  24.526  1.00  0.00    -0.240 OA
ATOM     12  N   UNL A   1      35.077  29.240  26.393  1.00  0.00    -0.171 N 
ATOM     13  N   UNL A   1      33.843  30.960  27.451  1.00  0.00    -0.123 N 
ATOM     14  O   UNL A   1      31.518  30.868  27.460  1.00  0.00    -0.240 OA
ATOM     15  H   UNL A   1      35.904  28.710  26.334  1.00  0.00     0.319 HD
BRANCH   7  16
ATOM     16  C   UNL A   1      31.368  26.997  25.721  1.00  0.00    -0.024 A 
ATOM     17  C   UNL A   1      31.053  24.403  24.631  1.00  0.00     0.120 A 
ATOM     18  C   UNL A   1      30.800  25.529  23.855  1.00  0.00     0.047 A 
ATOM     19  C   UNL A   1      31.494  24.562  25.937  1.00  0.00     0.047 A 
ATOM     20  C   UNL A   1      30.973  26.812  24.391  1.00  0.00     0.012 A 
ATOM     21  C   UNL A   1      31.633  25.846  26.481  1.00  0.00     0.012 A 
BRANCH  17  22
ATOM     22  O   UNL A   1      31.014  23.192  24.003  1.00  0.00    -0.485 OA
BRANCH  22  23
ATOM     23  C   UNL A   1      32.289  22.576  23.779  1.00  0.00     0.216 C 
ATOM     24  C   UNL A   1      32.743  22.696  22.328  1.00  0.00     0.059 C 
BRANCH  23  25
ATOM     25  C   UNL A   1      32.129  21.093  24.096  1.00  0.00     0.082 C 
ATOM     26  O   UNL A   1      31.833  20.614  25.182  1.00  0.00    -0.546 OA
ATOM     27  O   UNL A   1      32.402  20.273  23.058  1.00  0.00    -0.546 OA
ENDBRANCH  23  25
ENDBRANCH  22  23
ENDBRANCH  17  22
ENDBRANCH   7  16
BRANCH  13  28
ATOM     28  C   UNL A   1      33.820  32.141  28.235  1.00  0.00     0.144 A 
ATOM     29  C   UNL A   1      34.560  32.180  29.441  1.00  0.00     0.056 A 
ATOM     30  C   UNL A   1      33.095  33.260  27.807  1.00  0.00     0.103 A 
ATOM     31  C   UNL A   1      34.569  33.328  30.236  1.00  0.00     0.055 A 
ATOM     32  C   UNL A   1      33.167  34.392  28.589  1.00  0.00     0.170 A 
ATOM     33  C   UNL A   1      33.879  34.424  29.769  1.00  0.00     0.166 A 
ATOM     34  O   UNL A   1      32.588  35.591  28.307  1.00  0.00    -0.453 OA
ATOM     35  O   UNL A   1      33.826  35.646  30.368  1.00  0.00    -0.454 OA
ATOM     36  C   UNL A   1      33.197  36.415  29.322  1.00  0.00     0.468 C 
ENDBRANCH  13  28
ENDBRANCH   5   6
ENDBRANCH   4   5
ENDBRANCH   3   4
ENDBRANCH   2   3
ENDBRANCH   1   2
BRANCH   1  37
ATOM     37  C   UNL A   1      40.261  27.635  29.358  1.00  0.00     0.188 C 
BRANCH  37  38
ATOM     38  O   UNL A   1      41.124  27.106  28.367  1.00  0.00    -0.376 OA
BRANCH  38  39
ATOM     39  C   UNL A   1      40.887  25.758  27.957  1.00  0.00     0.202 C 
BRANCH  39  40
ATOM     40  C   UNL A   1      41.828  25.169  26.903  1.00  0.00     0.261 C 
BRANCH  40  41
ATOM     41  O   UNL A   1      42.279  23.838  27.242  1.00  0.00    -0.460 OA
BRANCH  41  42
ATOM     42  C   UNL A   1      43.057  23.768  28.348  1.00  0.00     0.338 C 
ATOM     43  O   UNL A   1      42.811  23.167  29.385  1.00  0.00    -0.246 OA
BRANCH  42  44
ATOM     44  C   UNL A   1      44.316  24.505  28.169  1.00  0.00     0.060 A 
ATOM     45  C   UNL A   1      44.803  25.282  29.225  1.00  0.00     0.016 A 
ATOM     46  C   UNL A   1      44.865  24.616  26.889  1.00  0.00     0.016 A 
ATOM     47  C   UNL A   1      45.803  26.227  28.982  1.00  0.00     0.010 A 
ATOM     48  C   UNL A   1      45.869  25.559  26.651  1.00  0.00     0.010 A 
ATOM     49  C   UNL A   1      46.308  26.406  27.684  1.00  0.00    -0.014 A 
BRANCH  49  50
ATOM     50  C   UNL A   1      47.198  27.556  27.379  1.00  0.00     0.031 A 
ATOM     51  C   UNL A   1      48.669  27.323  27.140  1.00  0.00     0.074 A 
ATOM     52  C   UNL A   1      46.699  28.803  27.315  1.00  0.00     0.049 A 
ATOM     53  N   UNL A   1      49.617  28.190  26.890  1.00  0.00    -0.248 NA
ATOM     54  C   UNL A   1      49.133  25.927  27.203  1.00  0.00     0.031 C 
ATOM     55  C   UNL A   1      45.301  29.159  27.544  1.00  0.00     0.029 A 
ATOM     56  N   UNL A   1      47.313  30.001  27.050  1.00  0.00    -0.354 N 
ATOM     57  C   UNL A   1      50.790  27.451  26.771  1.00  0.00     0.074 A 
ATOM     58  C   UNL A   1      50.438  26.067  27.009  1.00  0.00     0.031 C 
ATOM     59  C   UNL A   1      45.161  30.489  27.408  1.00  0.00     0.029 A 
ATOM     60  C   UNL A   1      46.465  31.080  27.116  1.00  0.00     0.049 A 
ATOM     61  H   UNL A   1      48.271  30.080  26.834  1.00  0.00     0.167 HD
ATOM     62  C   UNL A   1      52.042  27.883  26.483  1.00  0.00     0.037 A 
ATOM     63  C   UNL A   1      46.717  32.396  26.975  1.00  0.00     0.037 A 
ATOM     64  C   UNL A   1      52.389  29.262  26.248  1.00  0.00     0.049 A 
ATOM     65  C   UNL A   1      48.119  32.856  26.675  1.00  0.00     0.074 A 
ATOM     66  C   UNL A   1      53.626  29.798  25.928  1.00  0.00     0.029 A 
ATOM     67  N   UNL A   1      51.502  30.326  26.316  1.00  0.00    -0.354 N 
ATOM     68  N   UNL A   1      49.210  32.142  26.533  1.00  0.00    -0.248 NA
ATOM     69  C   UNL A   1      48.322  34.303  26.511  1.00  0.00     0.031 C 
ATOM     70  C   UNL A   1      53.493  31.189  25.841  1.00  0.00     0.029 A 
ATOM     71  C   UNL A   1      52.165  31.517  26.058  1.00  0.00     0.049 A 
ATOM     72  H   UNL A   1      50.542  30.248  26.518  1.00  0.00     0.167 HD
ATOM     73  C   UNL A   1      50.225  33.049  26.246  1.00  0.00     0.074 A 
ATOM     74  C   UNL A   1      49.612  34.361  26.213  1.00  0.00     0.031 C 
ATOM     75  C   UNL A   1      51.545  32.818  26.031  1.00  0.00     0.037 A 
BRANCH  62  76
ATOM     76  C   UNL A   1      53.139  26.853  26.413  1.00  0.00     0.058 A 
ATOM     77  C   UNL A   1      53.936  26.549  27.528  1.00  0.00     0.135 A 
ATOM     78  C   UNL A   1      53.368  26.130  25.231  1.00  0.00     0.135 A 
ATOM     79  F   UNL A   1      53.769  27.216  28.680  1.00  0.00    -0.206 F 
ATOM     80  C   UNL A   1      54.939  25.585  27.466  1.00  0.00     0.059 A 
ATOM     81  C   UNL A   1      54.348  25.144  25.153  1.00  0.00     0.059 A 
ATOM     82  F   UNL A   1      52.634  26.377  24.134  1.00  0.00    -0.206 F 
ATOM     83  C   UNL A   1      55.139  24.889  26.273  1.00  0.00     0.060 A 
BRANCH  83  84
ATOM     84  S   UNL A   1      56.439  23.637  26.210  1.00  0.00     0.124 S 
ATOM     85  O   UNL A   1      57.385  24.151  27.197  1.00  0.00    -0.237 OA
ATOM     86  O   UNL A   1      55.724  22.423  26.590  1.00  0.00    -0.237 OA
ATOM     87  O   UNL A   1      56.892  23.686  24.823  1.00  0.00    -0.744 OA
ENDBRANCH  83  84
ENDBRANCH  62  76
BRANCH  63  88
ATOM     88  C   UNL A   1      45.608  33.377  27.116  1.00  0.00     0.058 A 
ATOM     89  C   UNL A   1      44.666  33.554  26.093  1.00  0.00     0.135 A 
ATOM     90  C   UNL A   1      45.464  34.148  28.280  1.00  0.00     0.135 A 
ATOM     91  F   UNL A   1      44.768  32.846  24.958  1.00  0.00    -0.206 F 
ATOM     92  C   UNL A   1      43.626  34.471  26.211  1.00  0.00     0.059 A 
ATOM     93  C   UNL A   1      44.417  35.050  28.434  1.00  0.00     0.059 A 
ATOM     94  F   UNL A   1      46.334  34.006  29.293  1.00  0.00    -0.206 F 
ATOM     95  C   UNL A   1      43.508  35.212  27.390  1.00  0.00     0.060 A 
BRANCH  95  96
ATOM     96  S   UNL A   1      42.122  36.357  27.558  1.00  0.00     0.124 S 
ATOM     97  O   UNL A   1      42.320  36.862  28.912  1.00  0.00    -0.237 OA
ATOM     98  O   UNL A   1      42.376  37.306  26.478  1.00  0.00    -0.237 OA
ATOM     99  O   UNL A   1      40.955  35.500  27.366  1.00  0.00    -0.744 OA
ENDBRANCH  95  96
ENDBRANCH  63  88
BRANCH  75 100
ATOM    100  C   UNL A   1      52.409  34.008  25.708  1.00  0.00     0.058 A 
ATOM    101  C   UNL A   1      53.002  34.787  26.715  1.00  0.00     0.135 A 
ATOM    102  C   UNL A   1      52.659  34.366  24.373  1.00  0.00     0.135 A 
ATOM    103  F   UNL A   1      52.793  34.492  28.008  1.00  0.00    -0.206 F 
ATOM    104  C   UNL A   1      53.777  35.901  26.411  1.00  0.00     0.059 A 
ATOM    105  C   UNL A   1      53.455  35.459  24.046  1.00  0.00     0.059 A 
ATOM    106  F   UNL A   1      52.128  33.648  23.370  1.00  0.00    -0.206 F 
ATOM    107  C   UNL A   1      53.994  36.233  25.072  1.00  0.00     0.060 A 
BRANCH 107 108
ATOM    108  S   UNL A   1      54.998  37.684  24.687  1.00  0.00     0.124 S 
ATOM    109  O   UNL A   1      54.422  38.684  25.581  1.00  0.00    -0.237 OA
ATOM    110  O   UNL A   1      56.345  37.233  25.023  1.00  0.00    -0.237 OA
ATOM    111  O   UNL A   1      54.752  37.899  23.264  1.00  0.00    -0.744 OA
ENDBRANCH 107 108
ENDBRANCH  75 100
ENDBRANCH  49  50
ENDBRANCH  42  44
ENDBRANCH  41  42
ENDBRANCH  40  41
ENDBRANCH  39  40
ENDBRANCH  38  39
ENDBRANCH  37  38
ENDBRANCH   1  37
TORSDOF 24
ENDMDL
