MODEL 1
REMARK VINA RESULT:     -10.4      0.000      0.000
REMARK SMILES CCn1cc(C)c(C(=O)OCCOCCOCCOC(=O)c2ccc(-c3c4nc(c(-c5c(F)cc(S(=O)(=O)[O-])cc5F)c5ccc([nH]5)c(-c5c(F)cc(S(=O)(=O)[O-])cc5F)c5nc(c(-c6c(F)cc(S(=O)(=O)[O-])cc6F)c6ccc3[nH]6)C=C5)C=C4)cc2)c1CC(=O)N1CC[NH+](C)CC1
REMARK SMILES IDX 15 1 14 2 13 3 12 4 11 5 10 6 8 7 9 8 7 9 3 10 4 11 88 12
REMARK SMILES IDX 5 13 6 14 2 15 1 16 89 17 90 18 91 19 92 20 93 21 98 22
REMARK SMILES IDX 94 23 97 24 95 25 96 26 16 28 17 29 18 30 19 31 20 32 21 33
REMARK SMILES IDX 22 34 23 35 87 36 24 37 86 38 25 39 26 40 27 41 80 42 28 43
REMARK SMILES IDX 85 44 79 45 81 46 29 47 84 48 78 49 77 50 30 52 64 53 43 54
REMARK SMILES IDX 63 55 44 56 47 57 62 58 82 59 45 60 46 61 61 63 83 64 48 65
REMARK SMILES IDX 31 66 32 67 41 68 33 69 34 70 40 71 42 72 35 73 36 74 37 75
REMARK SMILES IDX 38 76 39 77 65 78 66 79 75 80 67 81 68 82 74 83 76 84 69 85
REMARK SMILES IDX 70 86 71 87 72 88 73 89 49 90 50 91 59 92 51 93 52 94 58 95
REMARK SMILES IDX 60 96 53 97 54 98 55 99 56 100 57 101
REMARK H PARENT 95 27 81 51 47 62
REMARK Flexibility Score: inf
ROOT
ATOM      1  C   UNL A   1      41.754  21.383  27.408  1.00  0.00     0.188 C 
ENDROOT
BRANCH   1   2
ATOM      2  C   UNL A   1      40.320  21.594  26.897  1.00  0.00     0.188 C 
BRANCH   2   3
ATOM      3  O   UNL A   1      39.828  20.530  26.120  1.00  0.00    -0.376 OA
BRANCH   3   4
ATOM      4  C   UNL A   1      38.663  20.745  25.336  1.00  0.00     0.202 C 
BRANCH   4   5
ATOM      5  C   UNL A   1      37.490  21.673  25.746  1.00  0.00     0.261 C 
BRANCH   5   6
ATOM      6  O   UNL A   1      36.248  21.556  25.046  1.00  0.00    -0.460 OA
BRANCH   6   7
ATOM      7  C   UNL A   1      35.109  21.638  25.782  1.00  0.00     0.340 C 
ATOM      8  O   UNL A   1      35.078  21.552  27.006  1.00  0.00    -0.246 OA
BRANCH   7   9
ATOM      9  C   UNL A   1      33.928  22.010  24.990  1.00  0.00     0.084 A 
ATOM     10  N   UNL A   1      32.438  23.133  23.771  1.00  0.00    -0.350 N 
ATOM     11  C   UNL A   1      32.168  21.805  23.583  1.00  0.00     0.090 A 
ATOM     12  C   UNL A   1      33.335  23.275  24.829  1.00  0.00     0.042 A 
ATOM     13  C   UNL A   1      33.095  21.069  24.283  1.00  0.00    -0.019 A 
ATOM     14  C   UNL A   1      33.162  19.579  24.313  1.00  0.00     0.047 C 
BRANCH  10  15
ATOM     15  C   UNL A   1      31.991  24.199  22.882  1.00  0.00     0.118 C 
ATOM     16  C   UNL A   1      30.643  24.831  23.201  1.00  0.00     0.027 C 
ENDBRANCH  10  15
BRANCH  12  17
ATOM     17  C   UNL A   1      33.667  24.623  25.434  1.00  0.00     0.155 C 
BRANCH  17  18
ATOM     18  C   UNL A   1      32.530  25.383  26.144  1.00  0.00     0.228 C 
ATOM     19  O   UNL A   1      31.701  24.717  26.782  1.00  0.00    -0.274 OA
ATOM     20  N   UNL A   1      32.544  26.777  26.226  1.00  0.00    -0.331 N 
ATOM     21  C   UNL A   1      31.427  27.461  26.894  1.00  0.00     0.181 C 
ATOM     22  C   UNL A   1      33.381  27.668  25.431  1.00  0.00     0.181 C 
ATOM     23  C   UNL A   1      31.828  28.764  27.608  1.00  0.00     0.283 C 
ATOM     24  C   UNL A   1      33.741  28.976  26.173  1.00  0.00     0.283 C 
ATOM     25  N   UNL A   1      32.614  29.703  26.783  1.00  0.00    -0.334 N 
ATOM     26  C   UNL A   1      31.779  30.349  25.763  1.00  0.00     0.332 C 
ATOM     27  H   UNL A   1      32.977  30.449  27.377  1.00  0.00     0.347 HD
ENDBRANCH  17  18
ENDBRANCH  12  17
ENDBRANCH   7   9
ENDBRANCH   6   7
ENDBRANCH   5   6
ENDBRANCH   4   5
ENDBRANCH   3   4
ENDBRANCH   2   3
ENDBRANCH   1   2
BRANCH   1  28
ATOM     28  O   UNL A   1      42.790  20.902  26.570  1.00  0.00    -0.376 OA
BRANCH  28  29
ATOM     29  C   UNL A   1      43.569  21.695  25.688  1.00  0.00     0.202 C 
BRANCH  29  30
ATOM     30  C   UNL A   1      42.946  22.889  24.982  1.00  0.00     0.261 C 
BRANCH  30  31
ATOM     31  O   UNL A   1      43.922  23.815  24.576  1.00  0.00    -0.460 OA
BRANCH  31  32
ATOM     32  C   UNL A   1      44.078  24.847  25.425  1.00  0.00     0.338 C 
ATOM     33  O   UNL A   1      45.126  25.367  25.787  1.00  0.00    -0.246 OA
BRANCH  32  34
ATOM     34  C   UNL A   1      42.741  25.243  25.894  1.00  0.00     0.060 A 
ATOM     35  C   UNL A   1      42.237  26.369  25.247  1.00  0.00     0.016 A 
ATOM     36  C   UNL A   1      42.431  24.922  27.222  1.00  0.00     0.016 A 
ATOM     37  C   UNL A   1      41.845  27.400  26.053  1.00  0.00     0.010 A 
ATOM     38  C   UNL A   1      42.096  25.965  28.031  1.00  0.00     0.010 A 
ATOM     39  C   UNL A   1      41.929  27.211  27.436  1.00  0.00    -0.014 A 
BRANCH  39  40
ATOM     40  C   UNL A   1      41.737  28.358  28.281  1.00  0.00     0.031 A 
ATOM     41  C   UNL A   1      42.895  29.261  28.188  1.00  0.00     0.074 A 
ATOM     42  C   UNL A   1      40.590  28.567  28.948  1.00  0.00     0.049 A 
ATOM     43  N   UNL A   1      43.851  29.397  29.043  1.00  0.00    -0.248 NA
ATOM     44  C   UNL A   1      43.179  29.847  26.866  1.00  0.00     0.031 C 
ATOM     45  C   UNL A   1      39.319  27.845  28.840  1.00  0.00     0.029 A 
ATOM     46  N   UNL A   1      40.297  29.572  29.810  1.00  0.00    -0.354 N 
ATOM     47  C   UNL A   1      44.708  30.320  28.458  1.00  0.00     0.074 A 
ATOM     48  C   UNL A   1      44.415  30.306  27.053  1.00  0.00     0.031 C 
ATOM     49  C   UNL A   1      38.341  28.580  29.424  1.00  0.00     0.029 A 
ATOM     50  C   UNL A   1      38.939  29.747  30.049  1.00  0.00     0.049 A 
ATOM     51  H   UNL A   1      40.990  30.131  30.230  1.00  0.00     0.167 HD
ATOM     52  C   UNL A   1      45.319  31.270  29.214  1.00  0.00     0.037 A 
ATOM     53  C   UNL A   1      38.389  30.847  30.625  1.00  0.00     0.037 A 
ATOM     54  C   UNL A   1      45.308  30.900  30.610  1.00  0.00     0.049 A 
ATOM     55  C   UNL A   1      39.492  31.552  31.345  1.00  0.00     0.074 A 
ATOM     56  C   UNL A   1      45.789  29.821  31.326  1.00  0.00     0.029 A 
ATOM     57  N   UNL A   1      44.371  31.505  31.416  1.00  0.00    -0.354 N 
ATOM     58  N   UNL A   1      40.114  31.052  32.381  1.00  0.00    -0.248 NA
ATOM     59  C   UNL A   1      40.240  32.563  30.607  1.00  0.00     0.031 C 
ATOM     60  C   UNL A   1      44.804  29.567  32.325  1.00  0.00     0.029 A 
ATOM     61  C   UNL A   1      43.810  30.540  32.214  1.00  0.00     0.049 A 
ATOM     62  H   UNL A   1      44.145  32.463  31.421  1.00  0.00     0.167 HD
ATOM     63  C   UNL A   1      41.455  31.368  32.189  1.00  0.00     0.074 A 
ATOM     64  C   UNL A   1      41.460  32.356  31.112  1.00  0.00     0.031 C 
ATOM     65  C   UNL A   1      42.450  30.590  32.711  1.00  0.00     0.037 A 
BRANCH  52  66
ATOM     66  C   UNL A   1      45.523  32.694  28.748  1.00  0.00     0.058 A 
ATOM     67  C   UNL A   1      46.823  33.231  28.787  1.00  0.00     0.135 A 
ATOM     68  C   UNL A   1      44.485  33.633  28.533  1.00  0.00     0.135 A 
ATOM     69  F   UNL A   1      47.885  32.434  28.980  1.00  0.00    -0.206 F 
ATOM     70  C   UNL A   1      47.064  34.602  28.713  1.00  0.00     0.059 A 
ATOM     71  C   UNL A   1      44.709  34.994  28.398  1.00  0.00     0.059 A 
ATOM     72  F   UNL A   1      43.188  33.310  28.536  1.00  0.00    -0.206 F 
ATOM     73  C   UNL A   1      45.995  35.476  28.538  1.00  0.00     0.060 A 
BRANCH  73  74
ATOM     74  S   UNL A   1      46.281  37.250  28.559  1.00  0.00     0.124 S 
ATOM     75  O   UNL A   1      45.228  37.700  29.462  1.00  0.00    -0.237 OA
ATOM     76  O   UNL A   1      47.645  37.326  29.072  1.00  0.00    -0.237 OA
ATOM     77  O   UNL A   1      46.120  37.631  27.159  1.00  0.00    -0.744 OA
ENDBRANCH  73  74
ENDBRANCH  52  66
BRANCH  53  78
ATOM     78  C   UNL A   1      37.108  31.510  30.256  1.00  0.00     0.058 A 
ATOM     79  C   UNL A   1      36.238  32.032  31.227  1.00  0.00     0.135 A 
ATOM     80  C   UNL A   1      36.832  31.871  28.920  1.00  0.00     0.135 A 
ATOM     81  F   UNL A   1      36.446  31.771  32.527  1.00  0.00    -0.206 F 
ATOM     82  C   UNL A   1      35.169  32.877  30.898  1.00  0.00     0.059 A 
ATOM     83  C   UNL A   1      35.770  32.703  28.567  1.00  0.00     0.059 A 
ATOM     84  F   UNL A   1      37.642  31.495  27.919  1.00  0.00    -0.206 F 
ATOM     85  C   UNL A   1      34.950  33.217  29.562  1.00  0.00     0.060 A 
BRANCH  85  86
ATOM     86  S   UNL A   1      33.655  34.409  29.141  1.00  0.00     0.124 S 
ATOM     87  O   UNL A   1      33.114  34.743  30.454  1.00  0.00    -0.237 OA
ATOM     88  O   UNL A   1      34.410  35.464  28.475  1.00  0.00    -0.237 OA
ATOM     89  O   UNL A   1      32.760  33.646  28.275  1.00  0.00    -0.744 OA
ENDBRANCH  85  86
ENDBRANCH  53  78
BRANCH  65  90
ATOM     90  C   UNL A   1      42.080  29.546  33.735  1.00  0.00     0.058 A 
ATOM     91  C   UNL A   1      41.678  28.233  33.426  1.00  0.00     0.135 A 
ATOM     92  C   UNL A   1      42.327  29.839  35.084  1.00  0.00     0.135 A 
ATOM     93  F   UNL A   1      41.516  27.846  32.153  1.00  0.00    -0.206 F 
ATOM     94  C   UNL A   1      41.507  27.265  34.419  1.00  0.00     0.059 A 
ATOM     95  C   UNL A   1      42.193  28.882  36.085  1.00  0.00     0.059 A 
ATOM     96  F   UNL A   1      42.773  31.056  35.436  1.00  0.00    -0.206 F 
ATOM     97  C   UNL A   1      41.774  27.598  35.748  1.00  0.00     0.060 A 
BRANCH  97  98
ATOM     98  S   UNL A   1      41.650  26.323  37.023  1.00  0.00     0.124 S 
ATOM     99  O   UNL A   1      40.406  26.683  37.696  1.00  0.00    -0.237 OA
ATOM    100  O   UNL A   1      41.615  25.092  36.239  1.00  0.00    -0.237 OA
ATOM    101  O   UNL A   1      42.864  26.513  37.814  1.00  0.00    -0.744 OA
ENDBRANCH  97  98
ENDBRANCH  65  90
ENDBRANCH  39  40
ENDBRANCH  32  34
ENDBRANCH  31  32
ENDBRANCH  30  31
ENDBRANCH  29  30
ENDBRANCH  28  29
ENDBRANCH   1  28
TORSDOF 23
ENDMDL
MODEL 2
REMARK VINA RESULT:     -10.4      2.381      3.439
REMARK SMILES CCn1cc(C)c(C(=O)OCCOCCOCCOC(=O)c2ccc(-c3c4nc(c(-c5c(F)cc(S(=O)(=O)[O-])cc5F)c5ccc([nH]5)c(-c5c(F)cc(S(=O)(=O)[O-])cc5F)c5nc(c(-c6c(F)cc(S(=O)(=O)[O-])cc6F)c6ccc3[nH]6)C=C5)C=C4)cc2)c1CC(=O)N1CC[NH+](C)CC1
REMARK SMILES IDX 15 1 14 2 13 3 12 4 11 5 10 6 8 7 9 8 7 9 3 10 4 11 88 12
REMARK SMILES IDX 5 13 6 14 2 15 1 16 89 17 90 18 91 19 92 20 93 21 98 22
REMARK SMILES IDX 94 23 97 24 95 25 96 26 16 28 17 29 18 30 19 31 20 32 21 33
REMARK SMILES IDX 22 34 23 35 87 36 24 37 86 38 25 39 26 40 27 41 80 42 28 43
REMARK SMILES IDX 85 44 79 45 81 46 29 47 84 48 78 49 77 50 30 52 64 53 43 54
REMARK SMILES IDX 63 55 44 56 47 57 62 58 82 59 45 60 46 61 61 63 83 64 48 65
REMARK SMILES IDX 31 66 32 67 41 68 33 69 34 70 40 71 42 72 35 73 36 74 37 75
REMARK SMILES IDX 38 76 39 77 65 78 66 79 75 80 67 81 68 82 74 83 76 84 69 85
REMARK SMILES IDX 70 86 71 87 72 88 73 89 49 90 50 91 59 92 51 93 52 94 58 95
REMARK SMILES IDX 60 96 53 97 54 98 55 99 56 100 57 101
REMARK H PARENT 95 27 81 51 47 62
REMARK Flexibility Score: inf
ROOT
ATOM      1  C   UNL A   1      37.987  20.936  25.742  1.00  0.00     0.188 C 
ENDROOT
BRANCH   1   2
ATOM      2  C   UNL A   1      37.547  21.712  24.490  1.00  0.00     0.188 C 
BRANCH   2   3
ATOM      3  O   UNL A   1      36.163  21.950  24.422  1.00  0.00    -0.376 OA
BRANCH   3   4
ATOM      4  C   UNL A   1      35.714  23.287  24.258  1.00  0.00     0.202 C 
BRANCH   4   5
ATOM      5  C   UNL A   1      35.320  24.230  25.424  1.00  0.00     0.261 C 
BRANCH   5   6
ATOM      6  O   UNL A   1      34.096  24.965  25.328  1.00  0.00    -0.460 OA
BRANCH   6   7
ATOM      7  C   UNL A   1      33.010  24.447  25.957  1.00  0.00     0.340 C 
ATOM      8  O   UNL A   1      32.281  25.091  26.705  1.00  0.00    -0.246 OA
BRANCH   7   9
ATOM      9  C   UNL A   1      32.683  23.079  25.528  1.00  0.00     0.084 A 
ATOM     10  N   UNL A   1      32.196  21.280  24.306  1.00  0.00    -0.350 N 
ATOM     11  C   UNL A   1      32.621  20.817  25.521  1.00  0.00     0.090 A 
ATOM     12  C   UNL A   1      31.978  22.655  24.388  1.00  0.00     0.042 A 
ATOM     13  C   UNL A   1      32.979  21.895  26.297  1.00  0.00    -0.019 A 
ATOM     14  C   UNL A   1      33.523  21.811  27.683  1.00  0.00     0.047 C 
BRANCH  10  15
ATOM     15  C   UNL A   1      32.156  20.481  23.087  1.00  0.00     0.118 C 
ATOM     16  C   UNL A   1      32.477  19.000  23.233  1.00  0.00     0.027 C 
ENDBRANCH  10  15
BRANCH  12  17
ATOM     17  C   UNL A   1      31.295  23.434  23.284  1.00  0.00     0.155 C 
BRANCH  17  18
ATOM     18  C   UNL A   1      31.982  24.722  22.792  1.00  0.00     0.228 C 
ATOM     19  O   UNL A   1      32.953  24.603  22.030  1.00  0.00    -0.274 OA
ATOM     20  N   UNL A   1      31.418  25.975  23.041  1.00  0.00    -0.331 N 
ATOM     21  C   UNL A   1      32.121  27.178  22.571  1.00  0.00     0.181 C 
ATOM     22  C   UNL A   1      30.365  26.256  24.010  1.00  0.00     0.181 C 
ATOM     23  C   UNL A   1      31.186  28.335  22.178  1.00  0.00     0.283 C 
ATOM     24  C   UNL A   1      29.464  27.441  23.591  1.00  0.00     0.283 C 
ATOM     25  N   UNL A   1      30.164  28.673  23.188  1.00  0.00    -0.334 N 
ATOM     26  C   UNL A   1      30.757  29.354  24.345  1.00  0.00     0.332 C 
ATOM     27  H   UNL A   1      29.492  29.324  22.781  1.00  0.00     0.347 HD
ENDBRANCH  17  18
ENDBRANCH  12  17
ENDBRANCH   7   9
ENDBRANCH   6   7
ENDBRANCH   5   6
ENDBRANCH   4   5
ENDBRANCH   3   4
ENDBRANCH   2   3
ENDBRANCH   1   2
BRANCH   1  28
ATOM     28  O   UNL A   1      39.351  20.733  26.063  1.00  0.00    -0.376 OA
BRANCH  28  29
ATOM     29  C   UNL A   1      40.339  21.749  26.133  1.00  0.00     0.202 C 
BRANCH  29  30
ATOM     30  C   UNL A   1      41.226  21.871  27.361  1.00  0.00     0.261 C 
BRANCH  30  31
ATOM     31  O   UNL A   1      42.413  21.133  27.216  1.00  0.00    -0.460 OA
BRANCH  31  32
ATOM     32  C   UNL A   1      42.872  21.086  25.952  1.00  0.00     0.338 C 
ATOM     33  O   UNL A   1      42.647  20.231  25.105  1.00  0.00    -0.246 OA
BRANCH  32  34
ATOM     34  C   UNL A   1      43.748  22.251  25.753  1.00  0.00     0.060 A 
ATOM     35  C   UNL A   1      44.613  22.484  26.819  1.00  0.00     0.016 A 
ATOM     36  C   UNL A   1      43.240  23.275  24.943  1.00  0.00     0.016 A 
ATOM     37  C   UNL A   1      44.569  23.736  27.366  1.00  0.00     0.010 A 
ATOM     38  C   UNL A   1      43.148  24.507  25.515  1.00  0.00     0.010 A 
ATOM     39  C   UNL A   1      43.715  24.673  26.775  1.00  0.00    -0.014 A 
BRANCH  39  40
ATOM     40  C   UNL A   1      43.493  25.909  27.473  1.00  0.00     0.031 A 
ATOM     41  C   UNL A   1      44.594  26.850  27.211  1.00  0.00     0.074 A 
ATOM     42  C   UNL A   1      42.363  26.146  28.160  1.00  0.00     0.049 A 
ATOM     43  N   UNL A   1      45.574  27.145  27.997  1.00  0.00    -0.248 NA
ATOM     44  C   UNL A   1      44.792  27.271  25.813  1.00  0.00     0.031 C 
ATOM     45  C   UNL A   1      41.131  25.353  28.205  1.00  0.00     0.029 A 
ATOM     46  N   UNL A   1      42.048  27.239  28.898  1.00  0.00    -0.354 N 
ATOM     47  C   UNL A   1      46.353  28.025  27.259  1.00  0.00     0.074 A 
ATOM     48  C   UNL A   1      46.007  27.812  25.882  1.00  0.00     0.031 C 
ATOM     49  C   UNL A   1      40.137  26.108  28.734  1.00  0.00     0.029 A 
ATOM     50  C   UNL A   1      40.693  27.376  29.175  1.00  0.00     0.049 A 
ATOM     51  H   UNL A   1      42.725  27.883  29.210  1.00  0.00     0.167 HD
ATOM     52  C   UNL A   1      46.939  29.096  27.856  1.00  0.00     0.037 A 
ATOM     53  C   UNL A   1      40.105  28.512  29.630  1.00  0.00     0.037 A 
ATOM     54  C   UNL A   1      47.004  28.912  29.287  1.00  0.00     0.049 A 
ATOM     55  C   UNL A   1      41.194  29.360  30.201  1.00  0.00     0.074 A 
ATOM     56  C   UNL A   1      47.573  27.962  30.113  1.00  0.00     0.029 A 
ATOM     57  N   UNL A   1      46.067  29.569  30.051  1.00  0.00    -0.354 N 
ATOM     58  N   UNL A   1      41.884  29.032  31.263  1.00  0.00    -0.248 NA
ATOM     59  C   UNL A   1      41.855  30.302  29.305  1.00  0.00     0.031 C 
ATOM     60  C   UNL A   1      46.644  27.791  31.181  1.00  0.00     0.029 A 
ATOM     61  C   UNL A   1      45.593  28.690  30.992  1.00  0.00     0.049 A 
ATOM     62  H   UNL A   1      45.788  30.507  29.944  1.00  0.00     0.167 HD
ATOM     63  C   UNL A   1      43.197  29.388  30.970  1.00  0.00     0.074 A 
ATOM     64  C   UNL A   1      43.103  30.225  29.775  1.00  0.00     0.031 C 
ATOM     65  C   UNL A   1      44.253  28.736  31.541  1.00  0.00     0.037 A 
BRANCH  52  66
ATOM     66  C   UNL A   1      47.045  30.454  27.202  1.00  0.00     0.058 A 
ATOM     67  C   UNL A   1      48.295  31.101  27.199  1.00  0.00     0.135 A 
ATOM     68  C   UNL A   1      45.943  31.263  26.831  1.00  0.00     0.135 A 
ATOM     69  F   UNL A   1      49.410  30.432  27.529  1.00  0.00    -0.206 F 
ATOM     70  C   UNL A   1      48.427  32.465  26.941  1.00  0.00     0.059 A 
ATOM     71  C   UNL A   1      46.061  32.608  26.513  1.00  0.00     0.059 A 
ATOM     72  F   UNL A   1      44.678  30.834  26.845  1.00  0.00    -0.206 F 
ATOM     73  C   UNL A   1      47.298  33.211  26.618  1.00  0.00     0.060 A 
BRANCH  73  74
ATOM     74  S   UNL A   1      47.439  34.990  26.399  1.00  0.00     0.124 S 
ATOM     75  O   UNL A   1      46.035  35.388  26.376  1.00  0.00    -0.237 OA
ATOM     76  O   UNL A   1      48.198  35.377  27.582  1.00  0.00    -0.237 OA
ATOM     77  O   UNL A   1      48.153  35.116  25.132  1.00  0.00    -0.744 OA
ENDBRANCH  73  74
ENDBRANCH  52  66
BRANCH  53  78
ATOM     78  C   UNL A   1      38.776  29.055  29.238  1.00  0.00     0.058 A 
ATOM     79  C   UNL A   1      37.776  29.323  30.188  1.00  0.00     0.135 A 
ATOM     80  C   UNL A   1      38.548  29.563  27.941  1.00  0.00     0.135 A 
ATOM     81  F   UNL A   1      37.925  28.910  31.456  1.00  0.00    -0.206 F 
ATOM     82  C   UNL A   1      36.629  30.067  29.878  1.00  0.00     0.059 A 
ATOM     83  C   UNL A   1      37.411  30.298  27.607  1.00  0.00     0.059 A 
ATOM     84  F   UNL A   1      39.470  29.436  26.975  1.00  0.00    -0.206 F 
ATOM     85  C   UNL A   1      36.460  30.560  28.584  1.00  0.00     0.060 A 
BRANCH  85  86
ATOM     86  S   UNL A   1      35.049  31.629  28.208  1.00  0.00     0.124 S 
ATOM     87  O   UNL A   1      34.219  30.753  27.387  1.00  0.00    -0.237 OA
ATOM     88  O   UNL A   1      34.531  31.938  29.536  1.00  0.00    -0.237 OA
ATOM     89  O   UNL A   1      35.654  32.755  27.501  1.00  0.00    -0.744 OA
ENDBRANCH  85  86
ENDBRANCH  53  78
BRANCH  65  90
ATOM     90  C   UNL A   1      43.983  27.818  32.707  1.00  0.00     0.058 A 
ATOM     91  C   UNL A   1      43.827  26.423  32.604  1.00  0.00     0.135 A 
ATOM     92  C   UNL A   1      44.075  28.359  33.998  1.00  0.00     0.135 A 
ATOM     93  F   UNL A   1      43.828  25.818  31.408  1.00  0.00    -0.206 F 
ATOM     94  C   UNL A   1      43.742  25.609  33.736  1.00  0.00     0.059 A 
ATOM     95  C   UNL A   1      44.024  27.563  35.138  1.00  0.00     0.059 A 
ATOM     96  F   UNL A   1      44.286  29.675  34.161  1.00  0.00    -0.206 F 
ATOM     97  C   UNL A   1      43.849  26.188  35.002  1.00  0.00     0.060 A 
BRANCH  97  98
ATOM     98  S   UNL A   1      43.839  25.129  36.465  1.00  0.00     0.124 S 
ATOM     99  O   UNL A   1      45.070  25.526  37.140  1.00  0.00    -0.237 OA
ATOM    100  O   UNL A   1      42.597  25.515  37.129  1.00  0.00    -0.237 OA
ATOM    101  O   UNL A   1      43.842  23.777  35.909  1.00  0.00    -0.744 OA
ENDBRANCH  97  98
ENDBRANCH  65  90
ENDBRANCH  39  40
ENDBRANCH  32  34
ENDBRANCH  31  32
ENDBRANCH  30  31
ENDBRANCH  29  30
ENDBRANCH  28  29
ENDBRANCH   1  28
TORSDOF 23
ENDMDL
MODEL 3
REMARK VINA RESULT:      -9.7      4.207      9.529
REMARK SMILES CCn1cc(C)c(C(=O)OCCOCCOCCOC(=O)c2ccc(-c3c4nc(c(-c5c(F)cc(S(=O)(=O)[O-])cc5F)c5ccc([nH]5)c(-c5c(F)cc(S(=O)(=O)[O-])cc5F)c5nc(c(-c6c(F)cc(S(=O)(=O)[O-])cc6F)c6ccc3[nH]6)C=C5)C=C4)cc2)c1CC(=O)N1CC[NH+](C)CC1
REMARK SMILES IDX 15 1 14 2 13 3 12 4 11 5 10 6 8 7 9 8 7 9 3 10 4 11 88 12
REMARK SMILES IDX 5 13 6 14 2 15 1 16 89 17 90 18 91 19 92 20 93 21 98 22
REMARK SMILES IDX 94 23 97 24 95 25 96 26 16 28 17 29 18 30 19 31 20 32 21 33
REMARK SMILES IDX 22 34 23 35 87 36 24 37 86 38 25 39 26 40 27 41 80 42 28 43
REMARK SMILES IDX 85 44 79 45 81 46 29 47 84 48 78 49 77 50 30 52 64 53 43 54
REMARK SMILES IDX 63 55 44 56 47 57 62 58 82 59 45 60 46 61 61 63 83 64 48 65
REMARK SMILES IDX 31 66 32 67 41 68 33 69 34 70 40 71 42 72 35 73 36 74 37 75
REMARK SMILES IDX 38 76 39 77 65 78 66 79 75 80 67 81 68 82 74 83 76 84 69 85
REMARK SMILES IDX 70 86 71 87 72 88 73 89 49 90 50 91 59 92 51 93 52 94 58 95
REMARK SMILES IDX 60 96 53 97 54 98 55 99 56 100 57 101
REMARK H PARENT 95 27 81 51 47 62
REMARK Flexibility Score: inf
ROOT
ATOM      1  C   UNL A   1      35.391  30.087  28.636  1.00  0.00     0.188 C 
ENDROOT
BRANCH   1   2
ATOM      2  C   UNL A   1      34.763  30.388  27.266  1.00  0.00     0.188 C 
BRANCH   2   3
ATOM      3  O   UNL A   1      33.357  30.370  27.265  1.00  0.00    -0.376 OA
BRANCH   3   4
ATOM      4  C   UNL A   1      32.696  29.113  27.283  1.00  0.00     0.202 C 
BRANCH   4   5
ATOM      5  C   UNL A   1      32.059  28.438  26.041  1.00  0.00     0.261 C 
BRANCH   5   6
ATOM      6  O   UNL A   1      31.936  27.013  26.023  1.00  0.00    -0.460 OA
BRANCH   6   7
ATOM      7  C   UNL A   1      32.822  26.323  25.259  1.00  0.00     0.340 C 
ATOM      8  O   UNL A   1      33.931  26.745  24.947  1.00  0.00    -0.246 OA
BRANCH   7   9
ATOM      9  C   UNL A   1      32.398  24.944  24.975  1.00  0.00     0.084 A 
ATOM     10  N   UNL A   1      31.756  23.072  23.950  1.00  0.00    -0.350 N 
ATOM     11  C   UNL A   1      32.204  22.699  25.188  1.00  0.00     0.090 A 
ATOM     12  C   UNL A   1      31.623  24.459  23.907  1.00  0.00     0.042 A 
ATOM     13  C   UNL A   1      32.657  23.821  25.843  1.00  0.00    -0.019 A 
ATOM     14  C   UNL A   1      33.251  23.834  27.210  1.00  0.00     0.047 C 
BRANCH  10  15
ATOM     15  C   UNL A   1      31.619  22.167  22.815  1.00  0.00     0.118 C 
ATOM     16  C   UNL A   1      32.207  20.772  22.983  1.00  0.00     0.027 C 
ENDBRANCH  10  15
BRANCH  12  17
ATOM     17  C   UNL A   1      30.941  25.173  22.759  1.00  0.00     0.155 C 
BRANCH  17  18
ATOM     18  C   UNL A   1      31.424  26.595  22.418  1.00  0.00     0.228 C 
ATOM     19  O   UNL A   1      32.513  26.711  21.836  1.00  0.00    -0.274 OA
ATOM     20  N   UNL A   1      30.581  27.696  22.586  1.00  0.00    -0.331 N 
ATOM     21  C   UNL A   1      31.093  29.038  22.268  1.00  0.00     0.181 C 
ATOM     22  C   UNL A   1      29.345  27.712  23.358  1.00  0.00     0.181 C 
ATOM     23  C   UNL A   1      30.022  30.006  21.736  1.00  0.00     0.283 C 
ATOM     24  C   UNL A   1      28.305  28.715  22.808  1.00  0.00     0.283 C 
ATOM     25  N   UNL A   1      28.796  30.081  22.557  1.00  0.00    -0.334 N 
ATOM     26  C   UNL A   1      29.034  30.804  23.812  1.00  0.00     0.332 C 
ATOM     27  H   UNL A   1      28.084  30.606  22.049  1.00  0.00     0.347 HD
ENDBRANCH  17  18
ENDBRANCH  12  17
ENDBRANCH   7   9
ENDBRANCH   6   7
ENDBRANCH   5   6
ENDBRANCH   4   5
ENDBRANCH   3   4
ENDBRANCH   2   3
ENDBRANCH   1   2
BRANCH   1  28
ATOM     28  O   UNL A   1      36.587  29.342  28.771  1.00  0.00    -0.376 OA
BRANCH  28  29
ATOM     29  C   UNL A   1      37.873  29.889  29.019  1.00  0.00     0.202 C 
BRANCH  29  30
ATOM     30  C   UNL A   1      38.040  31.387  29.220  1.00  0.00     0.261 C 
BRANCH  30  31
ATOM     31  O   UNL A   1      38.742  31.673  30.404  1.00  0.00    -0.460 OA
BRANCH  31  32
ATOM     32  C   UNL A   1      39.780  32.512  30.230  1.00  0.00     0.338 C 
ATOM     33  O   UNL A   1      39.781  33.594  29.656  1.00  0.00    -0.246 OA
BRANCH  32  34
ATOM     34  C   UNL A   1      40.965  31.883  30.833  1.00  0.00     0.060 A 
ATOM     35  C   UNL A   1      42.050  31.797  29.964  1.00  0.00     0.016 A 
ATOM     36  C   UNL A   1      40.721  30.947  31.846  1.00  0.00     0.016 A 
ATOM     37  C   UNL A   1      42.584  30.551  29.791  1.00  0.00     0.010 A 
ATOM     38  C   UNL A   1      41.209  29.693  31.638  1.00  0.00     0.010 A 
ATOM     39  C   UNL A   1      42.038  29.502  30.537  1.00  0.00    -0.014 A 
BRANCH  39  40
ATOM     40  C   UNL A   1      42.434  28.163  30.197  1.00  0.00     0.031 A 
ATOM     41  C   UNL A   1      43.248  27.581  31.276  1.00  0.00     0.074 A 
ATOM     42  C   UNL A   1      41.995  27.550  29.085  1.00  0.00     0.049 A 
ATOM     43  N   UNL A   1      44.530  27.435  31.298  1.00  0.00    -0.248 NA
ATOM     44  C   UNL A   1      42.601  27.429  32.592  1.00  0.00     0.031 C 
ATOM     45  C   UNL A   1      40.963  27.988  28.141  1.00  0.00     0.029 A 
ATOM     46  N   UNL A   1      42.327  26.319  28.625  1.00  0.00    -0.354 N 
ATOM     47  C   UNL A   1      44.794  26.898  32.550  1.00  0.00     0.074 A 
ATOM     48  C   UNL A   1      43.659  27.211  33.371  1.00  0.00     0.031 C 
ATOM     49  C   UNL A   1      40.596  26.938  27.367  1.00  0.00     0.029 A 
ATOM     50  C   UNL A   1      41.449  25.804  27.678  1.00  0.00     0.049 A 
ATOM     51  H   UNL A   1      43.123  25.831  28.936  1.00  0.00     0.167 HD
ATOM     52  C   UNL A   1      45.744  25.938  32.702  1.00  0.00     0.037 A 
ATOM     53  C   UNL A   1      41.399  24.502  27.294  1.00  0.00     0.037 A 
ATOM     54  C   UNL A   1      46.645  25.925  31.575  1.00  0.00     0.049 A 
ATOM     55  C   UNL A   1      42.701  23.886  27.693  1.00  0.00     0.074 A 
ATOM     56  C   UNL A   1      47.483  26.860  30.998  1.00  0.00     0.029 A 
ATOM     57  N   UNL A   1      46.454  24.948  30.624  1.00  0.00    -0.354 N 
ATOM     58  N   UNL A   1      43.850  24.224  27.167  1.00  0.00    -0.248 NA
ATOM     59  C   UNL A   1      42.782  23.282  29.017  1.00  0.00     0.031 C 
ATOM     60  C   UNL A   1      47.386  26.634  29.594  1.00  0.00     0.029 A 
ATOM     61  C   UNL A   1      46.552  25.534  29.387  1.00  0.00     0.049 A 
ATOM     62  H   UNL A   1      46.279  23.996  30.801  1.00  0.00     0.167 HD
ATOM     63  C   UNL A   1      44.742  24.259  28.234  1.00  0.00     0.074 A 
ATOM     64  C   UNL A   1      44.039  23.606  29.336  1.00  0.00     0.031 C 
ATOM     65  C   UNL A   1      45.842  25.070  28.213  1.00  0.00     0.037 A 
BRANCH  52  66
ATOM     66  C   UNL A   1      45.587  24.759  33.636  1.00  0.00     0.058 A 
ATOM     67  C   UNL A   1      46.583  24.535  34.605  1.00  0.00     0.135 A 
ATOM     68  C   UNL A   1      44.670  23.695  33.451  1.00  0.00     0.135 A 
ATOM     69  F   UNL A   1      47.503  25.475  34.868  1.00  0.00    -0.206 F 
ATOM     70  C   UNL A   1      46.715  23.316  35.268  1.00  0.00     0.059 A 
ATOM     71  C   UNL A   1      44.749  22.496  34.144  1.00  0.00     0.059 A 
ATOM     72  F   UNL A   1      43.705  23.707  32.528  1.00  0.00    -0.206 F 
ATOM     73  C   UNL A   1      45.802  22.297  35.014  1.00  0.00     0.060 A 
BRANCH  73  74
ATOM     74  S   UNL A   1      46.031  20.684  35.774  1.00  0.00     0.124 S 
ATOM     75  O   UNL A   1      45.930  21.018  37.191  1.00  0.00    -0.237 OA
ATOM     76  O   UNL A   1      44.920  19.928  35.209  1.00  0.00    -0.237 OA
ATOM     77  O   UNL A   1      47.356  20.282  35.313  1.00  0.00    -0.744 OA
ENDBRANCH  73  74
ENDBRANCH  52  66
BRANCH  53  78
ATOM     78  C   UNL A   1      40.181  23.700  26.992  1.00  0.00     0.058 A 
ATOM     79  C   UNL A   1      38.906  24.287  26.923  1.00  0.00     0.135 A 
ATOM     80  C   UNL A   1      40.279  22.377  26.512  1.00  0.00     0.135 A 
ATOM     81  F   UNL A   1      38.728  25.556  27.324  1.00  0.00    -0.206 F 
ATOM     82  C   UNL A   1      37.799  23.612  26.393  1.00  0.00     0.059 A 
ATOM     83  C   UNL A   1      39.190  21.681  25.988  1.00  0.00     0.059 A 
ATOM     84  F   UNL A   1      41.461  21.746  26.457  1.00  0.00    -0.206 F 
ATOM     85  C   UNL A   1      37.954  22.309  25.916  1.00  0.00     0.060 A 
BRANCH  85  86
ATOM     86  S   UNL A   1      36.563  21.477  25.113  1.00  0.00     0.124 S 
ATOM     87  O   UNL A   1      37.093  20.132  24.910  1.00  0.00    -0.237 OA
ATOM     88  O   UNL A   1      35.507  21.602  26.111  1.00  0.00    -0.237 OA
ATOM     89  O   UNL A   1      36.360  22.255  23.893  1.00  0.00    -0.744 OA
ENDBRANCH  85  86
ENDBRANCH  53  78
BRANCH  65  90
ATOM     90  C   UNL A   1      46.234  25.712  26.905  1.00  0.00     0.058 A 
ATOM     91  C   UNL A   1      46.009  27.063  26.581  1.00  0.00     0.135 A 
ATOM     92  C   UNL A   1      47.036  24.968  26.027  1.00  0.00     0.135 A 
ATOM     93  F   UNL A   1      45.335  27.867  27.416  1.00  0.00    -0.206 F 
ATOM     94  C   UNL A   1      46.539  27.639  25.424  1.00  0.00     0.059 A 
ATOM     95  C   UNL A   1      47.599  25.529  24.886  1.00  0.00     0.059 A 
ATOM     96  F   UNL A   1      47.337  23.691  26.313  1.00  0.00    -0.206 F 
ATOM     97  C   UNL A   1      47.340  26.864  24.584  1.00  0.00     0.060 A 
BRANCH  97  98
ATOM     98  S   UNL A   1      48.109  27.630  23.139  1.00  0.00     0.124 S 
ATOM     99  O   UNL A   1      47.116  28.628  22.756  1.00  0.00    -0.237 OA
ATOM    100  O   UNL A   1      49.359  28.152  23.683  1.00  0.00    -0.237 OA
ATOM    101  O   UNL A   1      48.265  26.516  22.205  1.00  0.00    -0.744 OA
ENDBRANCH  97  98
ENDBRANCH  65  90
ENDBRANCH  39  40
ENDBRANCH  32  34
ENDBRANCH  31  32
ENDBRANCH  30  31
ENDBRANCH  29  30
ENDBRANCH  28  29
ENDBRANCH   1  28
TORSDOF 23
ENDMDL
