MODEL 1
REMARK VINA RESULT:     -10.9      0.000      0.000
REMARK SMILES O=C(OCCOCCOCCOC(=O)[C@@H]1[C@@H](C(=O)Nc2cccc([N+](=O)[O-])c2)[C@@H]2C=C[C@H]1O2)c1ccc(-c2c3nc(c(-c4c(F)cc(S(=O)(=O)[O-])cc4F)c4ccc([nH]4)c(-c4c(F)cc(S(=O)(=O)[O-])cc4F)c4nc(c(-c5c(F)cc(S(=O)(=O)[O-])cc5F)c5ccc2[nH]5)C=C4)C=C3)cc1
REMARK SMILES IDX 7 1 6 2 5 3 4 4 3 5 2 6 1 7 34 8 35 9 99 10 36 11 98 12
REMARK SMILES IDX 37 13 38 14 39 15 92 16 40 17 97 18 91 19 93 20 41 21 96 22
REMARK SMILES IDX 90 23 89 24 42 26 76 27 55 28 75 29 56 30 59 31 74 32 94 33
REMARK SMILES IDX 57 34 58 35 73 37 95 38 60 39 43 40 44 41 53 42 45 43 46 44
REMARK SMILES IDX 52 45 54 46 47 47 48 48 49 49 50 50 51 51 77 52 78 53 87 54
REMARK SMILES IDX 79 55 80 56 86 57 88 58 81 59 82 60 83 61 84 62 85 63 61 64
REMARK SMILES IDX 62 65 71 66 63 67 64 68 70 69 72 70 65 71 66 72 67 73 68 74
REMARK SMILES IDX 69 75 8 76 9 77 10 78 11 79 12 80 13 81 14 82 15 83 16 84
REMARK SMILES IDX 32 85 29 86 31 87 33 88 30 89 17 90 18 91 19 92 20 94 21 95
REMARK SMILES IDX 28 96 22 97 24 98 23 99 25 100 26 101 27 102
REMARK H PARENT 93 25 59 36 19 93
REMARK Flexibility Score: inf
ROOT
ATOM      1  C   UNL A   1      40.821  21.269  27.591  1.00  0.00     0.188 C 
ENDROOT
BRANCH   1   2
ATOM      2  O   UNL A   1      41.282  22.577  27.921  1.00  0.00    -0.376 OA
BRANCH   2   3
ATOM      3  C   UNL A   1      42.617  22.901  27.512  1.00  0.00     0.202 C 
BRANCH   3   4
ATOM      4  C   UNL A   1      42.825  23.675  26.193  1.00  0.00     0.261 C 
BRANCH   4   5
ATOM      5  O   UNL A   1      41.788  24.619  25.863  1.00  0.00    -0.460 OA
BRANCH   5   6
ATOM      6  C   UNL A   1      41.816  25.970  25.983  1.00  0.00     0.338 C 
ATOM      7  O   UNL A   1      41.931  26.665  24.976  1.00  0.00    -0.246 OA
BRANCH   6   8
ATOM      8  C   UNL A   1      41.740  26.647  27.303  1.00  0.00     0.060 A 
ATOM      9  C   UNL A   1      40.947  26.198  28.353  1.00  0.00     0.016 A 
ATOM     10  C   UNL A   1      42.586  27.732  27.534  1.00  0.00     0.016 A 
ATOM     11  C   UNL A   1      40.841  26.897  29.541  1.00  0.00     0.010 A 
ATOM     12  C   UNL A   1      42.589  28.363  28.781  1.00  0.00     0.010 A 
ATOM     13  C   UNL A   1      41.667  27.987  29.772  1.00  0.00    -0.014 A 
BRANCH  13  14
ATOM     14  C   UNL A   1      41.431  28.815  30.973  1.00  0.00     0.031 A 
ATOM     15  C   UNL A   1      40.250  29.737  30.954  1.00  0.00     0.074 A 
ATOM     16  C   UNL A   1      42.199  28.677  32.073  1.00  0.00     0.049 A 
ATOM     17  N   UNL A   1      39.905  30.660  31.804  1.00  0.00    -0.248 NA
ATOM     18  C   UNL A   1      39.347  29.624  29.792  1.00  0.00     0.031 C 
ATOM     19  C   UNL A   1      43.321  27.747  32.207  1.00  0.00     0.029 A 
ATOM     20  N   UNL A   1      42.150  29.299  33.291  1.00  0.00    -0.354 N 
ATOM     21  C   UNL A   1      38.796  31.280  31.244  1.00  0.00     0.074 A 
ATOM     22  C   UNL A   1      38.560  30.673  29.957  1.00  0.00     0.031 C 
ATOM     23  C   UNL A   1      43.840  27.839  33.441  1.00  0.00     0.029 A 
ATOM     24  C   UNL A   1      43.137  28.888  34.160  1.00  0.00     0.049 A 
ATOM     25  H   UNL A   1      41.474  29.976  33.525  1.00  0.00     0.167 HD
ATOM     26  C   UNL A   1      38.024  32.252  31.779  1.00  0.00     0.037 A 
ATOM     27  C   UNL A   1      43.453  29.342  35.387  1.00  0.00     0.037 A 
ATOM     28  C   UNL A   1      38.251  32.780  33.095  1.00  0.00     0.049 A 
ATOM     29  C   UNL A   1      42.610  30.456  35.944  1.00  0.00     0.074 A 
ATOM     30  C   UNL A   1      37.544  33.752  33.771  1.00  0.00     0.029 A 
ATOM     31  N   UNL A   1      39.269  32.351  33.941  1.00  0.00    -0.354 N 
ATOM     32  N   UNL A   1      41.583  31.063  35.394  1.00  0.00    -0.248 NA
ATOM     33  C   UNL A   1      42.954  30.943  37.283  1.00  0.00     0.031 C 
ATOM     34  C   UNL A   1      38.157  33.938  35.015  1.00  0.00     0.029 A 
ATOM     35  C   UNL A   1      39.210  33.041  35.136  1.00  0.00     0.049 A 
ATOM     36  H   UNL A   1      39.933  31.658  33.720  1.00  0.00     0.167 HD
ATOM     37  C   UNL A   1      41.126  31.972  36.338  1.00  0.00     0.074 A 
ATOM     38  C   UNL A   1      41.994  31.832  37.493  1.00  0.00     0.031 C 
ATOM     39  C   UNL A   1      40.083  32.836  36.268  1.00  0.00     0.037 A 
BRANCH  26  40
ATOM     40  C   UNL A   1      36.915  32.791  30.920  1.00  0.00     0.058 A 
ATOM     41  C   UNL A   1      37.137  33.785  29.951  1.00  0.00     0.135 A 
ATOM     42  C   UNL A   1      35.594  32.366  31.127  1.00  0.00     0.135 A 
ATOM     43  F   UNL A   1      38.376  34.258  29.735  1.00  0.00    -0.206 F 
ATOM     44  C   UNL A   1      36.084  34.376  29.259  1.00  0.00     0.059 A 
ATOM     45  C   UNL A   1      34.529  32.919  30.421  1.00  0.00     0.059 A 
ATOM     46  F   UNL A   1      35.322  31.429  32.049  1.00  0.00    -0.206 F 
ATOM     47  C   UNL A   1      34.782  33.940  29.507  1.00  0.00     0.060 A 
BRANCH  47  48
ATOM     48  S   UNL A   1      33.424  34.736  28.624  1.00  0.00     0.124 S 
ATOM     49  O   UNL A   1      34.102  35.880  28.019  1.00  0.00    -0.237 OA
ATOM     50  O   UNL A   1      33.000  33.691  27.698  1.00  0.00    -0.237 OA
ATOM     51  O   UNL A   1      32.473  35.059  29.682  1.00  0.00    -0.744 OA
ENDBRANCH  47  48
ENDBRANCH  26  40
BRANCH  27  52
ATOM     52  C   UNL A   1      44.592  28.758  36.152  1.00  0.00     0.058 A 
ATOM     53  C   UNL A   1      44.397  27.685  37.034  1.00  0.00     0.135 A 
ATOM     54  C   UNL A   1      45.900  29.253  36.017  1.00  0.00     0.135 A 
ATOM     55  F   UNL A   1      43.169  27.171  37.204  1.00  0.00    -0.206 F 
ATOM     56  C   UNL A   1      45.445  27.141  37.773  1.00  0.00     0.059 A 
ATOM     57  C   UNL A   1      46.971  28.708  36.722  1.00  0.00     0.059 A 
ATOM     58  F   UNL A   1      46.151  30.270  35.180  1.00  0.00    -0.206 F 
ATOM     59  C   UNL A   1      46.731  27.659  37.609  1.00  0.00     0.060 A 
BRANCH  59  60
ATOM     60  S   UNL A   1      48.085  26.927  38.555  1.00  0.00     0.124 S 
ATOM     61  O   UNL A   1      48.860  28.107  38.923  1.00  0.00    -0.237 OA
ATOM     62  O   UNL A   1      47.372  26.266  39.644  1.00  0.00    -0.237 OA
ATOM     63  O   UNL A   1      48.722  26.029  37.596  1.00  0.00    -0.744 OA
ENDBRANCH  59  60
ENDBRANCH  27  52
BRANCH  39  64
ATOM     64  C   UNL A   1      39.774  33.622  37.506  1.00  0.00     0.058 A 
ATOM     65  C   UNL A   1      38.799  33.210  38.425  1.00  0.00     0.135 A 
ATOM     66  C   UNL A   1      40.513  34.780  37.794  1.00  0.00     0.135 A 
ATOM     67  F   UNL A   1      38.061  32.113  38.186  1.00  0.00    -0.206 F 
ATOM     68  C   UNL A   1      38.547  33.938  39.580  1.00  0.00     0.059 A 
ATOM     69  C   UNL A   1      40.304  35.502  38.960  1.00  0.00     0.059 A 
ATOM     70  F   UNL A   1      41.467  35.204  36.948  1.00  0.00    -0.206 F 
ATOM     71  C   UNL A   1      39.309  35.081  39.840  1.00  0.00     0.060 A 
BRANCH  71  72
ATOM     72  S   UNL A   1      39.000  35.998  41.362  1.00  0.00     0.124 S 
ATOM     73  O   UNL A   1      40.196  35.687  42.137  1.00  0.00    -0.237 OA
ATOM     74  O   UNL A   1      38.891  37.372  40.882  1.00  0.00    -0.237 OA
ATOM     75  O   UNL A   1      37.758  35.416  41.860  1.00  0.00    -0.744 OA
ENDBRANCH  71  72
ENDBRANCH  39  64
ENDBRANCH  13  14
ENDBRANCH   6   8
ENDBRANCH   5   6
ENDBRANCH   4   5
ENDBRANCH   3   4
ENDBRANCH   2   3
ENDBRANCH   1   2
BRANCH   1  76
ATOM     76  C   UNL A   1      40.324  21.137  26.152  1.00  0.00     0.188 C 
BRANCH  76  77
ATOM     77  O   UNL A   1      38.948  20.817  25.967  1.00  0.00    -0.376 OA
BRANCH  77  78
ATOM     78  C   UNL A   1      38.109  21.828  25.418  1.00  0.00     0.202 C 
BRANCH  78  79
ATOM     79  C   UNL A   1      36.587  21.670  25.565  1.00  0.00     0.261 C 
BRANCH  79  80
ATOM     80  O   UNL A   1      35.809  22.397  24.603  1.00  0.00    -0.463 OA
BRANCH  80  81
ATOM     81  C   UNL A   1      35.255  23.563  25.038  1.00  0.00     0.312 C 
ATOM     82  O   UNL A   1      35.891  24.583  25.302  1.00  0.00    -0.252 OA
BRANCH  81  83
ATOM     83  C   UNL A   1      33.753  23.498  24.979  1.00  0.00     0.147 C 
ATOM     84  C   UNL A   1      33.214  22.118  24.508  1.00  0.00     0.129 C 
ATOM     85  C   UNL A   1      33.166  24.432  23.920  1.00  0.00     0.157 C 
ATOM     86  C   UNL A   1      32.360  22.502  23.302  1.00  0.00     0.155 C 
ATOM     87  C   UNL A   1      33.724  24.175  22.557  1.00  0.00     0.004 C 
ATOM     88  O   UNL A   1      31.875  23.802  23.734  1.00  0.00    -0.365 OA
ATOM     89  C   UNL A   1      33.243  22.980  22.180  1.00  0.00     0.004 C 
BRANCH  84  90
ATOM     90  C   UNL A   1      32.523  21.269  25.576  1.00  0.00     0.231 C 
ATOM     91  O   UNL A   1      32.158  21.810  26.628  1.00  0.00    -0.274 OA
ATOM     92  N   UNL A   1      32.127  19.976  25.393  1.00  0.00    -0.325 N 
ATOM     93  H   UNL A   1      31.285  19.748  25.850  1.00  0.00     0.169 HD
BRANCH  92  94
ATOM     94  C   UNL A   1      32.690  18.912  24.680  1.00  0.00     0.048 A 
ATOM     95  C   UNL A   1      32.438  18.839  23.304  1.00  0.00     0.026 A 
ATOM     96  C   UNL A   1      33.378  17.878  25.310  1.00  0.00     0.111 A 
ATOM     97  C   UNL A   1      32.954  17.789  22.544  1.00  0.00     0.009 A 
ATOM     98  C   UNL A   1      33.887  16.820  24.549  1.00  0.00     0.271 A 
ATOM     99  C   UNL A   1      33.677  16.773  23.165  1.00  0.00     0.086 A 
BRANCH  98 100
ATOM    100  N   UNL A   1      34.614  15.728  25.212  1.00  0.00     0.062 N 
ATOM    101  O   UNL A   1      34.010  14.658  25.372  1.00  0.00    -0.258 OA
ATOM    102  O   UNL A   1      35.765  15.960  25.602  1.00  0.00    -0.258 OA
ENDBRANCH  98 100
ENDBRANCH  92  94
ENDBRANCH  84  90
ENDBRANCH  81  83
ENDBRANCH  80  81
ENDBRANCH  79  80
ENDBRANCH  78  79
ENDBRANCH  77  78
ENDBRANCH  76  77
ENDBRANCH   1  76
TORSDOF 23
ENDMDL
MODEL 2
REMARK VINA RESULT:     -10.8      6.570     12.320
REMARK SMILES O=C(OCCOCCOCCOC(=O)[C@@H]1[C@@H](C(=O)Nc2cccc([N+](=O)[O-])c2)[C@@H]2C=C[C@H]1O2)c1ccc(-c2c3nc(c(-c4c(F)cc(S(=O)(=O)[O-])cc4F)c4ccc([nH]4)c(-c4c(F)cc(S(=O)(=O)[O-])cc4F)c4nc(c(-c5c(F)cc(S(=O)(=O)[O-])cc5F)c5ccc2[nH]5)C=C4)C=C3)cc1
REMARK SMILES IDX 7 1 6 2 5 3 4 4 3 5 2 6 1 7 34 8 35 9 99 10 36 11 98 12
REMARK SMILES IDX 37 13 38 14 39 15 92 16 40 17 97 18 91 19 93 20 41 21 96 22
REMARK SMILES IDX 90 23 89 24 42 26 76 27 55 28 75 29 56 30 59 31 74 32 94 33
REMARK SMILES IDX 57 34 58 35 73 37 95 38 60 39 43 40 44 41 53 42 45 43 46 44
REMARK SMILES IDX 52 45 54 46 47 47 48 48 49 49 50 50 51 51 77 52 78 53 87 54
REMARK SMILES IDX 79 55 80 56 86 57 88 58 81 59 82 60 83 61 84 62 85 63 61 64
REMARK SMILES IDX 62 65 71 66 63 67 64 68 70 69 72 70 65 71 66 72 67 73 68 74
REMARK SMILES IDX 69 75 8 76 9 77 10 78 11 79 12 80 13 81 14 82 15 83 16 84
REMARK SMILES IDX 32 85 29 86 31 87 33 88 30 89 17 90 18 91 19 92 20 94 21 95
REMARK SMILES IDX 28 96 22 97 24 98 23 99 25 100 26 101 27 102
REMARK H PARENT 93 25 59 36 19 93
REMARK Flexibility Score: inf
ROOT
ATOM      1  C   UNL A   1      33.620  31.335  27.585  1.00  0.00     0.188 C 
ENDROOT
BRANCH   1   2
ATOM      2  O   UNL A   1      34.821  31.563  28.319  1.00  0.00    -0.376 OA
BRANCH   2   3
ATOM      3  C   UNL A   1      34.761  32.571  29.337  1.00  0.00     0.202 C 
BRANCH   3   4
ATOM      4  C   UNL A   1      35.217  32.212  30.767  1.00  0.00     0.261 C 
BRANCH   4   5
ATOM      5  O   UNL A   1      36.569  31.728  30.880  1.00  0.00    -0.460 OA
BRANCH   5   6
ATOM      6  C   UNL A   1      36.990  30.449  31.039  1.00  0.00     0.338 C 
ATOM      7  O   UNL A   1      36.306  29.663  31.691  1.00  0.00    -0.246 OA
BRANCH   6   8
ATOM      8  C   UNL A   1      38.275  29.965  30.474  1.00  0.00     0.060 A 
ATOM      9  C   UNL A   1      39.225  29.266  31.210  1.00  0.00     0.016 A 
ATOM     10  C   UNL A   1      38.497  30.132  29.106  1.00  0.00     0.016 A 
ATOM     11  C   UNL A   1      40.444  28.899  30.672  1.00  0.00     0.010 A 
ATOM     12  C   UNL A   1      39.667  29.642  28.521  1.00  0.00     0.010 A 
ATOM     13  C   UNL A   1      40.678  29.078  29.317  1.00  0.00    -0.014 A 
BRANCH  13  14
ATOM     14  C   UNL A   1      42.037  28.829  28.791  1.00  0.00     0.031 A 
ATOM     15  C   UNL A   1      42.325  27.464  28.244  1.00  0.00     0.074 A 
ATOM     16  C   UNL A   1      42.948  29.821  28.727  1.00  0.00     0.049 A 
ATOM     17  N   UNL A   1      43.457  26.947  27.860  1.00  0.00    -0.248 NA
ATOM     18  C   UNL A   1      41.180  26.539  28.147  1.00  0.00     0.031 C 
ATOM     19  C   UNL A   1      42.727  31.199  29.164  1.00  0.00     0.029 A 
ATOM     20  N   UNL A   1      44.234  29.835  28.258  1.00  0.00    -0.354 N 
ATOM     21  C   UNL A   1      43.169  25.624  27.549  1.00  0.00     0.074 A 
ATOM     22  C   UNL A   1      41.776  25.400  27.845  1.00  0.00     0.031 C 
ATOM     23  C   UNL A   1      43.824  31.933  28.923  1.00  0.00     0.029 A 
ATOM     24  C   UNL A   1      44.854  31.059  28.386  1.00  0.00     0.049 A 
ATOM     25  H   UNL A   1      44.675  29.047  27.867  1.00  0.00     0.167 HD
ATOM     26  C   UNL A   1      43.997  24.691  27.030  1.00  0.00     0.037 A 
ATOM     27  C   UNL A   1      46.125  31.416  28.127  1.00  0.00     0.037 A 
ATOM     28  C   UNL A   1      45.361  24.977  26.683  1.00  0.00     0.049 A 
ATOM     29  C   UNL A   1      47.042  30.349  27.594  1.00  0.00     0.074 A 
ATOM     30  C   UNL A   1      46.309  24.138  26.137  1.00  0.00     0.029 A 
ATOM     31  N   UNL A   1      45.959  26.223  26.839  1.00  0.00    -0.354 N 
ATOM     32  N   UNL A   1      46.773  29.089  27.335  1.00  0.00    -0.248 NA
ATOM     33  C   UNL A   1      48.425  30.744  27.308  1.00  0.00     0.031 C 
ATOM     34  C   UNL A   1      47.495  24.866  25.997  1.00  0.00     0.029 A 
ATOM     35  C   UNL A   1      47.268  26.176  26.401  1.00  0.00     0.049 A 
ATOM     36  H   UNL A   1      45.515  27.021  27.209  1.00  0.00     0.167 HD
ATOM     37  C   UNL A   1      47.940  28.550  26.811  1.00  0.00     0.074 A 
ATOM     38  C   UNL A   1      48.915  29.625  26.792  1.00  0.00     0.031 C 
ATOM     39  C   UNL A   1      48.186  27.290  26.375  1.00  0.00     0.037 A 
BRANCH  26  40
ATOM     40  C   UNL A   1      43.437  23.307  26.852  1.00  0.00     0.058 A 
ATOM     41  C   UNL A   1      43.220  22.444  27.940  1.00  0.00     0.135 A 
ATOM     42  C   UNL A   1      43.192  22.807  25.564  1.00  0.00     0.135 A 
ATOM     43  F   UNL A   1      43.473  22.855  29.194  1.00  0.00    -0.206 F 
ATOM     44  C   UNL A   1      42.833  21.120  27.753  1.00  0.00     0.059 A 
ATOM     45  C   UNL A   1      42.771  21.497  25.356  1.00  0.00     0.059 A 
ATOM     46  F   UNL A   1      43.394  23.584  24.488  1.00  0.00    -0.206 F 
ATOM     47  C   UNL A   1      42.618  20.654  26.456  1.00  0.00     0.060 A 
BRANCH  47  48
ATOM     48  S   UNL A   1      42.146  18.927  26.228  1.00  0.00     0.124 S 
ATOM     49  O   UNL A   1      43.116  18.491  25.226  1.00  0.00    -0.237 OA
ATOM     50  O   UNL A   1      42.328  18.376  27.566  1.00  0.00    -0.237 OA
ATOM     51  O   UNL A   1      40.764  19.010  25.768  1.00  0.00    -0.744 OA
ENDBRANCH  47  48
ENDBRANCH  26  40
BRANCH  27  52
ATOM     52  C   UNL A   1      46.594  32.811  28.362  1.00  0.00     0.058 A 
ATOM     53  C   UNL A   1      47.118  33.201  29.604  1.00  0.00     0.135 A 
ATOM     54  C   UNL A   1      46.535  33.786  27.352  1.00  0.00     0.135 A 
ATOM     55  F   UNL A   1      47.198  32.312  30.606  1.00  0.00    -0.206 F 
ATOM     56  C   UNL A   1      47.540  34.506  29.846  1.00  0.00     0.059 A 
ATOM     57  C   UNL A   1      46.978  35.091  27.560  1.00  0.00     0.059 A 
ATOM     58  F   UNL A   1      46.056  33.472  26.140  1.00  0.00    -0.206 F 
ATOM     59  C   UNL A   1      47.468  35.445  28.817  1.00  0.00     0.060 A 
BRANCH  59  60
ATOM     60  S   UNL A   1      48.043  37.128  29.138  1.00  0.00     0.124 S 
ATOM     61  O   UNL A   1      47.582  37.831  27.946  1.00  0.00    -0.237 OA
ATOM     62  O   UNL A   1      47.347  37.454  30.379  1.00  0.00    -0.237 OA
ATOM     63  O   UNL A   1      49.489  36.974  29.260  1.00  0.00    -0.744 OA
ENDBRANCH  59  60
ENDBRANCH  27  52
BRANCH  39  64
ATOM     64  C   UNL A   1      49.528  27.040  25.758  1.00  0.00     0.058 A 
ATOM     65  C   UNL A   1      49.768  27.236  24.391  1.00  0.00     0.135 A 
ATOM     66  C   UNL A   1      50.603  26.649  26.572  1.00  0.00     0.135 A 
ATOM     67  F   UNL A   1      48.768  27.602  23.572  1.00  0.00    -0.206 F 
ATOM     68  C   UNL A   1      51.027  27.026  23.844  1.00  0.00     0.059 A 
ATOM     69  C   UNL A   1      51.877  26.469  26.054  1.00  0.00     0.059 A 
ATOM     70  F   UNL A   1      50.422  26.463  27.890  1.00  0.00    -0.206 F 
ATOM     71  C   UNL A   1      52.076  26.645  24.686  1.00  0.00     0.060 A 
BRANCH  71  72
ATOM     72  S   UNL A   1      53.715  26.412  23.972  1.00  0.00     0.124 S 
ATOM     73  O   UNL A   1      54.234  25.317  24.785  1.00  0.00    -0.237 OA
ATOM     74  O   UNL A   1      53.406  26.083  22.584  1.00  0.00    -0.237 OA
ATOM     75  O   UNL A   1      54.359  27.706  24.173  1.00  0.00    -0.744 OA
ENDBRANCH  71  72
ENDBRANCH  39  64
ENDBRANCH  13  14
ENDBRANCH   6   8
ENDBRANCH   5   6
ENDBRANCH   4   5
ENDBRANCH   3   4
ENDBRANCH   2   3
ENDBRANCH   1   2
BRANCH   1  76
ATOM     76  C   UNL A   1      33.539  29.943  26.957  1.00  0.00     0.188 C 
BRANCH  76  77
ATOM     77  O   UNL A   1      32.239  29.426  26.692  1.00  0.00    -0.376 OA
BRANCH  77  78
ATOM     78  C   UNL A   1      31.794  28.333  27.489  1.00  0.00     0.202 C 
BRANCH  78  79
ATOM     79  C   UNL A   1      31.218  27.099  26.776  1.00  0.00     0.261 C 
BRANCH  79  80
ATOM     80  O   UNL A   1      32.184  26.099  26.423  1.00  0.00    -0.463 OA
BRANCH  80  81
ATOM     81  C   UNL A   1      31.791  25.185  25.493  1.00  0.00     0.312 C 
ATOM     82  O   UNL A   1      30.666  25.134  24.995  1.00  0.00    -0.252 OA
BRANCH  81  83
ATOM     83  C   UNL A   1      32.959  24.362  25.024  1.00  0.00     0.147 C 
ATOM     84  C   UNL A   1      32.658  23.544  23.736  1.00  0.00     0.129 C 
ATOM     85  C   UNL A   1      33.329  23.252  26.010  1.00  0.00     0.157 C 
ATOM     86  C   UNL A   1      32.969  22.117  24.182  1.00  0.00     0.155 C 
ATOM     87  C   UNL A   1      32.178  22.347  26.311  1.00  0.00     0.004 C 
ATOM     88  O   UNL A   1      34.053  22.370  25.117  1.00  0.00    -0.365 OA
ATOM     89  C   UNL A   1      31.943  21.660  25.183  1.00  0.00     0.004 C 
BRANCH  84  90
ATOM     90  C   UNL A   1      33.363  24.017  22.463  1.00  0.00     0.231 C 
ATOM     91  O   UNL A   1      34.171  23.260  21.908  1.00  0.00    -0.274 OA
ATOM     92  N   UNL A   1      33.049  25.162  21.790  1.00  0.00    -0.325 N 
ATOM     93  H   UNL A   1      33.127  25.084  20.812  1.00  0.00     0.169 HD
BRANCH  92  94
ATOM     94  C   UNL A   1      32.636  26.425  22.226  1.00  0.00     0.048 A 
ATOM     95  C   UNL A   1      33.566  27.220  22.908  1.00  0.00     0.026 A 
ATOM     96  C   UNL A   1      31.317  26.855  22.111  1.00  0.00     0.111 A 
ATOM     97  C   UNL A   1      33.206  28.481  23.386  1.00  0.00     0.009 A 
ATOM     98  C   UNL A   1      30.953  28.116  22.600  1.00  0.00     0.271 A 
ATOM     99  C   UNL A   1      31.896  28.930  23.237  1.00  0.00     0.086 A 
BRANCH  98 100
ATOM    100  N   UNL A   1      29.561  28.571  22.478  1.00  0.00     0.062 N 
ATOM    101  O   UNL A   1      29.328  29.476  21.664  1.00  0.00    -0.258 OA
ATOM    102  O   UNL A   1      28.720  28.052  23.222  1.00  0.00    -0.258 OA
ENDBRANCH  98 100
ENDBRANCH  92  94
ENDBRANCH  84  90
ENDBRANCH  81  83
ENDBRANCH  80  81
ENDBRANCH  79  80
ENDBRANCH  78  79
ENDBRANCH  77  78
ENDBRANCH  76  77
ENDBRANCH   1  76
TORSDOF 23
ENDMDL
MODEL 3
REMARK VINA RESULT:     -10.6      6.925     12.733
REMARK SMILES O=C(OCCOCCOCCOC(=O)[C@@H]1[C@@H](C(=O)Nc2cccc([N+](=O)[O-])c2)[C@@H]2C=C[C@H]1O2)c1ccc(-c2c3nc(c(-c4c(F)cc(S(=O)(=O)[O-])cc4F)c4ccc([nH]4)c(-c4c(F)cc(S(=O)(=O)[O-])cc4F)c4nc(c(-c5c(F)cc(S(=O)(=O)[O-])cc5F)c5ccc2[nH]5)C=C4)C=C3)cc1
REMARK SMILES IDX 7 1 6 2 5 3 4 4 3 5 2 6 1 7 34 8 35 9 99 10 36 11 98 12
REMARK SMILES IDX 37 13 38 14 39 15 92 16 40 17 97 18 91 19 93 20 41 21 96 22
REMARK SMILES IDX 90 23 89 24 42 26 76 27 55 28 75 29 56 30 59 31 74 32 94 33
REMARK SMILES IDX 57 34 58 35 73 37 95 38 60 39 43 40 44 41 53 42 45 43 46 44
REMARK SMILES IDX 52 45 54 46 47 47 48 48 49 49 50 50 51 51 77 52 78 53 87 54
REMARK SMILES IDX 79 55 80 56 86 57 88 58 81 59 82 60 83 61 84 62 85 63 61 64
REMARK SMILES IDX 62 65 71 66 63 67 64 68 70 69 72 70 65 71 66 72 67 73 68 74
REMARK SMILES IDX 69 75 8 76 9 77 10 78 11 79 12 80 13 81 14 82 15 83 16 84
REMARK SMILES IDX 32 85 29 86 31 87 33 88 30 89 17 90 18 91 19 92 20 94 21 95
REMARK SMILES IDX 28 96 22 97 24 98 23 99 25 100 26 101 27 102
REMARK H PARENT 93 25 59 36 19 93
REMARK Flexibility Score: inf
ROOT
ATOM      1  C   UNL A   1      34.486  32.955  29.281  1.00  0.00     0.188 C 
ENDROOT
BRANCH   1   2
ATOM      2  O   UNL A   1      35.570  33.054  30.202  1.00  0.00    -0.376 OA
BRANCH   2   3
ATOM      3  C   UNL A   1      35.223  33.049  31.593  1.00  0.00     0.202 C 
BRANCH   3   4
ATOM      4  C   UNL A   1      35.584  31.814  32.446  1.00  0.00     0.261 C 
BRANCH   4   5
ATOM      5  O   UNL A   1      36.903  31.279  32.228  1.00  0.00    -0.460 OA
BRANCH   5   6
ATOM      6  C   UNL A   1      37.267  30.246  31.429  1.00  0.00     0.338 C 
ATOM      7  O   UNL A   1      36.455  29.357  31.182  1.00  0.00    -0.246 OA
BRANCH   6   8
ATOM      8  C   UNL A   1      38.634  30.132  30.859  1.00  0.00     0.060 A 
ATOM      9  C   UNL A   1      38.956  30.492  29.555  1.00  0.00     0.016 A 
ATOM     10  C   UNL A   1      39.669  29.739  31.708  1.00  0.00     0.016 A 
ATOM     11  C   UNL A   1      40.222  30.299  29.035  1.00  0.00     0.010 A 
ATOM     12  C   UNL A   1      40.981  29.674  31.229  1.00  0.00     0.010 A 
ATOM     13  C   UNL A   1      41.253  29.893  29.868  1.00  0.00    -0.014 A 
BRANCH  13  14
ATOM     14  C   UNL A   1      42.556  29.540  29.267  1.00  0.00     0.031 A 
ATOM     15  C   UNL A   1      42.693  28.171  28.673  1.00  0.00     0.074 A 
ATOM     16  C   UNL A   1      43.549  30.448  29.179  1.00  0.00     0.049 A 
ATOM     17  N   UNL A   1      43.752  27.566  28.219  1.00  0.00    -0.248 NA
ATOM     18  C   UNL A   1      41.465  27.354  28.614  1.00  0.00     0.031 C 
ATOM     19  C   UNL A   1      43.475  31.828  29.660  1.00  0.00     0.029 A 
ATOM     20  N   UNL A   1      44.806  30.361  28.645  1.00  0.00    -0.354 N 
ATOM     21  C   UNL A   1      43.332  26.283  27.892  1.00  0.00     0.074 A 
ATOM     22  C   UNL A   1      41.940  26.175  28.254  1.00  0.00     0.031 C 
ATOM     23  C   UNL A   1      44.620  32.468  29.379  1.00  0.00     0.029 A 
ATOM     24  C   UNL A   1      45.539  31.521  28.769  1.00  0.00     0.049 A 
ATOM     25  H   UNL A   1      45.154  29.548  28.212  1.00  0.00     0.167 HD
ATOM     26  C   UNL A   1      44.045  25.295  27.309  1.00  0.00     0.037 A 
ATOM     27  C   UNL A   1      46.823  31.771  28.453  1.00  0.00     0.037 A 
ATOM     28  C   UNL A   1      45.410  25.468  26.899  1.00  0.00     0.049 A 
ATOM     29  C   UNL A   1      47.612  30.642  27.848  1.00  0.00     0.074 A 
ATOM     30  C   UNL A   1      46.251  24.564  26.284  1.00  0.00     0.029 A 
ATOM     31  N   UNL A   1      46.126  26.652  27.053  1.00  0.00    -0.354 N 
ATOM     32  N   UNL A   1      47.218  29.419  27.574  1.00  0.00    -0.248 NA
ATOM     33  C   UNL A   1      49.009  30.920  27.500  1.00  0.00     0.031 C 
ATOM     34  C   UNL A   1      47.489  25.188  26.100  1.00  0.00     0.029 A 
ATOM     35  C   UNL A   1      47.401  26.501  26.546  1.00  0.00     0.049 A 
ATOM     36  H   UNL A   1      45.774  27.475  27.463  1.00  0.00     0.167 HD
ATOM     37  C   UNL A   1      48.304  28.793  26.977  1.00  0.00     0.074 A 
ATOM     38  C   UNL A   1      49.370  29.778  26.933  1.00  0.00     0.031 C 
ATOM     39  C   UNL A   1      48.413  27.529  26.498  1.00  0.00     0.037 A 
BRANCH  26  40
ATOM     40  C   UNL A   1      43.355  23.972  27.127  1.00  0.00     0.058 A 
ATOM     41  C   UNL A   1      43.209  23.055  28.182  1.00  0.00     0.135 A 
ATOM     42  C   UNL A   1      42.905  23.582  25.857  1.00  0.00     0.135 A 
ATOM     43  F   UNL A   1      43.655  23.359  29.413  1.00  0.00    -0.206 F 
ATOM     44  C   UNL A   1      42.694  21.779  27.972  1.00  0.00     0.059 A 
ATOM     45  C   UNL A   1      42.354  22.324  25.631  1.00  0.00     0.059 A 
ATOM     46  F   UNL A   1      43.030  24.413  24.811  1.00  0.00    -0.206 F 
ATOM     47  C   UNL A   1      42.275  21.421  26.691  1.00  0.00     0.060 A 
BRANCH  47  48
ATOM     48  S   UNL A   1      41.637  19.754  26.428  1.00  0.00     0.124 S 
ATOM     49  O   UNL A   1      40.212  20.014  26.238  1.00  0.00    -0.237 OA
ATOM     50  O   UNL A   1      42.365  19.326  25.238  1.00  0.00    -0.237 OA
ATOM     51  O   UNL A   1      41.988  19.056  27.660  1.00  0.00    -0.744 OA
ENDBRANCH  47  48
ENDBRANCH  26  40
BRANCH  27  52
ATOM     52  C   UNL A   1      47.427  33.112  28.696  1.00  0.00     0.058 A 
ATOM     53  C   UNL A   1      47.366  34.121  27.723  1.00  0.00     0.135 A 
ATOM     54  C   UNL A   1      48.073  33.419  29.905  1.00  0.00     0.135 A 
ATOM     55  F   UNL A   1      46.762  33.884  26.549  1.00  0.00    -0.206 F 
ATOM     56  C   UNL A   1      47.944  35.372  27.926  1.00  0.00     0.059 A 
ATOM     57  C   UNL A   1      48.633  34.673  30.144  1.00  0.00     0.059 A 
ATOM     58  F   UNL A   1      48.153  32.500  30.879  1.00  0.00    -0.206 F 
ATOM     59  C   UNL A   1      48.575  35.640  29.141  1.00  0.00     0.060 A 
BRANCH  59  60
ATOM     60  S   UNL A   1      49.297  37.276  29.400  1.00  0.00     0.124 S 
ATOM     61  O   UNL A   1      50.364  37.289  28.405  1.00  0.00    -0.237 OA
ATOM     62  O   UNL A   1      48.163  38.154  29.130  1.00  0.00    -0.237 OA
ATOM     63  O   UNL A   1      49.735  37.238  30.792  1.00  0.00    -0.744 OA
ENDBRANCH  59  60
ENDBRANCH  27  52
BRANCH  39  64
ATOM     64  C   UNL A   1      49.696  27.179  25.807  1.00  0.00     0.058 A 
ATOM     65  C   UNL A   1      49.864  27.337  24.425  1.00  0.00     0.135 A 
ATOM     66  C   UNL A   1      50.790  26.728  26.563  1.00  0.00     0.135 A 
ATOM     67  F   UNL A   1      48.842  27.757  23.661  1.00  0.00    -0.206 F 
ATOM     68  C   UNL A   1      51.070  27.033  23.807  1.00  0.00     0.059 A 
ATOM     69  C   UNL A   1      52.015  26.452  25.972  1.00  0.00     0.059 A 
ATOM     70  F   UNL A   1      50.678  26.574  27.893  1.00  0.00    -0.206 F 
ATOM     71  C   UNL A   1      52.141  26.594  24.592  1.00  0.00     0.060 A 
BRANCH  71  72
ATOM     72  S   UNL A   1      53.713  26.238  23.785  1.00  0.00     0.124 S 
ATOM     73  O   UNL A   1      54.425  27.499  23.966  1.00  0.00    -0.237 OA
ATOM     74  O   UNL A   1      54.214  25.108  24.563  1.00  0.00    -0.237 OA
ATOM     75  O   UNL A   1      53.327  25.924  22.413  1.00  0.00    -0.744 OA
ENDBRANCH  71  72
ENDBRANCH  39  64
ENDBRANCH  13  14
ENDBRANCH   6   8
ENDBRANCH   5   6
ENDBRANCH   4   5
ENDBRANCH   3   4
ENDBRANCH   2   3
ENDBRANCH   1   2
BRANCH   1  76
ATOM     76  C   UNL A   1      34.907  32.503  27.882  1.00  0.00     0.188 C 
BRANCH  76  77
ATOM     77  O   UNL A   1      36.054  31.664  27.790  1.00  0.00    -0.376 OA
BRANCH  77  78
ATOM     78  C   UNL A   1      35.842  30.257  27.825  1.00  0.00     0.202 C 
BRANCH  78  79
ATOM     79  C   UNL A   1      34.415  29.730  27.600  1.00  0.00     0.261 C 
BRANCH  79  80
ATOM     80  O   UNL A   1      34.259  28.876  26.458  1.00  0.00    -0.463 OA
BRANCH  80  81
ATOM     81  C   UNL A   1      32.994  28.442  26.201  1.00  0.00     0.312 C 
ATOM     82  O   UNL A   1      31.980  28.877  26.747  1.00  0.00    -0.252 OA
BRANCH  81  83
ATOM     83  C   UNL A   1      32.981  27.489  25.037  1.00  0.00     0.147 C 
ATOM     84  C   UNL A   1      31.699  27.600  24.165  1.00  0.00     0.129 C 
ATOM     85  C   UNL A   1      32.924  26.025  25.478  1.00  0.00     0.157 C 
ATOM     86  C   UNL A   1      31.162  26.170  24.199  1.00  0.00     0.155 C 
ATOM     87  C   UNL A   1      31.753  25.738  26.362  1.00  0.00     0.004 C 
ATOM     88  O   UNL A   1      32.411  25.428  24.262  1.00  0.00    -0.365 OA
ATOM     89  C   UNL A   1      30.666  25.844  25.583  1.00  0.00     0.004 C 
BRANCH  84  90
ATOM     90  C   UNL A   1      31.886  28.212  22.776  1.00  0.00     0.231 C 
ATOM     91  O   UNL A   1      32.983  28.100  22.213  1.00  0.00    -0.274 OA
ATOM     92  N   UNL A   1      30.876  28.742  22.026  1.00  0.00    -0.325 N 
ATOM     93  H   UNL A   1      30.971  28.583  21.059  1.00  0.00     0.169 HD
BRANCH  92  94
ATOM     94  C   UNL A   1      29.732  29.469  22.371  1.00  0.00     0.048 A 
ATOM     95  C   UNL A   1      28.653  28.770  22.928  1.00  0.00     0.026 A 
ATOM     96  C   UNL A   1      29.593  30.821  22.069  1.00  0.00     0.111 A 
ATOM     97  C   UNL A   1      27.477  29.437  23.271  1.00  0.00     0.009 A 
ATOM     98  C   UNL A   1      28.409  31.489  22.404  1.00  0.00     0.271 A 
ATOM     99  C   UNL A   1      27.350  30.799  23.006  1.00  0.00     0.086 A 
BRANCH  98 100
ATOM    100  N   UNL A   1      28.262  32.916  22.087  1.00  0.00     0.062 N 
ATOM    101  O   UNL A   1      28.640  33.730  22.941  1.00  0.00    -0.258 OA
ATOM    102  O   UNL A   1      27.735  33.212  21.008  1.00  0.00    -0.258 OA
ENDBRANCH  98 100
ENDBRANCH  92  94
ENDBRANCH  84  90
ENDBRANCH  81  83
ENDBRANCH  80  81
ENDBRANCH  79  80
ENDBRANCH  78  79
ENDBRANCH  77  78
ENDBRANCH  76  77
ENDBRANCH   1  76
TORSDOF 23
ENDMDL
