MODEL 1
REMARK VINA RESULT:     -12.0      0.000      0.000
REMARK SMILES Cc1c(C[NH2+]Cc2cccc(F)c2)c(C(=O)OCCOCCOCCOC(=O)c2ccc(-c3c4nc(c(-c5c(F)cc(S(=O)(=O)[O-])cc5F)c5ccc([nH]5)c(-c5c(F)cc(S(=O)(=O)[O-])cc5F)c5nc(c(-c6c(F)cc(S(=O)(=O)[O-])cc6F)c6ccc3[nH]6)C=C5)C=C4)cc2)c(C)n1Cc1c(F)cccc1Cl
REMARK SMILES IDX 21 1 20 2 19 3 18 4 17 5 15 6 16 7 14 8 1 9 2 10 3 11 97 12
REMARK SMILES IDX 95 13 96 14 4 15 5 16 6 19 7 20 8 21 13 22 9 23 11 24 10 25
REMARK SMILES IDX 12 26 98 27 99 28 100 29 105 30 101 31 102 32 104 33 106 34
REMARK SMILES IDX 103 35 22 36 23 37 24 38 25 39 26 40 27 41 28 42 29 43 30 44
REMARK SMILES IDX 94 45 31 46 93 47 32 48 33 49 34 50 87 51 35 52 92 53 86 54
REMARK SMILES IDX 88 55 36 56 91 57 85 58 84 59 37 61 71 62 50 63 70 64 51 65
REMARK SMILES IDX 54 66 69 67 89 68 52 69 53 70 68 72 90 73 55 74 38 75 39 76
REMARK SMILES IDX 48 77 40 78 41 79 47 80 49 81 42 82 43 83 44 84 45 85 46 86
REMARK SMILES IDX 72 87 73 88 82 89 74 90 75 91 81 92 83 93 76 94 77 95 78 96
REMARK SMILES IDX 79 97 80 98 56 99 57 100 66 101 58 102 59 103 65 104 67 105
REMARK SMILES IDX 60 106 61 107 62 108 63 109 64 110
REMARK H PARENT 5 17 5 18 88 60 54 71
REMARK Flexibility Score: inf
ROOT
ATOM      1  C   UNL A   1      39.777  21.703  26.518  1.00  0.00     0.188 C 
ENDROOT
BRANCH   1   2
ATOM      2  O   UNL A   1      38.476  22.149  26.200  1.00  0.00    -0.376 OA
BRANCH   2   3
ATOM      3  C   UNL A   1      38.183  23.479  25.803  1.00  0.00     0.202 C 
BRANCH   3   4
ATOM      4  C   UNL A   1      36.827  23.990  25.304  1.00  0.00     0.261 C 
BRANCH   4   5
ATOM      5  O   UNL A   1      35.813  23.006  25.176  1.00  0.00    -0.460 OA
BRANCH   5   6
ATOM      6  C   UNL A   1      34.961  23.191  24.116  1.00  0.00     0.340 C 
ATOM      7  O   UNL A   1      35.240  23.005  22.953  1.00  0.00    -0.246 OA
BRANCH   6   8
ATOM      8  C   UNL A   1      33.675  23.685  24.597  1.00  0.00     0.089 A 
ATOM      9  C   UNL A   1      30.406  23.652  26.352  1.00  0.00     0.065 C 
ATOM     10  C   UNL A   1      31.675  23.928  25.618  1.00  0.00     0.025 A 
ATOM     11  C   UNL A   1      32.799  23.102  25.557  1.00  0.00     0.042 A 
ATOM     12  N   UNL A   1      31.926  25.073  24.861  1.00  0.00    -0.343 N 
ATOM     13  C   UNL A   1      33.100  24.868  24.156  1.00  0.00     0.030 A 
ATOM     14  C   UNL A   1      33.673  25.777  23.122  1.00  0.00     0.065 C 
BRANCH  11  15
ATOM     15  C   UNL A   1      33.066  21.858  26.369  1.00  0.00     0.300 C 
BRANCH  15  16
ATOM     16  N   UNL A   1      32.303  20.749  25.823  1.00  0.00    -0.339 N 
ATOM     17  H   UNL A   1      31.382  21.094  25.554  1.00  0.00     0.346 HD
ATOM     18  H   UNL A   1      32.256  20.034  26.549  1.00  0.00     0.346 HD
BRANCH  16  19
ATOM     19  C   UNL A   1      32.918  20.125  24.655  1.00  0.00     0.297 C 
BRANCH  19  20
ATOM     20  C   UNL A   1      33.063  18.615  24.685  1.00  0.00     0.009 A 
ATOM     21  C   UNL A   1      32.623  17.808  25.749  1.00  0.00     0.010 A 
ATOM     22  C   UNL A   1      33.677  17.983  23.590  1.00  0.00     0.048 A 
ATOM     23  C   UNL A   1      32.843  16.428  25.750  1.00  0.00     0.004 A 
ATOM     24  C   UNL A   1      33.870  16.604  23.590  1.00  0.00     0.123 A 
ATOM     25  C   UNL A   1      33.472  15.823  24.667  1.00  0.00     0.039 A 
ATOM     26  F   UNL A   1      34.452  16.020  22.535  1.00  0.00    -0.207 F 
ENDBRANCH  19  20
ENDBRANCH  16  19
ENDBRANCH  15  16
ENDBRANCH  11  15
BRANCH  12  27
ATOM     27  C   UNL A   1      31.025  26.236  24.700  1.00  0.00     0.162 C 
BRANCH  27  28
ATOM     28  C   UNL A   1      31.514  27.515  25.352  1.00  0.00     0.026 A 
ATOM     29  C   UNL A   1      32.272  27.460  26.532  1.00  0.00     0.129 A 
ATOM     30  C   UNL A   1      31.314  28.798  24.816  1.00  0.00     0.048 A 
ATOM     31  F   UNL A   1      32.736  26.291  26.980  1.00  0.00    -0.207 F 
ATOM     32  C   UNL A   1      32.679  28.595  27.233  1.00  0.00     0.040 A 
ATOM     33  C   UNL A   1      31.752  29.950  25.496  1.00  0.00     0.021 A 
ATOM     34  Cl  UNL A   1      30.641  29.058  23.248  1.00  0.00    -0.084 Cl
ATOM     35  C   UNL A   1      32.403  29.851  26.722  1.00  0.00     0.005 A 
ENDBRANCH  27  28
ENDBRANCH  12  27
ENDBRANCH   6   8
ENDBRANCH   5   6
ENDBRANCH   4   5
ENDBRANCH   3   4
ENDBRANCH   2   3
ENDBRANCH   1   2
BRANCH   1  36
ATOM     36  C   UNL A   1      40.144  20.212  26.425  1.00  0.00     0.188 C 
BRANCH  36  37
ATOM     37  O   UNL A   1      40.999  19.798  25.381  1.00  0.00    -0.376 OA
BRANCH  37  38
ATOM     38  C   UNL A   1      42.307  19.338  25.728  1.00  0.00     0.202 C 
BRANCH  38  39
ATOM     39  C   UNL A   1      43.557  20.276  25.643  1.00  0.00     0.261 C 
BRANCH  39  40
ATOM     40  O   UNL A   1      43.575  21.640  26.235  1.00  0.00    -0.460 OA
BRANCH  40  41
ATOM     41  C   UNL A   1      43.423  22.704  25.357  1.00  0.00     0.338 C 
ATOM     42  O   UNL A   1      43.297  22.512  24.151  1.00  0.00    -0.246 OA
BRANCH  41  43
ATOM     43  C   UNL A   1      43.328  24.160  25.929  1.00  0.00     0.060 A 
ATOM     44  C   UNL A   1      42.763  24.355  27.184  1.00  0.00     0.016 A 
ATOM     45  C   UNL A   1      43.476  25.377  25.217  1.00  0.00     0.016 A 
ATOM     46  C   UNL A   1      42.445  25.682  27.706  1.00  0.00     0.010 A 
ATOM     47  C   UNL A   1      43.076  26.742  25.739  1.00  0.00     0.010 A 
ATOM     48  C   UNL A   1      42.536  26.966  27.022  1.00  0.00    -0.014 A 
BRANCH  48  49
ATOM     49  C   UNL A   1      41.678  28.299  27.695  1.00  0.00     0.031 A 
ATOM     50  C   UNL A   1      42.788  29.289  27.818  1.00  0.00     0.074 A 
ATOM     51  C   UNL A   1      40.477  28.804  28.290  1.00  0.00     0.049 A 
ATOM     52  N   UNL A   1      43.849  28.948  28.495  1.00  0.00    -0.248 NA
ATOM     53  C   UNL A   1      42.983  30.434  26.926  1.00  0.00     0.031 C 
ATOM     54  C   UNL A   1      39.248  28.070  28.668  1.00  0.00     0.029 A 
ATOM     55  N   UNL A   1      40.045  30.137  28.751  1.00  0.00    -0.354 N 
ATOM     56  C   UNL A   1      44.730  29.988  28.395  1.00  0.00     0.074 A 
ATOM     57  C   UNL A   1      44.246  30.748  27.246  1.00  0.00     0.031 C 
ATOM     58  C   UNL A   1      38.230  28.891  29.096  1.00  0.00     0.029 A 
ATOM     59  C   UNL A   1      38.626  30.305  29.143  1.00  0.00     0.049 A 
ATOM     60  H   UNL A   1      40.678  30.891  28.794  1.00  0.00     0.167 HD
ATOM     61  C   UNL A   1      45.194  30.446  29.593  1.00  0.00     0.037 A 
ATOM     62  C   UNL A   1      37.866  31.425  29.592  1.00  0.00     0.037 A 
ATOM     63  C   UNL A   1      44.485  31.620  30.024  1.00  0.00     0.049 A 
ATOM     64  C   UNL A   1      38.829  32.220  30.365  1.00  0.00     0.074 A 
ATOM     65  C   UNL A   1      44.014  32.734  29.360  1.00  0.00     0.029 A 
ATOM     66  N   UNL A   1      43.757  31.513  31.190  1.00  0.00    -0.354 N 
ATOM     67  N   UNL A   1      39.235  31.845  31.539  1.00  0.00    -0.248 NA
ATOM     68  C   UNL A   1      39.260  33.547  29.939  1.00  0.00     0.031 C 
ATOM     69  C   UNL A   1      42.703  32.897  29.850  1.00  0.00     0.029 A 
ATOM     70  C   UNL A   1      42.574  32.194  31.042  1.00  0.00     0.049 A 
ATOM     71  H   UNL A   1      44.041  31.026  31.998  1.00  0.00     0.167 HD
ATOM     72  C   UNL A   1      40.343  32.605  31.735  1.00  0.00     0.074 A 
ATOM     73  C   UNL A   1      40.156  33.782  30.900  1.00  0.00     0.031 C 
ATOM     74  C   UNL A   1      41.486  31.910  31.948  1.00  0.00     0.037 A 
BRANCH  61  75
ATOM     75  C   UNL A   1      45.640  29.361  30.543  1.00  0.00     0.058 A 
ATOM     76  C   UNL A   1      44.774  28.381  31.083  1.00  0.00     0.135 A 
ATOM     77  C   UNL A   1      46.993  29.272  30.878  1.00  0.00     0.135 A 
ATOM     78  F   UNL A   1      43.444  28.473  30.909  1.00  0.00    -0.206 F 
ATOM     79  C   UNL A   1      45.244  27.308  31.828  1.00  0.00     0.059 A 
ATOM     80  C   UNL A   1      47.480  28.231  31.666  1.00  0.00     0.059 A 
ATOM     81  F   UNL A   1      47.857  30.203  30.442  1.00  0.00    -0.206 F 
ATOM     82  C   UNL A   1      46.607  27.232  32.102  1.00  0.00     0.060 A 
BRANCH  82  83
ATOM     83  S   UNL A   1      47.230  25.836  33.063  1.00  0.00     0.124 S 
ATOM     84  O   UNL A   1      48.443  25.470  32.348  1.00  0.00    -0.237 OA
ATOM     85  O   UNL A   1      47.421  26.437  34.380  1.00  0.00    -0.237 OA
ATOM     86  O   UNL A   1      46.143  24.862  32.977  1.00  0.00    -0.744 OA
ENDBRANCH  82  83
ENDBRANCH  61  75
BRANCH  62  87
ATOM     87  C   UNL A   1      36.412  32.113  29.884  1.00  0.00     0.058 A 
ATOM     88  C   UNL A   1      35.885  33.181  29.131  1.00  0.00     0.135 A 
ATOM     89  C   UNL A   1      35.765  32.030  31.185  1.00  0.00     0.135 A 
ATOM     90  F   UNL A   1      36.336  33.398  27.887  1.00  0.00    -0.206 F 
ATOM     91  C   UNL A   1      34.928  34.126  29.645  1.00  0.00     0.059 A 
ATOM     92  C   UNL A   1      34.846  32.972  31.723  1.00  0.00     0.059 A 
ATOM     93  F   UNL A   1      36.060  31.045  32.045  1.00  0.00    -0.206 F 
ATOM     94  C   UNL A   1      34.459  34.054  30.961  1.00  0.00     0.060 A 
BRANCH  94  95
ATOM     95  S   UNL A   1      33.465  35.412  31.691  1.00  0.00     0.124 S 
ATOM     96  O   UNL A   1      32.511  34.680  32.519  1.00  0.00    -0.237 OA
ATOM     97  O   UNL A   1      34.463  36.188  32.419  1.00  0.00    -0.237 OA
ATOM     98  O   UNL A   1      32.877  36.087  30.535  1.00  0.00    -0.744 OA
ENDBRANCH  94  95
ENDBRANCH  62  87
BRANCH  74  99
ATOM     99  C   UNL A   1      41.452  30.794  32.981  1.00  0.00     0.058 A 
ATOM    100  C   UNL A   1      41.234  29.492  32.500  1.00  0.00     0.135 A 
ATOM    101  C   UNL A   1      41.686  30.902  34.374  1.00  0.00     0.135 A 
ATOM    102  F   UNL A   1      40.979  29.299  31.195  1.00  0.00    -0.206 F 
ATOM    103  C   UNL A   1      41.271  28.367  33.320  1.00  0.00     0.059 A 
ATOM    104  C   UNL A   1      41.782  29.781  35.207  1.00  0.00     0.059 A 
ATOM    105  F   UNL A   1      41.814  32.088  34.988  1.00  0.00    -0.206 F 
ATOM    106  C   UNL A   1      41.579  28.517  34.669  1.00  0.00     0.060 A 
BRANCH 106 107
ATOM    107  S   UNL A   1      41.775  27.032  35.678  1.00  0.00     0.124 S 
ATOM    108  O   UNL A   1      43.216  26.829  35.650  1.00  0.00    -0.237 OA
ATOM    109  O   UNL A   1      41.223  27.462  36.961  1.00  0.00    -0.237 OA
ATOM    110  O   UNL A   1      40.983  26.026  34.975  1.00  0.00    -0.744 OA
ENDBRANCH 106 107
ENDBRANCH  74  99
ENDBRANCH  48  49
ENDBRANCH  41  43
ENDBRANCH  40  41
ENDBRANCH  39  40
ENDBRANCH  38  39
ENDBRANCH  37  38
ENDBRANCH  36  37
ENDBRANCH   1  36
TORSDOF 26
ENDMDL
MODEL 2
REMARK VINA RESULT:     -11.7      1.337      2.008
REMARK SMILES Cc1c(C[NH2+]Cc2cccc(F)c2)c(C(=O)OCCOCCOCCOC(=O)c2ccc(-c3c4nc(c(-c5c(F)cc(S(=O)(=O)[O-])cc5F)c5ccc([nH]5)c(-c5c(F)cc(S(=O)(=O)[O-])cc5F)c5nc(c(-c6c(F)cc(S(=O)(=O)[O-])cc6F)c6ccc3[nH]6)C=C5)C=C4)cc2)c(C)n1Cc1c(F)cccc1Cl
REMARK SMILES IDX 21 1 20 2 19 3 18 4 17 5 15 6 16 7 14 8 1 9 2 10 3 11 97 12
REMARK SMILES IDX 95 13 96 14 4 15 5 16 6 19 7 20 8 21 13 22 9 23 11 24 10 25
REMARK SMILES IDX 12 26 98 27 99 28 100 29 105 30 101 31 102 32 104 33 106 34
REMARK SMILES IDX 103 35 22 36 23 37 24 38 25 39 26 40 27 41 28 42 29 43 30 44
REMARK SMILES IDX 94 45 31 46 93 47 32 48 33 49 34 50 87 51 35 52 92 53 86 54
REMARK SMILES IDX 88 55 36 56 91 57 85 58 84 59 37 61 71 62 50 63 70 64 51 65
REMARK SMILES IDX 54 66 69 67 89 68 52 69 53 70 68 72 90 73 55 74 38 75 39 76
REMARK SMILES IDX 48 77 40 78 41 79 47 80 49 81 42 82 43 83 44 84 45 85 46 86
REMARK SMILES IDX 72 87 73 88 82 89 74 90 75 91 81 92 83 93 76 94 77 95 78 96
REMARK SMILES IDX 79 97 80 98 56 99 57 100 66 101 58 102 59 103 65 104 67 105
REMARK SMILES IDX 60 106 61 107 62 108 63 109 64 110
REMARK H PARENT 5 17 5 18 88 60 54 71
REMARK Flexibility Score: inf
ROOT
ATOM      1  C   UNL A   1      39.789  21.511  26.008  1.00  0.00     0.188 C 
ENDROOT
BRANCH   1   2
ATOM      2  O   UNL A   1      38.493  21.982  26.310  1.00  0.00    -0.376 OA
BRANCH   2   3
ATOM      3  C   UNL A   1      37.675  22.666  25.375  1.00  0.00     0.202 C 
BRANCH   3   4
ATOM      4  C   UNL A   1      37.100  22.076  24.083  1.00  0.00     0.261 C 
BRANCH   4   5
ATOM      5  O   UNL A   1      35.766  22.450  23.780  1.00  0.00    -0.460 OA
BRANCH   5   6
ATOM      6  C   UNL A   1      34.833  22.066  24.710  1.00  0.00     0.340 C 
ATOM      7  O   UNL A   1      34.974  21.174  25.516  1.00  0.00    -0.246 OA
BRANCH   6   8
ATOM      8  C   UNL A   1      33.624  22.870  24.559  1.00  0.00     0.089 A 
ATOM      9  C   UNL A   1      30.404  24.015  23.114  1.00  0.00     0.065 C 
ATOM     10  C   UNL A   1      31.639  23.720  23.897  1.00  0.00     0.025 A 
ATOM     11  C   UNL A   1      32.494  22.629  23.726  1.00  0.00     0.042 A 
ATOM     12  N   UNL A   1      32.136  24.513  24.931  1.00  0.00    -0.343 N 
ATOM     13  C   UNL A   1      33.400  24.047  25.256  1.00  0.00     0.030 A 
ATOM     14  C   UNL A   1      34.350  24.681  26.214  1.00  0.00     0.065 C 
BRANCH  11  15
ATOM     15  C   UNL A   1      32.263  21.412  22.864  1.00  0.00     0.300 C 
BRANCH  15  16
ATOM     16  N   UNL A   1      33.054  20.303  23.368  1.00  0.00    -0.339 N 
ATOM     17  H   UNL A   1      33.768  20.676  23.994  1.00  0.00     0.346 HD
ATOM     18  H   UNL A   1      33.455  19.830  22.557  1.00  0.00     0.346 HD
BRANCH  16  19
ATOM     19  C   UNL A   1      32.278  19.305  24.098  1.00  0.00     0.297 C 
BRANCH  19  20
ATOM     20  C   UNL A   1      33.019  18.061  24.550  1.00  0.00     0.009 A 
ATOM     21  C   UNL A   1      34.377  17.818  24.282  1.00  0.00     0.010 A 
ATOM     22  C   UNL A   1      32.308  17.089  25.275  1.00  0.00     0.048 A 
ATOM     23  C   UNL A   1      34.990  16.622  24.667  1.00  0.00     0.004 A 
ATOM     24  C   UNL A   1      32.933  15.911  25.675  1.00  0.00     0.123 A 
ATOM     25  C   UNL A   1      34.264  15.663  25.364  1.00  0.00     0.039 A 
ATOM     26  F   UNL A   1      32.240  15.000  26.370  1.00  0.00    -0.207 F 
ENDBRANCH  19  20
ENDBRANCH  16  19
ENDBRANCH  15  16
ENDBRANCH  11  15
BRANCH  12  27
ATOM     27  C   UNL A   1      31.510  25.736  25.481  1.00  0.00     0.162 C 
BRANCH  27  28
ATOM     28  C   UNL A   1      31.220  26.818  24.459  1.00  0.00     0.026 A 
ATOM     29  C   UNL A   1      29.901  27.065  24.048  1.00  0.00     0.129 A 
ATOM     30  C   UNL A   1      32.196  27.668  23.914  1.00  0.00     0.048 A 
ATOM     31  F   UNL A   1      28.879  26.495  24.691  1.00  0.00    -0.207 F 
ATOM     32  C   UNL A   1      29.569  27.981  23.050  1.00  0.00     0.040 A 
ATOM     33  C   UNL A   1      31.868  28.622  22.932  1.00  0.00     0.021 A 
ATOM     34  Cl  UNL A   1      33.826  27.703  24.484  1.00  0.00    -0.084 Cl
ATOM     35  C   UNL A   1      30.561  28.755  22.474  1.00  0.00     0.005 A 
ENDBRANCH  27  28
ENDBRANCH  12  27
ENDBRANCH   6   8
ENDBRANCH   5   6
ENDBRANCH   4   5
ENDBRANCH   3   4
ENDBRANCH   2   3
ENDBRANCH   1   2
BRANCH   1  36
ATOM     36  C   UNL A   1      40.296  20.177  26.582  1.00  0.00     0.188 C 
BRANCH  36  37
ATOM     37  O   UNL A   1      40.906  19.259  25.702  1.00  0.00    -0.376 OA
BRANCH  37  38
ATOM     38  C   UNL A   1      42.267  18.895  25.949  1.00  0.00     0.202 C 
BRANCH  38  39
ATOM     39  C   UNL A   1      43.455  19.818  25.519  1.00  0.00     0.261 C 
BRANCH  39  40
ATOM     40  O   UNL A   1      43.662  21.175  26.094  1.00  0.00    -0.460 OA
BRANCH  40  41
ATOM     41  C   UNL A   1      43.898  22.204  25.194  1.00  0.00     0.338 C 
ATOM     42  O   UNL A   1      44.167  21.966  24.020  1.00  0.00    -0.246 OA
BRANCH  41  43
ATOM     43  C   UNL A   1      43.734  23.689  25.671  1.00  0.00     0.060 A 
ATOM     44  C   UNL A   1      43.466  23.940  27.012  1.00  0.00     0.016 A 
ATOM     45  C   UNL A   1      43.530  24.835  24.862  1.00  0.00     0.016 A 
ATOM     46  C   UNL A   1      43.095  25.265  27.504  1.00  0.00     0.010 A 
ATOM     47  C   UNL A   1      43.075  26.187  25.374  1.00  0.00     0.010 A 
ATOM     48  C   UNL A   1      42.833  26.473  26.733  1.00  0.00    -0.014 A 
BRANCH  48  49
ATOM     49  C   UNL A   1      41.979  27.753  27.507  1.00  0.00     0.031 A 
ATOM     50  C   UNL A   1      43.083  28.744  27.666  1.00  0.00     0.074 A 
ATOM     51  C   UNL A   1      40.788  28.207  28.160  1.00  0.00     0.049 A 
ATOM     52  N   UNL A   1      44.163  28.373  28.296  1.00  0.00    -0.248 NA
ATOM     53  C   UNL A   1      43.246  29.944  26.843  1.00  0.00     0.031 C 
ATOM     54  C   UNL A   1      39.575  27.438  28.520  1.00  0.00     0.029 A 
ATOM     55  N   UNL A   1      40.355  29.504  28.713  1.00  0.00    -0.354 N 
ATOM     56  C   UNL A   1      45.031  29.426  28.242  1.00  0.00     0.074 A 
ATOM     57  C   UNL A   1      44.514  30.251  27.154  1.00  0.00     0.031 C 
ATOM     58  C   UNL A   1      38.560  28.220  29.021  1.00  0.00     0.029 A 
ATOM     59  C   UNL A   1      38.945  29.633  29.148  1.00  0.00     0.049 A 
ATOM     60  H   UNL A   1      40.982  30.260  28.789  1.00  0.00     0.167 HD
ATOM     61  C   UNL A   1      45.520  29.814  29.454  1.00  0.00     0.037 A 
ATOM     62  C   UNL A   1      38.185  30.714  29.683  1.00  0.00     0.037 A 
ATOM     63  C   UNL A   1      44.810  30.951  29.974  1.00  0.00     0.049 A 
ATOM     64  C   UNL A   1      39.158  31.470  30.482  1.00  0.00     0.074 A 
ATOM     65  C   UNL A   1      44.313  32.100  29.392  1.00  0.00     0.029 A 
ATOM     66  N   UNL A   1      44.111  30.764  31.148  1.00  0.00    -0.354 N 
ATOM     67  N   UNL A   1      39.596  31.026  31.621  1.00  0.00    -0.248 NA
ATOM     68  C   UNL A   1      39.568  32.825  30.130  1.00  0.00     0.031 C 
ATOM     69  C   UNL A   1      43.013  32.218  29.922  1.00  0.00     0.029 A 
ATOM     70  C   UNL A   1      42.919  31.440  31.070  1.00  0.00     0.049 A 
ATOM     71  H   UNL A   1      44.418  30.231  31.917  1.00  0.00     0.167 HD
ATOM     72  C   UNL A   1      40.702  31.784  31.838  1.00  0.00     0.074 A 
ATOM     73  C   UNL A   1      40.484  33.009  31.083  1.00  0.00     0.031 C 
ATOM     74  C   UNL A   1      41.855  31.090  31.982  1.00  0.00     0.037 A 
BRANCH  61  75
ATOM     75  C   UNL A   1      45.998  28.676  30.325  1.00  0.00     0.058 A 
ATOM     76  C   UNL A   1      47.361  28.349  30.516  1.00  0.00     0.135 A 
ATOM     77  C   UNL A   1      45.055  27.928  31.034  1.00  0.00     0.135 A 
ATOM     78  F   UNL A   1      48.316  28.938  29.776  1.00  0.00    -0.206 F 
ATOM     79  C   UNL A   1      47.770  27.399  31.442  1.00  0.00     0.059 A 
ATOM     80  C   UNL A   1      45.442  26.936  31.932  1.00  0.00     0.059 A 
ATOM     81  F   UNL A   1      43.744  28.154  30.855  1.00  0.00    -0.206 F 
ATOM     82  C   UNL A   1      46.800  26.706  32.160  1.00  0.00     0.060 A 
BRANCH  82  83
ATOM     83  S   UNL A   1      47.323  25.475  33.374  1.00  0.00     0.124 S 
ATOM     84  O   UNL A   1      48.615  25.046  32.861  1.00  0.00    -0.237 OA
ATOM     85  O   UNL A   1      47.353  26.259  34.605  1.00  0.00    -0.237 OA
ATOM     86  O   UNL A   1      46.264  24.470  33.304  1.00  0.00    -0.744 OA
ENDBRANCH  82  83
ENDBRANCH  61  75
BRANCH  62  87
ATOM     87  C   UNL A   1      36.732  31.368  30.051  1.00  0.00     0.058 A 
ATOM     88  C   UNL A   1      36.152  32.437  29.341  1.00  0.00     0.135 A 
ATOM     89  C   UNL A   1      36.146  31.250  31.378  1.00  0.00     0.135 A 
ATOM     90  F   UNL A   1      36.542  32.684  28.082  1.00  0.00    -0.206 F 
ATOM     91  C   UNL A   1      35.200  33.354  29.913  1.00  0.00     0.059 A 
ATOM     92  C   UNL A   1      35.232  32.163  31.973  1.00  0.00     0.059 A 
ATOM     93  F   UNL A   1      36.498  30.257  32.206  1.00  0.00    -0.206 F 
ATOM     94  C   UNL A   1      34.791  33.250  31.247  1.00  0.00     0.060 A 
BRANCH  94  95
ATOM     95  S   UNL A   1      33.804  34.575  32.044  1.00  0.00     0.124 S 
ATOM     96  O   UNL A   1      34.844  35.470  32.544  1.00  0.00    -0.237 OA
ATOM     97  O   UNL A   1      33.008  35.095  30.937  1.00  0.00    -0.237 OA
ATOM     98  O   UNL A   1      33.045  33.881  33.081  1.00  0.00    -0.744 OA
ENDBRANCH  94  95
ENDBRANCH  62  87
BRANCH  74  99
ATOM     99  C   UNL A   1      41.855  29.911  32.943  1.00  0.00     0.058 A 
ATOM    100  C   UNL A   1      42.305  30.160  34.251  1.00  0.00     0.135 A 
ATOM    101  C   UNL A   1      41.385  28.597  32.695  1.00  0.00     0.135 A 
ATOM    102  F   UNL A   1      42.791  31.371  34.567  1.00  0.00    -0.206 F 
ATOM    103  C   UNL A   1      42.271  29.198  35.257  1.00  0.00     0.059 A 
ATOM    104  C   UNL A   1      41.291  27.632  33.705  1.00  0.00     0.059 A 
ATOM    105  F   UNL A   1      41.015  28.189  31.472  1.00  0.00    -0.206 F 
ATOM    106  C   UNL A   1      41.731  27.945  34.985  1.00  0.00     0.060 A 
BRANCH 106 107
ATOM    107  S   UNL A   1      41.554  26.769  36.344  1.00  0.00     0.124 S 
ATOM    108  O   UNL A   1      42.934  26.579  36.768  1.00  0.00    -0.237 OA
ATOM    109  O   UNL A   1      40.704  27.508  37.276  1.00  0.00    -0.237 OA
ATOM    110  O   UNL A   1      40.920  25.610  35.722  1.00  0.00    -0.744 OA
ENDBRANCH 106 107
ENDBRANCH  74  99
ENDBRANCH  48  49
ENDBRANCH  41  43
ENDBRANCH  40  41
ENDBRANCH  39  40
ENDBRANCH  38  39
ENDBRANCH  37  38
ENDBRANCH  36  37
ENDBRANCH   1  36
TORSDOF 26
ENDMDL
MODEL 3
REMARK VINA RESULT:      -9.9      6.000      9.352
REMARK SMILES Cc1c(C[NH2+]Cc2cccc(F)c2)c(C(=O)OCCOCCOCCOC(=O)c2ccc(-c3c4nc(c(-c5c(F)cc(S(=O)(=O)[O-])cc5F)c5ccc([nH]5)c(-c5c(F)cc(S(=O)(=O)[O-])cc5F)c5nc(c(-c6c(F)cc(S(=O)(=O)[O-])cc6F)c6ccc3[nH]6)C=C5)C=C4)cc2)c(C)n1Cc1c(F)cccc1Cl
REMARK SMILES IDX 21 1 20 2 19 3 18 4 17 5 15 6 16 7 14 8 1 9 2 10 3 11 97 12
REMARK SMILES IDX 95 13 96 14 4 15 5 16 6 19 7 20 8 21 13 22 9 23 11 24 10 25
REMARK SMILES IDX 12 26 98 27 99 28 100 29 105 30 101 31 102 32 104 33 106 34
REMARK SMILES IDX 103 35 22 36 23 37 24 38 25 39 26 40 27 41 28 42 29 43 30 44
REMARK SMILES IDX 94 45 31 46 93 47 32 48 33 49 34 50 87 51 35 52 92 53 86 54
REMARK SMILES IDX 88 55 36 56 91 57 85 58 84 59 37 61 71 62 50 63 70 64 51 65
REMARK SMILES IDX 54 66 69 67 89 68 52 69 53 70 68 72 90 73 55 74 38 75 39 76
REMARK SMILES IDX 48 77 40 78 41 79 47 80 49 81 42 82 43 83 44 84 45 85 46 86
REMARK SMILES IDX 72 87 73 88 82 89 74 90 75 91 81 92 83 93 76 94 77 95 78 96
REMARK SMILES IDX 79 97 80 98 56 99 57 100 66 101 58 102 59 103 65 104 67 105
REMARK SMILES IDX 60 106 61 107 62 108 63 109 64 110
REMARK H PARENT 5 17 5 18 88 60 54 71
REMARK Flexibility Score: inf
ROOT
ATOM      1  C   UNL A   1      45.506  26.331  32.157  1.00  0.00     0.188 C 
ENDROOT
BRANCH   1   2
ATOM      2  O   UNL A   1      46.857  26.261  32.562  1.00  0.00    -0.376 OA
BRANCH   2   3
ATOM      3  C   UNL A   1      47.936  26.109  31.654  1.00  0.00     0.202 C 
BRANCH   3   4
ATOM      4  C   UNL A   1      47.925  26.503  30.173  1.00  0.00     0.261 C 
BRANCH   4   5
ATOM      5  O   UNL A   1      46.876  25.945  29.399  1.00  0.00    -0.460 OA
BRANCH   5   6
ATOM      6  C   UNL A   1      46.953  26.200  28.053  1.00  0.00     0.340 C 
ATOM      7  O   UNL A   1      47.479  25.482  27.233  1.00  0.00    -0.246 OA
BRANCH   6   8
ATOM      8  C   UNL A   1      46.339  27.491  27.758  1.00  0.00     0.089 A 
ATOM      9  C   UNL A   1      43.654  29.945  27.027  1.00  0.00     0.065 C 
ATOM     10  C   UNL A   1      44.889  29.174  27.349  1.00  0.00     0.025 A 
ATOM     11  C   UNL A   1      44.958  27.840  27.755  1.00  0.00     0.042 A 
ATOM     12  N   UNL A   1      46.186  29.682  27.281  1.00  0.00    -0.343 N 
ATOM     13  C   UNL A   1      47.067  28.623  27.427  1.00  0.00     0.030 A 
ATOM     14  C   UNL A   1      48.551  28.688  27.285  1.00  0.00     0.065 C 
BRANCH  11  15
ATOM     15  C   UNL A   1      43.809  26.944  28.151  1.00  0.00     0.300 C 
BRANCH  15  16
ATOM     16  N   UNL A   1      43.666  25.877  27.176  1.00  0.00    -0.339 N 
ATOM     17  H   UNL A   1      43.664  24.986  27.673  1.00  0.00     0.346 HD
ATOM     18  H   UNL A   1      44.450  25.960  26.528  1.00  0.00     0.346 HD
BRANCH  16  19
ATOM     19  C   UNL A   1      42.447  25.963  26.379  1.00  0.00     0.297 C 
BRANCH  19  20
ATOM     20  C   UNL A   1      41.284  26.721  26.991  1.00  0.00     0.009 A 
ATOM     21  C   UNL A   1      40.852  27.983  26.546  1.00  0.00     0.010 A 
ATOM     22  C   UNL A   1      40.600  26.134  28.069  1.00  0.00     0.048 A 
ATOM     23  C   UNL A   1      39.816  28.663  27.192  1.00  0.00     0.004 A 
ATOM     24  C   UNL A   1      39.553  26.809  28.691  1.00  0.00     0.123 A 
ATOM     25  C   UNL A   1      39.165  28.075  28.271  1.00  0.00     0.039 A 
ATOM     26  F   UNL A   1      38.910  26.231  29.713  1.00  0.00    -0.207 F 
ENDBRANCH  19  20
ENDBRANCH  16  19
ENDBRANCH  15  16
ENDBRANCH  11  15
BRANCH  12  27
ATOM     27  C   UNL A   1      46.571  31.072  26.948  1.00  0.00     0.162 C 
BRANCH  27  28
ATOM     28  C   UNL A   1      46.761  31.985  28.144  1.00  0.00     0.026 A 
ATOM     29  C   UNL A   1      48.019  32.091  28.757  1.00  0.00     0.129 A 
ATOM     30  C   UNL A   1      45.756  32.812  28.670  1.00  0.00     0.048 A 
ATOM     31  F   UNL A   1      49.096  31.551  28.182  1.00  0.00    -0.207 F 
ATOM     32  C   UNL A   1      48.246  32.841  29.911  1.00  0.00     0.040 A 
ATOM     33  C   UNL A   1      45.983  33.602  29.813  1.00  0.00     0.021 A 
ATOM     34  Cl  UNL A   1      44.226  33.026  27.899  1.00  0.00    -0.084 Cl
ATOM     35  C   UNL A   1      47.217  33.589  30.455  1.00  0.00     0.005 A 
ENDBRANCH  27  28
ENDBRANCH  12  27
ENDBRANCH   6   8
ENDBRANCH   5   6
ENDBRANCH   4   5
ENDBRANCH   3   4
ENDBRANCH   2   3
ENDBRANCH   1   2
BRANCH   1  36
ATOM     36  C   UNL A   1      44.709  25.052  31.846  1.00  0.00     0.188 C 
BRANCH  36  37
ATOM     37  O   UNL A   1      44.095  24.370  32.917  1.00  0.00    -0.376 OA
BRANCH  37  38
ATOM     38  C   UNL A   1      44.643  23.109  33.311  1.00  0.00     0.202 C 
BRANCH  38  39
ATOM     39  C   UNL A   1      45.593  22.977  34.548  1.00  0.00     0.261 C 
BRANCH  39  40
ATOM     40  O   UNL A   1      45.873  24.114  35.466  1.00  0.00    -0.460 OA
BRANCH  40  41
ATOM     41  C   UNL A   1      44.962  24.326  36.492  1.00  0.00     0.338 C 
ATOM     42  O   UNL A   1      44.991  23.642  37.511  1.00  0.00    -0.246 OA
BRANCH  41  43
ATOM     43  C   UNL A   1      43.942  25.511  36.375  1.00  0.00     0.060 A 
ATOM     44  C   UNL A   1      42.744  25.304  35.702  1.00  0.00     0.016 A 
ATOM     45  C   UNL A   1      44.190  26.886  36.614  1.00  0.00     0.016 A 
ATOM     46  C   UNL A   1      41.832  26.396  35.367  1.00  0.00     0.010 A 
ATOM     47  C   UNL A   1      43.272  28.018  36.196  1.00  0.00     0.010 A 
ATOM     48  C   UNL A   1      42.035  27.828  35.547  1.00  0.00    -0.014 A 
BRANCH  48  49
ATOM     49  C   UNL A   1      41.023  28.903  34.659  1.00  0.00     0.031 A 
ATOM     50  C   UNL A   1      41.625  28.766  33.301  1.00  0.00     0.074 A 
ATOM     51  C   UNL A   1      40.015  29.920  34.670  1.00  0.00     0.049 A 
ATOM     52  N   UNL A   1      42.899  29.005  33.161  1.00  0.00    -0.248 NA
ATOM     53  C   UNL A   1      41.030  28.003  32.201  1.00  0.00     0.031 C 
ATOM     54  C   UNL A   1      39.389  30.595  35.829  1.00  0.00     0.029 A 
ATOM     55  N   UNL A   1      39.290  30.654  33.615  1.00  0.00    -0.354 N 
ATOM     56  C   UNL A   1      43.208  28.742  31.857  1.00  0.00     0.074 A 
ATOM     57  C   UNL A   1      42.095  27.920  31.392  1.00  0.00     0.031 C 
ATOM     58  C   UNL A   1      38.354  31.432  35.481  1.00  0.00     0.029 A 
ATOM     59  C   UNL A   1      38.157  31.514  34.027  1.00  0.00     0.049 A 
ATOM     60  H   UNL A   1      39.551  30.574  32.668  1.00  0.00     0.167 HD
ATOM     61  C   UNL A   1      43.848  29.762  31.216  1.00  0.00     0.037 A 
ATOM     62  C   UNL A   1      37.232  32.320  33.301  1.00  0.00     0.037 A 
ATOM     63  C   UNL A   1      42.939  30.542  30.420  1.00  0.00     0.049 A 
ATOM     64  C   UNL A   1      38.014  32.817  32.162  1.00  0.00     0.074 A 
ATOM     65  C   UNL A   1      41.870  30.211  29.613  1.00  0.00     0.029 A 
ATOM     66  N   UNL A   1      42.773  31.862  30.780  1.00  0.00    -0.354 N 
ATOM     67  N   UNL A   1      38.920  33.735  32.306  1.00  0.00    -0.248 NA
ATOM     68  C   UNL A   1      37.714  32.434  30.787  1.00  0.00     0.031 C 
ATOM     69  C   UNL A   1      40.864  31.126  29.983  1.00  0.00     0.029 A 
ATOM     70  C   UNL A   1      41.449  32.199  30.644  1.00  0.00     0.049 A 
ATOM     71  H   UNL A   1      43.489  32.465  31.087  1.00  0.00     0.167 HD
ATOM     72  C   UNL A   1      39.636  33.640  31.156  1.00  0.00     0.074 A 
ATOM     73  C   UNL A   1      38.723  33.062  30.181  1.00  0.00     0.031 C 
ATOM     74  C   UNL A   1      40.954  33.376  31.320  1.00  0.00     0.037 A 
BRANCH  61  75
ATOM     75  C   UNL A   1      44.985  30.373  31.998  1.00  0.00     0.058 A 
ATOM     76  C   UNL A   1      44.806  31.220  33.117  1.00  0.00     0.135 A 
ATOM     77  C   UNL A   1      46.297  30.050  31.644  1.00  0.00     0.135 A 
ATOM     78  F   UNL A   1      43.584  31.676  33.442  1.00  0.00    -0.206 F 
ATOM     79  C   UNL A   1      45.870  31.637  33.906  1.00  0.00     0.059 A 
ATOM     80  C   UNL A   1      47.384  30.499  32.393  1.00  0.00     0.059 A 
ATOM     81  F   UNL A   1      46.535  29.294  30.560  1.00  0.00    -0.206 F 
ATOM     82  C   UNL A   1      47.159  31.257  33.544  1.00  0.00     0.060 A 
BRANCH  82  83
ATOM     83  S   UNL A   1      48.548  31.787  34.568  1.00  0.00     0.124 S 
ATOM     84  O   UNL A   1      49.273  32.689  33.685  1.00  0.00    -0.237 OA
ATOM     85  O   UNL A   1      47.868  32.411  35.700  1.00  0.00    -0.237 OA
ATOM     86  O   UNL A   1      49.235  30.533  34.872  1.00  0.00    -0.744 OA
ENDBRANCH  82  83
ENDBRANCH  61  75
BRANCH  62  87
ATOM     87  C   UNL A   1      35.830  33.160  33.255  1.00  0.00     0.058 A 
ATOM     88  C   UNL A   1      34.901  33.077  32.199  1.00  0.00     0.135 A 
ATOM     89  C   UNL A   1      35.638  34.386  34.017  1.00  0.00     0.135 A 
ATOM     90  F   UNL A   1      34.901  31.999  31.402  1.00  0.00    -0.206 F 
ATOM     91  C   UNL A   1      33.979  34.130  31.860  1.00  0.00     0.059 A 
ATOM     92  C   UNL A   1      34.759  35.451  33.679  1.00  0.00     0.059 A 
ATOM     93  F   UNL A   1      36.367  34.643  35.112  1.00  0.00    -0.206 F 
ATOM     94  C   UNL A   1      33.955  35.339  32.564  1.00  0.00     0.060 A 
BRANCH  94  95
ATOM     95  S   UNL A   1      32.984  36.772  31.957  1.00  0.00     0.124 S 
ATOM     96  O   UNL A   1      33.585  37.881  32.692  1.00  0.00    -0.237 OA
ATOM     97  O   UNL A   1      33.246  36.755  30.522  1.00  0.00    -0.237 OA
ATOM     98  O   UNL A   1      31.608  36.460  32.340  1.00  0.00    -0.744 OA
ENDBRANCH  94  95
ENDBRANCH  62  87
BRANCH  74  99
ATOM     99  C   UNL A   1      41.724  34.220  32.324  1.00  0.00     0.058 A 
ATOM    100  C   UNL A   1      42.549  35.230  31.801  1.00  0.00     0.135 A 
ATOM    101  C   UNL A   1      41.653  34.154  33.737  1.00  0.00     0.135 A 
ATOM    102  F   UNL A   1      42.694  35.349  30.472  1.00  0.00    -0.206 F 
ATOM    103  C   UNL A   1      43.237  36.135  32.606  1.00  0.00     0.059 A 
ATOM    104  C   UNL A   1      42.292  35.087  34.563  1.00  0.00     0.059 A 
ATOM    105  F   UNL A   1      40.982  33.184  34.376  1.00  0.00    -0.206 F 
ATOM    106  C   UNL A   1      43.077  36.078  33.988  1.00  0.00     0.060 A 
BRANCH 106 107
ATOM    107  S   UNL A   1      43.854  37.357  34.998  1.00  0.00     0.124 S 
ATOM    108  O   UNL A   1      43.451  36.974  36.343  1.00  0.00    -0.237 OA
ATOM    109  O   UNL A   1      45.270  37.172  34.686  1.00  0.00    -0.237 OA
ATOM    110  O   UNL A   1      43.272  38.599  34.496  1.00  0.00    -0.744 OA
ENDBRANCH 106 107
ENDBRANCH  74  99
ENDBRANCH  48  49
ENDBRANCH  41  43
ENDBRANCH  40  41
ENDBRANCH  39  40
ENDBRANCH  38  39
ENDBRANCH  37  38
ENDBRANCH  36  37
ENDBRANCH   1  36
TORSDOF 26
ENDMDL
