MODEL 1
REMARK VINA RESULT:      -9.8      0.000      0.000
REMARK SMILES Cc1cc(NC(=O)c2sccc2/C=C/C(=O)OCCOCCOCCOC(=O)c2ccc(-c3c4nc(c(-c5c(F)cc(S(=O)(=O)[O-])cc5F)c5ccc([nH]5)c(-c5c(F)cc(S(=O)(=O)[O-])cc5F)c5nc(c(-c6c(F)cc(S(=O)(=O)[O-])cc6F)c6ccc3[nH]6)C=C5)C=C4)cc2)ccn1
REMARK SMILES IDX 21 1 20 2 19 3 18 4 17 5 15 6 16 7 14 8 13 9 12 10 8 11 9 12
REMARK SMILES IDX 10 13 11 14 6 15 5 16 7 18 4 19 1 20 2 21 3 22 97 23 96 24
REMARK SMILES IDX 95 25 22 26 23 27 24 28 25 29 26 30 27 31 28 32 29 33 30 34
REMARK SMILES IDX 94 35 31 36 93 37 32 38 33 39 34 40 87 41 35 42 92 43 86 44
REMARK SMILES IDX 88 45 36 46 91 47 85 48 84 49 37 51 71 52 50 53 70 54 51 55
REMARK SMILES IDX 54 56 69 57 89 58 52 59 53 60 68 62 90 63 55 64 38 65 39 66
REMARK SMILES IDX 48 67 40 68 41 69 47 70 49 71 42 72 43 73 44 74 45 75 46 76
REMARK SMILES IDX 72 77 73 78 82 79 74 80 75 81 81 82 83 83 76 84 77 85 78 86
REMARK SMILES IDX 79 87 80 88 56 89 57 90 66 91 58 92 59 93 65 94 67 95 60 96
REMARK SMILES IDX 61 97 62 98 63 99 64 100
REMARK H PARENT 5 17 88 50 54 61
REMARK Flexibility Score: inf
ROOT
ATOM      1  C   UNL A   1      40.908  20.821  26.513  1.00  0.00     0.188 C 
ENDROOT
BRANCH   1   2
ATOM      2  O   UNL A   1      39.510  20.772  26.334  1.00  0.00    -0.376 OA
BRANCH   2   3
ATOM      3  C   UNL A   1      38.865  21.576  25.362  1.00  0.00     0.202 C 
BRANCH   3   4
ATOM      4  C   UNL A   1      37.536  22.322  25.573  1.00  0.00     0.261 C 
BRANCH   4   5
ATOM      5  O   UNL A   1      36.459  21.992  24.692  1.00  0.00    -0.460 OA
BRANCH   5   6
ATOM      6  C   UNL A   1      36.103  22.983  23.837  1.00  0.00     0.330 C 
ATOM      7  O   UNL A   1      36.397  23.050  22.653  1.00  0.00    -0.247 OA
BRANCH   6   8
ATOM      8  C   UNL A   1      35.189  23.965  24.453  1.00  0.00     0.094 C 
ATOM      9  C   UNL A   1      34.694  25.063  23.858  1.00  0.00     0.017 C 
BRANCH   9  10
ATOM     10  C   UNL A   1      33.686  25.896  24.453  1.00  0.00    -0.002 A 
ATOM     11  C   UNL A   1      32.407  26.042  23.928  1.00  0.00     0.099 A 
ATOM     12  S   UNL A   1      31.461  27.113  24.885  1.00  0.00    -0.138 S 
ATOM     13  C   UNL A   1      32.701  27.288  26.044  1.00  0.00     0.066 A 
ATOM     14  C   UNL A   1      33.843  26.611  25.682  1.00  0.00     0.020 A 
BRANCH  11  15
ATOM     15  C   UNL A   1      31.779  25.459  22.751  1.00  0.00     0.266 C 
ATOM     16  N   UNL A   1      31.581  24.091  22.660  1.00  0.00    -0.321 N 
ATOM     17  H   UNL A   1      31.388  23.773  21.749  1.00  0.00     0.170 HD
ATOM     18  O   UNL A   1      31.464  26.124  21.761  1.00  0.00    -0.268 OA
BRANCH  16  19
ATOM     19  C   UNL A   1      31.607  23.075  23.633  1.00  0.00     0.044 A 
ATOM     20  C   UNL A   1      33.683  19.985  24.308  1.00  0.00     0.067 C 
ATOM     21  C   UNL A   1      32.655  21.067  24.427  1.00  0.00     0.039 A 
ATOM     22  C   UNL A   1      32.503  22.023  23.430  1.00  0.00     0.049 A 
ATOM     23  N   UNL A   1      31.953  21.106  25.580  1.00  0.00    -0.261 NA
ATOM     24  C   UNL A   1      31.057  22.100  25.735  1.00  0.00     0.113 A 
ATOM     25  C   UNL A   1      30.828  23.080  24.785  1.00  0.00     0.046 A 
ENDBRANCH  16  19
ENDBRANCH  11  15
ENDBRANCH   9  10
ENDBRANCH   6   8
ENDBRANCH   5   6
ENDBRANCH   4   5
ENDBRANCH   3   4
ENDBRANCH   2   3
ENDBRANCH   1   2
BRANCH   1  26
ATOM     26  C   UNL A   1      41.674  22.083  26.082  1.00  0.00     0.188 C 
BRANCH  26  27
ATOM     27  O   UNL A   1      42.791  21.955  25.234  1.00  0.00    -0.376 OA
BRANCH  27  28
ATOM     28  C   UNL A   1      44.073  22.339  25.703  1.00  0.00     0.202 C 
BRANCH  28  29
ATOM     29  C   UNL A   1      44.588  23.790  25.833  1.00  0.00     0.261 C 
BRANCH  29  30
ATOM     30  O   UNL A   1      43.939  24.665  26.760  1.00  0.00    -0.460 OA
BRANCH  30  31
ATOM     31  C   UNL A   1      43.062  25.546  26.219  1.00  0.00     0.338 C 
ATOM     32  O   UNL A   1      42.633  25.545  25.072  1.00  0.00    -0.246 OA
BRANCH  31  33
ATOM     33  C   UNL A   1      42.522  26.407  27.286  1.00  0.00     0.060 A 
ATOM     34  C   UNL A   1      43.091  27.672  27.493  1.00  0.00     0.016 A 
ATOM     35  C   UNL A   1      41.480  25.958  28.098  1.00  0.00     0.016 A 
ATOM     36  C   UNL A   1      42.629  28.489  28.525  1.00  0.00     0.010 A 
ATOM     37  C   UNL A   1      41.039  26.767  29.151  1.00  0.00     0.010 A 
ATOM     38  C   UNL A   1      41.628  28.024  29.385  1.00  0.00    -0.014 A 
BRANCH  38  39
ATOM     39  C   UNL A   1      41.318  28.764  30.634  1.00  0.00     0.031 A 
ATOM     40  C   UNL A   1      40.172  29.739  30.621  1.00  0.00     0.074 A 
ATOM     41  C   UNL A   1      42.038  28.577  31.755  1.00  0.00     0.049 A 
ATOM     42  N   UNL A   1      39.773  30.563  31.554  1.00  0.00    -0.248 NA
ATOM     43  C   UNL A   1      39.373  29.795  29.386  1.00  0.00     0.031 C 
ATOM     44  C   UNL A   1      43.143  27.633  31.904  1.00  0.00     0.029 A 
ATOM     45  N   UNL A   1      41.955  29.195  32.979  1.00  0.00    -0.354 N 
ATOM     46  C   UNL A   1      38.689  31.247  31.017  1.00  0.00     0.074 A 
ATOM     47  C   UNL A   1      38.506  30.757  29.668  1.00  0.00     0.031 C 
ATOM     48  C   UNL A   1      43.653  27.750  33.143  1.00  0.00     0.029 A 
ATOM     49  C   UNL A   1      42.935  28.803  33.861  1.00  0.00     0.049 A 
ATOM     50  H   UNL A   1      41.260  29.855  33.204  1.00  0.00     0.167 HD
ATOM     51  C   UNL A   1      37.915  32.195  31.596  1.00  0.00     0.037 A 
ATOM     52  C   UNL A   1      43.237  29.266  35.092  1.00  0.00     0.037 A 
ATOM     53  C   UNL A   1      38.103  32.676  32.940  1.00  0.00     0.049 A 
ATOM     54  C   UNL A   1      42.400  30.369  35.693  1.00  0.00     0.074 A 
ATOM     55  C   UNL A   1      37.356  33.617  33.626  1.00  0.00     0.029 A 
ATOM     56  N   UNL A   1      39.112  32.264  33.797  1.00  0.00    -0.354 N 
ATOM     57  N   UNL A   1      41.361  30.990  35.184  1.00  0.00    -0.248 NA
ATOM     58  C   UNL A   1      42.775  30.833  37.037  1.00  0.00     0.031 C 
ATOM     59  C   UNL A   1      37.948  33.817  34.877  1.00  0.00     0.029 A 
ATOM     60  C   UNL A   1      39.024  32.951  34.996  1.00  0.00     0.049 A 
ATOM     61  H   UNL A   1      39.791  31.582  33.586  1.00  0.00     0.167 HD
ATOM     62  C   UNL A   1      40.939  31.891  36.158  1.00  0.00     0.074 A 
ATOM     63  C   UNL A   1      41.830  31.728  37.289  1.00  0.00     0.031 C 
ATOM     64  C   UNL A   1      39.907  32.770  36.122  1.00  0.00     0.037 A 
BRANCH  51  65
ATOM     65  C   UNL A   1      36.812  32.799  30.772  1.00  0.00     0.058 A 
ATOM     66  C   UNL A   1      37.050  33.841  29.862  1.00  0.00     0.135 A 
ATOM     67  C   UNL A   1      35.504  32.295  30.861  1.00  0.00     0.135 A 
ATOM     68  F   UNL A   1      38.277  34.375  29.750  1.00  0.00    -0.206 F 
ATOM     69  C   UNL A   1      36.029  34.372  29.081  1.00  0.00     0.059 A 
ATOM     70  C   UNL A   1      34.473  32.790  30.069  1.00  0.00     0.059 A 
ATOM     71  F   UNL A   1      35.220  31.303  31.720  1.00  0.00    -0.206 F 
ATOM     72  C   UNL A   1      34.743  33.837  29.189  1.00  0.00     0.060 A 
BRANCH  72  73
ATOM     73  S   UNL A   1      33.435  34.521  28.151  1.00  0.00     0.124 S 
ATOM     74  O   UNL A   1      32.695  35.332  29.113  1.00  0.00    -0.237 OA
ATOM     75  O   UNL A   1      34.191  35.262  27.146  1.00  0.00    -0.237 OA
ATOM     76  O   UNL A   1      32.736  33.339  27.658  1.00  0.00    -0.744 OA
ENDBRANCH  72  73
ENDBRANCH  51  65
BRANCH  52  77
ATOM     77  C   UNL A   1      44.399  28.707  35.837  1.00  0.00     0.058 A 
ATOM     78  C   UNL A   1      45.691  29.222  35.661  1.00  0.00     0.135 A 
ATOM     79  C   UNL A   1      44.243  27.632  36.726  1.00  0.00     0.135 A 
ATOM     80  F   UNL A   1      45.898  30.239  34.810  1.00  0.00    -0.206 F 
ATOM     81  C   UNL A   1      46.790  28.680  36.322  1.00  0.00     0.059 A 
ATOM     82  C   UNL A   1      45.320  27.093  37.423  1.00  0.00     0.059 A 
ATOM     83  F   UNL A   1      43.026  27.105  36.939  1.00  0.00    -0.206 F 
ATOM     84  C   UNL A   1      46.593  27.616  37.204  1.00  0.00     0.060 A 
BRANCH  84  85
ATOM     85  S   UNL A   1      48.021  26.945  38.084  1.00  0.00     0.124 S 
ATOM     86  O   UNL A   1      48.983  28.033  37.954  1.00  0.00    -0.237 OA
ATOM     87  O   UNL A   1      47.479  26.728  39.422  1.00  0.00    -0.237 OA
ATOM     88  O   UNL A   1      48.335  25.732  37.337  1.00  0.00    -0.744 OA
ENDBRANCH  84  85
ENDBRANCH  52  77
BRANCH  64  89
ATOM     89  C   UNL A   1      39.639  33.591  37.356  1.00  0.00     0.058 A 
ATOM     90  C   UNL A   1      38.708  33.195  38.328  1.00  0.00     0.135 A 
ATOM     91  C   UNL A   1      40.377  34.763  37.599  1.00  0.00     0.135 A 
ATOM     92  F   UNL A   1      37.972  32.087  38.146  1.00  0.00    -0.206 F 
ATOM     93  C   UNL A   1      38.500  33.942  39.484  1.00  0.00     0.059 A 
ATOM     94  C   UNL A   1      40.210  35.507  38.762  1.00  0.00     0.059 A 
ATOM     95  F   UNL A   1      41.292  35.182  36.709  1.00  0.00    -0.206 F 
ATOM     96  C   UNL A   1      39.259  35.095  39.695  1.00  0.00     0.060 A 
BRANCH  96  97
ATOM     97  S   UNL A   1      39.006  36.033  41.216  1.00  0.00     0.124 S 
ATOM     98  O   UNL A   1      37.785  35.425  41.737  1.00  0.00    -0.237 OA
ATOM     99  O   UNL A   1      40.225  35.749  41.964  1.00  0.00    -0.237 OA
ATOM    100  O   UNL A   1      38.870  37.410  40.749  1.00  0.00    -0.744 OA
ENDBRANCH  96  97
ENDBRANCH  64  89
ENDBRANCH  38  39
ENDBRANCH  31  33
ENDBRANCH  30  31
ENDBRANCH  29  30
ENDBRANCH  28  29
ENDBRANCH  27  28
ENDBRANCH  26  27
ENDBRANCH   1  26
TORSDOF 23
ENDMDL
MODEL 2
REMARK VINA RESULT:      -9.6      1.490      2.637
REMARK SMILES Cc1cc(NC(=O)c2sccc2/C=C/C(=O)OCCOCCOCCOC(=O)c2ccc(-c3c4nc(c(-c5c(F)cc(S(=O)(=O)[O-])cc5F)c5ccc([nH]5)c(-c5c(F)cc(S(=O)(=O)[O-])cc5F)c5nc(c(-c6c(F)cc(S(=O)(=O)[O-])cc6F)c6ccc3[nH]6)C=C5)C=C4)cc2)ccn1
REMARK SMILES IDX 21 1 20 2 19 3 18 4 17 5 15 6 16 7 14 8 13 9 12 10 8 11 9 12
REMARK SMILES IDX 10 13 11 14 6 15 5 16 7 18 4 19 1 20 2 21 3 22 97 23 96 24
REMARK SMILES IDX 95 25 22 26 23 27 24 28 25 29 26 30 27 31 28 32 29 33 30 34
REMARK SMILES IDX 94 35 31 36 93 37 32 38 33 39 34 40 87 41 35 42 92 43 86 44
REMARK SMILES IDX 88 45 36 46 91 47 85 48 84 49 37 51 71 52 50 53 70 54 51 55
REMARK SMILES IDX 54 56 69 57 89 58 52 59 53 60 68 62 90 63 55 64 38 65 39 66
REMARK SMILES IDX 48 67 40 68 41 69 47 70 49 71 42 72 43 73 44 74 45 75 46 76
REMARK SMILES IDX 72 77 73 78 82 79 74 80 75 81 81 82 83 83 76 84 77 85 78 86
REMARK SMILES IDX 79 87 80 88 56 89 57 90 66 91 58 92 59 93 65 94 67 95 60 96
REMARK SMILES IDX 61 97 62 98 63 99 64 100
REMARK H PARENT 5 17 88 50 54 61
REMARK Flexibility Score: inf
ROOT
ATOM      1  C   UNL A   1      43.478  21.727  25.586  1.00  0.00     0.188 C 
ENDROOT
BRANCH   1   2
ATOM      2  O   UNL A   1      42.111  21.421  25.749  1.00  0.00    -0.376 OA
BRANCH   2   3
ATOM      3  C   UNL A   1      41.176  22.413  26.136  1.00  0.00     0.202 C 
BRANCH   3   4
ATOM      4  C   UNL A   1      39.770  22.131  26.694  1.00  0.00     0.261 C 
BRANCH   4   5
ATOM      5  O   UNL A   1      38.667  22.338  25.808  1.00  0.00    -0.460 OA
BRANCH   5   6
ATOM      6  C   UNL A   1      37.929  23.446  26.071  1.00  0.00     0.330 C 
ATOM      7  O   UNL A   1      38.288  24.406  26.736  1.00  0.00    -0.247 OA
BRANCH   6   8
ATOM      8  C   UNL A   1      36.638  23.452  25.357  1.00  0.00     0.094 C 
ATOM      9  C   UNL A   1      36.416  22.975  24.121  1.00  0.00     0.017 C 
BRANCH   9  10
ATOM     10  C   UNL A   1      35.108  22.865  23.540  1.00  0.00    -0.002 A 
ATOM     11  C   UNL A   1      34.060  22.176  24.139  1.00  0.00     0.099 A 
ATOM     12  S   UNL A   1      32.639  22.240  23.172  1.00  0.00    -0.138 S 
ATOM     13  C   UNL A   1      33.378  23.269  22.028  1.00  0.00     0.066 A 
ATOM     14  C   UNL A   1      34.701  23.503  22.325  1.00  0.00     0.020 A 
BRANCH  11  15
ATOM     15  C   UNL A   1      33.986  21.443  25.395  1.00  0.00     0.266 C 
ATOM     16  N   UNL A   1      33.298  21.964  26.478  1.00  0.00    -0.321 N 
ATOM     17  H   UNL A   1      33.510  21.529  27.335  1.00  0.00     0.170 HD
ATOM     18  O   UNL A   1      34.580  20.378  25.585  1.00  0.00    -0.268 OA
BRANCH  16  19
ATOM     19  C   UNL A   1      32.351  23.001  26.575  1.00  0.00     0.044 A 
ATOM     20  C   UNL A   1      32.385  26.773  26.287  1.00  0.00     0.067 C 
ATOM     21  C   UNL A   1      31.924  25.360  26.470  1.00  0.00     0.039 A 
ATOM     22  C   UNL A   1      32.833  24.309  26.510  1.00  0.00     0.049 A 
ATOM     23  N   UNL A   1      30.589  25.163  26.512  1.00  0.00    -0.261 NA
ATOM     24  C   UNL A   1      30.145  23.896  26.625  1.00  0.00     0.113 A 
ATOM     25  C   UNL A   1      30.980  22.795  26.691  1.00  0.00     0.046 A 
ENDBRANCH  16  19
ENDBRANCH  11  15
ENDBRANCH   9  10
ENDBRANCH   6   8
ENDBRANCH   5   6
ENDBRANCH   4   5
ENDBRANCH   3   4
ENDBRANCH   2   3
ENDBRANCH   1   2
BRANCH   1  26
ATOM     26  C   UNL A   1      43.937  22.432  24.298  1.00  0.00     0.188 C 
BRANCH  26  27
ATOM     27  O   UNL A   1      44.808  23.535  24.389  1.00  0.00    -0.376 OA
BRANCH  27  28
ATOM     28  C   UNL A   1      45.150  24.052  25.664  1.00  0.00     0.202 C 
BRANCH  28  29
ATOM     29  C   UNL A   1      44.666  25.397  26.251  1.00  0.00     0.261 C 
BRANCH  29  30
ATOM     30  O   UNL A   1      43.926  26.284  25.407  1.00  0.00    -0.460 OA
BRANCH  30  31
ATOM     31  C   UNL A   1      42.617  26.440  25.727  1.00  0.00     0.338 C 
ATOM     32  O   UNL A   1      41.653  26.016  25.103  1.00  0.00    -0.246 OA
BRANCH  31  33
ATOM     33  C   UNL A   1      42.517  27.032  27.073  1.00  0.00     0.060 A 
ATOM     34  C   UNL A   1      41.773  26.362  28.056  1.00  0.00     0.016 A 
ATOM     35  C   UNL A   1      43.125  28.254  27.356  1.00  0.00     0.016 A 
ATOM     36  C   UNL A   1      41.624  26.922  29.325  1.00  0.00     0.010 A 
ATOM     37  C   UNL A   1      42.949  28.827  28.620  1.00  0.00     0.010 A 
ATOM     38  C   UNL A   1      42.178  28.177  29.601  1.00  0.00    -0.014 A 
BRANCH  38  39
ATOM     39  C   UNL A   1      41.805  28.896  30.845  1.00  0.00     0.031 A 
ATOM     40  C   UNL A   1      40.596  29.792  30.817  1.00  0.00     0.074 A 
ATOM     41  C   UNL A   1      42.524  28.761  31.974  1.00  0.00     0.049 A 
ATOM     42  N   UNL A   1      40.132  30.588  31.744  1.00  0.00    -0.248 NA
ATOM     43  C   UNL A   1      39.808  29.791  29.573  1.00  0.00     0.031 C 
ATOM     44  C   UNL A   1      43.688  27.895  32.138  1.00  0.00     0.029 A 
ATOM     45  N   UNL A   1      42.386  29.374  33.195  1.00  0.00    -0.354 N 
ATOM     46  C   UNL A   1      39.010  31.196  31.193  1.00  0.00     0.074 A 
ATOM     47  C   UNL A   1      38.874  30.692  29.843  1.00  0.00     0.031 C 
ATOM     48  C   UNL A   1      44.175  28.049  33.382  1.00  0.00     0.029 A 
ATOM     49  C   UNL A   1      43.380  29.052  34.089  1.00  0.00     0.049 A 
ATOM     50  H   UNL A   1      41.645  29.986  33.411  1.00  0.00     0.167 HD
ATOM     51  C   UNL A   1      38.167  32.090  31.761  1.00  0.00     0.037 A 
ATOM     52  C   UNL A   1      43.636  29.536  35.322  1.00  0.00     0.037 A 
ATOM     53  C   UNL A   1      38.306  32.585  33.106  1.00  0.00     0.049 A 
ATOM     54  C   UNL A   1      42.720  30.582  35.911  1.00  0.00     0.074 A 
ATOM     55  C   UNL A   1      37.490  33.475  33.782  1.00  0.00     0.029 A 
ATOM     56  N   UNL A   1      39.331  32.245  33.975  1.00  0.00    -0.354 N 
ATOM     57  N   UNL A   1      41.647  31.129  35.389  1.00  0.00    -0.248 NA
ATOM     58  C   UNL A   1      43.048  31.073  37.257  1.00  0.00     0.031 C 
ATOM     59  C   UNL A   1      38.054  33.717  35.038  1.00  0.00     0.029 A 
ATOM     60  C   UNL A   1      39.184  32.927  35.171  1.00  0.00     0.049 A 
ATOM     61  H   UNL A   1      40.057  31.611  33.773  1.00  0.00     0.167 HD
ATOM     62  C   UNL A   1      41.154  32.001  36.357  1.00  0.00     0.074 A 
ATOM     63  C   UNL A   1      42.041  31.902  37.497  1.00  0.00     0.031 C 
ATOM     64  C   UNL A   1      40.065  32.808  36.307  1.00  0.00     0.037 A 
BRANCH  51  65
ATOM     65  C   UNL A   1      37.034  32.617  30.924  1.00  0.00     0.058 A 
ATOM     66  C   UNL A   1      35.736  32.089  31.013  1.00  0.00     0.135 A 
ATOM     67  C   UNL A   1      37.240  33.700  30.054  1.00  0.00     0.135 A 
ATOM     68  F   UNL A   1      35.486  31.041  31.814  1.00  0.00    -0.206 F 
ATOM     69  C   UNL A   1      34.688  32.605  30.258  1.00  0.00     0.059 A 
ATOM     70  C   UNL A   1      36.201  34.252  29.312  1.00  0.00     0.059 A 
ATOM     71  F   UNL A   1      38.463  34.239  29.926  1.00  0.00    -0.206 F 
ATOM     72  C   UNL A   1      34.930  33.690  29.413  1.00  0.00     0.060 A 
BRANCH  72  73
ATOM     73  S   UNL A   1      33.553  34.362  28.459  1.00  0.00     0.124 S 
ATOM     74  O   UNL A   1      34.218  35.404  27.683  1.00  0.00    -0.237 OA
ATOM     75  O   UNL A   1      33.101  33.198  27.702  1.00  0.00    -0.237 OA
ATOM     76  O   UNL A   1      32.628  34.838  29.482  1.00  0.00    -0.744 OA
ENDBRANCH  72  73
ENDBRANCH  51  65
BRANCH  52  77
ATOM     77  C   UNL A   1      44.826  29.059  36.081  1.00  0.00     0.058 A 
ATOM     78  C   UNL A   1      44.727  28.001  36.996  1.00  0.00     0.135 A 
ATOM     79  C   UNL A   1      46.082  29.665  35.919  1.00  0.00     0.135 A 
ATOM     80  F   UNL A   1      43.546  27.398  37.199  1.00  0.00    -0.206 F 
ATOM     81  C   UNL A   1      45.824  27.575  37.740  1.00  0.00     0.059 A 
ATOM     82  C   UNL A   1      47.200  29.236  36.628  1.00  0.00     0.059 A 
ATOM     83  F   UNL A   1      46.234  30.676  35.050  1.00  0.00    -0.206 F 
ATOM     84  C   UNL A   1      47.058  28.198  37.546  1.00  0.00     0.060 A 
BRANCH  84  85
ATOM     85  S   UNL A   1      48.482  27.611  38.490  1.00  0.00     0.124 S 
ATOM     86  O   UNL A   1      48.171  28.103  39.827  1.00  0.00    -0.237 OA
ATOM     87  O   UNL A   1      48.395  26.165  38.305  1.00  0.00    -0.237 OA
ATOM     88  O   UNL A   1      49.612  28.254  37.827  1.00  0.00    -0.744 OA
ENDBRANCH  84  85
ENDBRANCH  52  77
BRANCH  64  89
ATOM     89  C   UNL A   1      39.729  33.612  37.536  1.00  0.00     0.058 A 
ATOM     90  C   UNL A   1      38.870  33.125  38.533  1.00  0.00     0.135 A 
ATOM     91  C   UNL A   1      40.330  34.865  37.747  1.00  0.00     0.135 A 
ATOM     92  F   UNL A   1      38.265  31.936  38.382  1.00  0.00    -0.206 F 
ATOM     93  C   UNL A   1      38.600  33.860  39.684  1.00  0.00     0.059 A 
ATOM     94  C   UNL A   1      40.100  35.602  38.903  1.00  0.00     0.059 A 
ATOM     95  F   UNL A   1      41.171  35.374  36.832  1.00  0.00    -0.206 F 
ATOM     96  C   UNL A   1      39.224  35.097  39.863  1.00  0.00     0.060 A 
BRANCH  96  97
ATOM     97  S   UNL A   1      38.894  36.023  41.377  1.00  0.00     0.124 S 
ATOM     98  O   UNL A   1      38.847  37.394  40.878  1.00  0.00    -0.237 OA
ATOM     99  O   UNL A   1      37.620  35.463  41.814  1.00  0.00    -0.237 OA
ATOM    100  O   UNL A   1      40.038  35.705  42.227  1.00  0.00    -0.744 OA
ENDBRANCH  96  97
ENDBRANCH  64  89
ENDBRANCH  38  39
ENDBRANCH  31  33
ENDBRANCH  30  31
ENDBRANCH  29  30
ENDBRANCH  28  29
ENDBRANCH  27  28
ENDBRANCH  26  27
ENDBRANCH   1  26
TORSDOF 23
ENDMDL
MODEL 3
REMARK VINA RESULT:      -9.4      1.225      2.455
REMARK SMILES Cc1cc(NC(=O)c2sccc2/C=C/C(=O)OCCOCCOCCOC(=O)c2ccc(-c3c4nc(c(-c5c(F)cc(S(=O)(=O)[O-])cc5F)c5ccc([nH]5)c(-c5c(F)cc(S(=O)(=O)[O-])cc5F)c5nc(c(-c6c(F)cc(S(=O)(=O)[O-])cc6F)c6ccc3[nH]6)C=C5)C=C4)cc2)ccn1
REMARK SMILES IDX 21 1 20 2 19 3 18 4 17 5 15 6 16 7 14 8 13 9 12 10 8 11 9 12
REMARK SMILES IDX 10 13 11 14 6 15 5 16 7 18 4 19 1 20 2 21 3 22 97 23 96 24
REMARK SMILES IDX 95 25 22 26 23 27 24 28 25 29 26 30 27 31 28 32 29 33 30 34
REMARK SMILES IDX 94 35 31 36 93 37 32 38 33 39 34 40 87 41 35 42 92 43 86 44
REMARK SMILES IDX 88 45 36 46 91 47 85 48 84 49 37 51 71 52 50 53 70 54 51 55
REMARK SMILES IDX 54 56 69 57 89 58 52 59 53 60 68 62 90 63 55 64 38 65 39 66
REMARK SMILES IDX 48 67 40 68 41 69 47 70 49 71 42 72 43 73 44 74 45 75 46 76
REMARK SMILES IDX 72 77 73 78 82 79 74 80 75 81 81 82 83 83 76 84 77 85 78 86
REMARK SMILES IDX 79 87 80 88 56 89 57 90 66 91 58 92 59 93 65 94 67 95 60 96
REMARK SMILES IDX 61 97 62 98 63 99 64 100
REMARK H PARENT 5 17 88 50 54 61
REMARK Flexibility Score: inf
ROOT
ATOM      1  C   UNL A   1      42.627  20.200  26.183  1.00  0.00     0.188 C 
ENDROOT
BRANCH   1   2
ATOM      2  O   UNL A   1      41.241  19.993  26.020  1.00  0.00    -0.376 OA
BRANCH   2   3
ATOM      3  C   UNL A   1      40.293  20.835  26.652  1.00  0.00     0.202 C 
BRANCH   3   4
ATOM      4  C   UNL A   1      39.585  22.026  25.982  1.00  0.00     0.261 C 
BRANCH   4   5
ATOM      5  O   UNL A   1      38.243  22.299  26.394  1.00  0.00    -0.460 OA
BRANCH   5   6
ATOM      6  C   UNL A   1      37.301  22.063  25.448  1.00  0.00     0.330 C 
ATOM      7  O   UNL A   1      37.499  21.582  24.342  1.00  0.00    -0.247 OA
BRANCH   6   8
ATOM      8  C   UNL A   1      35.932  22.339  25.926  1.00  0.00     0.094 C 
ATOM      9  C   UNL A   1      34.920  22.821  25.186  1.00  0.00     0.017 C 
BRANCH   9  10
ATOM     10  C   UNL A   1      33.569  22.921  25.665  1.00  0.00    -0.002 A 
ATOM     11  C   UNL A   1      32.459  22.915  24.829  1.00  0.00     0.099 A 
ATOM     12  S   UNL A   1      31.001  23.054  25.732  1.00  0.00    -0.138 S 
ATOM     13  C   UNL A   1      31.833  23.005  27.220  1.00  0.00     0.066 A 
ATOM     14  C   UNL A   1      33.198  22.962  27.046  1.00  0.00     0.020 A 
BRANCH  11  15
ATOM     15  C   UNL A   1      32.346  22.816  23.381  1.00  0.00     0.266 C 
ATOM     16  N   UNL A   1      31.932  23.902  22.628  1.00  0.00    -0.321 N 
ATOM     17  H   UNL A   1      31.651  23.673  21.713  1.00  0.00     0.170 HD
ATOM     18  O   UNL A   1      32.537  21.764  22.765  1.00  0.00    -0.268 OA
BRANCH  16  19
ATOM     19  C   UNL A   1      31.840  25.273  22.934  1.00  0.00     0.044 A 
ATOM     20  C   UNL A   1      33.987  28.344  22.415  1.00  0.00     0.067 C 
ATOM     21  C   UNL A   1      32.860  27.441  22.813  1.00  0.00     0.039 A 
ATOM     22  C   UNL A   1      32.954  26.064  22.649  1.00  0.00     0.049 A 
ATOM     23  N   UNL A   1      31.735  28.042  23.258  1.00  0.00    -0.261 NA
ATOM     24  C   UNL A   1      30.688  27.256  23.575  1.00  0.00     0.113 A 
ATOM     25  C   UNL A   1      30.703  25.877  23.461  1.00  0.00     0.046 A 
ENDBRANCH  16  19
ENDBRANCH  11  15
ENDBRANCH   9  10
ENDBRANCH   6   8
ENDBRANCH   5   6
ENDBRANCH   4   5
ENDBRANCH   3   4
ENDBRANCH   2   3
ENDBRANCH   1   2
BRANCH   1  26
ATOM     26  C   UNL A   1      43.175  21.637  26.173  1.00  0.00     0.188 C 
BRANCH  26  27
ATOM     27  O   UNL A   1      44.203  21.976  25.272  1.00  0.00    -0.376 OA
BRANCH  27  28
ATOM     28  C   UNL A   1      45.264  22.811  25.704  1.00  0.00     0.202 C 
BRANCH  28  29
ATOM     29  C   UNL A   1      45.295  24.353  25.610  1.00  0.00     0.261 C 
BRANCH  29  30
ATOM     30  O   UNL A   1      44.589  25.111  26.596  1.00  0.00    -0.460 OA
BRANCH  30  31
ATOM     31  C   UNL A   1      43.566  25.870  26.131  1.00  0.00     0.338 C 
ATOM     32  O   UNL A   1      43.080  25.839  25.008  1.00  0.00    -0.246 OA
BRANCH  31  33
ATOM     33  C   UNL A   1      42.966  26.612  27.254  1.00  0.00     0.060 A 
ATOM     34  C   UNL A   1      43.137  28.004  27.319  1.00  0.00     0.016 A 
ATOM     35  C   UNL A   1      42.266  25.939  28.255  1.00  0.00     0.016 A 
ATOM     36  C   UNL A   1      42.618  28.724  28.394  1.00  0.00     0.010 A 
ATOM     37  C   UNL A   1      41.772  26.660  29.347  1.00  0.00     0.010 A 
ATOM     38  C   UNL A   1      41.968  28.051  29.434  1.00  0.00    -0.014 A 
BRANCH  38  39
ATOM     39  C   UNL A   1      41.652  28.763  30.698  1.00  0.00     0.031 A 
ATOM     40  C   UNL A   1      40.479  29.706  30.713  1.00  0.00     0.074 A 
ATOM     41  C   UNL A   1      42.389  28.581  31.808  1.00  0.00     0.049 A 
ATOM     42  N   UNL A   1      40.067  30.504  31.662  1.00  0.00    -0.248 NA
ATOM     43  C   UNL A   1      39.663  29.756  29.487  1.00  0.00     0.031 C 
ATOM     44  C   UNL A   1      43.523  27.667  31.931  1.00  0.00     0.029 A 
ATOM     45  N   UNL A   1      42.303  29.178  33.042  1.00  0.00    -0.354 N 
ATOM     46  C   UNL A   1      38.958  31.164  31.147  1.00  0.00     0.074 A 
ATOM     47  C   UNL A   1      38.773  30.689  29.793  1.00  0.00     0.031 C 
ATOM     48  C   UNL A   1      44.043  27.781  33.166  1.00  0.00     0.029 A 
ATOM     49  C   UNL A   1      43.304  28.802  33.907  1.00  0.00     0.049 A 
ATOM     50  H   UNL A   1      41.592  29.815  33.284  1.00  0.00     0.167 HD
ATOM     51  C   UNL A   1      38.163  32.081  31.748  1.00  0.00     0.037 A 
ATOM     52  C   UNL A   1      43.606  29.255  35.141  1.00  0.00     0.037 A 
ATOM     53  C   UNL A   1      38.353  32.547  33.097  1.00  0.00     0.049 A 
ATOM     54  C   UNL A   1      42.746  30.325  35.768  1.00  0.00     0.074 A 
ATOM     55  C   UNL A   1      37.587  33.457  33.806  1.00  0.00     0.029 A 
ATOM     56  N   UNL A   1      39.383  32.152  33.937  1.00  0.00    -0.354 N 
ATOM     57  N   UNL A   1      41.684  30.923  35.280  1.00  0.00    -0.248 NA
ATOM     58  C   UNL A   1      43.122  30.781  37.114  1.00  0.00     0.031 C 
ATOM     59  C   UNL A   1      38.188  33.655  35.053  1.00  0.00     0.029 A 
ATOM     60  C   UNL A   1      39.289  32.819  35.147  1.00  0.00     0.049 A 
ATOM     61  H   UNL A   1      40.078  31.494  33.708  1.00  0.00     0.167 HD
ATOM     62  C   UNL A   1      41.247  31.797  36.272  1.00  0.00     0.074 A 
ATOM     63  C   UNL A   1      42.155  31.644  37.390  1.00  0.00     0.031 C 
ATOM     64  C   UNL A   1      40.189  32.647  36.260  1.00  0.00     0.037 A 
BRANCH  51  65
ATOM     65  C   UNL A   1      37.034  32.665  30.946  1.00  0.00     0.058 A 
ATOM     66  C   UNL A   1      35.740  32.123  30.980  1.00  0.00     0.135 A 
ATOM     67  C   UNL A   1      37.240  33.817  30.169  1.00  0.00     0.135 A 
ATOM     68  F   UNL A   1      35.491  31.011  31.691  1.00  0.00    -0.206 F 
ATOM     69  C   UNL A   1      34.694  32.691  30.260  1.00  0.00     0.059 A 
ATOM     70  C   UNL A   1      36.203  34.420  29.464  1.00  0.00     0.059 A 
ATOM     71  F   UNL A   1      38.459  34.374  30.096  1.00  0.00    -0.206 F 
ATOM     72  C   UNL A   1      34.935  33.842  29.507  1.00  0.00     0.060 A 
BRANCH  72  73
ATOM     73  S   UNL A   1      33.562  34.579  28.597  1.00  0.00     0.124 S 
ATOM     74  O   UNL A   1      34.202  35.744  27.996  1.00  0.00    -0.237 OA
ATOM     75  O   UNL A   1      33.191  33.512  27.674  1.00  0.00    -0.237 OA
ATOM     76  O   UNL A   1      32.580  34.872  29.638  1.00  0.00    -0.744 OA
ENDBRANCH  72  73
ENDBRANCH  51  65
BRANCH  52  77
ATOM     77  C   UNL A   1      44.793  28.719  35.865  1.00  0.00     0.058 A 
ATOM     78  C   UNL A   1      46.065  29.283  35.693  1.00  0.00     0.135 A 
ATOM     79  C   UNL A   1      44.680  27.619  36.730  1.00  0.00     0.135 A 
ATOM     80  F   UNL A   1      46.230  30.327  34.866  1.00  0.00    -0.206 F 
ATOM     81  C   UNL A   1      47.187  28.763  36.333  1.00  0.00     0.059 A 
ATOM     82  C   UNL A   1      45.780  27.101  37.406  1.00  0.00     0.059 A 
ATOM     83  F   UNL A   1      43.483  27.046  36.937  1.00  0.00    -0.206 F 
ATOM     84  C   UNL A   1      47.032  27.672  37.191  1.00  0.00     0.060 A 
BRANCH  84  85
ATOM     85  S   UNL A   1      48.489  27.031  38.045  1.00  0.00     0.124 S 
ATOM     86  O   UNL A   1      49.028  26.108  37.054  1.00  0.00    -0.237 OA
ATOM     87  O   UNL A   1      49.266  28.245  38.276  1.00  0.00    -0.237 OA
ATOM     88  O   UNL A   1      47.930  26.415  39.244  1.00  0.00    -0.744 OA
ENDBRANCH  84  85
ENDBRANCH  52  77
BRANCH  64  89
ATOM     89  C   UNL A   1      39.913  33.442  37.509  1.00  0.00     0.058 A 
ATOM     90  C   UNL A   1      40.581  34.643  37.791  1.00  0.00     0.135 A 
ATOM     91  C   UNL A   1      38.914  33.026  38.406  1.00  0.00     0.135 A 
ATOM     92  F   UNL A   1      41.548  35.088  36.972  1.00  0.00    -0.206 F 
ATOM     93  C   UNL A   1      40.287  35.391  38.928  1.00  0.00     0.059 A 
ATOM     94  C   UNL A   1      38.581  33.772  39.531  1.00  0.00     0.059 A 
ATOM     95  F   UNL A   1      38.233  31.890  38.179  1.00  0.00    -0.206 F 
ATOM     96  C   UNL A   1      39.282  34.949  39.791  1.00  0.00     0.060 A 
BRANCH  96  97
ATOM     97  S   UNL A   1      38.885  35.947  41.242  1.00  0.00     0.124 S 
ATOM     98  O   UNL A   1      40.080  35.765  42.060  1.00  0.00    -0.237 OA
ATOM     99  O   UNL A   1      38.706  37.276  40.667  1.00  0.00    -0.237 OA
ATOM    100  O   UNL A   1      37.670  35.325  41.762  1.00  0.00    -0.744 OA
ENDBRANCH  96  97
ENDBRANCH  64  89
ENDBRANCH  38  39
ENDBRANCH  31  33
ENDBRANCH  30  31
ENDBRANCH  29  30
ENDBRANCH  28  29
ENDBRANCH  27  28
ENDBRANCH  26  27
ENDBRANCH   1  26
TORSDOF 23
ENDMDL
