MODEL 1
REMARK VINA RESULT:     -10.6      0.000      0.000
REMARK SMILES O=C(OCCOCCOCCOC(=O)c1cc(Br)ccc1OC(=O)c1ccc(F)cc1)c1ccc(-c2c3nc(c(-c4c(F)cc(S(=O)(=O)[O-])cc4F)c4ccc([nH]4)c(-c4c(F)cc(S(=O)(=O)[O-])cc4F)c4nc(c(-c5c(F)cc(S(=O)(=O)[O-])cc5F)c5ccc2[nH]5)C=C4)C=C3)cc1
REMARK SMILES IDX 7 1 6 2 5 3 4 4 3 5 2 6 1 7 32 8 33 9 97 10 34 11 96 12
REMARK SMILES IDX 35 13 36 14 37 15 90 16 38 17 95 18 89 19 91 20 39 21 94 22
REMARK SMILES IDX 88 23 87 24 40 26 74 27 53 28 73 29 54 30 57 31 72 32 92 33
REMARK SMILES IDX 55 34 56 35 71 37 93 38 58 39 41 40 42 41 51 42 43 43 44 44
REMARK SMILES IDX 50 45 52 46 45 47 46 48 47 49 48 50 49 51 75 52 76 53 85 54
REMARK SMILES IDX 77 55 78 56 84 57 86 58 79 59 80 60 81 61 82 62 83 63 59 64
REMARK SMILES IDX 60 65 69 66 61 67 62 68 68 69 70 70 63 71 64 72 65 73 66 74
REMARK SMILES IDX 67 75 8 76 9 77 10 78 11 79 12 80 13 81 14 82 15 83 16 84
REMARK SMILES IDX 21 85 17 86 20 87 18 88 19 89 22 90 23 91 24 92 25 93 26 94
REMARK SMILES IDX 31 95 27 96 30 97 28 98 29 99
REMARK H PARENT 91 25 57 36
REMARK Flexibility Score: inf
ROOT
ATOM      1  C   UNL A   1      41.236  21.722  26.601  1.00  0.00     0.188 C 
ENDROOT
BRANCH   1   2
ATOM      2  O   UNL A   1      42.102  21.849  25.490  1.00  0.00    -0.376 OA
BRANCH   2   3
ATOM      3  C   UNL A   1      43.431  22.295  25.778  1.00  0.00     0.202 C 
BRANCH   3   4
ATOM      4  C   UNL A   1      43.883  23.727  25.386  1.00  0.00     0.261 C 
BRANCH   4   5
ATOM      5  O   UNL A   1      43.522  24.780  26.303  1.00  0.00    -0.460 OA
BRANCH   5   6
ATOM      6  C   UNL A   1      42.469  25.611  26.125  1.00  0.00     0.338 C 
ATOM      7  O   UNL A   1      41.935  25.724  25.028  1.00  0.00    -0.246 OA
BRANCH   6   8
ATOM      8  C   UNL A   1      42.079  26.498  27.251  1.00  0.00     0.060 A 
ATOM      9  C   UNL A   1      42.652  27.751  27.454  1.00  0.00     0.016 A 
ATOM     10  C   UNL A   1      41.051  26.086  28.108  1.00  0.00     0.016 A 
ATOM     11  C   UNL A   1      42.357  28.501  28.583  1.00  0.00     0.010 A 
ATOM     12  C   UNL A   1      40.670  26.887  29.188  1.00  0.00     0.010 A 
ATOM     13  C   UNL A   1      41.359  28.079  29.459  1.00  0.00    -0.014 A 
BRANCH  13  14
ATOM     14  C   UNL A   1      41.084  28.865  30.682  1.00  0.00     0.031 A 
ATOM     15  C   UNL A   1      39.968  29.867  30.663  1.00  0.00     0.074 A 
ATOM     16  C   UNL A   1      41.790  28.632  31.807  1.00  0.00     0.049 A 
ATOM     17  N   UNL A   1      39.630  30.737  31.575  1.00  0.00    -0.248 NA
ATOM     18  C   UNL A   1      39.106  29.887  29.467  1.00  0.00     0.031 C 
ATOM     19  C   UNL A   1      42.820  27.602  31.960  1.00  0.00     0.029 A 
ATOM     20  N   UNL A   1      41.755  29.241  33.034  1.00  0.00    -0.354 N 
ATOM     21  C   UNL A   1      38.530  31.413  31.062  1.00  0.00     0.074 A 
ATOM     22  C   UNL A   1      38.263  30.871  29.750  1.00  0.00     0.031 C 
ATOM     23  C   UNL A   1      43.332  27.667  33.198  1.00  0.00     0.029 A 
ATOM     24  C   UNL A   1      42.721  28.782  33.900  1.00  0.00     0.049 A 
ATOM     25  H   UNL A   1      41.103  29.939  33.274  1.00  0.00     0.167 HD
ATOM     26  C   UNL A   1      37.810  32.395  31.648  1.00  0.00     0.037 A 
ATOM     27  C   UNL A   1      43.111  29.243  35.103  1.00  0.00     0.037 A 
ATOM     28  C   UNL A   1      38.089  32.898  32.966  1.00  0.00     0.049 A 
ATOM     29  C   UNL A   1      42.379  30.417  35.677  1.00  0.00     0.074 A 
ATOM     30  C   UNL A   1      37.423  33.887  33.666  1.00  0.00     0.029 A 
ATOM     31  N   UNL A   1      39.122  32.453  33.777  1.00  0.00    -0.354 N 
ATOM     32  N   UNL A   1      41.356  31.064  35.172  1.00  0.00    -0.248 NA
ATOM     33  C   UNL A   1      42.847  30.927  36.969  1.00  0.00     0.031 C 
ATOM     34  C   UNL A   1      38.086  34.077  34.880  1.00  0.00     0.029 A 
ATOM     35  C   UNL A   1      39.138  33.175  34.956  1.00  0.00     0.049 A 
ATOM     36  H   UNL A   1      39.750  31.730  33.549  1.00  0.00     0.167 HD
ATOM     37  C   UNL A   1      41.055  32.061  36.086  1.00  0.00     0.074 A 
ATOM     38  C   UNL A   1      41.993  31.920  37.184  1.00  0.00     0.031 C 
ATOM     39  C   UNL A   1      40.092  33.009  36.023  1.00  0.00     0.037 A 
BRANCH  26  40
ATOM     40  C   UNL A   1      36.680  33.008  30.878  1.00  0.00     0.058 A 
ATOM     41  C   UNL A   1      36.938  33.995  29.914  1.00  0.00     0.135 A 
ATOM     42  C   UNL A   1      35.340  32.688  31.146  1.00  0.00     0.135 A 
ATOM     43  F   UNL A   1      38.203  34.323  29.606  1.00  0.00    -0.206 F 
ATOM     44  C   UNL A   1      35.908  34.671  29.269  1.00  0.00     0.059 A 
ATOM     45  C   UNL A   1      34.293  33.337  30.498  1.00  0.00     0.059 A 
ATOM     46  F   UNL A   1      35.040  31.726  32.034  1.00  0.00    -0.206 F 
ATOM     47  C   UNL A   1      34.587  34.343  29.576  1.00  0.00     0.060 A 
BRANCH  47  48
ATOM     48  S   UNL A   1      33.263  35.244  28.745  1.00  0.00     0.124 S 
ATOM     49  O   UNL A   1      32.530  35.809  29.872  1.00  0.00    -0.237 OA
ATOM     50  O   UNL A   1      34.010  36.198  27.929  1.00  0.00    -0.237 OA
ATOM     51  O   UNL A   1      32.564  34.205  27.995  1.00  0.00    -0.744 OA
ENDBRANCH  47  48
ENDBRANCH  26  40
BRANCH  27  52
ATOM     52  C   UNL A   1      44.300  28.670  35.784  1.00  0.00     0.058 A 
ATOM     53  C   UNL A   1      45.580  29.194  35.540  1.00  0.00     0.135 A 
ATOM     54  C   UNL A   1      44.190  27.612  36.697  1.00  0.00     0.135 A 
ATOM     55  F   UNL A   1      45.740  30.195  34.661  1.00  0.00    -0.206 F 
ATOM     56  C   UNL A   1      46.710  28.687  36.174  1.00  0.00     0.059 A 
ATOM     57  C   UNL A   1      45.308  27.086  37.343  1.00  0.00     0.059 A 
ATOM     58  F   UNL A   1      42.985  27.094  36.977  1.00  0.00    -0.206 F 
ATOM     59  C   UNL A   1      46.566  27.621  37.063  1.00  0.00     0.060 A 
BRANCH  59  60
ATOM     60  S   UNL A   1      48.040  26.954  37.869  1.00  0.00     0.124 S 
ATOM     61  O   UNL A   1      48.982  26.889  36.757  1.00  0.00    -0.237 OA
ATOM     62  O   UNL A   1      48.326  27.961  38.886  1.00  0.00    -0.237 OA
ATOM     63  O   UNL A   1      47.582  25.667  38.381  1.00  0.00    -0.744 OA
ENDBRANCH  59  60
ENDBRANCH  27  52
BRANCH  39  64
ATOM     64  C   UNL A   1      40.008  33.974  37.162  1.00  0.00     0.058 A 
ATOM     65  C   UNL A   1      39.121  33.741  38.223  1.00  0.00     0.135 A 
ATOM     66  C   UNL A   1      40.718  35.182  37.137  1.00  0.00     0.135 A 
ATOM     67  F   UNL A   1      38.423  32.596  38.286  1.00  0.00    -0.206 F 
ATOM     68  C   UNL A   1      38.909  34.698  39.205  1.00  0.00     0.059 A 
ATOM     69  C   UNL A   1      40.540  36.144  38.123  1.00  0.00     0.059 A 
ATOM     70  F   UNL A   1      41.590  35.433  36.148  1.00  0.00    -0.206 F 
ATOM     71  C   UNL A   1      39.612  35.903  39.138  1.00  0.00     0.060 A 
BRANCH  71  72
ATOM     72  S   UNL A   1      39.284  37.155  40.392  1.00  0.00     0.124 S 
ATOM     73  O   UNL A   1      40.634  37.552  40.776  1.00  0.00    -0.237 OA
ATOM     74  O   UNL A   1      38.519  38.147  39.642  1.00  0.00    -0.237 OA
ATOM     75  O   UNL A   1      38.529  36.428  41.408  1.00  0.00    -0.744 OA
ENDBRANCH  71  72
ENDBRANCH  39  64
ENDBRANCH  13  14
ENDBRANCH   6   8
ENDBRANCH   5   6
ENDBRANCH   4   5
ENDBRANCH   3   4
ENDBRANCH   2   3
ENDBRANCH   1   2
BRANCH   1  76
ATOM     76  C   UNL A   1      40.121  22.764  26.760  1.00  0.00     0.188 C 
BRANCH  76  77
ATOM     77  O   UNL A   1      38.783  22.347  26.585  1.00  0.00    -0.376 OA
BRANCH  77  78
ATOM     78  C   UNL A   1      38.520  21.512  25.464  1.00  0.00     0.202 C 
BRANCH  78  79
ATOM     79  C   UNL A   1      37.276  21.787  24.602  1.00  0.00     0.261 C 
BRANCH  79  80
ATOM     80  O   UNL A   1      36.384  22.831  25.042  1.00  0.00    -0.460 OA
BRANCH  80  81
ATOM     81  C   UNL A   1      35.396  23.118  24.152  1.00  0.00     0.342 C 
ATOM     82  O   UNL A   1      35.534  23.425  22.981  1.00  0.00    -0.246 OA
BRANCH  81  83
ATOM     83  C   UNL A   1      34.098  23.217  24.827  1.00  0.00     0.103 A 
ATOM     84  C   UNL A   1      33.505  24.483  24.749  1.00  0.00     0.035 A 
ATOM     85  C   UNL A   1      33.375  22.136  25.345  1.00  0.00     0.145 A 
ATOM     86  C   UNL A   1      32.200  24.663  25.189  1.00  0.00     0.019 A 
ATOM     87  C   UNL A   1      32.103  22.359  25.900  1.00  0.00     0.049 A 
ATOM     88  Br  UNL A   1      31.349  26.309  24.856  1.00  0.00    -0.051 Br
ATOM     89  C   UNL A   1      31.508  23.621  25.803  1.00  0.00     0.019 A 
BRANCH  85  90
ATOM     90  O   UNL A   1      33.837  20.810  25.271  1.00  0.00    -0.422 OA
BRANCH  90  91
ATOM     91  C   UNL A   1      33.167  20.125  24.264  1.00  0.00     0.343 C 
ATOM     92  O   UNL A   1      32.535  20.612  23.336  1.00  0.00    -0.246 OA
BRANCH  91  93
ATOM     93  C   UNL A   1      33.190  18.654  24.468  1.00  0.00     0.060 A 
ATOM     94  C   UNL A   1      32.730  18.149  25.690  1.00  0.00     0.019 A 
ATOM     95  C   UNL A   1      33.540  17.758  23.458  1.00  0.00     0.019 A 
ATOM     96  C   UNL A   1      32.644  16.768  25.896  1.00  0.00     0.040 A 
ATOM     97  C   UNL A   1      33.475  16.377  23.665  1.00  0.00     0.040 A 
ATOM     98  C   UNL A   1      33.021  15.895  24.883  1.00  0.00     0.123 A 
ATOM     99  F   UNL A   1      32.912  14.572  25.069  1.00  0.00    -0.207 F 
ENDBRANCH  91  93
ENDBRANCH  90  91
ENDBRANCH  85  90
ENDBRANCH  81  83
ENDBRANCH  80  81
ENDBRANCH  79  80
ENDBRANCH  78  79
ENDBRANCH  77  78
ENDBRANCH  76  77
ENDBRANCH   1  76
TORSDOF 23
ENDMDL
MODEL 2
REMARK VINA RESULT:     -10.4      2.843      9.300
REMARK SMILES O=C(OCCOCCOCCOC(=O)c1cc(Br)ccc1OC(=O)c1ccc(F)cc1)c1ccc(-c2c3nc(c(-c4c(F)cc(S(=O)(=O)[O-])cc4F)c4ccc([nH]4)c(-c4c(F)cc(S(=O)(=O)[O-])cc4F)c4nc(c(-c5c(F)cc(S(=O)(=O)[O-])cc5F)c5ccc2[nH]5)C=C4)C=C3)cc1
REMARK SMILES IDX 7 1 6 2 5 3 4 4 3 5 2 6 1 7 32 8 33 9 97 10 34 11 96 12
REMARK SMILES IDX 35 13 36 14 37 15 90 16 38 17 95 18 89 19 91 20 39 21 94 22
REMARK SMILES IDX 88 23 87 24 40 26 74 27 53 28 73 29 54 30 57 31 72 32 92 33
REMARK SMILES IDX 55 34 56 35 71 37 93 38 58 39 41 40 42 41 51 42 43 43 44 44
REMARK SMILES IDX 50 45 52 46 45 47 46 48 47 49 48 50 49 51 75 52 76 53 85 54
REMARK SMILES IDX 77 55 78 56 84 57 86 58 79 59 80 60 81 61 82 62 83 63 59 64
REMARK SMILES IDX 60 65 69 66 61 67 62 68 68 69 70 70 63 71 64 72 65 73 66 74
REMARK SMILES IDX 67 75 8 76 9 77 10 78 11 79 12 80 13 81 14 82 15 83 16 84
REMARK SMILES IDX 21 85 17 86 20 87 18 88 19 89 22 90 23 91 24 92 25 93 26 94
REMARK SMILES IDX 31 95 27 96 30 97 28 98 29 99
REMARK H PARENT 91 25 57 36
REMARK Flexibility Score: inf
ROOT
ATOM      1  C   UNL A   1      35.779  21.415  24.673  1.00  0.00     0.188 C 
ENDROOT
BRANCH   1   2
ATOM      2  O   UNL A   1      36.737  21.407  25.714  1.00  0.00    -0.376 OA
BRANCH   2   3
ATOM      3  C   UNL A   1      37.904  22.208  25.499  1.00  0.00     0.202 C 
BRANCH   3   4
ATOM      4  C   UNL A   1      38.106  23.533  26.282  1.00  0.00     0.261 C 
BRANCH   4   5
ATOM      5  O   UNL A   1      39.374  24.194  26.094  1.00  0.00    -0.460 OA
BRANCH   5   6
ATOM      6  C   UNL A   1      40.324  24.297  27.053  1.00  0.00     0.338 C 
ATOM      7  O   UNL A   1      41.099  23.374  27.271  1.00  0.00    -0.246 OA
BRANCH   6   8
ATOM      8  C   UNL A   1      40.299  25.490  27.938  1.00  0.00     0.060 A 
ATOM      9  C   UNL A   1      41.241  26.512  27.849  1.00  0.00     0.016 A 
ATOM     10  C   UNL A   1      39.251  25.623  28.858  1.00  0.00     0.016 A 
ATOM     11  C   UNL A   1      41.264  27.549  28.770  1.00  0.00     0.010 A 
ATOM     12  C   UNL A   1      39.204  26.724  29.718  1.00  0.00     0.010 A 
ATOM     13  C   UNL A   1      40.242  27.668  29.711  1.00  0.00    -0.014 A 
BRANCH  13  14
ATOM     14  C   UNL A   1      40.302  28.753  30.716  1.00  0.00     0.031 A 
ATOM     15  C   UNL A   1      41.294  28.649  31.836  1.00  0.00     0.074 A 
ATOM     16  C   UNL A   1      39.518  29.841  30.581  1.00  0.00     0.049 A 
ATOM     17  N   UNL A   1      41.439  29.420  32.879  1.00  0.00    -0.248 NA
ATOM     18  C   UNL A   1      42.264  27.540  31.771  1.00  0.00     0.031 C 
ATOM     19  C   UNL A   1      38.601  30.089  29.465  1.00  0.00     0.029 A 
ATOM     20  N   UNL A   1      39.360  30.943  31.381  1.00  0.00    -0.354 N 
ATOM     21  C   UNL A   1      42.500  28.886  33.598  1.00  0.00     0.074 A 
ATOM     22  C   UNL A   1      42.958  27.714  32.888  1.00  0.00     0.031 C 
ATOM     23  C   UNL A   1      37.963  31.252  29.665  1.00  0.00     0.029 A 
ATOM     24  C   UNL A   1      38.371  31.796  30.949  1.00  0.00     0.049 A 
ATOM     25  H   UNL A   1      39.902  31.108  32.186  1.00  0.00     0.167 HD
ATOM     26  C   UNL A   1      43.043  29.348  34.746  1.00  0.00     0.037 A 
ATOM     27  C   UNL A   1      37.813  32.865  31.546  1.00  0.00     0.037 A 
ATOM     28  C   UNL A   1      42.578  30.531  35.418  1.00  0.00     0.049 A 
ATOM     29  C   UNL A   1      38.345  33.282  32.882  1.00  0.00     0.074 A 
ATOM     30  C   UNL A   1      43.054  31.099  36.585  1.00  0.00     0.029 A 
ATOM     31  N   UNL A   1      41.526  31.323  34.982  1.00  0.00    -0.354 N 
ATOM     32  N   UNL A   1      39.335  32.755  33.564  1.00  0.00    -0.248 NA
ATOM     33  C   UNL A   1      37.695  34.424  33.532  1.00  0.00     0.031 C 
ATOM     34  C   UNL A   1      42.255  32.205  36.883  1.00  0.00     0.029 A 
ATOM     35  C   UNL A   1      41.310  32.353  35.879  1.00  0.00     0.049 A 
ATOM     36  H   UNL A   1      41.009  31.175  34.157  1.00  0.00     0.167 HD
ATOM     37  C   UNL A   1      39.427  33.503  34.727  1.00  0.00     0.074 A 
ATOM     38  C   UNL A   1      38.406  34.530  34.648  1.00  0.00     0.031 C 
ATOM     39  C   UNL A   1      40.279  33.353  35.768  1.00  0.00     0.037 A 
BRANCH  26  40
ATOM     40  C   UNL A   1      44.168  28.575  35.366  1.00  0.00     0.058 A 
ATOM     41  C   UNL A   1      45.491  28.812  34.961  1.00  0.00     0.135 A 
ATOM     42  C   UNL A   1      43.940  27.545  36.291  1.00  0.00     0.135 A 
ATOM     43  F   UNL A   1      45.765  29.799  34.093  1.00  0.00    -0.206 F 
ATOM     44  C   UNL A   1      46.545  28.032  35.424  1.00  0.00     0.059 A 
ATOM     45  C   UNL A   1      44.981  26.764  36.783  1.00  0.00     0.059 A 
ATOM     46  F   UNL A   1      42.696  27.301  36.736  1.00  0.00    -0.206 F 
ATOM     47  C   UNL A   1      46.278  27.002  36.327  1.00  0.00     0.060 A 
BRANCH  47  48
ATOM     48  S   UNL A   1      47.656  25.986  36.901  1.00  0.00     0.124 S 
ATOM     49  O   UNL A   1      47.332  24.686  36.324  1.00  0.00    -0.237 OA
ATOM     50  O   UNL A   1      48.804  26.674  36.318  1.00  0.00    -0.237 OA
ATOM     51  O   UNL A   1      47.557  26.072  38.355  1.00  0.00    -0.744 OA
ENDBRANCH  47  48
ENDBRANCH  26  40
BRANCH  27  52
ATOM     52  C   UNL A   1      36.633  33.539  30.944  1.00  0.00     0.058 A 
ATOM     53  C   UNL A   1      36.780  34.348  29.806  1.00  0.00     0.135 A 
ATOM     54  C   UNL A   1      35.344  33.381  31.472  1.00  0.00     0.135 A 
ATOM     55  F   UNL A   1      37.997  34.546  29.275  1.00  0.00    -0.206 F 
ATOM     56  C   UNL A   1      35.692  34.981  29.214  1.00  0.00     0.059 A 
ATOM     57  C   UNL A   1      34.239  34.006  30.897  1.00  0.00     0.059 A 
ATOM     58  F   UNL A   1      35.152  32.600  32.546  1.00  0.00    -0.206 F 
ATOM     59  C   UNL A   1      34.425  34.817  29.777  1.00  0.00     0.060 A 
BRANCH  59  60
ATOM     60  S   UNL A   1      33.018  35.656  29.014  1.00  0.00     0.124 S 
ATOM     61  O   UNL A   1      33.674  36.749  28.305  1.00  0.00    -0.237 OA
ATOM     62  O   UNL A   1      32.444  34.609  28.175  1.00  0.00    -0.237 OA
ATOM     63  O   UNL A   1      32.206  36.048  30.161  1.00  0.00    -0.744 OA
ENDBRANCH  59  60
ENDBRANCH  27  52
BRANCH  39  64
ATOM     64  C   UNL A   1      40.138  34.309  36.909  1.00  0.00     0.058 A 
ATOM     65  C   UNL A   1      39.194  34.074  37.918  1.00  0.00     0.135 A 
ATOM     66  C   UNL A   1      40.857  35.513  36.932  1.00  0.00     0.135 A 
ATOM     67  F   UNL A   1      38.486  32.933  37.933  1.00  0.00    -0.206 F 
ATOM     68  C   UNL A   1      38.934  35.025  38.895  1.00  0.00     0.059 A 
ATOM     69  C   UNL A   1      40.631  36.469  37.914  1.00  0.00     0.059 A 
ATOM     70  F   UNL A   1      41.783  35.765  35.994  1.00  0.00    -0.206 F 
ATOM     71  C   UNL A   1      39.647  36.226  38.875  1.00  0.00     0.060 A 
BRANCH  71  72
ATOM     72  S   UNL A   1      39.259  37.471  40.119  1.00  0.00     0.124 S 
ATOM     73  O   UNL A   1      38.189  38.219  39.467  1.00  0.00    -0.237 OA
ATOM     74  O   UNL A   1      38.859  36.650  41.258  1.00  0.00    -0.237 OA
ATOM     75  O   UNL A   1      40.518  38.190  40.285  1.00  0.00    -0.744 OA
ENDBRANCH  71  72
ENDBRANCH  39  64
ENDBRANCH  13  14
ENDBRANCH   6   8
ENDBRANCH   5   6
ENDBRANCH   4   5
ENDBRANCH   3   4
ENDBRANCH   2   3
ENDBRANCH   1   2
BRANCH   1  76
ATOM     76  C   UNL A   1      34.576  22.355  24.818  1.00  0.00     0.188 C 
BRANCH  76  77
ATOM     77  O   UNL A   1      33.311  21.790  25.089  1.00  0.00    -0.376 OA
BRANCH  77  78
ATOM     78  C   UNL A   1      32.184  22.635  24.890  1.00  0.00     0.202 C 
BRANCH  78  79
ATOM     79  C   UNL A   1      32.411  24.096  24.465  1.00  0.00     0.261 C 
BRANCH  79  80
ATOM     80  O   UNL A   1      32.990  24.986  25.440  1.00  0.00    -0.460 OA
BRANCH  80  81
ATOM     81  C   UNL A   1      32.075  25.576  26.256  1.00  0.00     0.342 C 
ATOM     82  O   UNL A   1      31.164  25.025  26.850  1.00  0.00    -0.246 OA
BRANCH  81  83
ATOM     83  C   UNL A   1      32.180  27.036  26.190  1.00  0.00     0.103 A 
ATOM     84  C   UNL A   1      33.336  27.556  26.784  1.00  0.00     0.035 A 
ATOM     85  C   UNL A   1      31.339  27.871  25.445  1.00  0.00     0.145 A 
ATOM     86  C   UNL A   1      33.645  28.903  26.633  1.00  0.00     0.019 A 
ATOM     87  C   UNL A   1      31.597  29.253  25.405  1.00  0.00     0.049 A 
ATOM     88  Br  UNL A   1      35.317  29.523  27.236  1.00  0.00    -0.051 Br
ATOM     89  C   UNL A   1      32.763  29.764  25.984  1.00  0.00     0.019 A 
BRANCH  85  90
ATOM     90  O   UNL A   1      30.277  27.378  24.665  1.00  0.00    -0.422 OA
BRANCH  90  91
ATOM     91  C   UNL A   1      30.542  27.575  23.315  1.00  0.00     0.343 C 
ATOM     92  O   UNL A   1      31.413  27.032  22.648  1.00  0.00    -0.246 OA
BRANCH  91  93
ATOM     93  C   UNL A   1      29.697  28.643  22.723  1.00  0.00     0.060 A 
ATOM     94  C   UNL A   1      28.338  28.671  23.056  1.00  0.00     0.019 A 
ATOM     95  C   UNL A   1      30.222  29.677  21.948  1.00  0.00     0.019 A 
ATOM     96  C   UNL A   1      27.520  29.710  22.599  1.00  0.00     0.040 A 
ATOM     97  C   UNL A   1      29.406  30.707  21.472  1.00  0.00     0.040 A 
ATOM     98  C   UNL A   1      28.061  30.717  21.809  1.00  0.00     0.123 A 
ATOM     99  F   UNL A   1      27.285  31.728  21.395  1.00  0.00    -0.207 F 
ENDBRANCH  91  93
ENDBRANCH  90  91
ENDBRANCH  85  90
ENDBRANCH  81  83
ENDBRANCH  80  81
ENDBRANCH  79  80
ENDBRANCH  78  79
ENDBRANCH  77  78
ENDBRANCH  76  77
ENDBRANCH   1  76
TORSDOF 23
ENDMDL
MODEL 3
REMARK VINA RESULT:     -10.4      2.625      9.337
REMARK SMILES O=C(OCCOCCOCCOC(=O)c1cc(Br)ccc1OC(=O)c1ccc(F)cc1)c1ccc(-c2c3nc(c(-c4c(F)cc(S(=O)(=O)[O-])cc4F)c4ccc([nH]4)c(-c4c(F)cc(S(=O)(=O)[O-])cc4F)c4nc(c(-c5c(F)cc(S(=O)(=O)[O-])cc5F)c5ccc2[nH]5)C=C4)C=C3)cc1
REMARK SMILES IDX 7 1 6 2 5 3 4 4 3 5 2 6 1 7 32 8 33 9 97 10 34 11 96 12
REMARK SMILES IDX 35 13 36 14 37 15 90 16 38 17 95 18 89 19 91 20 39 21 94 22
REMARK SMILES IDX 88 23 87 24 40 26 74 27 53 28 73 29 54 30 57 31 72 32 92 33
REMARK SMILES IDX 55 34 56 35 71 37 93 38 58 39 41 40 42 41 51 42 43 43 44 44
REMARK SMILES IDX 50 45 52 46 45 47 46 48 47 49 48 50 49 51 75 52 76 53 85 54
REMARK SMILES IDX 77 55 78 56 84 57 86 58 79 59 80 60 81 61 82 62 83 63 59 64
REMARK SMILES IDX 60 65 69 66 61 67 62 68 68 69 70 70 63 71 64 72 65 73 66 74
REMARK SMILES IDX 67 75 8 76 9 77 10 78 11 79 12 80 13 81 14 82 15 83 16 84
REMARK SMILES IDX 21 85 17 86 20 87 18 88 19 89 22 90 23 91 24 92 25 93 26 94
REMARK SMILES IDX 31 95 27 96 30 97 28 98 29 99
REMARK H PARENT 91 25 57 36
REMARK Flexibility Score: inf
ROOT
ATOM      1  C   UNL A   1      35.824  21.583  24.639  1.00  0.00     0.188 C 
ENDROOT
BRANCH   1   2
ATOM      2  O   UNL A   1      36.615  21.659  25.810  1.00  0.00    -0.376 OA
BRANCH   2   3
ATOM      3  C   UNL A   1      37.896  22.281  25.663  1.00  0.00     0.202 C 
BRANCH   3   4
ATOM      4  C   UNL A   1      38.181  23.662  26.310  1.00  0.00     0.261 C 
BRANCH   4   5
ATOM      5  O   UNL A   1      39.506  24.194  26.112  1.00  0.00    -0.460 OA
BRANCH   5   6
ATOM      6  C   UNL A   1      40.440  24.284  27.088  1.00  0.00     0.338 C 
ATOM      7  O   UNL A   1      41.199  23.351  27.319  1.00  0.00    -0.246 OA
BRANCH   6   8
ATOM      8  C   UNL A   1      40.416  25.477  27.973  1.00  0.00     0.060 A 
ATOM      9  C   UNL A   1      41.406  26.456  27.943  1.00  0.00     0.016 A 
ATOM     10  C   UNL A   1      39.322  25.657  28.829  1.00  0.00     0.016 A 
ATOM     11  C   UNL A   1      41.419  27.491  28.867  1.00  0.00     0.010 A 
ATOM     12  C   UNL A   1      39.272  26.759  29.688  1.00  0.00     0.010 A 
ATOM     13  C   UNL A   1      40.350  27.655  29.746  1.00  0.00    -0.014 A 
BRANCH  13  14
ATOM     14  C   UNL A   1      40.397  28.737  30.755  1.00  0.00     0.031 A 
ATOM     15  C   UNL A   1      41.386  28.635  31.879  1.00  0.00     0.074 A 
ATOM     16  C   UNL A   1      39.606  29.820  30.621  1.00  0.00     0.049 A 
ATOM     17  N   UNL A   1      41.520  29.402  32.926  1.00  0.00    -0.248 NA
ATOM     18  C   UNL A   1      42.363  27.533  31.813  1.00  0.00     0.031 C 
ATOM     19  C   UNL A   1      38.692  30.066  29.503  1.00  0.00     0.029 A 
ATOM     20  N   UNL A   1      39.437  30.917  31.425  1.00  0.00    -0.354 N 
ATOM     21  C   UNL A   1      42.583  28.873  33.646  1.00  0.00     0.074 A 
ATOM     22  C   UNL A   1      43.052  27.708  32.934  1.00  0.00     0.031 C 
ATOM     23  C   UNL A   1      38.045  31.223  29.705  1.00  0.00     0.029 A 
ATOM     24  C   UNL A   1      38.443  31.765  30.992  1.00  0.00     0.049 A 
ATOM     25  H   UNL A   1      39.974  31.083  32.233  1.00  0.00     0.167 HD
ATOM     26  C   UNL A   1      43.117  29.334  34.799  1.00  0.00     0.037 A 
ATOM     27  C   UNL A   1      37.875  32.827  31.591  1.00  0.00     0.037 A 
ATOM     28  C   UNL A   1      42.641  30.511  35.474  1.00  0.00     0.049 A 
ATOM     29  C   UNL A   1      38.399  33.243  32.931  1.00  0.00     0.074 A 
ATOM     30  C   UNL A   1      43.109  31.078  36.645  1.00  0.00     0.029 A 
ATOM     31  N   UNL A   1      41.585  31.298  35.037  1.00  0.00    -0.354 N 
ATOM     32  N   UNL A   1      39.389  32.720  33.615  1.00  0.00    -0.248 NA
ATOM     33  C   UNL A   1      37.738  34.377  33.584  1.00  0.00     0.031 C 
ATOM     34  C   UNL A   1      42.300  32.177  36.945  1.00  0.00     0.029 A 
ATOM     35  C   UNL A   1      41.358  32.322  35.937  1.00  0.00     0.049 A 
ATOM     36  H   UNL A   1      41.073  31.149  34.209  1.00  0.00     0.167 HD
ATOM     37  C   UNL A   1      39.472  33.464  34.782  1.00  0.00     0.074 A 
ATOM     38  C   UNL A   1      38.444  34.484  34.702  1.00  0.00     0.031 C 
ATOM     39  C   UNL A   1      40.320  33.315  35.826  1.00  0.00     0.037 A 
BRANCH  26  40
ATOM     40  C   UNL A   1      44.245  28.567  35.420  1.00  0.00     0.058 A 
ATOM     41  C   UNL A   1      43.991  27.660  36.461  1.00  0.00     0.135 A 
ATOM     42  C   UNL A   1      45.582  28.785  35.052  1.00  0.00     0.135 A 
ATOM     43  F   UNL A   1      42.729  27.401  36.837  1.00  0.00    -0.206 F 
ATOM     44  C   UNL A   1      45.024  27.023  37.141  1.00  0.00     0.059 A 
ATOM     45  C   UNL A   1      46.631  28.144  35.704  1.00  0.00     0.059 A 
ATOM     46  F   UNL A   1      45.876  29.616  34.039  1.00  0.00    -0.206 F 
ATOM     47  C   UNL A   1      46.342  27.281  36.762  1.00  0.00     0.060 A 
BRANCH  47  48
ATOM     48  S   UNL A   1      47.671  26.462  37.669  1.00  0.00     0.124 S 
ATOM     49  O   UNL A   1      48.674  27.517  37.751  1.00  0.00    -0.237 OA
ATOM     50  O   UNL A   1      47.011  26.111  38.924  1.00  0.00    -0.237 OA
ATOM     51  O   UNL A   1      48.016  25.329  36.815  1.00  0.00    -0.744 OA
ENDBRANCH  47  48
ENDBRANCH  26  40
BRANCH  27  52
ATOM     52  C   UNL A   1      36.693  33.495  30.988  1.00  0.00     0.058 A 
ATOM     53  C   UNL A   1      36.843  34.330  29.869  1.00  0.00     0.135 A 
ATOM     54  C   UNL A   1      35.400  33.306  31.494  1.00  0.00     0.135 A 
ATOM     55  F   UNL A   1      38.063  34.559  29.359  1.00  0.00    -0.206 F 
ATOM     56  C   UNL A   1      35.753  34.958  29.275  1.00  0.00     0.059 A 
ATOM     57  C   UNL A   1      34.293  33.925  30.917  1.00  0.00     0.059 A 
ATOM     58  F   UNL A   1      35.206  32.500  32.548  1.00  0.00    -0.206 F 
ATOM     59  C   UNL A   1      34.482  34.763  29.817  1.00  0.00     0.060 A 
BRANCH  59  60
ATOM     60  S   UNL A   1      33.071  35.596  29.052  1.00  0.00     0.124 S 
ATOM     61  O   UNL A   1      32.292  35.991  30.220  1.00  0.00    -0.237 OA
ATOM     62  O   UNL A   1      33.709  36.683  28.317  1.00  0.00    -0.237 OA
ATOM     63  O   UNL A   1      32.479  34.550  28.225  1.00  0.00    -0.744 OA
ENDBRANCH  59  60
ENDBRANCH  27  52
BRANCH  39  64
ATOM     64  C   UNL A   1      40.168  34.266  36.970  1.00  0.00     0.058 A 
ATOM     65  C   UNL A   1      39.367  33.927  38.070  1.00  0.00     0.135 A 
ATOM     66  C   UNL A   1      40.720  35.553  36.914  1.00  0.00     0.135 A 
ATOM     67  F   UNL A   1      38.821  32.704  38.162  1.00  0.00    -0.206 F 
ATOM     68  C   UNL A   1      39.082  34.855  39.063  1.00  0.00     0.059 A 
ATOM     69  C   UNL A   1      40.468  36.489  37.910  1.00  0.00     0.059 A 
ATOM     70  F   UNL A   1      41.508  35.907  35.887  1.00  0.00    -0.206 F 
ATOM     71  C   UNL A   1      39.625  36.137  38.965  1.00  0.00     0.060 A 
BRANCH  71  72
ATOM     72  S   UNL A   1      39.201  37.343  40.236  1.00  0.00     0.124 S 
ATOM     73  O   UNL A   1      40.518  37.802  40.662  1.00  0.00    -0.237 OA
ATOM     74  O   UNL A   1      38.402  38.309  39.487  1.00  0.00    -0.237 OA
ATOM     75  O   UNL A   1      38.462  36.556  41.218  1.00  0.00    -0.744 OA
ENDBRANCH  71  72
ENDBRANCH  39  64
ENDBRANCH  13  14
ENDBRANCH   6   8
ENDBRANCH   5   6
ENDBRANCH   4   5
ENDBRANCH   3   4
ENDBRANCH   2   3
ENDBRANCH   1   2
BRANCH   1  76
ATOM     76  C   UNL A   1      34.604  22.508  24.541  1.00  0.00     0.188 C 
BRANCH  76  77
ATOM     77  O   UNL A   1      33.318  21.924  24.536  1.00  0.00    -0.376 OA
BRANCH  77  78
ATOM     78  C   UNL A   1      32.318  22.602  23.785  1.00  0.00     0.202 C 
BRANCH  78  79
ATOM     79  C   UNL A   1      32.576  24.050  23.335  1.00  0.00     0.261 C 
BRANCH  79  80
ATOM     80  O   UNL A   1      32.083  25.106  24.185  1.00  0.00    -0.460 OA
BRANCH  80  81
ATOM     81  C   UNL A   1      30.827  25.522  23.870  1.00  0.00     0.342 C 
ATOM     82  O   UNL A   1      29.893  24.822  23.519  1.00  0.00    -0.246 OA
BRANCH  81  83
ATOM     83  C   UNL A   1      30.762  26.985  23.805  1.00  0.00     0.103 A 
ATOM     84  C   UNL A   1      29.645  27.480  23.119  1.00  0.00     0.035 A 
ATOM     85  C   UNL A   1      31.597  27.861  24.509  1.00  0.00     0.145 A 
ATOM     86  C   UNL A   1      29.371  28.842  23.140  1.00  0.00     0.019 A 
ATOM     87  C   UNL A   1      31.377  29.246  24.417  1.00  0.00     0.049 A 
ATOM     88  Br  UNL A   1      27.743  29.449  22.415  1.00  0.00    -0.051 Br
ATOM     89  C   UNL A   1      30.250  29.734  23.748  1.00  0.00     0.019 A 
BRANCH  85  90
ATOM     90  O   UNL A   1      32.612  27.411  25.372  1.00  0.00    -0.422 OA
BRANCH  90  91
ATOM     91  C   UNL A   1      32.361  27.839  26.670  1.00  0.00     0.343 C 
ATOM     92  O   UNL A   1      31.488  27.431  27.425  1.00  0.00    -0.246 OA
BRANCH  91  93
ATOM     93  C   UNL A   1      33.226  28.979  27.068  1.00  0.00     0.060 A 
ATOM     94  C   UNL A   1      34.612  28.777  27.099  1.00  0.00     0.019 A 
ATOM     95  C   UNL A   1      32.727  30.261  27.295  1.00  0.00     0.019 A 
ATOM     96  C   UNL A   1      35.474  29.843  27.376  1.00  0.00     0.040 A 
ATOM     97  C   UNL A   1      33.582  31.325  27.591  1.00  0.00     0.040 A 
ATOM     98  C   UNL A   1      34.952  31.107  27.623  1.00  0.00     0.123 A 
ATOM     99  F   UNL A   1      35.778  32.134  27.859  1.00  0.00    -0.207 F 
ENDBRANCH  91  93
ENDBRANCH  90  91
ENDBRANCH  85  90
ENDBRANCH  81  83
ENDBRANCH  80  81
ENDBRANCH  79  80
ENDBRANCH  78  79
ENDBRANCH  77  78
ENDBRANCH  76  77
ENDBRANCH   1  76
TORSDOF 23
ENDMDL
