MODEL 1
REMARK VINA RESULT:      -9.9      0.000      0.000
REMARK SMILES CCC[NH2+]CC(=O)N1CCC(CC(=O)OCCOCCOCCOC(=O)c2ccc(-c3c4nc(c(-c5c(F)cc(S(=O)(=O)[O-])cc5F)c5ccc([nH]5)c(-c5c(F)cc(S(=O)(=O)[O-])cc5F)c5nc(c(-c6c(F)cc(S(=O)(=O)[O-])cc6F)c6ccc3[nH]6)C=C5)C=C4)cc2)CC1
REMARK SMILES IDX 19 1 18 2 17 3 16 4 15 5 13 6 14 7 12 8 11 9 6 10 7 11 8 12
REMARK SMILES IDX 9 13 94 14 10 15 93 16 5 17 4 18 3 21 2 22 1 23 20 24 21 25
REMARK SMILES IDX 22 26 23 27 24 28 25 29 26 30 27 31 28 32 92 33 29 34 91 35
REMARK SMILES IDX 30 36 31 37 32 38 85 39 33 40 90 41 84 42 86 43 34 44 89 45
REMARK SMILES IDX 83 46 82 47 35 49 69 50 48 51 68 52 49 53 52 54 67 55 87 56
REMARK SMILES IDX 50 57 51 58 66 60 88 61 53 62 36 63 37 64 46 65 38 66 39 67
REMARK SMILES IDX 45 68 47 69 40 70 41 71 42 72 43 73 44 74 70 75 71 76 80 77
REMARK SMILES IDX 72 78 73 79 79 80 81 81 74 82 75 83 76 84 77 85 78 86 54 87
REMARK SMILES IDX 55 88 64 89 56 90 57 91 63 92 65 93 58 94 59 95 60 96 61 97
REMARK SMILES IDX 62 98
REMARK H PARENT 4 19 4 20 86 48 52 59
REMARK Flexibility Score: inf
ROOT
ATOM      1  C   UNL A   1      36.733  21.180  25.699  1.00  0.00     0.188 C 
ENDROOT
BRANCH   1   2
ATOM      2  O   UNL A   1      35.853  21.130  24.579  1.00  0.00    -0.376 OA
BRANCH   2   3
ATOM      3  C   UNL A   1      34.497  20.782  24.848  1.00  0.00     0.202 C 
BRANCH   3   4
ATOM      4  C   UNL A   1      33.510  21.953  24.964  1.00  0.00     0.261 C 
BRANCH   4   5
ATOM      5  O   UNL A   1      32.421  21.698  25.873  1.00  0.00    -0.463 OA
BRANCH   5   6
ATOM      6  C   UNL A   1      32.070  22.725  26.687  1.00  0.00     0.306 C 
ATOM      7  O   UNL A   1      32.413  22.836  27.860  1.00  0.00    -0.252 OA
BRANCH   6   8
ATOM      8  C   UNL A   1      31.265  23.811  25.998  1.00  0.00     0.126 C 
BRANCH   8   9
ATOM      9  C   UNL A   1      31.959  25.094  25.508  1.00  0.00     0.003 C 
ATOM     10  C   UNL A   1      30.999  28.019  22.878  1.00  0.00     0.277 C 
ATOM     11  O   UNL A   1      30.694  27.334  21.896  1.00  0.00    -0.268 OA
ATOM     12  N   UNL A   1      31.827  27.509  23.872  1.00  0.00    -0.338 N 
ATOM     13  C   UNL A   1      32.751  26.442  23.524  1.00  0.00     0.120 C 
ATOM     14  C   UNL A   1      31.582  27.626  25.301  1.00  0.00     0.120 C 
ATOM     15  C   UNL A   1      32.229  25.089  23.994  1.00  0.00     0.026 C 
ATOM     16  C   UNL A   1      31.067  26.303  25.874  1.00  0.00     0.026 C 
BRANCH  10  17
ATOM     17  C   UNL A   1      30.639  29.520  22.900  1.00  0.00     0.362 C 
BRANCH  17  18
ATOM     18  N   UNL A   1      30.322  30.105  21.590  1.00  0.00    -0.338 N 
ATOM     19  H   UNL A   1      31.126  30.647  21.268  1.00  0.00     0.346 HD
ATOM     20  H   UNL A   1      30.110  29.342  20.947  1.00  0.00     0.346 HD
BRANCH  18  21
ATOM     21  C   UNL A   1      29.155  30.983  21.648  1.00  0.00     0.260 C 
BRANCH  21  22
ATOM     22  C   UNL A   1      27.908  30.386  22.324  1.00  0.00     0.058 C 
ATOM     23  C   UNL A   1      27.434  31.043  23.615  1.00  0.00     0.010 C 
ENDBRANCH  21  22
ENDBRANCH  18  21
ENDBRANCH  17  18
ENDBRANCH  10  17
ENDBRANCH   8   9
ENDBRANCH   6   8
ENDBRANCH   5   6
ENDBRANCH   4   5
ENDBRANCH   3   4
ENDBRANCH   2   3
ENDBRANCH   1   2
BRANCH   1  24
ATOM     24  C   UNL A   1      38.214  21.361  25.367  1.00  0.00     0.188 C 
BRANCH  24  25
ATOM     25  O   UNL A   1      39.008  21.975  26.374  1.00  0.00    -0.376 OA
BRANCH  25  26
ATOM     26  C   UNL A   1      40.425  21.814  26.256  1.00  0.00     0.202 C 
BRANCH  26  27
ATOM     27  C   UNL A   1      41.318  23.079  26.297  1.00  0.00     0.261 C 
BRANCH  27  28
ATOM     28  O   UNL A   1      40.641  24.355  26.329  1.00  0.00    -0.460 OA
BRANCH  28  29
ATOM     29  C   UNL A   1      41.392  25.475  26.168  1.00  0.00     0.338 C 
ATOM     30  O   UNL A   1      41.805  25.909  25.115  1.00  0.00    -0.246 OA
BRANCH  29  31
ATOM     31  C   UNL A   1      41.388  26.245  27.451  1.00  0.00     0.060 A 
ATOM     32  C   UNL A   1      40.361  25.973  28.368  1.00  0.00     0.016 A 
ATOM     33  C   UNL A   1      42.385  27.166  27.792  1.00  0.00     0.016 A 
ATOM     34  C   UNL A   1      40.285  26.665  29.579  1.00  0.00     0.010 A 
ATOM     35  C   UNL A   1      42.302  27.870  29.004  1.00  0.00     0.010 A 
ATOM     36  C   UNL A   1      41.220  27.663  29.881  1.00  0.00    -0.014 A 
BRANCH  36  37
ATOM     37  C   UNL A   1      40.905  28.647  30.955  1.00  0.00     0.031 A 
ATOM     38  C   UNL A   1      41.763  28.630  32.198  1.00  0.00     0.074 A 
ATOM     39  C   UNL A   1      39.952  29.590  30.823  1.00  0.00     0.049 A 
ATOM     40  N   UNL A   1      41.722  29.399  33.255  1.00  0.00    -0.248 NA
ATOM     41  C   UNL A   1      42.814  27.600  32.247  1.00  0.00     0.031 C 
ATOM     42  C   UNL A   1      39.085  29.765  29.661  1.00  0.00     0.029 A 
ATOM     43  N   UNL A   1      39.564  30.589  31.685  1.00  0.00    -0.354 N 
ATOM     44  C   UNL A   1      42.736  28.947  34.092  1.00  0.00     0.074 A 
ATOM     45  C   UNL A   1      43.342  27.806  33.442  1.00  0.00     0.031 C 
ATOM     46  C   UNL A   1      38.268  30.812  29.881  1.00  0.00     0.029 A 
ATOM     47  C   UNL A   1      38.534  31.366  31.209  1.00  0.00     0.049 A 
ATOM     48  H   UNL A   1      39.985  30.735  32.563  1.00  0.00     0.167 HD
ATOM     49  C   UNL A   1      43.143  29.440  35.286  1.00  0.00     0.037 A 
ATOM     50  C   UNL A   1      37.879  32.399  31.780  1.00  0.00     0.037 A 
ATOM     51  C   UNL A   1      42.538  30.566  35.945  1.00  0.00     0.049 A 
ATOM     52  C   UNL A   1      38.287  32.880  33.152  1.00  0.00     0.074 A 
ATOM     53  C   UNL A   1      42.875  31.136  37.160  1.00  0.00     0.029 A 
ATOM     54  N   UNL A   1      41.460  31.289  35.452  1.00  0.00    -0.354 N 
ATOM     55  N   UNL A   1      39.255  32.449  33.927  1.00  0.00    -0.248 NA
ATOM     56  C   UNL A   1      37.518  33.997  33.723  1.00  0.00     0.031 C 
ATOM     57  C   UNL A   1      41.968  32.166  37.429  1.00  0.00     0.029 A 
ATOM     58  C   UNL A   1      41.108  32.285  36.349  1.00  0.00     0.049 A 
ATOM     59  H   UNL A   1      41.013  31.118  34.592  1.00  0.00     0.167 HD
ATOM     60  C   UNL A   1      39.238  33.268  35.055  1.00  0.00     0.074 A 
ATOM     61  C   UNL A   1      38.164  34.221  34.860  1.00  0.00     0.031 C 
ATOM     62  C   UNL A   1      40.044  33.240  36.146  1.00  0.00     0.037 A 
BRANCH  49  63
ATOM     63  C   UNL A   1      44.284  28.730  35.969  1.00  0.00     0.058 A 
ATOM     64  C   UNL A   1      44.070  27.650  36.841  1.00  0.00     0.135 A 
ATOM     65  C   UNL A   1      45.608  29.147  35.758  1.00  0.00     0.135 A 
ATOM     66  F   UNL A   1      42.822  27.221  37.096  1.00  0.00    -0.206 F 
ATOM     67  C   UNL A   1      45.122  27.041  37.517  1.00  0.00     0.059 A 
ATOM     68  C   UNL A   1      46.679  28.529  36.396  1.00  0.00     0.059 A 
ATOM     69  F   UNL A   1      45.872  30.174  34.935  1.00  0.00    -0.206 F 
ATOM     70  C   UNL A   1      46.423  27.493  37.293  1.00  0.00     0.060 A 
BRANCH  70  71
ATOM     71  S   UNL A   1      47.774  26.717  38.205  1.00  0.00     0.124 S 
ATOM     72  O   UNL A   1      47.148  26.479  39.502  1.00  0.00    -0.237 OA
ATOM     73  O   UNL A   1      48.048  25.528  37.404  1.00  0.00    -0.237 OA
ATOM     74  O   UNL A   1      48.821  27.734  38.191  1.00  0.00    -0.744 OA
ENDBRANCH  70  71
ENDBRANCH  49  63
BRANCH  50  75
ATOM     75  C   UNL A   1      36.764  33.070  31.051  1.00  0.00     0.058 A 
ATOM     76  C   UNL A   1      35.424  32.752  31.321  1.00  0.00     0.135 A 
ATOM     77  C   UNL A   1      37.017  34.039  30.067  1.00  0.00     0.135 A 
ATOM     78  F   UNL A   1      35.129  31.817  32.237  1.00  0.00    -0.206 F 
ATOM     79  C   UNL A   1      34.375  33.365  30.641  1.00  0.00     0.059 A 
ATOM     80  C   UNL A   1      35.985  34.688  29.394  1.00  0.00     0.059 A 
ATOM     81  F   UNL A   1      38.280  34.381  29.770  1.00  0.00    -0.206 F 
ATOM     82  C   UNL A   1      34.667  34.340  29.684  1.00  0.00     0.060 A 
BRANCH  82  83
ATOM     83  S   UNL A   1      33.295  35.179  28.861  1.00  0.00     0.124 S 
ATOM     84  O   UNL A   1      33.997  36.163  28.046  1.00  0.00    -0.237 OA
ATOM     85  O   UNL A   1      32.660  34.083  28.136  1.00  0.00    -0.237 OA
ATOM     86  O   UNL A   1      32.518  35.719  29.973  1.00  0.00    -0.744 OA
ENDBRANCH  82  83
ENDBRANCH  50  75
BRANCH  62  87
ATOM     87  C   UNL A   1      39.848  34.304  37.196  1.00  0.00     0.058 A 
ATOM     88  C   UNL A   1      38.971  34.138  38.280  1.00  0.00     0.135 A 
ATOM     89  C   UNL A   1      40.589  35.497  37.137  1.00  0.00     0.135 A 
ATOM     90  F   UNL A   1      38.237  33.019  38.389  1.00  0.00    -0.206 F 
ATOM     91  C   UNL A   1      38.810  35.128  39.245  1.00  0.00     0.059 A 
ATOM     92  C   UNL A   1      40.468  36.486  38.109  1.00  0.00     0.059 A 
ATOM     93  F   UNL A   1      41.456  35.707  36.133  1.00  0.00    -0.206 F 
ATOM     94  C   UNL A   1      39.562  36.300  39.151  1.00  0.00     0.060 A 
BRANCH  94  95
ATOM     95  S   UNL A   1      39.354  37.571  40.417  1.00  0.00     0.124 S 
ATOM     96  O   UNL A   1      38.233  38.337  39.884  1.00  0.00    -0.237 OA
ATOM     97  O   UNL A   1      39.072  36.779  41.610  1.00  0.00    -0.237 OA
ATOM     98  O   UNL A   1      40.641  38.262  40.422  1.00  0.00    -0.744 OA
ENDBRANCH  94  95
ENDBRANCH  62  87
ENDBRANCH  36  37
ENDBRANCH  29  31
ENDBRANCH  28  29
ENDBRANCH  27  28
ENDBRANCH  26  27
ENDBRANCH  25  26
ENDBRANCH  24  25
ENDBRANCH   1  24
TORSDOF 25
ENDMDL
MODEL 2
REMARK VINA RESULT:      -9.0      1.335      8.414
REMARK SMILES CCC[NH2+]CC(=O)N1CCC(CC(=O)OCCOCCOCCOC(=O)c2ccc(-c3c4nc(c(-c5c(F)cc(S(=O)(=O)[O-])cc5F)c5ccc([nH]5)c(-c5c(F)cc(S(=O)(=O)[O-])cc5F)c5nc(c(-c6c(F)cc(S(=O)(=O)[O-])cc6F)c6ccc3[nH]6)C=C5)C=C4)cc2)CC1
REMARK SMILES IDX 19 1 18 2 17 3 16 4 15 5 13 6 14 7 12 8 11 9 6 10 7 11 8 12
REMARK SMILES IDX 9 13 94 14 10 15 93 16 5 17 4 18 3 21 2 22 1 23 20 24 21 25
REMARK SMILES IDX 22 26 23 27 24 28 25 29 26 30 27 31 28 32 92 33 29 34 91 35
REMARK SMILES IDX 30 36 31 37 32 38 85 39 33 40 90 41 84 42 86 43 34 44 89 45
REMARK SMILES IDX 83 46 82 47 35 49 69 50 48 51 68 52 49 53 52 54 67 55 87 56
REMARK SMILES IDX 50 57 51 58 66 60 88 61 53 62 36 63 37 64 46 65 38 66 39 67
REMARK SMILES IDX 45 68 47 69 40 70 41 71 42 72 43 73 44 74 70 75 71 76 80 77
REMARK SMILES IDX 72 78 73 79 79 80 81 81 74 82 75 83 76 84 77 85 78 86 54 87
REMARK SMILES IDX 55 88 64 89 56 90 57 91 63 92 65 93 58 94 59 95 60 96 61 97
REMARK SMILES IDX 62 98
REMARK H PARENT 4 19 4 20 86 48 52 59
REMARK Flexibility Score: inf
ROOT
ATOM      1  C   UNL A   1      36.562  21.302  25.631  1.00  0.00     0.188 C 
ENDROOT
BRANCH   1   2
ATOM      2  O   UNL A   1      35.714  21.187  24.492  1.00  0.00    -0.376 OA
BRANCH   2   3
ATOM      3  C   UNL A   1      34.319  21.034  24.748  1.00  0.00     0.202 C 
BRANCH   3   4
ATOM      4  C   UNL A   1      33.400  22.099  24.132  1.00  0.00     0.261 C 
BRANCH   4   5
ATOM      5  O   UNL A   1      32.008  21.727  24.136  1.00  0.00    -0.463 OA
BRANCH   5   6
ATOM      6  C   UNL A   1      31.146  22.641  24.647  1.00  0.00     0.306 C 
ATOM      7  O   UNL A   1      30.611  22.558  25.748  1.00  0.00    -0.252 OA
BRANCH   6   8
ATOM      8  C   UNL A   1      30.950  23.863  23.769  1.00  0.00     0.126 C 
BRANCH   8   9
ATOM      9  C   UNL A   1      31.920  25.054  23.874  1.00  0.00     0.003 C 
ATOM     10  C   UNL A   1      31.549  28.935  24.966  1.00  0.00     0.277 C 
ATOM     11  O   UNL A   1      30.589  29.266  24.261  1.00  0.00    -0.268 OA
ATOM     12  N   UNL A   1      32.341  27.844  24.623  1.00  0.00    -0.338 N 
ATOM     13  C   UNL A   1      32.405  27.447  23.226  1.00  0.00     0.120 C 
ATOM     14  C   UNL A   1      32.773  26.807  25.546  1.00  0.00     0.120 C 
ATOM     15  C   UNL A   1      31.528  26.229  22.962  1.00  0.00     0.026 C 
ATOM     16  C   UNL A   1      31.956  25.527  25.345  1.00  0.00     0.026 C 
BRANCH  10  17
ATOM     17  C   UNL A   1      32.006  29.861  26.113  1.00  0.00     0.362 C 
BRANCH  17  18
ATOM     18  N   UNL A   1      33.330  30.473  25.932  1.00  0.00    -0.338 N 
ATOM     19  H   UNL A   1      33.853  29.927  25.247  1.00  0.00     0.346 HD
ATOM     20  H   UNL A   1      33.192  31.432  25.612  1.00  0.00     0.346 HD
BRANCH  18  21
ATOM     21  C   UNL A   1      34.090  30.519  27.179  1.00  0.00     0.260 C 
BRANCH  21  22
ATOM     22  C   UNL A   1      34.783  29.204  27.583  1.00  0.00     0.058 C 
ATOM     23  C   UNL A   1      36.237  29.293  28.030  1.00  0.00     0.010 C 
ENDBRANCH  21  22
ENDBRANCH  18  21
ENDBRANCH  17  18
ENDBRANCH  10  17
ENDBRANCH   8   9
ENDBRANCH   6   8
ENDBRANCH   5   6
ENDBRANCH   4   5
ENDBRANCH   3   4
ENDBRANCH   2   3
ENDBRANCH   1   2
BRANCH   1  24
ATOM     24  C   UNL A   1      38.060  21.364  25.335  1.00  0.00     0.188 C 
BRANCH  24  25
ATOM     25  O   UNL A   1      38.806  22.310  26.090  1.00  0.00    -0.376 OA
BRANCH  25  26
ATOM     26  C   UNL A   1      40.210  22.059  26.219  1.00  0.00     0.202 C 
BRANCH  26  27
ATOM     27  C   UNL A   1      41.178  23.267  26.229  1.00  0.00     0.261 C 
BRANCH  27  28
ATOM     28  O   UNL A   1      40.596  24.569  26.465  1.00  0.00    -0.460 OA
BRANCH  28  29
ATOM     29  C   UNL A   1      41.334  25.661  26.139  1.00  0.00     0.338 C 
ATOM     30  O   UNL A   1      41.573  26.049  25.016  1.00  0.00    -0.246 OA
BRANCH  29  31
ATOM     31  C   UNL A   1      41.564  26.473  27.375  1.00  0.00     0.060 A 
ATOM     32  C   UNL A   1      40.993  26.010  28.570  1.00  0.00     0.016 A 
ATOM     33  C   UNL A   1      42.363  27.621  27.396  1.00  0.00     0.016 A 
ATOM     34  C   UNL A   1      41.154  26.725  29.760  1.00  0.00     0.010 A 
ATOM     35  C   UNL A   1      42.515  28.345  28.590  1.00  0.00     0.010 A 
ATOM     36  C   UNL A   1      41.864  27.931  29.768  1.00  0.00    -0.014 A 
BRANCH  36  37
ATOM     37  C   UNL A   1      41.691  28.865  30.916  1.00  0.00     0.031 A 
ATOM     38  C   UNL A   1      40.533  29.833  30.867  1.00  0.00     0.074 A 
ATOM     39  C   UNL A   1      42.469  28.821  32.015  1.00  0.00     0.049 A 
ATOM     40  N   UNL A   1      40.144  30.718  31.747  1.00  0.00    -0.248 NA
ATOM     41  C   UNL A   1      39.701  29.788  29.654  1.00  0.00     0.031 C 
ATOM     42  C   UNL A   1      43.587  27.906  32.228  1.00  0.00     0.029 A 
ATOM     43  N   UNL A   1      42.424  29.569  33.168  1.00  0.00    -0.354 N 
ATOM     44  C   UNL A   1      39.026  31.334  31.196  1.00  0.00     0.074 A 
ATOM     45  C   UNL A   1      38.830  30.756  29.885  1.00  0.00     0.031 C 
ATOM     46  C   UNL A   1      44.120  28.143  33.442  1.00  0.00     0.029 A 
ATOM     47  C   UNL A   1      43.400  29.245  34.081  1.00  0.00     0.049 A 
ATOM     48  H   UNL A   1      41.754  30.273  33.326  1.00  0.00     0.167 HD
ATOM     49  C   UNL A   1      38.220  32.282  31.731  1.00  0.00     0.037 A 
ATOM     50  C   UNL A   1      43.683  29.779  35.289  1.00  0.00     0.037 A 
ATOM     51  C   UNL A   1      38.415  32.872  33.029  1.00  0.00     0.049 A 
ATOM     52  C   UNL A   1      42.828  30.898  35.832  1.00  0.00     0.074 A 
ATOM     53  C   UNL A   1      37.657  33.845  33.656  1.00  0.00     0.029 A 
ATOM     54  N   UNL A   1      39.451  32.553  33.898  1.00  0.00    -0.354 N 
ATOM     55  N   UNL A   1      41.768  31.464  35.304  1.00  0.00    -0.248 NA
ATOM     56  C   UNL A   1      43.204  31.447  37.145  1.00  0.00     0.031 C 
ATOM     57  C   UNL A   1      38.264  34.156  34.877  1.00  0.00     0.029 A 
ATOM     58  C   UNL A   1      39.362  33.326  35.044  1.00  0.00     0.049 A 
ATOM     59  H   UNL A   1      40.145  31.877  33.723  1.00  0.00     0.167 HD
ATOM     60  C   UNL A   1      41.327  32.402  36.236  1.00  0.00     0.074 A 
ATOM     61  C   UNL A   1      42.235  32.326  37.362  1.00  0.00     0.031 C 
ATOM     62  C   UNL A   1      40.262  33.240  36.169  1.00  0.00     0.037 A 
BRANCH  49  63
ATOM     63  C   UNL A   1      37.070  32.764  30.884  1.00  0.00     0.058 A 
ATOM     64  C   UNL A   1      37.214  33.818  29.967  1.00  0.00     0.135 A 
ATOM     65  C   UNL A   1      35.803  32.170  31.004  1.00  0.00     0.135 A 
ATOM     66  F   UNL A   1      38.399  34.436  29.825  1.00  0.00    -0.206 F 
ATOM     67  C   UNL A   1      36.132  34.299  29.235  1.00  0.00     0.059 A 
ATOM     68  C   UNL A   1      34.716  32.612  30.257  1.00  0.00     0.059 A 
ATOM     69  F   UNL A   1      35.608  31.159  31.865  1.00  0.00    -0.206 F 
ATOM     70  C   UNL A   1      34.885  33.693  29.393  1.00  0.00     0.060 A 
BRANCH  70  71
ATOM     71  S   UNL A   1      33.484  34.351  28.465  1.00  0.00     0.124 S 
ATOM     72  O   UNL A   1      32.649  34.881  29.540  1.00  0.00    -0.237 OA
ATOM     73  O   UNL A   1      34.119  35.347  27.607  1.00  0.00    -0.237 OA
ATOM     74  O   UNL A   1      32.952  33.181  27.776  1.00  0.00    -0.744 OA
ENDBRANCH  70  71
ENDBRANCH  49  63
BRANCH  50  75
ATOM     75  C   UNL A   1      44.828  29.254  36.087  1.00  0.00     0.058 A 
ATOM     76  C   UNL A   1      46.114  29.801  35.959  1.00  0.00     0.135 A 
ATOM     77  C   UNL A   1      44.660  28.192  36.989  1.00  0.00     0.135 A 
ATOM     78  F   UNL A   1      46.333  30.803  35.094  1.00  0.00    -0.206 F 
ATOM     79  C   UNL A   1      47.193  29.314  36.691  1.00  0.00     0.059 A 
ATOM     80  C   UNL A   1      45.717  27.706  37.755  1.00  0.00     0.059 A 
ATOM     81  F   UNL A   1      43.452  27.632  37.150  1.00  0.00    -0.206 F 
ATOM     82  C   UNL A   1      46.981  28.270  37.595  1.00  0.00     0.060 A 
BRANCH  82  83
ATOM     83  S   UNL A   1      48.373  27.696  38.592  1.00  0.00     0.124 S 
ATOM     84  O   UNL A   1      47.844  27.829  39.944  1.00  0.00    -0.237 OA
ATOM     85  O   UNL A   1      48.552  26.331  38.107  1.00  0.00    -0.237 OA
ATOM     86  O   UNL A   1      49.444  28.624  38.239  1.00  0.00    -0.744 OA
ENDBRANCH  82  83
ENDBRANCH  50  75
BRANCH  62  87
ATOM     87  C   UNL A   1      39.970  34.108  37.368  1.00  0.00     0.058 A 
ATOM     88  C   UNL A   1      40.434  35.429  37.469  1.00  0.00     0.135 A 
ATOM     89  C   UNL A   1      39.173  33.616  38.416  1.00  0.00     0.135 A 
ATOM     90  F   UNL A   1      41.201  35.952  36.500  1.00  0.00    -0.206 F 
ATOM     91  C   UNL A   1      40.147  36.219  38.580  1.00  0.00     0.059 A 
ATOM     92  C   UNL A   1      38.846  34.399  39.519  1.00  0.00     0.059 A 
ATOM     93  F   UNL A   1      38.687  32.366  38.368  1.00  0.00    -0.206 F 
ATOM     94  C   UNL A   1      39.353  35.694  39.601  1.00  0.00     0.060 A 
BRANCH  94  95
ATOM     95  S   UNL A   1      38.976  36.733  41.029  1.00  0.00     0.124 S 
ATOM     96  O   UNL A   1      38.509  37.957  40.387  1.00  0.00    -0.237 OA
ATOM     97  O   UNL A   1      37.958  35.952  41.724  1.00  0.00    -0.237 OA
ATOM     98  O   UNL A   1      40.257  36.839  41.722  1.00  0.00    -0.744 OA
ENDBRANCH  94  95
ENDBRANCH  62  87
ENDBRANCH  36  37
ENDBRANCH  29  31
ENDBRANCH  28  29
ENDBRANCH  27  28
ENDBRANCH  26  27
ENDBRANCH  25  26
ENDBRANCH  24  25
ENDBRANCH   1  24
TORSDOF 25
ENDMDL
MODEL 3
REMARK VINA RESULT:      -8.7      1.985      3.160
REMARK SMILES CCC[NH2+]CC(=O)N1CCC(CC(=O)OCCOCCOCCOC(=O)c2ccc(-c3c4nc(c(-c5c(F)cc(S(=O)(=O)[O-])cc5F)c5ccc([nH]5)c(-c5c(F)cc(S(=O)(=O)[O-])cc5F)c5nc(c(-c6c(F)cc(S(=O)(=O)[O-])cc6F)c6ccc3[nH]6)C=C5)C=C4)cc2)CC1
REMARK SMILES IDX 19 1 18 2 17 3 16 4 15 5 13 6 14 7 12 8 11 9 6 10 7 11 8 12
REMARK SMILES IDX 9 13 94 14 10 15 93 16 5 17 4 18 3 21 2 22 1 23 20 24 21 25
REMARK SMILES IDX 22 26 23 27 24 28 25 29 26 30 27 31 28 32 92 33 29 34 91 35
REMARK SMILES IDX 30 36 31 37 32 38 85 39 33 40 90 41 84 42 86 43 34 44 89 45
REMARK SMILES IDX 83 46 82 47 35 49 69 50 48 51 68 52 49 53 52 54 67 55 87 56
REMARK SMILES IDX 50 57 51 58 66 60 88 61 53 62 36 63 37 64 46 65 38 66 39 67
REMARK SMILES IDX 45 68 47 69 40 70 41 71 42 72 43 73 44 74 70 75 71 76 80 77
REMARK SMILES IDX 72 78 73 79 79 80 81 81 74 82 75 83 76 84 77 85 78 86 54 87
REMARK SMILES IDX 55 88 64 89 56 90 57 91 63 92 65 93 58 94 59 95 60 96 61 97
REMARK SMILES IDX 62 98
REMARK H PARENT 4 19 4 20 86 48 52 59
REMARK Flexibility Score: inf
ROOT
ATOM      1  C   UNL A   1      40.357  25.729  26.951  1.00  0.00     0.188 C 
ENDROOT
BRANCH   1   2
ATOM      2  O   UNL A   1      39.046  25.196  27.119  1.00  0.00    -0.376 OA
BRANCH   2   3
ATOM      3  C   UNL A   1      38.795  23.922  26.531  1.00  0.00     0.202 C 
BRANCH   3   4
ATOM      4  C   UNL A   1      37.379  23.702  25.976  1.00  0.00     0.261 C 
BRANCH   4   5
ATOM      5  O   UNL A   1      36.958  22.325  26.007  1.00  0.00    -0.463 OA
BRANCH   5   6
ATOM      6  C   UNL A   1      36.510  21.810  24.834  1.00  0.00     0.306 C 
ATOM      7  O   UNL A   1      37.092  21.912  23.759  1.00  0.00    -0.252 OA
BRANCH   6   8
ATOM      8  C   UNL A   1      35.239  20.992  24.965  1.00  0.00     0.126 C 
BRANCH   8   9
ATOM      9  C   UNL A   1      33.883  21.603  24.570  1.00  0.00     0.003 C 
ATOM     10  C   UNL A   1      31.437  24.390  26.197  1.00  0.00     0.277 C 
ATOM     11  O   UNL A   1      31.355  23.957  27.351  1.00  0.00    -0.268 OA
ATOM     12  N   UNL A   1      31.783  23.549  25.144  1.00  0.00    -0.338 N 
ATOM     13  C   UNL A   1      31.514  22.127  25.276  1.00  0.00     0.120 C 
ATOM     14  C   UNL A   1      32.758  23.867  24.112  1.00  0.00     0.120 C 
ATOM     15  C   UNL A   1      32.785  21.358  25.620  1.00  0.00     0.026 C 
ATOM     16  C   UNL A   1      34.073  23.123  24.361  1.00  0.00     0.026 C 
BRANCH  10  17
ATOM     17  C   UNL A   1      30.943  25.819  25.883  1.00  0.00     0.362 C 
BRANCH  17  18
ATOM     18  N   UNL A   1      31.968  26.733  25.361  1.00  0.00    -0.338 N 
ATOM     19  H   UNL A   1      32.515  26.244  24.651  1.00  0.00     0.346 HD
ATOM     20  H   UNL A   1      31.494  27.545  24.967  1.00  0.00     0.346 HD
BRANCH  18  21
ATOM     21  C   UNL A   1      32.871  27.203  26.410  1.00  0.00     0.260 C 
BRANCH  21  22
ATOM     22  C   UNL A   1      33.558  28.554  26.139  1.00  0.00     0.058 C 
ATOM     23  C   UNL A   1      33.586  29.562  27.281  1.00  0.00     0.010 C 
ENDBRANCH  21  22
ENDBRANCH  18  21
ENDBRANCH  17  18
ENDBRANCH  10  17
ENDBRANCH   8   9
ENDBRANCH   6   8
ENDBRANCH   5   6
ENDBRANCH   4   5
ENDBRANCH   3   4
ENDBRANCH   2   3
ENDBRANCH   1   2
BRANCH   1  24
ATOM     24  C   UNL A   1      41.169  25.136  25.800  1.00  0.00     0.188 C 
BRANCH  24  25
ATOM     25  O   UNL A   1      42.122  24.143  26.155  1.00  0.00    -0.376 OA
BRANCH  25  26
ATOM     26  C   UNL A   1      43.052  23.758  25.137  1.00  0.00     0.202 C 
BRANCH  26  27
ATOM     27  C   UNL A   1      44.366  24.563  24.994  1.00  0.00     0.261 C 
BRANCH  27  28
ATOM     28  O   UNL A   1      44.505  25.739  25.822  1.00  0.00    -0.460 OA
BRANCH  28  29
ATOM     29  C   UNL A   1      44.937  25.568  27.097  1.00  0.00     0.338 C 
ATOM     30  O   UNL A   1      45.971  25.032  27.432  1.00  0.00    -0.246 OA
BRANCH  29  31
ATOM     31  C   UNL A   1      44.087  26.396  28.009  1.00  0.00     0.060 A 
ATOM     32  C   UNL A   1      44.067  27.783  27.795  1.00  0.00     0.016 A 
ATOM     33  C   UNL A   1      43.278  25.845  29.009  1.00  0.00     0.016 A 
ATOM     34  C   UNL A   1      43.308  28.620  28.617  1.00  0.00     0.010 A 
ATOM     35  C   UNL A   1      42.524  26.687  29.842  1.00  0.00     0.010 A 
ATOM     36  C   UNL A   1      42.578  28.085  29.686  1.00  0.00    -0.014 A 
BRANCH  36  37
ATOM     37  C   UNL A   1      42.113  28.995  30.771  1.00  0.00     0.031 A 
ATOM     38  C   UNL A   1      42.952  29.083  32.023  1.00  0.00     0.074 A 
ATOM     39  C   UNL A   1      41.033  29.790  30.642  1.00  0.00     0.049 A 
ATOM     40  N   UNL A   1      42.789  29.820  33.091  1.00  0.00    -0.248 NA
ATOM     41  C   UNL A   1      44.143  28.218  32.069  1.00  0.00     0.031 C 
ATOM     42  C   UNL A   1      40.160  29.855  29.473  1.00  0.00     0.029 A 
ATOM     43  N   UNL A   1      40.494  30.707  31.515  1.00  0.00    -0.354 N 
ATOM     44  C   UNL A   1      43.851  29.509  33.933  1.00  0.00     0.074 A 
ATOM     45  C   UNL A   1      44.624  28.480  33.272  1.00  0.00     0.031 C 
ATOM     46  C   UNL A   1      39.196  30.767  29.699  1.00  0.00     0.029 A 
ATOM     47  C   UNL A   1      39.366  31.332  31.038  1.00  0.00     0.049 A 
ATOM     48  H   UNL A   1      40.881  30.899  32.399  1.00  0.00     0.167 HD
ATOM     49  C   UNL A   1      44.171  30.037  35.138  1.00  0.00     0.037 A 
ATOM     50  C   UNL A   1      38.561  32.249  31.617  1.00  0.00     0.037 A 
ATOM     51  C   UNL A   1      43.401  31.051  35.807  1.00  0.00     0.049 A 
ATOM     52  C   UNL A   1      38.882  32.762  33.000  1.00  0.00     0.074 A 
ATOM     53  C   UNL A   1      43.640  31.645  37.034  1.00  0.00     0.029 A 
ATOM     54  N   UNL A   1      42.233  31.616  35.312  1.00  0.00    -0.354 N 
ATOM     55  N   UNL A   1      39.896  32.465  33.780  1.00  0.00    -0.248 NA
ATOM     56  C   UNL A   1      37.952  33.744  33.580  1.00  0.00     0.031 C 
ATOM     57  C   UNL A   1      42.588  32.526  37.308  1.00  0.00     0.029 A 
ATOM     58  C   UNL A   1      41.730  32.535  36.220  1.00  0.00     0.049 A 
ATOM     59  H   UNL A   1      41.823  31.396  34.445  1.00  0.00     0.167 HD
ATOM     60  C   UNL A   1      39.748  33.254  34.919  1.00  0.00     0.074 A 
ATOM     61  C   UNL A   1      38.548  34.042  34.726  1.00  0.00     0.031 C 
ATOM     62  C   UNL A   1      40.540  33.326  36.019  1.00  0.00     0.037 A 
BRANCH  49  63
ATOM     63  C   UNL A   1      45.397  29.491  35.823  1.00  0.00     0.058 A 
ATOM     64  C   UNL A   1      45.328  28.411  36.718  1.00  0.00     0.135 A 
ATOM     65  C   UNL A   1      46.657  30.067  35.590  1.00  0.00     0.135 A 
ATOM     66  F   UNL A   1      44.146  27.834  36.995  1.00  0.00    -0.206 F 
ATOM     67  C   UNL A   1      46.454  27.954  37.396  1.00  0.00     0.059 A 
ATOM     68  C   UNL A   1      47.802  29.603  36.230  1.00  0.00     0.059 A 
ATOM     69  F   UNL A   1      46.782  31.101  34.744  1.00  0.00    -0.206 F 
ATOM     70  C   UNL A   1      47.686  28.561  37.149  1.00  0.00     0.060 A 
BRANCH  70  71
ATOM     71  S   UNL A   1      49.131  27.982  38.063  1.00  0.00     0.124 S 
ATOM     72  O   UNL A   1      49.547  29.202  38.750  1.00  0.00    -0.237 OA
ATOM     73  O   UNL A   1      48.566  26.938  38.911  1.00  0.00    -0.237 OA
ATOM     74  O   UNL A   1      50.032  27.516  37.014  1.00  0.00    -0.744 OA
ENDBRANCH  70  71
ENDBRANCH  49  63
BRANCH  50  75
ATOM     75  C   UNL A   1      37.366  32.761  30.885  1.00  0.00     0.058 A 
ATOM     76  C   UNL A   1      36.084  32.252  31.142  1.00  0.00     0.135 A 
ATOM     77  C   UNL A   1      37.484  33.765  29.912  1.00  0.00     0.135 A 
ATOM     78  F   UNL A   1      35.919  31.275  32.048  1.00  0.00    -0.206 F 
ATOM     79  C   UNL A   1      34.963  32.715  30.460  1.00  0.00     0.059 A 
ATOM     80  C   UNL A   1      36.374  34.266  29.236  1.00  0.00     0.059 A 
ATOM     81  F   UNL A   1      38.687  34.286  29.627  1.00  0.00    -0.206 F 
ATOM     82  C   UNL A   1      35.118  33.731  29.514  1.00  0.00     0.060 A 
BRANCH  82  83
ATOM     83  S   UNL A   1      33.646  34.373  28.688  1.00  0.00     0.124 S 
ATOM     84  O   UNL A   1      32.774  34.664  29.820  1.00  0.00    -0.237 OA
ATOM     85  O   UNL A   1      34.178  35.532  27.977  1.00  0.00    -0.237 OA
ATOM     86  O   UNL A   1      33.226  33.263  27.838  1.00  0.00    -0.744 OA
ENDBRANCH  82  83
ENDBRANCH  50  75
BRANCH  62  87
ATOM     87  C   UNL A   1      40.181  34.333  37.083  1.00  0.00     0.058 A 
ATOM     88  C   UNL A   1      40.609  35.669  37.028  1.00  0.00     0.135 A 
ATOM     89  C   UNL A   1      39.353  33.960  38.156  1.00  0.00     0.135 A 
ATOM     90  F   UNL A   1      41.402  36.084  36.027  1.00  0.00    -0.206 F 
ATOM     91  C   UNL A   1      40.260  36.588  38.014  1.00  0.00     0.059 A 
ATOM     92  C   UNL A   1      38.964  34.870  39.135  1.00  0.00     0.059 A 
ATOM     93  F   UNL A   1      38.899  32.701  38.254  1.00  0.00    -0.206 F 
ATOM     94  C   UNL A   1      39.437  36.178  39.065  1.00  0.00     0.060 A 
BRANCH  94  95
ATOM     95  S   UNL A   1      38.979  37.383  40.330  1.00  0.00     0.124 S 
ATOM     96  O   UNL A   1      38.211  38.349  39.552  1.00  0.00    -0.237 OA
ATOM     97  O   UNL A   1      38.211  36.572  41.270  1.00  0.00    -0.237 OA
ATOM     98  O   UNL A   1      40.266  37.860  40.829  1.00  0.00    -0.744 OA
ENDBRANCH  94  95
ENDBRANCH  62  87
ENDBRANCH  36  37
ENDBRANCH  29  31
ENDBRANCH  28  29
ENDBRANCH  27  28
ENDBRANCH  26  27
ENDBRANCH  25  26
ENDBRANCH  24  25
ENDBRANCH   1  24
TORSDOF 25
ENDMDL
