MODEL 1
REMARK VINA RESULT:      -9.6      0.000      0.000
REMARK SMILES CCOC(=O)[C@@H]1CCCCN1C(=O)N[C@](C)(CC)C(=O)OCCOCCOCCOC(=O)c1ccc(-c2c3nc(c(-c4c(F)cc(S(=O)(=O)[O-])cc4F)c4ccc([nH]4)c(-c4c(F)cc(S(=O)(=O)[O-])cc4F)c4nc(c(-c5c(F)cc(S(=O)(=O)[O-])cc5F)c5ccc2[nH]5)C=C4)C=C3)cc1
REMARK SMILES IDX 25 1 24 2 23 3 22 4 21 5 19 6 20 7 15 8 16 9 14 10 12 11
REMARK SMILES IDX 13 12 11 14 6 15 7 16 8 17 10 18 9 19 4 20 5 21 3 22 2 23
REMARK SMILES IDX 1 24 17 25 18 26 26 27 27 28 28 29 29 30 30 31 31 32 32 33
REMARK SMILES IDX 33 34 34 35 98 36 35 37 97 38 36 39 37 40 38 41 91 42 39 43
REMARK SMILES IDX 96 44 90 45 92 46 40 47 95 48 89 49 88 50 41 52 75 53 54 54
REMARK SMILES IDX 74 55 55 56 58 57 73 58 93 59 56 60 57 61 72 63 94 64 59 65
REMARK SMILES IDX 42 66 43 67 52 68 44 69 45 70 51 71 53 72 46 73 47 74 48 75
REMARK SMILES IDX 49 76 50 77 76 78 77 79 86 80 78 81 79 82 85 83 87 84 80 85
REMARK SMILES IDX 81 86 82 87 83 88 84 89 60 90 61 91 70 92 62 93 63 94 69 95
REMARK SMILES IDX 71 96 64 97 65 98 66 99 67 100 68 101
REMARK H PARENT 14 13 92 51 58 62
REMARK Flexibility Score: inf
ROOT
ATOM      1  C   UNL A   1      33.132  29.246  26.944  1.00  0.00     0.188 C 
ENDROOT
BRANCH   1   2
ATOM      2  O   UNL A   1      33.431  28.707  25.664  1.00  0.00    -0.376 OA
BRANCH   2   3
ATOM      3  C   UNL A   1      32.686  29.244  24.569  1.00  0.00     0.202 C 
BRANCH   3   4
ATOM      4  C   UNL A   1      32.863  28.539  23.215  1.00  0.00     0.261 C 
BRANCH   4   5
ATOM      5  O   UNL A   1      33.898  27.507  23.181  1.00  0.00    -0.462 OA
BRANCH   5   6
ATOM      6  C   UNL A   1      33.443  26.274  22.851  1.00  0.00     0.331 C 
ATOM      7  O   UNL A   1      33.581  25.826  21.706  1.00  0.00    -0.249 OA
BRANCH   6   8
ATOM      8  C   UNL A   1      32.646  25.427  23.918  1.00  0.00     0.136 C 
ATOM      9  C   UNL A   1      33.738  25.278  25.026  1.00  0.00     0.047 C 
BRANCH   8  10
ATOM     10  N   UNL A   1      32.454  24.203  23.115  1.00  0.00    -0.322 N 
ATOM     11  C   UNL A   1      33.200  23.087  22.936  1.00  0.00     0.319 C 
ATOM     12  O   UNL A   1      32.783  22.352  22.036  1.00  0.00    -0.249 OA
ATOM     13  H   UNL A   1      31.611  24.197  22.607  1.00  0.00     0.166 HD
BRANCH  11  14
ATOM     14  N   UNL A   1      34.315  22.752  23.700  1.00  0.00    -0.311 N 
ATOM     15  C   UNL A   1      34.126  21.606  24.630  1.00  0.00     0.196 C 
ATOM     16  C   UNL A   1      35.131  21.682  25.806  1.00  0.00     0.037 C 
ATOM     17  C   UNL A   1      36.575  21.749  25.349  1.00  0.00     0.005 C 
ATOM     18  C   UNL A   1      35.727  22.893  23.301  1.00  0.00     0.122 C 
ATOM     19  C   UNL A   1      36.747  22.932  24.428  1.00  0.00     0.022 C 
BRANCH  15  20
ATOM     20  C   UNL A   1      32.785  21.379  25.345  1.00  0.00     0.328 C 
ATOM     21  O   UNL A   1      32.387  22.121  26.242  1.00  0.00    -0.250 OA
BRANCH  20  22
ATOM     22  O   UNL A   1      32.027  20.421  24.742  1.00  0.00    -0.464 OA
BRANCH  22  23
ATOM     23  C   UNL A   1      32.736  19.221  24.418  1.00  0.00     0.229 C 
ATOM     24  C   UNL A   1      32.685  18.259  25.591  1.00  0.00     0.049 C 
ENDBRANCH  22  23
ENDBRANCH  20  22
ENDBRANCH  15  20
ENDBRANCH  11  14
ENDBRANCH   8  10
BRANCH   8  25
ATOM     25  C   UNL A   1      31.318  25.497  24.722  1.00  0.00     0.037 C 
ATOM     26  C   UNL A   1      31.286  26.031  26.124  1.00  0.00     0.007 C 
ENDBRANCH   8  25
ENDBRANCH   6   8
ENDBRANCH   5   6
ENDBRANCH   4   5
ENDBRANCH   3   4
ENDBRANCH   2   3
ENDBRANCH   1   2
BRANCH   1  27
ATOM     27  C   UNL A   1      32.470  30.631  26.938  1.00  0.00     0.188 C 
BRANCH  27  28
ATOM     28  O   UNL A   1      33.274  31.683  27.456  1.00  0.00    -0.376 OA
BRANCH  28  29
ATOM     29  C   UNL A   1      34.542  31.335  28.010  1.00  0.00     0.202 C 
BRANCH  29  30
ATOM     30  C   UNL A   1      34.856  31.923  29.395  1.00  0.00     0.261 C 
BRANCH  30  31
ATOM     31  O   UNL A   1      36.225  31.802  29.824  1.00  0.00    -0.460 OA
BRANCH  31  32
ATOM     32  C   UNL A   1      36.586  30.734  30.571  1.00  0.00     0.338 C 
ATOM     33  O   UNL A   1      35.849  30.018  31.227  1.00  0.00    -0.246 OA
BRANCH  32  34
ATOM     34  C   UNL A   1      37.990  30.400  30.216  1.00  0.00     0.060 A 
ATOM     35  C   UNL A   1      38.304  30.202  28.865  1.00  0.00     0.016 A 
ATOM     36  C   UNL A   1      39.007  30.389  31.172  1.00  0.00     0.016 A 
ATOM     37  C   UNL A   1      39.623  29.999  28.457  1.00  0.00     0.010 A 
ATOM     38  C   UNL A   1      40.322  30.152  30.775  1.00  0.00     0.010 A 
ATOM     39  C   UNL A   1      40.632  29.931  29.420  1.00  0.00    -0.014 A 
BRANCH  39  40
ATOM     40  C   UNL A   1      41.959  29.370  29.079  1.00  0.00     0.031 A 
ATOM     41  C   UNL A   1      43.112  30.333  29.025  1.00  0.00     0.074 A 
ATOM     42  C   UNL A   1      42.138  28.068  28.795  1.00  0.00     0.049 A 
ATOM     43  N   UNL A   1      44.314  30.165  28.549  1.00  0.00    -0.248 NA
ATOM     44  C   UNL A   1      42.858  31.679  29.571  1.00  0.00     0.031 C 
ATOM     45  C   UNL A   1      41.116  27.028  28.891  1.00  0.00     0.029 A 
ATOM     46  N   UNL A   1      43.251  27.409  28.335  1.00  0.00    -0.354 N 
ATOM     47  C   UNL A   1      44.949  31.391  28.704  1.00  0.00     0.074 A 
ATOM     48  C   UNL A   1      43.997  32.297  29.305  1.00  0.00     0.031 C 
ATOM     49  C   UNL A   1      41.644  25.863  28.472  1.00  0.00     0.029 A 
ATOM     50  C   UNL A   1      43.019  26.089  28.028  1.00  0.00     0.049 A 
ATOM     51  H   UNL A   1      44.131  27.840  28.236  1.00  0.00     0.167 HD
ATOM     52  C   UNL A   1      46.216  31.730  28.369  1.00  0.00     0.037 A 
ATOM     53  C   UNL A   1      43.814  25.187  27.414  1.00  0.00     0.037 A 
ATOM     54  C   UNL A   1      47.152  30.815  27.775  1.00  0.00     0.049 A 
ATOM     55  C   UNL A   1      45.197  25.606  26.975  1.00  0.00     0.074 A 
ATOM     56  C   UNL A   1      48.459  31.052  27.393  1.00  0.00     0.029 A 
ATOM     57  N   UNL A   1      46.878  29.489  27.476  1.00  0.00    -0.354 N 
ATOM     58  N   UNL A   1      45.788  26.771  27.104  1.00  0.00    -0.248 NA
ATOM     59  C   UNL A   1      46.021  24.591  26.301  1.00  0.00     0.031 C 
ATOM     60  C   UNL A   1      48.960  29.882  26.815  1.00  0.00     0.029 A 
ATOM     61  C   UNL A   1      47.986  28.898  26.899  1.00  0.00     0.049 A 
ATOM     62  H   UNL A   1      46.021  29.035  27.649  1.00  0.00     0.167 HD
ATOM     63  C   UNL A   1      47.064  26.615  26.570  1.00  0.00     0.074 A 
ATOM     64  C   UNL A   1      47.158  25.247  26.109  1.00  0.00     0.031 C 
ATOM     65  C   UNL A   1      48.070  27.520  26.479  1.00  0.00     0.037 A 
BRANCH  52  66
ATOM     66  C   UNL A   1      46.638  33.153  28.596  1.00  0.00     0.058 A 
ATOM     67  C   UNL A   1      46.429  34.153  27.634  1.00  0.00     0.135 A 
ATOM     68  C   UNL A   1      47.247  33.523  29.806  1.00  0.00     0.135 A 
ATOM     69  F   UNL A   1      45.877  33.849  26.449  1.00  0.00    -0.206 F 
ATOM     70  C   UNL A   1      46.834  35.466  27.853  1.00  0.00     0.059 A 
ATOM     71  C   UNL A   1      47.631  34.836  30.058  1.00  0.00     0.059 A 
ATOM     72  F   UNL A   1      47.480  32.604  30.755  1.00  0.00    -0.206 F 
ATOM     73  C   UNL A   1      47.434  35.797  29.069  1.00  0.00     0.060 A 
BRANCH  73  74
ATOM     74  S   UNL A   1      47.948  37.505  29.338  1.00  0.00     0.124 S 
ATOM     75  O   UNL A   1      47.576  37.703  30.737  1.00  0.00    -0.237 OA
ATOM     76  O   UNL A   1      49.380  37.447  29.065  1.00  0.00    -0.237 OA
ATOM     77  O   UNL A   1      47.156  38.257  28.369  1.00  0.00    -0.744 OA
ENDBRANCH  73  74
ENDBRANCH  52  66
BRANCH  53  78
ATOM     78  C   UNL A   1      43.318  23.808  27.151  1.00  0.00     0.058 A 
ATOM     79  C   UNL A   1      42.794  23.454  25.899  1.00  0.00     0.135 A 
ATOM     80  C   UNL A   1      43.349  22.818  28.146  1.00  0.00     0.135 A 
ATOM     81  F   UNL A   1      42.726  24.367  24.918  1.00  0.00    -0.206 F 
ATOM     82  C   UNL A   1      42.306  22.175  25.646  1.00  0.00     0.059 A 
ATOM     83  C   UNL A   1      42.894  21.524  27.910  1.00  0.00     0.059 A 
ATOM     84  F   UNL A   1      43.846  23.101  29.361  1.00  0.00    -0.206 F 
ATOM     85  C   UNL A   1      42.364  21.215  26.658  1.00  0.00     0.060 A 
BRANCH  85  86
ATOM     86  S   UNL A   1      41.768  19.548  26.302  1.00  0.00     0.124 S 
ATOM     87  O   UNL A   1      42.116  18.843  27.530  1.00  0.00    -0.237 OA
ATOM     88  O   UNL A   1      40.344  19.775  26.075  1.00  0.00    -0.237 OA
ATOM     89  O   UNL A   1      42.531  19.164  25.117  1.00  0.00    -0.744 OA
ENDBRANCH  85  86
ENDBRANCH  53  78
BRANCH  65  90
ATOM     90  C   UNL A   1      49.395  27.058  25.936  1.00  0.00     0.058 A 
ATOM     91  C   UNL A   1      49.757  27.244  24.594  1.00  0.00     0.135 A 
ATOM     92  C   UNL A   1      50.357  26.521  26.809  1.00  0.00     0.135 A 
ATOM     93  F   UNL A   1      48.874  27.748  23.719  1.00  0.00    -0.206 F 
ATOM     94  C   UNL A   1      51.029  26.913  24.134  1.00  0.00     0.059 A 
ATOM     95  C   UNL A   1      51.642  26.210  26.377  1.00  0.00     0.059 A 
ATOM     96  F   UNL A   1      50.064  26.334  28.105  1.00  0.00    -0.206 F 
ATOM     97  C   UNL A   1      51.968  26.407  25.037  1.00  0.00     0.060 A 
BRANCH  97  98
ATOM     98  S   UNL A   1      53.637  26.056  24.445  1.00  0.00     0.124 S 
ATOM     99  O   UNL A   1      53.375  25.574  23.093  1.00  0.00    -0.237 OA
ATOM    100  O   UNL A   1      54.282  27.362  24.539  1.00  0.00    -0.237 OA
ATOM    101  O   UNL A   1      54.128  25.053  25.384  1.00  0.00    -0.744 OA
ENDBRANCH  97  98
ENDBRANCH  65  90
ENDBRANCH  39  40
ENDBRANCH  32  34
ENDBRANCH  31  32
ENDBRANCH  30  31
ENDBRANCH  29  30
ENDBRANCH  28  29
ENDBRANCH  27  28
ENDBRANCH   1  27
TORSDOF 26
ENDMDL
MODEL 2
REMARK VINA RESULT:      -9.2      0.675      8.019
REMARK SMILES CCOC(=O)[C@@H]1CCCCN1C(=O)N[C@](C)(CC)C(=O)OCCOCCOCCOC(=O)c1ccc(-c2c3nc(c(-c4c(F)cc(S(=O)(=O)[O-])cc4F)c4ccc([nH]4)c(-c4c(F)cc(S(=O)(=O)[O-])cc4F)c4nc(c(-c5c(F)cc(S(=O)(=O)[O-])cc5F)c5ccc2[nH]5)C=C4)C=C3)cc1
REMARK SMILES IDX 25 1 24 2 23 3 22 4 21 5 19 6 20 7 15 8 16 9 14 10 12 11
REMARK SMILES IDX 13 12 11 14 6 15 7 16 8 17 10 18 9 19 4 20 5 21 3 22 2 23
REMARK SMILES IDX 1 24 17 25 18 26 26 27 27 28 28 29 29 30 30 31 31 32 32 33
REMARK SMILES IDX 33 34 34 35 98 36 35 37 97 38 36 39 37 40 38 41 91 42 39 43
REMARK SMILES IDX 96 44 90 45 92 46 40 47 95 48 89 49 88 50 41 52 75 53 54 54
REMARK SMILES IDX 74 55 55 56 58 57 73 58 93 59 56 60 57 61 72 63 94 64 59 65
REMARK SMILES IDX 42 66 43 67 52 68 44 69 45 70 51 71 53 72 46 73 47 74 48 75
REMARK SMILES IDX 49 76 50 77 76 78 77 79 86 80 78 81 79 82 85 83 87 84 80 85
REMARK SMILES IDX 81 86 82 87 83 88 84 89 60 90 61 91 70 92 62 93 63 94 69 95
REMARK SMILES IDX 71 96 64 97 65 98 66 99 67 100 68 101
REMARK H PARENT 14 13 92 51 58 62
REMARK Flexibility Score: inf
ROOT
ATOM      1  C   UNL A   1      33.782  29.555  27.051  1.00  0.00     0.188 C 
ENDROOT
BRANCH   1   2
ATOM      2  O   UNL A   1      33.932  29.154  25.696  1.00  0.00    -0.376 OA
BRANCH   2   3
ATOM      3  C   UNL A   1      32.817  29.412  24.840  1.00  0.00     0.202 C 
BRANCH   3   4
ATOM      4  C   UNL A   1      32.602  28.420  23.686  1.00  0.00     0.261 C 
BRANCH   4   5
ATOM      5  O   UNL A   1      33.814  27.770  23.191  1.00  0.00    -0.462 OA
BRANCH   5   6
ATOM      6  C   UNL A   1      33.661  26.453  22.907  1.00  0.00     0.331 C 
ATOM      7  O   UNL A   1      33.935  26.004  21.788  1.00  0.00    -0.249 OA
BRANCH   6   8
ATOM      8  C   UNL A   1      33.042  25.489  23.993  1.00  0.00     0.136 C 
ATOM      9  C   UNL A   1      34.269  25.319  24.946  1.00  0.00     0.047 C 
BRANCH   8  10
ATOM     10  N   UNL A   1      32.805  24.319  23.126  1.00  0.00    -0.322 N 
ATOM     11  C   UNL A   1      33.500  23.178  22.902  1.00  0.00     0.319 C 
ATOM     12  O   UNL A   1      33.064  22.510  21.959  1.00  0.00    -0.249 OA
ATOM     13  H   UNL A   1      31.972  24.379  22.606  1.00  0.00     0.166 HD
BRANCH  11  14
ATOM     14  N   UNL A   1      34.584  22.751  23.664  1.00  0.00    -0.311 N 
ATOM     15  C   UNL A   1      34.361  21.501  24.441  1.00  0.00     0.196 C 
ATOM     16  C   UNL A   1      35.317  21.433  25.657  1.00  0.00     0.037 C 
ATOM     17  C   UNL A   1      36.778  21.551  25.269  1.00  0.00     0.005 C 
ATOM     18  C   UNL A   1      36.011  22.936  23.341  1.00  0.00     0.122 C 
ATOM     19  C   UNL A   1      36.985  22.836  24.505  1.00  0.00     0.022 C 
BRANCH  15  20
ATOM     20  C   UNL A   1      32.992  21.194  25.069  1.00  0.00     0.328 C 
ATOM     21  O   UNL A   1      32.524  21.871  25.982  1.00  0.00    -0.250 OA
BRANCH  20  22
ATOM     22  O   UNL A   1      32.300  20.248  24.374  1.00  0.00    -0.464 OA
BRANCH  22  23
ATOM     23  C   UNL A   1      32.949  18.975  24.298  1.00  0.00     0.229 C 
ATOM     24  C   UNL A   1      32.643  18.164  25.544  1.00  0.00     0.049 C 
ENDBRANCH  22  23
ENDBRANCH  20  22
ENDBRANCH  15  20
ENDBRANCH  11  14
ENDBRANCH   8  10
BRANCH   8  25
ATOM     25  C   UNL A   1      31.823  25.430  24.955  1.00  0.00     0.037 C 
ATOM     26  C   UNL A   1      30.421  25.345  24.428  1.00  0.00     0.007 C 
ENDBRANCH   8  25
ENDBRANCH   6   8
ENDBRANCH   5   6
ENDBRANCH   4   5
ENDBRANCH   3   4
ENDBRANCH   2   3
ENDBRANCH   1   2
BRANCH   1  27
ATOM     27  C   UNL A   1      33.082  30.903  27.266  1.00  0.00     0.188 C 
BRANCH  27  28
ATOM     28  O   UNL A   1      33.841  31.867  27.983  1.00  0.00    -0.376 OA
BRANCH  28  29
ATOM     29  C   UNL A   1      35.122  31.471  28.470  1.00  0.00     0.202 C 
BRANCH  29  30
ATOM     30  C   UNL A   1      35.481  31.945  29.887  1.00  0.00     0.261 C 
BRANCH  30  31
ATOM     31  O   UNL A   1      36.889  32.012  30.181  1.00  0.00    -0.460 OA
BRANCH  31  32
ATOM     32  C   UNL A   1      37.432  31.089  31.008  1.00  0.00     0.338 C 
ATOM     33  O   UNL A   1      36.897  30.565  31.969  1.00  0.00    -0.246 OA
BRANCH  32  34
ATOM     34  C   UNL A   1      38.681  30.601  30.366  1.00  0.00     0.060 A 
ATOM     35  C   UNL A   1      39.825  30.458  31.163  1.00  0.00     0.016 A 
ATOM     36  C   UNL A   1      38.707  30.184  29.035  1.00  0.00     0.016 A 
ATOM     37  C   UNL A   1      40.994  29.898  30.646  1.00  0.00     0.010 A 
ATOM     38  C   UNL A   1      39.884  29.656  28.503  1.00  0.00     0.010 A 
ATOM     39  C   UNL A   1      41.038  29.535  29.298  1.00  0.00    -0.014 A 
BRANCH  39  40
ATOM     40  C   UNL A   1      42.334  29.280  28.631  1.00  0.00     0.031 A 
ATOM     41  C   UNL A   1      42.591  27.880  28.152  1.00  0.00     0.074 A 
ATOM     42  C   UNL A   1      43.266  30.239  28.481  1.00  0.00     0.049 A 
ATOM     43  N   UNL A   1      43.700  27.331  27.742  1.00  0.00    -0.248 NA
ATOM     44  C   UNL A   1      41.430  26.971  28.156  1.00  0.00     0.031 C 
ATOM     45  C   UNL A   1      43.102  31.647  28.832  1.00  0.00     0.029 A 
ATOM     46  N   UNL A   1      44.556  30.153  28.017  1.00  0.00    -0.354 N 
ATOM     47  C   UNL A   1      43.381  26.005  27.474  1.00  0.00     0.074 A 
ATOM     48  C   UNL A   1      41.981  25.828  27.779  1.00  0.00     0.031 C 
ATOM     49  C   UNL A   1      44.261  32.290  28.598  1.00  0.00     0.029 A 
ATOM     50  C   UNL A   1      45.261  31.327  28.134  1.00  0.00     0.049 A 
ATOM     51  H   UNL A   1      44.938  29.329  27.635  1.00  0.00     0.167 HD
ATOM     52  C   UNL A   1      44.191  25.022  27.016  1.00  0.00     0.037 A 
ATOM     53  C   UNL A   1      46.572  31.577  27.936  1.00  0.00     0.037 A 
ATOM     54  C   UNL A   1      45.582  25.216  26.712  1.00  0.00     0.049 A 
ATOM     55  C   UNL A   1      47.477  30.449  27.502  1.00  0.00     0.074 A 
ATOM     56  C   UNL A   1      46.496  24.290  26.245  1.00  0.00     0.029 A 
ATOM     57  N   UNL A   1      46.260  26.419  26.848  1.00  0.00    -0.354 N 
ATOM     58  N   UNL A   1      47.177  29.192  27.269  1.00  0.00    -0.248 NA
ATOM     59  C   UNL A   1      48.900  30.768  27.309  1.00  0.00     0.031 C 
ATOM     60  C   UNL A   1      47.739  24.920  26.148  1.00  0.00     0.029 A 
ATOM     61  C   UNL A   1      47.585  26.255  26.490  1.00  0.00     0.049 A 
ATOM     62  H   UNL A   1      45.857  27.263  27.155  1.00  0.00     0.167 HD
ATOM     63  C   UNL A   1      48.362  28.585  26.859  1.00  0.00     0.074 A 
ATOM     64  C   UNL A   1      49.384  29.609  26.884  1.00  0.00     0.031 C 
ATOM     65  C   UNL A   1      48.580  27.299  26.487  1.00  0.00     0.037 A 
BRANCH  52  66
ATOM     66  C   UNL A   1      43.600  23.650  26.862  1.00  0.00     0.058 A 
ATOM     67  C   UNL A   1      43.286  22.847  27.970  1.00  0.00     0.135 A 
ATOM     68  C   UNL A   1      43.330  23.138  25.583  1.00  0.00     0.135 A 
ATOM     69  F   UNL A   1      43.550  23.276  29.214  1.00  0.00    -0.206 F 
ATOM     70  C   UNL A   1      42.748  21.574  27.814  1.00  0.00     0.059 A 
ATOM     71  C   UNL A   1      42.763  21.880  25.405  1.00  0.00     0.059 A 
ATOM     72  F   UNL A   1      43.621  23.859  24.490  1.00  0.00    -0.206 F 
ATOM     73  C   UNL A   1      42.489  21.100  26.527  1.00  0.00     0.060 A 
BRANCH  73  74
ATOM     74  S   UNL A   1      41.787  19.448  26.343  1.00  0.00     0.124 S 
ATOM     75  O   UNL A   1      40.358  19.746  26.281  1.00  0.00    -0.237 OA
ATOM     76  O   UNL A   1      42.392  18.989  25.097  1.00  0.00    -0.237 OA
ATOM     77  O   UNL A   1      42.230  18.753  27.548  1.00  0.00    -0.744 OA
ENDBRANCH  73  74
ENDBRANCH  52  66
BRANCH  53  78
ATOM     78  C   UNL A   1      47.118  32.942  28.171  1.00  0.00     0.058 A 
ATOM     79  C   UNL A   1      47.087  33.918  27.165  1.00  0.00     0.135 A 
ATOM     80  C   UNL A   1      47.689  33.297  29.404  1.00  0.00     0.135 A 
ATOM     81  F   UNL A   1      46.567  33.626  25.963  1.00  0.00    -0.206 F 
ATOM     82  C   UNL A   1      47.614  35.191  27.364  1.00  0.00     0.059 A 
ATOM     83  C   UNL A   1      48.197  34.572  29.638  1.00  0.00     0.059 A 
ATOM     84  F   UNL A   1      47.739  32.403  30.405  1.00  0.00    -0.206 F 
ATOM     85  C   UNL A   1      48.165  35.510  28.607  1.00  0.00     0.060 A 
BRANCH  85  86
ATOM     86  S   UNL A   1      48.805  37.178  28.867  1.00  0.00     0.124 S 
ATOM     87  O   UNL A   1      47.712  37.801  29.605  1.00  0.00    -0.237 OA
ATOM     88  O   UNL A   1      50.026  36.921  29.626  1.00  0.00    -0.237 OA
ATOM     89  O   UNL A   1      49.012  37.673  27.509  1.00  0.00    -0.744 OA
ENDBRANCH  85  86
ENDBRANCH  53  78
BRANCH  65  90
ATOM     90  C   UNL A   1      49.952  26.925  25.996  1.00  0.00     0.058 A 
ATOM     91  C   UNL A   1      50.348  27.123  24.666  1.00  0.00     0.135 A 
ATOM     92  C   UNL A   1      50.917  26.465  26.908  1.00  0.00     0.135 A 
ATOM     93  F   UNL A   1      49.464  27.556  23.753  1.00  0.00    -0.206 F 
ATOM     94  C   UNL A   1      51.656  26.877  24.255  1.00  0.00     0.059 A 
ATOM     95  C   UNL A   1      52.235  26.239  26.526  1.00  0.00     0.059 A 
ATOM     96  F   UNL A   1      50.592  26.270  28.196  1.00  0.00    -0.206 F 
ATOM     97  C   UNL A   1      52.595  26.447  25.195  1.00  0.00     0.060 A 
BRANCH  97  98
ATOM     98  S   UNL A   1      54.304  26.207  24.666  1.00  0.00     0.124 S 
ATOM     99  O   UNL A   1      55.018  27.117  25.555  1.00  0.00    -0.237 OA
ATOM    100  O   UNL A   1      54.510  24.783  24.917  1.00  0.00    -0.237 OA
ATOM    101  O   UNL A   1      54.283  26.592  23.259  1.00  0.00    -0.744 OA
ENDBRANCH  97  98
ENDBRANCH  65  90
ENDBRANCH  39  40
ENDBRANCH  32  34
ENDBRANCH  31  32
ENDBRANCH  30  31
ENDBRANCH  29  30
ENDBRANCH  28  29
ENDBRANCH  27  28
ENDBRANCH   1  27
TORSDOF 26
ENDMDL
MODEL 3
REMARK VINA RESULT:      -9.1      1.414      8.359
REMARK SMILES CCOC(=O)[C@@H]1CCCCN1C(=O)N[C@](C)(CC)C(=O)OCCOCCOCCOC(=O)c1ccc(-c2c3nc(c(-c4c(F)cc(S(=O)(=O)[O-])cc4F)c4ccc([nH]4)c(-c4c(F)cc(S(=O)(=O)[O-])cc4F)c4nc(c(-c5c(F)cc(S(=O)(=O)[O-])cc5F)c5ccc2[nH]5)C=C4)C=C3)cc1
REMARK SMILES IDX 25 1 24 2 23 3 22 4 21 5 19 6 20 7 15 8 16 9 14 10 12 11
REMARK SMILES IDX 13 12 11 14 6 15 7 16 8 17 10 18 9 19 4 20 5 21 3 22 2 23
REMARK SMILES IDX 1 24 17 25 18 26 26 27 27 28 28 29 29 30 30 31 31 32 32 33
REMARK SMILES IDX 33 34 34 35 98 36 35 37 97 38 36 39 37 40 38 41 91 42 39 43
REMARK SMILES IDX 96 44 90 45 92 46 40 47 95 48 89 49 88 50 41 52 75 53 54 54
REMARK SMILES IDX 74 55 55 56 58 57 73 58 93 59 56 60 57 61 72 63 94 64 59 65
REMARK SMILES IDX 42 66 43 67 52 68 44 69 45 70 51 71 53 72 46 73 47 74 48 75
REMARK SMILES IDX 49 76 50 77 76 78 77 79 86 80 78 81 79 82 85 83 87 84 80 85
REMARK SMILES IDX 81 86 82 87 83 88 84 89 60 90 61 91 70 92 62 93 63 94 69 95
REMARK SMILES IDX 71 96 64 97 65 98 66 99 67 100 68 101
REMARK H PARENT 14 13 92 51 58 62
REMARK Flexibility Score: inf
ROOT
ATOM      1  C   UNL A   1      31.847  29.063  26.069  1.00  0.00     0.188 C 
ENDROOT
BRANCH   1   2
ATOM      2  O   UNL A   1      32.644  28.596  24.989  1.00  0.00    -0.376 OA
BRANCH   2   3
ATOM      3  C   UNL A   1      32.079  28.742  23.684  1.00  0.00     0.202 C 
BRANCH   3   4
ATOM      4  C   UNL A   1      30.556  28.558  23.580  1.00  0.00     0.261 C 
BRANCH   4   5
ATOM      5  O   UNL A   1      30.119  27.259  23.074  1.00  0.00    -0.462 OA
BRANCH   5   6
ATOM      6  C   UNL A   1      30.457  26.212  23.866  1.00  0.00     0.331 C 
ATOM      7  O   UNL A   1      30.011  26.108  25.015  1.00  0.00    -0.249 OA
BRANCH   6   8
ATOM      8  C   UNL A   1      31.505  25.151  23.348  1.00  0.00     0.136 C 
ATOM      9  C   UNL A   1      30.729  23.826  23.645  1.00  0.00     0.047 C 
BRANCH   8  10
ATOM     10  N   UNL A   1      32.583  25.429  24.317  1.00  0.00    -0.322 N 
ATOM     11  C   UNL A   1      33.300  24.643  25.155  1.00  0.00     0.319 C 
ATOM     12  O   UNL A   1      34.001  25.276  25.949  1.00  0.00    -0.249 OA
ATOM     13  H   UNL A   1      32.833  26.380  24.362  1.00  0.00     0.166 HD
BRANCH  11  14
ATOM     14  N   UNL A   1      33.296  23.250  25.127  1.00  0.00    -0.311 N 
ATOM     15  C   UNL A   1      34.604  22.619  24.804  1.00  0.00     0.196 C 
ATOM     16  C   UNL A   1      34.398  21.199  24.221  1.00  0.00     0.037 C 
ATOM     17  C   UNL A   1      33.594  20.293  25.133  1.00  0.00     0.005 C 
ATOM     18  C   UNL A   1      32.456  22.359  25.948  1.00  0.00     0.122 C 
ATOM     19  C   UNL A   1      32.263  20.943  25.425  1.00  0.00     0.022 C 
BRANCH  15  20
ATOM     20  C   UNL A   1      35.567  23.264  23.796  1.00  0.00     0.328 C 
ATOM     21  O   UNL A   1      35.247  23.474  22.627  1.00  0.00    -0.250 OA
BRANCH  20  22
ATOM     22  O   UNL A   1      36.696  23.746  24.387  1.00  0.00    -0.464 OA
BRANCH  22  23
ATOM     23  C   UNL A   1      36.933  23.249  25.707  1.00  0.00     0.229 C 
ATOM     24  C   UNL A   1      37.903  24.162  26.435  1.00  0.00     0.049 C 
ENDBRANCH  22  23
ENDBRANCH  20  22
ENDBRANCH  15  20
ENDBRANCH  11  14
ENDBRANCH   8  10
BRANCH   8  25
ATOM     25  C   UNL A   1      32.307  24.823  22.057  1.00  0.00     0.037 C 
ATOM     26  C   UNL A   1      32.772  25.911  21.135  1.00  0.00     0.007 C 
ENDBRANCH   8  25
ENDBRANCH   6   8
ENDBRANCH   5   6
ENDBRANCH   4   5
ENDBRANCH   3   4
ENDBRANCH   2   3
ENDBRANCH   1   2
BRANCH   1  27
ATOM     27  C   UNL A   1      31.771  30.587  26.221  1.00  0.00     0.188 C 
BRANCH  27  28
ATOM     28  O   UNL A   1      32.520  31.121  27.305  1.00  0.00    -0.376 OA
BRANCH  28  29
ATOM     29  C   UNL A   1      33.867  30.678  27.460  1.00  0.00     0.202 C 
BRANCH  29  30
ATOM     30  C   UNL A   1      34.789  31.597  28.277  1.00  0.00     0.261 C 
BRANCH  30  31
ATOM     31  O   UNL A   1      36.190  31.265  28.238  1.00  0.00    -0.460 OA
BRANCH  31  32
ATOM     32  C   UNL A   1      36.776  30.765  29.350  1.00  0.00     0.338 C 
ATOM     33  O   UNL A   1      36.231  30.503  30.408  1.00  0.00    -0.246 OA
BRANCH  32  34
ATOM     34  C   UNL A   1      38.137  30.308  28.964  1.00  0.00     0.060 A 
ATOM     35  C   UNL A   1      39.111  30.202  29.966  1.00  0.00     0.016 A 
ATOM     36  C   UNL A   1      38.429  29.885  27.667  1.00  0.00     0.016 A 
ATOM     37  C   UNL A   1      40.372  29.672  29.689  1.00  0.00     0.010 A 
ATOM     38  C   UNL A   1      39.699  29.386  27.375  1.00  0.00     0.010 A 
ATOM     39  C   UNL A   1      40.682  29.302  28.378  1.00  0.00    -0.014 A 
BRANCH  39  40
ATOM     40  C   UNL A   1      42.089  29.080  27.974  1.00  0.00     0.031 A 
ATOM     41  C   UNL A   1      42.475  27.678  27.596  1.00  0.00     0.074 A 
ATOM     42  C   UNL A   1      43.000  30.068  27.971  1.00  0.00     0.049 A 
ATOM     43  N   UNL A   1      43.659  27.161  27.419  1.00  0.00    -0.248 NA
ATOM     44  C   UNL A   1      41.364  26.726  27.412  1.00  0.00     0.031 C 
ATOM     45  C   UNL A   1      42.728  31.478  28.240  1.00  0.00     0.029 A 
ATOM     46  N   UNL A   1      44.356  30.019  27.759  1.00  0.00    -0.354 N 
ATOM     47  C   UNL A   1      43.440  25.818  27.138  1.00  0.00     0.074 A 
ATOM     48  C   UNL A   1      42.013  25.596  27.182  1.00  0.00     0.031 C 
ATOM     49  C   UNL A   1      43.889  32.158  28.206  1.00  0.00     0.029 A 
ATOM     50  C   UNL A   1      44.988  31.222  27.969  1.00  0.00     0.049 A 
ATOM     51  H   UNL A   1      44.830  29.201  27.482  1.00  0.00     0.167 HD
ATOM     52  C   UNL A   1      44.352  24.855  26.872  1.00  0.00     0.037 A 
ATOM     53  C   UNL A   1      46.305  31.516  28.011  1.00  0.00     0.037 A 
ATOM     54  C   UNL A   1      45.768  25.093  26.828  1.00  0.00     0.049 A 
ATOM     55  C   UNL A   1      47.312  30.412  27.791  1.00  0.00     0.074 A 
ATOM     56  C   UNL A   1      46.784  24.190  26.570  1.00  0.00     0.029 A 
ATOM     57  N   UNL A   1      46.369  26.323  27.050  1.00  0.00    -0.354 N 
ATOM     58  N   UNL A   1      47.101  29.139  27.546  1.00  0.00    -0.248 NA
ATOM     59  C   UNL A   1      48.734  30.780  27.857  1.00  0.00     0.031 C 
ATOM     60  C   UNL A   1      48.002  24.864  26.687  1.00  0.00     0.029 A 
ATOM     61  C   UNL A   1      47.743  26.201  26.951  1.00  0.00     0.049 A 
ATOM     62  H   UNL A   1      45.889  27.159  27.249  1.00  0.00     0.167 HD
ATOM     63  C   UNL A   1      48.361  28.567  27.385  1.00  0.00     0.074 A 
ATOM     64  C   UNL A   1      49.327  29.629  27.568  1.00  0.00     0.031 C 
ATOM     65  C   UNL A   1      48.687  27.281  27.102  1.00  0.00     0.037 A 
BRANCH  52  66
ATOM     66  C   UNL A   1      43.845  23.458  26.655  1.00  0.00     0.058 A 
ATOM     67  C   UNL A   1      43.327  22.683  27.704  1.00  0.00     0.135 A 
ATOM     68  C   UNL A   1      43.865  22.893  25.369  1.00  0.00     0.135 A 
ATOM     69  F   UNL A   1      43.312  23.163  28.957  1.00  0.00    -0.206 F 
ATOM     70  C   UNL A   1      42.870  21.387  27.491  1.00  0.00     0.059 A 
ATOM     71  C   UNL A   1      43.383  21.610  25.128  1.00  0.00     0.059 A 
ATOM     72  F   UNL A   1      44.359  23.586  24.332  1.00  0.00    -0.206 F 
ATOM     73  C   UNL A   1      42.901  20.859  26.199  1.00  0.00     0.060 A 
BRANCH  73  74
ATOM     74  S   UNL A   1      42.300  19.179  25.939  1.00  0.00     0.124 S 
ATOM     75  O   UNL A   1      42.977  18.816  24.698  1.00  0.00    -0.237 OA
ATOM     76  O   UNL A   1      42.765  18.492  27.140  1.00  0.00    -0.237 OA
ATOM     77  O   UNL A   1      40.853  19.346  25.837  1.00  0.00    -0.744 OA
ENDBRANCH  73  74
ENDBRANCH  52  66
BRANCH  53  78
ATOM     78  C   UNL A   1      46.752  32.906  28.301  1.00  0.00     0.058 A 
ATOM     79  C   UNL A   1      47.046  33.314  29.611  1.00  0.00     0.135 A 
ATOM     80  C   UNL A   1      46.889  33.858  27.278  1.00  0.00     0.135 A 
ATOM     81  F   UNL A   1      46.916  32.448  30.627  1.00  0.00    -0.206 F 
ATOM     82  C   UNL A   1      47.444  34.616  29.898  1.00  0.00     0.059 A 
ATOM     83  C   UNL A   1      47.313  35.158  27.535  1.00  0.00     0.059 A 
ATOM     84  F   UNL A   1      46.627  33.519  26.005  1.00  0.00    -0.206 F 
ATOM     85  C   UNL A   1      47.579  35.531  28.852  1.00  0.00     0.060 A 
BRANCH  85  86
ATOM     86  S   UNL A   1      48.139  37.205  29.234  1.00  0.00     0.124 S 
ATOM     87  O   UNL A   1      48.564  37.063  30.622  1.00  0.00    -0.237 OA
ATOM     88  O   UNL A   1      49.204  37.401  28.255  1.00  0.00    -0.237 OA
ATOM     89  O   UNL A   1      46.943  38.016  29.020  1.00  0.00    -0.744 OA
ENDBRANCH  85  86
ENDBRANCH  53  78
BRANCH  65  90
ATOM     90  C   UNL A   1      50.138  26.947  26.888  1.00  0.00     0.058 A 
ATOM     91  C   UNL A   1      50.962  26.500  27.930  1.00  0.00     0.135 A 
ATOM     92  C   UNL A   1      50.674  26.970  25.588  1.00  0.00     0.135 A 
ATOM     93  F   UNL A   1      50.501  26.464  29.190  1.00  0.00    -0.206 F 
ATOM     94  C   UNL A   1      52.271  26.088  27.692  1.00  0.00     0.059 A 
ATOM     95  C   UNL A   1      51.968  26.536  25.324  1.00  0.00     0.059 A 
ATOM     96  F   UNL A   1      49.922  27.379  24.554  1.00  0.00    -0.206 F 
ATOM     97  C   UNL A   1      52.761  26.099  26.384  1.00  0.00     0.060 A 
BRANCH  97  98
ATOM     98  S   UNL A   1      54.432  25.488  26.079  1.00  0.00     0.124 S 
ATOM     99  O   UNL A   1      54.759  24.872  27.361  1.00  0.00    -0.237 OA
ATOM    100  O   UNL A   1      54.227  24.565  24.966  1.00  0.00    -0.237 OA
ATOM    101  O   UNL A   1      55.183  26.696  25.754  1.00  0.00    -0.744 OA
ENDBRANCH  97  98
ENDBRANCH  65  90
ENDBRANCH  39  40
ENDBRANCH  32  34
ENDBRANCH  31  32
ENDBRANCH  30  31
ENDBRANCH  29  30
ENDBRANCH  28  29
ENDBRANCH  27  28
ENDBRANCH   1  27
TORSDOF 26
ENDMDL
