MODEL 1
REMARK VINA RESULT:      -8.6      0.000      0.000
REMARK SMILES C#CCNC(=O)C[N@@H+](CC(=O)OCCOCCOCCOC(=O)c1ccc(-c2c3nc(c(-c4c(F)cc(S(=O)(=O)[O-])cc4F)c4ccc([nH]4)c(-c4c(F)cc(S(=O)(=O)[O-])cc4F)c4nc(c(-c5c(F)cc(S(=O)(=O)[O-])cc5F)c5ccc2[nH]5)C=C4)C=C3)cc1)C(C)(C)C
REMARK SMILES IDX 16 1 15 2 14 3 13 4 12 5 10 6 11 7 9 8 8 9 7 11 5 12 4 13
REMARK SMILES IDX 6 15 3 16 2 17 1 18 90 19 91 20 92 21 93 22 17 23 18 24
REMARK SMILES IDX 19 25 20 26 21 27 22 28 23 29 24 30 25 31 89 32 26 33 88 34
REMARK SMILES IDX 27 35 28 36 29 37 82 38 30 39 87 40 81 41 83 42 31 43 86 44
REMARK SMILES IDX 80 45 79 46 32 48 66 49 45 50 65 51 46 52 49 53 64 54 84 55
REMARK SMILES IDX 47 56 48 57 63 59 85 60 50 61 33 62 34 63 43 64 35 65 36 66
REMARK SMILES IDX 42 67 44 68 37 69 38 70 39 71 40 72 41 73 67 74 68 75 77 76
REMARK SMILES IDX 69 77 70 78 76 79 78 80 71 81 72 82 73 83 74 84 75 85 51 86
REMARK SMILES IDX 52 87 61 88 53 89 54 90 60 91 62 92 55 93 56 94 57 95 58 96
REMARK SMILES IDX 59 97
REMARK H PARENT 8 10 4 14 83 47 49 58
REMARK Flexibility Score: inf
ROOT
ATOM      1  C   UNL A   1      34.729  31.051  28.101  1.00  0.00     0.188 C 
ENDROOT
BRANCH   1   2
ATOM      2  O   UNL A   1      33.491  30.709  27.493  1.00  0.00    -0.376 OA
BRANCH   2   3
ATOM      3  C   UNL A   1      33.508  29.576  26.628  1.00  0.00     0.202 C 
BRANCH   3   4
ATOM      4  C   UNL A   1      33.056  28.226  27.214  1.00  0.00     0.261 C 
BRANCH   4   5
ATOM      5  O   UNL A   1      32.410  27.287  26.315  1.00  0.00    -0.459 OA
BRANCH   5   6
ATOM      6  C   UNL A   1      33.232  26.364  25.743  1.00  0.00     0.361 C 
ATOM      7  O   UNL A   1      34.109  26.662  24.932  1.00  0.00    -0.245 OA
BRANCH   6   8
ATOM      8  C   UNL A   1      32.980  24.883  26.055  1.00  0.00     0.387 C 
BRANCH   8   9
ATOM      9  N   UNL A   1      33.547  23.768  25.241  1.00  0.00    -0.314 N 
ATOM     10  H   UNL A   1      34.167  24.201  24.556  1.00  0.00     0.349 HD
BRANCH   9  11
ATOM     11  C   UNL A   1      32.519  23.124  24.398  1.00  0.00     0.364 C 
BRANCH  11  12
ATOM     12  C   UNL A   1      31.092  23.307  24.919  1.00  0.00     0.275 C 
ATOM     13  N   UNL A   1      30.230  24.102  24.216  1.00  0.00    -0.340 N 
ATOM     14  H   UNL A   1      29.276  24.065  24.451  1.00  0.00     0.164 HD
ATOM     15  O   UNL A   1      30.712  22.781  25.967  1.00  0.00    -0.268 OA
BRANCH  13  16
ATOM     16  C   UNL A   1      30.622  24.983  23.165  1.00  0.00     0.206 C 
BRANCH  16  17
ATOM     17  C   UNL A   1      30.485  26.477  23.408  1.00  0.00    -0.085 C 
ATOM     18  C   UNL A   1      30.367  27.759  23.617  1.00  0.00     0.006 C 
ENDBRANCH  16  17
ENDBRANCH  13  16
ENDBRANCH  11  12
ENDBRANCH   9  11
BRANCH   9  19
ATOM     19  C   UNL A   1      34.650  22.962  25.825  1.00  0.00     0.090 C 
ATOM     20  C   UNL A   1      34.674  21.701  25.012  1.00  0.00     0.078 C 
ATOM     21  C   UNL A   1      36.136  23.439  25.780  1.00  0.00     0.078 C 
ATOM     22  C   UNL A   1      34.366  22.705  27.328  1.00  0.00     0.078 C 
ENDBRANCH   9  19
ENDBRANCH   8   9
ENDBRANCH   6   8
ENDBRANCH   5   6
ENDBRANCH   4   5
ENDBRANCH   3   4
ENDBRANCH   2   3
ENDBRANCH   1   2
BRANCH   1  23
ATOM     23  C   UNL A   1      35.134  32.535  28.009  1.00  0.00     0.188 C 
BRANCH  23  24
ATOM     24  O   UNL A   1      35.575  33.075  29.250  1.00  0.00    -0.376 OA
BRANCH  24  25
ATOM     25  C   UNL A   1      34.790  32.876  30.427  1.00  0.00     0.202 C 
BRANCH  25  26
ATOM     26  C   UNL A   1      35.335  32.018  31.570  1.00  0.00     0.261 C 
BRANCH  26  27
ATOM     27  O   UNL A   1      36.458  31.189  31.211  1.00  0.00    -0.460 OA
BRANCH  27  28
ATOM     28  C   UNL A   1      37.564  31.261  31.990  1.00  0.00     0.338 C 
ATOM     29  O   UNL A   1      37.600  31.520  33.183  1.00  0.00    -0.246 OA
BRANCH  28  30
ATOM     30  C   UNL A   1      38.712  30.746  31.201  1.00  0.00     0.060 A 
ATOM     31  C   UNL A   1      39.799  30.179  31.874  1.00  0.00     0.016 A 
ATOM     32  C   UNL A   1      38.718  30.787  29.810  1.00  0.00     0.016 A 
ATOM     33  C   UNL A   1      40.892  29.654  31.191  1.00  0.00     0.010 A 
ATOM     34  C   UNL A   1      39.830  30.293  29.115  1.00  0.00     0.010 A 
ATOM     35  C   UNL A   1      40.933  29.745  29.802  1.00  0.00    -0.014 A 
BRANCH  35  36
ATOM     36  C   UNL A   1      42.207  29.480  29.089  1.00  0.00     0.031 A 
ATOM     37  C   UNL A   1      42.426  28.098  28.540  1.00  0.00     0.074 A 
ATOM     38  C   UNL A   1      43.130  30.439  28.887  1.00  0.00     0.049 A 
ATOM     39  N   UNL A   1      43.513  27.556  28.058  1.00  0.00    -0.248 NA
ATOM     40  C   UNL A   1      41.256  27.204  28.540  1.00  0.00     0.031 C 
ATOM     41  C   UNL A   1      42.991  31.847  29.256  1.00  0.00     0.029 A 
ATOM     42  N   UNL A   1      44.383  30.360  28.328  1.00  0.00    -0.354 N 
ATOM     43  C   UNL A   1      43.171  26.246  27.744  1.00  0.00     0.074 A 
ATOM     44  C   UNL A   1      41.779  26.072  28.096  1.00  0.00     0.031 C 
ATOM     45  C   UNL A   1      44.124  32.495  28.935  1.00  0.00     0.029 A 
ATOM     46  C   UNL A   1      45.091  31.537  28.399  1.00  0.00     0.049 A 
ATOM     47  H   UNL A   1      44.739  29.541  27.916  1.00  0.00     0.167 HD
ATOM     48  C   UNL A   1      43.952  25.276  27.215  1.00  0.00     0.037 A 
ATOM     49  C   UNL A   1      46.383  31.796  28.114  1.00  0.00     0.037 A 
ATOM     50  C   UNL A   1      45.328  25.471  26.844  1.00  0.00     0.049 A 
ATOM     51  C   UNL A   1      47.265  30.678  27.617  1.00  0.00     0.074 A 
ATOM     52  C   UNL A   1      46.210  24.553  26.303  1.00  0.00     0.029 A 
ATOM     53  N   UNL A   1      46.021  26.667  26.970  1.00  0.00    -0.354 N 
ATOM     54  N   UNL A   1      46.954  29.426  27.372  1.00  0.00    -0.248 NA
ATOM     55  C   UNL A   1      48.677  31.002  27.365  1.00  0.00     0.031 C 
ATOM     56  C   UNL A   1      47.453  25.177  26.157  1.00  0.00     0.029 A 
ATOM     57  C   UNL A   1      47.328  26.503  26.542  1.00  0.00     0.049 A 
ATOM     58  H   UNL A   1      45.641  27.507  27.315  1.00  0.00     0.167 HD
ATOM     59  C   UNL A   1      48.121  28.824  26.908  1.00  0.00     0.074 A 
ATOM     60  C   UNL A   1      49.143  29.852  26.899  1.00  0.00     0.031 C 
ATOM     61  C   UNL A   1      48.329  27.541  26.523  1.00  0.00     0.037 A 
BRANCH  48  62
ATOM     62  C   UNL A   1      43.352  23.907  27.059  1.00  0.00     0.058 A 
ATOM     63  C   UNL A   1      43.197  23.027  28.141  1.00  0.00     0.135 A 
ATOM     64  C   UNL A   1      42.906  23.477  25.798  1.00  0.00     0.135 A 
ATOM     65  F   UNL A   1      43.629  23.376  29.364  1.00  0.00    -0.206 F 
ATOM     66  C   UNL A   1      42.645  21.761  27.976  1.00  0.00     0.059 A 
ATOM     67  C   UNL A   1      42.321  22.228  25.615  1.00  0.00     0.059 A 
ATOM     68  F   UNL A   1      43.037  24.274  24.726  1.00  0.00    -0.206 F 
ATOM     69  C   UNL A   1      42.208  21.371  26.708  1.00  0.00     0.060 A 
BRANCH  69  70
ATOM     70  S   UNL A   1      41.489  19.728  26.511  1.00  0.00     0.124 S 
ATOM     71  O   UNL A   1      41.886  19.086  27.760  1.00  0.00    -0.237 OA
ATOM     72  O   UNL A   1      40.067  20.026  26.376  1.00  0.00    -0.237 OA
ATOM     73  O   UNL A   1      42.137  19.214  25.309  1.00  0.00    -0.744 OA
ENDBRANCH  69  70
ENDBRANCH  48  62
BRANCH  49  74
ATOM     74  C   UNL A   1      46.941  33.159  28.339  1.00  0.00     0.058 A 
ATOM     75  C   UNL A   1      46.887  34.142  27.340  1.00  0.00     0.135 A 
ATOM     76  C   UNL A   1      47.556  33.503  29.555  1.00  0.00     0.135 A 
ATOM     77  F   UNL A   1      46.327  33.861  26.152  1.00  0.00    -0.206 F 
ATOM     78  C   UNL A   1      47.430  35.409  27.529  1.00  0.00     0.059 A 
ATOM     79  C   UNL A   1      48.078  34.773  29.780  1.00  0.00     0.059 A 
ATOM     80  F   UNL A   1      47.635  32.602  30.547  1.00  0.00    -0.206 F 
ATOM     81  C   UNL A   1      48.020  35.717  28.757  1.00  0.00     0.060 A 
BRANCH  81  82
ATOM     82  S   UNL A   1      48.679  37.379  29.009  1.00  0.00     0.124 S 
ATOM     83  O   UNL A   1      47.458  38.155  29.196  1.00  0.00    -0.237 OA
ATOM     84  O   UNL A   1      49.511  37.201  30.195  1.00  0.00    -0.237 OA
ATOM     85  O   UNL A   1      49.410  37.641  27.772  1.00  0.00    -0.744 OA
ENDBRANCH  81  82
ENDBRANCH  49  74
BRANCH  61  86
ATOM     86  C   UNL A   1      49.695  27.176  26.003  1.00  0.00     0.058 A 
ATOM     87  C   UNL A   1      50.689  26.637  26.834  1.00  0.00     0.135 A 
ATOM     88  C   UNL A   1      49.986  27.302  24.634  1.00  0.00     0.135 A 
ATOM     89  F   UNL A   1      50.466  26.499  28.151  1.00  0.00    -0.206 F 
ATOM     90  C   UNL A   1      51.929  26.257  26.331  1.00  0.00     0.059 A 
ATOM     91  C   UNL A   1      51.207  26.899  24.104  1.00  0.00     0.059 A 
ATOM     92  F   UNL A   1      49.067  27.800  23.790  1.00  0.00    -0.206 F 
ATOM     93  C   UNL A   1      52.177  26.387  24.963  1.00  0.00     0.060 A 
BRANCH  93  94
ATOM     94  S   UNL A   1      53.775  25.848  24.317  1.00  0.00     0.124 S 
ATOM     95  O   UNL A   1      53.575  25.995  22.880  1.00  0.00    -0.237 OA
ATOM     96  O   UNL A   1      54.695  26.801  24.930  1.00  0.00    -0.237 OA
ATOM     97  O   UNL A   1      53.892  24.475  24.798  1.00  0.00    -0.744 OA
ENDBRANCH  93  94
ENDBRANCH  61  86
ENDBRANCH  35  36
ENDBRANCH  28  30
ENDBRANCH  27  28
ENDBRANCH  26  27
ENDBRANCH  25  26
ENDBRANCH  24  25
ENDBRANCH  23  24
ENDBRANCH   1  23
TORSDOF 26
ENDMDL
MODEL 2
REMARK VINA RESULT:      -8.5      6.933     12.014
REMARK SMILES C#CCNC(=O)C[N@@H+](CC(=O)OCCOCCOCCOC(=O)c1ccc(-c2c3nc(c(-c4c(F)cc(S(=O)(=O)[O-])cc4F)c4ccc([nH]4)c(-c4c(F)cc(S(=O)(=O)[O-])cc4F)c4nc(c(-c5c(F)cc(S(=O)(=O)[O-])cc5F)c5ccc2[nH]5)C=C4)C=C3)cc1)C(C)(C)C
REMARK SMILES IDX 16 1 15 2 14 3 13 4 12 5 10 6 11 7 9 8 8 9 7 11 5 12 4 13
REMARK SMILES IDX 6 15 3 16 2 17 1 18 90 19 91 20 92 21 93 22 17 23 18 24
REMARK SMILES IDX 19 25 20 26 21 27 22 28 23 29 24 30 25 31 89 32 26 33 88 34
REMARK SMILES IDX 27 35 28 36 29 37 82 38 30 39 87 40 81 41 83 42 31 43 86 44
REMARK SMILES IDX 80 45 79 46 32 48 66 49 45 50 65 51 46 52 49 53 64 54 84 55
REMARK SMILES IDX 47 56 48 57 63 59 85 60 50 61 33 62 34 63 43 64 35 65 36 66
REMARK SMILES IDX 42 67 44 68 37 69 38 70 39 71 40 72 41 73 67 74 68 75 77 76
REMARK SMILES IDX 69 77 70 78 76 79 78 80 71 81 72 82 73 83 74 84 75 85 51 86
REMARK SMILES IDX 52 87 61 88 53 89 54 90 60 91 62 92 55 93 56 94 57 95 58 96
REMARK SMILES IDX 59 97
REMARK H PARENT 8 10 4 14 83 47 49 58
REMARK Flexibility Score: inf
ROOT
ATOM      1  C   UNL A   1      35.945  21.265  25.093  1.00  0.00     0.188 C 
ENDROOT
BRANCH   1   2
ATOM      2  O   UNL A   1      35.093  20.138  24.948  1.00  0.00    -0.376 OA
BRANCH   2   3
ATOM      3  C   UNL A   1      33.813  20.388  24.374  1.00  0.00     0.202 C 
BRANCH   3   4
ATOM      4  C   UNL A   1      32.576  20.140  25.257  1.00  0.00     0.261 C 
BRANCH   4   5
ATOM      5  O   UNL A   1      31.476  21.082  25.152  1.00  0.00    -0.459 OA
BRANCH   5   6
ATOM      6  C   UNL A   1      31.717  22.321  25.660  1.00  0.00     0.361 C 
ATOM      7  O   UNL A   1      32.138  22.504  26.803  1.00  0.00    -0.245 OA
BRANCH   6   8
ATOM      8  C   UNL A   1      31.351  23.538  24.800  1.00  0.00     0.387 C 
BRANCH   8   9
ATOM      9  N   UNL A   1      32.142  24.803  24.794  1.00  0.00    -0.314 N 
ATOM     10  H   UNL A   1      32.909  24.664  25.451  1.00  0.00     0.349 HD
BRANCH   9  11
ATOM     11  C   UNL A   1      31.390  25.924  25.394  1.00  0.00     0.364 C 
BRANCH  11  12
ATOM     12  C   UNL A   1      29.924  25.599  25.686  1.00  0.00     0.275 C 
ATOM     13  N   UNL A   1      28.975  25.949  24.765  1.00  0.00    -0.340 N 
ATOM     14  H   UNL A   1      28.072  25.575  24.872  1.00  0.00     0.164 HD
ATOM     15  O   UNL A   1      29.576  25.059  26.738  1.00  0.00    -0.268 OA
BRANCH  13  16
ATOM     16  C   UNL A   1      29.207  26.821  23.660  1.00  0.00     0.206 C 
BRANCH  16  17
ATOM     17  C   UNL A   1      28.159  27.882  23.366  1.00  0.00    -0.085 C 
ATOM     18  C   UNL A   1      27.260  28.792  23.114  1.00  0.00     0.006 C 
ENDBRANCH  16  17
ENDBRANCH  13  16
ENDBRANCH  11  12
ENDBRANCH   9  11
BRANCH   9  19
ATOM     19  C   UNL A   1      33.070  25.046  23.660  1.00  0.00     0.090 C 
ATOM     20  C   UNL A   1      33.907  26.213  24.094  1.00  0.00     0.078 C 
ATOM     21  C   UNL A   1      34.135  23.990  23.224  1.00  0.00     0.078 C 
ATOM     22  C   UNL A   1      32.255  25.334  22.372  1.00  0.00     0.078 C 
ENDBRANCH   9  19
ENDBRANCH   8   9
ENDBRANCH   6   8
ENDBRANCH   5   6
ENDBRANCH   4   5
ENDBRANCH   3   4
ENDBRANCH   2   3
ENDBRANCH   1   2
BRANCH   1  23
ATOM     23  C   UNL A   1      35.571  22.249  26.219  1.00  0.00     0.188 C 
BRANCH  23  24
ATOM     24  O   UNL A   1      36.464  23.354  26.320  1.00  0.00    -0.376 OA
BRANCH  24  25
ATOM     25  C   UNL A   1      37.861  23.157  26.094  1.00  0.00     0.202 C 
BRANCH  25  26
ATOM     26  C   UNL A   1      38.744  24.344  25.705  1.00  0.00     0.261 C 
BRANCH  26  27
ATOM     27  O   UNL A   1      39.892  24.538  26.555  1.00  0.00    -0.460 OA
BRANCH  27  28
ATOM     28  C   UNL A   1      40.627  25.661  26.368  1.00  0.00     0.338 C 
ATOM     29  O   UNL A   1      40.998  26.119  25.300  1.00  0.00    -0.246 OA
BRANCH  28  30
ATOM     30  C   UNL A   1      40.713  26.371  27.670  1.00  0.00     0.060 A 
ATOM     31  C   UNL A   1      39.751  26.110  28.651  1.00  0.00     0.016 A 
ATOM     32  C   UNL A   1      41.743  27.265  27.947  1.00  0.00     0.016 A 
ATOM     33  C   UNL A   1      39.793  26.722  29.900  1.00  0.00     0.010 A 
ATOM     34  C   UNL A   1      41.772  27.913  29.188  1.00  0.00     0.010 A 
ATOM     35  C   UNL A   1      40.784  27.663  30.163  1.00  0.00    -0.014 A 
BRANCH  35  36
ATOM     36  C   UNL A   1      40.662  28.541  31.353  1.00  0.00     0.031 A 
ATOM     37  C   UNL A   1      39.616  29.621  31.320  1.00  0.00     0.074 A 
ATOM     38  C   UNL A   1      41.417  28.370  32.454  1.00  0.00     0.049 A 
ATOM     39  N   UNL A   1      39.436  30.630  32.129  1.00  0.00    -0.248 NA
ATOM     40  C   UNL A   1      38.643  29.551  30.217  1.00  0.00     0.031 C 
ATOM     41  C   UNL A   1      42.379  27.289  32.667  1.00  0.00     0.029 A 
ATOM     42  N   UNL A   1      41.498  29.122  33.601  1.00  0.00    -0.354 N 
ATOM     43  C   UNL A   1      38.362  31.342  31.607  1.00  0.00     0.074 A 
ATOM     44  C   UNL A   1      37.936  30.654  30.409  1.00  0.00     0.031 C 
ATOM     45  C   UNL A   1      42.970  27.462  33.862  1.00  0.00     0.029 A 
ATOM     46  C   UNL A   1      42.478  28.698  34.468  1.00  0.00     0.049 A 
ATOM     47  H   UNL A   1      40.911  29.890  33.784  1.00  0.00     0.167 HD
ATOM     48  C   UNL A   1      37.789  32.472  32.084  1.00  0.00     0.037 A 
ATOM     49  C   UNL A   1      42.956  29.272  35.591  1.00  0.00     0.037 A 
ATOM     50  C   UNL A   1      38.206  33.130  33.293  1.00  0.00     0.049 A 
ATOM     51  C   UNL A   1      42.370  30.582  36.055  1.00  0.00     0.074 A 
ATOM     52  C   UNL A   1      37.695  34.283  33.862  1.00  0.00     0.029 A 
ATOM     53  N   UNL A   1      39.230  32.693  34.121  1.00  0.00    -0.354 N 
ATOM     54  N   UNL A   1      41.391  31.282  35.529  1.00  0.00    -0.248 NA
ATOM     55  C   UNL A   1      42.958  31.188  37.259  1.00  0.00     0.031 C 
ATOM     56  C   UNL A   1      38.448  34.574  35.004  1.00  0.00     0.029 A 
ATOM     57  C   UNL A   1      39.383  33.568  35.184  1.00  0.00     0.049 A 
ATOM     58  H   UNL A   1      39.768  31.883  33.974  1.00  0.00     0.167 HD
ATOM     59  C   UNL A   1      41.226  32.391  36.356  1.00  0.00     0.074 A 
ATOM     60  C   UNL A   1      42.201  32.264  37.420  1.00  0.00     0.031 C 
ATOM     61  C   UNL A   1      40.348  33.419  36.246  1.00  0.00     0.037 A 
BRANCH  48  62
ATOM     62  C   UNL A   1      36.690  33.093  31.268  1.00  0.00     0.058 A 
ATOM     63  C   UNL A   1      35.336  32.971  31.617  1.00  0.00     0.135 A 
ATOM     64  C   UNL A   1      37.006  33.842  30.122  1.00  0.00     0.135 A 
ATOM     65  F   UNL A   1      34.976  32.245  32.687  1.00  0.00    -0.206 F 
ATOM     66  C   UNL A   1      34.332  33.548  30.845  1.00  0.00     0.059 A 
ATOM     67  C   UNL A   1      36.021  34.454  29.354  1.00  0.00     0.059 A 
ATOM     68  F   UNL A   1      38.284  33.983  29.738  1.00  0.00    -0.206 F 
ATOM     69  C   UNL A   1      34.685  34.290  29.716  1.00  0.00     0.060 A 
BRANCH  69  70
ATOM     70  S   UNL A   1      33.372  35.037  28.729  1.00  0.00     0.124 S 
ATOM     71  O   UNL A   1      32.522  35.612  29.767  1.00  0.00    -0.237 OA
ATOM     72  O   UNL A   1      34.106  35.993  27.909  1.00  0.00    -0.237 OA
ATOM     73  O   UNL A   1      32.800  33.903  28.009  1.00  0.00    -0.744 OA
ENDBRANCH  69  70
ENDBRANCH  48  62
BRANCH  49  74
ATOM     74  C   UNL A   1      44.084  28.641  36.332  1.00  0.00     0.058 A 
ATOM     75  C   UNL A   1      43.873  27.553  37.192  1.00  0.00     0.135 A 
ATOM     76  C   UNL A   1      45.397  29.125  36.208  1.00  0.00     0.135 A 
ATOM     77  F   UNL A   1      42.634  27.064  37.361  1.00  0.00    -0.206 F 
ATOM     78  C   UNL A   1      44.914  26.975  37.909  1.00  0.00     0.059 A 
ATOM     79  C   UNL A   1      46.462  28.543  36.891  1.00  0.00     0.059 A 
ATOM     80  F   UNL A   1      45.658  30.163  35.398  1.00  0.00    -0.206 F 
ATOM     81  C   UNL A   1      46.209  27.475  37.748  1.00  0.00     0.060 A 
BRANCH  81  82
ATOM     82  S   UNL A   1      47.560  26.686  38.649  1.00  0.00     0.124 S 
ATOM     83  O   UNL A   1      48.654  26.791  37.690  1.00  0.00    -0.237 OA
ATOM     84  O   UNL A   1      47.669  27.529  39.836  1.00  0.00    -0.237 OA
ATOM     85  O   UNL A   1      47.060  25.336  38.891  1.00  0.00    -0.744 OA
ENDBRANCH  81  82
ENDBRANCH  49  74
BRANCH  61  86
ATOM     86  C   UNL A   1      40.353  34.465  37.329  1.00  0.00     0.058 A 
ATOM     87  C   UNL A   1      39.538  34.362  38.467  1.00  0.00     0.135 A 
ATOM     88  C   UNL A   1      41.241  35.551  37.258  1.00  0.00     0.135 A 
ATOM     89  F   UNL A   1      38.666  33.348  38.585  1.00  0.00    -0.206 F 
ATOM     90  C   UNL A   1      39.588  35.310  39.484  1.00  0.00     0.059 A 
ATOM     91  C   UNL A   1      41.332  36.492  38.279  1.00  0.00     0.059 A 
ATOM     92  F   UNL A   1      42.054  35.692  36.198  1.00  0.00    -0.206 F 
ATOM     93  C   UNL A   1      40.493  36.369  39.384  1.00  0.00     0.060 A 
BRANCH  93  94
ATOM     94  S   UNL A   1      40.579  37.566  40.733  1.00  0.00     0.124 S 
ATOM     95  O   UNL A   1      40.840  38.805  40.009  1.00  0.00    -0.237 OA
ATOM     96  O   UNL A   1      39.255  37.451  41.336  1.00  0.00    -0.237 OA
ATOM     97  O   UNL A   1      41.681  37.075  41.555  1.00  0.00    -0.744 OA
ENDBRANCH  93  94
ENDBRANCH  61  86
ENDBRANCH  35  36
ENDBRANCH  28  30
ENDBRANCH  27  28
ENDBRANCH  26  27
ENDBRANCH  25  26
ENDBRANCH  24  25
ENDBRANCH  23  24
ENDBRANCH   1  23
TORSDOF 26
ENDMDL
MODEL 3
REMARK VINA RESULT:      -7.7      3.232      9.304
REMARK SMILES C#CCNC(=O)C[N@@H+](CC(=O)OCCOCCOCCOC(=O)c1ccc(-c2c3nc(c(-c4c(F)cc(S(=O)(=O)[O-])cc4F)c4ccc([nH]4)c(-c4c(F)cc(S(=O)(=O)[O-])cc4F)c4nc(c(-c5c(F)cc(S(=O)(=O)[O-])cc5F)c5ccc2[nH]5)C=C4)C=C3)cc1)C(C)(C)C
REMARK SMILES IDX 16 1 15 2 14 3 13 4 12 5 10 6 11 7 9 8 8 9 7 11 5 12 4 13
REMARK SMILES IDX 6 15 3 16 2 17 1 18 90 19 91 20 92 21 93 22 17 23 18 24
REMARK SMILES IDX 19 25 20 26 21 27 22 28 23 29 24 30 25 31 89 32 26 33 88 34
REMARK SMILES IDX 27 35 28 36 29 37 82 38 30 39 87 40 81 41 83 42 31 43 86 44
REMARK SMILES IDX 80 45 79 46 32 48 66 49 45 50 65 51 46 52 49 53 64 54 84 55
REMARK SMILES IDX 47 56 48 57 63 59 85 60 50 61 33 62 34 63 43 64 35 65 36 66
REMARK SMILES IDX 42 67 44 68 37 69 38 70 39 71 40 72 41 73 67 74 68 75 77 76
REMARK SMILES IDX 69 77 70 78 76 79 78 80 71 81 72 82 73 83 74 84 75 85 51 86
REMARK SMILES IDX 52 87 61 88 53 89 54 90 60 91 62 92 55 93 56 94 57 95 58 96
REMARK SMILES IDX 59 97
REMARK H PARENT 8 10 4 14 83 47 49 58
REMARK Flexibility Score: inf
ROOT
ATOM      1  C   UNL A   1      33.790  20.985  24.643  1.00  0.00     0.188 C 
ENDROOT
BRANCH   1   2
ATOM      2  O   UNL A   1      32.852  21.154  25.697  1.00  0.00    -0.376 OA
BRANCH   2   3
ATOM      3  C   UNL A   1      31.569  21.649  25.322  1.00  0.00     0.202 C 
BRANCH   3   4
ATOM      4  C   UNL A   1      31.143  23.019  25.882  1.00  0.00     0.261 C 
BRANCH   4   5
ATOM      5  O   UNL A   1      30.789  24.053  24.927  1.00  0.00    -0.459 OA
BRANCH   5   6
ATOM      6  C   UNL A   1      30.613  25.297  25.450  1.00  0.00     0.361 C 
ATOM      7  O   UNL A   1      29.815  25.533  26.358  1.00  0.00    -0.245 OA
BRANCH   6   8
ATOM      8  C   UNL A   1      31.372  26.465  24.807  1.00  0.00     0.387 C 
BRANCH   8   9
ATOM      9  N   UNL A   1      30.974  27.893  24.978  1.00  0.00    -0.314 N 
ATOM     10  H   UNL A   1      30.284  27.909  25.728  1.00  0.00     0.349 HD
BRANCH   9  11
ATOM     11  C   UNL A   1      30.213  28.394  23.815  1.00  0.00     0.364 C 
BRANCH  11  12
ATOM     12  C   UNL A   1      31.093  28.824  22.640  1.00  0.00     0.275 C 
ATOM     13  N   UNL A   1      30.646  29.815  21.810  1.00  0.00    -0.340 N 
ATOM     14  H   UNL A   1      31.290  30.209  21.179  1.00  0.00     0.164 HD
ATOM     15  O   UNL A   1      32.175  28.281  22.407  1.00  0.00    -0.268 OA
BRANCH  13  16
ATOM     16  C   UNL A   1      29.311  30.316  21.798  1.00  0.00     0.206 C 
BRANCH  16  17
ATOM     17  C   UNL A   1      29.053  31.655  22.468  1.00  0.00    -0.085 C 
ATOM     18  C   UNL A   1      28.832  32.805  23.042  1.00  0.00     0.006 C 
ENDBRANCH  16  17
ENDBRANCH  13  16
ENDBRANCH  11  12
ENDBRANCH   9  11
BRANCH   9  19
ATOM     19  C   UNL A   1      31.894  28.796  25.716  1.00  0.00     0.090 C 
ATOM     20  C   UNL A   1      31.457  30.180  25.338  1.00  0.00     0.078 C 
ATOM     21  C   UNL A   1      31.924  28.848  27.277  1.00  0.00     0.078 C 
ATOM     22  C   UNL A   1      33.359  28.493  25.307  1.00  0.00     0.078 C 
ENDBRANCH   9  19
ENDBRANCH   8   9
ENDBRANCH   6   8
ENDBRANCH   5   6
ENDBRANCH   4   5
ENDBRANCH   3   4
ENDBRANCH   2   3
ENDBRANCH   1   2
BRANCH   1  23
ATOM     23  C   UNL A   1      33.861  22.133  23.617  1.00  0.00     0.188 C 
BRANCH  23  24
ATOM     24  O   UNL A   1      35.079  22.869  23.680  1.00  0.00    -0.376 OA
BRANCH  24  25
ATOM     25  C   UNL A   1      35.875  22.819  24.866  1.00  0.00     0.202 C 
BRANCH  25  26
ATOM     26  C   UNL A   1      37.140  23.673  24.970  1.00  0.00     0.261 C 
BRANCH  26  27
ATOM     27  O   UNL A   1      37.583  23.921  26.319  1.00  0.00    -0.460 OA
BRANCH  27  28
ATOM     28  C   UNL A   1      38.772  23.391  26.695  1.00  0.00     0.338 C 
ATOM     29  O   UNL A   1      39.116  22.225  26.588  1.00  0.00    -0.246 OA
BRANCH  28  30
ATOM     30  C   UNL A   1      39.679  24.512  27.050  1.00  0.00     0.060 A 
ATOM     31  C   UNL A   1      40.436  24.428  28.223  1.00  0.00     0.016 A 
ATOM     32  C   UNL A   1      39.815  25.628  26.230  1.00  0.00     0.016 A 
ATOM     33  C   UNL A   1      41.324  25.432  28.597  1.00  0.00     0.010 A 
ATOM     34  C   UNL A   1      40.679  26.661  26.617  1.00  0.00     0.010 A 
ATOM     35  C   UNL A   1      41.421  26.579  27.813  1.00  0.00    -0.014 A 
BRANCH  35  36
ATOM     36  C   UNL A   1      42.115  27.776  28.351  1.00  0.00     0.031 A 
ATOM     37  C   UNL A   1      41.269  28.862  28.956  1.00  0.00     0.074 A 
ATOM     38  C   UNL A   1      43.456  27.889  28.352  1.00  0.00     0.049 A 
ATOM     39  N   UNL A   1      41.600  30.074  29.312  1.00  0.00    -0.248 NA
ATOM     40  C   UNL A   1      39.852  28.531  29.186  1.00  0.00     0.031 C 
ATOM     41  C   UNL A   1      44.398  26.861  27.911  1.00  0.00     0.029 A 
ATOM     42  N   UNL A   1      44.258  28.939  28.728  1.00  0.00    -0.354 N 
ATOM     43  C   UNL A   1      40.426  30.666  29.761  1.00  0.00     0.074 A 
ATOM     44  C   UNL A   1      39.373  29.683  29.626  1.00  0.00     0.031 C 
ATOM     45  C   UNL A   1      45.649  27.341  28.020  1.00  0.00     0.029 A 
ATOM     46  C   UNL A   1      45.593  28.729  28.475  1.00  0.00     0.049 A 
ATOM     47  H   UNL A   1      43.910  29.763  29.139  1.00  0.00     0.167 HD
ATOM     48  C   UNL A   1      40.243  31.920  30.236  1.00  0.00     0.037 A 
ATOM     49  C   UNL A   1      46.639  29.578  28.552  1.00  0.00     0.037 A 
ATOM     50  C   UNL A   1      41.305  32.879  30.390  1.00  0.00     0.049 A 
ATOM     51  C   UNL A   1      46.402  31.001  28.992  1.00  0.00     0.074 A 
ATOM     52  C   UNL A   1      41.227  34.178  30.859  1.00  0.00     0.029 A 
ATOM     53  N   UNL A   1      42.637  32.642  30.084  1.00  0.00    -0.354 N 
ATOM     54  N   UNL A   1      45.281  31.575  29.364  1.00  0.00    -0.248 NA
ATOM     55  C   UNL A   1      47.568  31.897  29.014  1.00  0.00     0.031 C 
ATOM     56  C   UNL A   1      42.503  34.745  30.781  1.00  0.00     0.029 A 
ATOM     57  C   UNL A   1      43.388  33.779  30.329  1.00  0.00     0.049 A 
ATOM     58  H   UNL A   1      42.996  31.791  29.741  1.00  0.00     0.167 HD
ATOM     59  C   UNL A   1      45.614  32.887  29.694  1.00  0.00     0.074 A 
ATOM     60  C   UNL A   1      47.041  33.018  29.485  1.00  0.00     0.031 C 
ATOM     61  C   UNL A   1      44.813  33.890  30.132  1.00  0.00     0.037 A 
BRANCH  48  62
ATOM     62  C   UNL A   1      38.839  32.341  30.571  1.00  0.00     0.058 A 
ATOM     63  C   UNL A   1      38.250  32.067  31.814  1.00  0.00     0.135 A 
ATOM     64  C   UNL A   1      38.078  33.052  29.628  1.00  0.00     0.135 A 
ATOM     65  F   UNL A   1      38.923  31.368  32.743  1.00  0.00    -0.206 F 
ATOM     66  C   UNL A   1      36.947  32.459  32.103  1.00  0.00     0.059 A 
ATOM     67  C   UNL A   1      36.785  33.482  29.907  1.00  0.00     0.059 A 
ATOM     68  F   UNL A   1      38.589  33.334  28.420  1.00  0.00    -0.206 F 
ATOM     69  C   UNL A   1      36.222  33.168  31.143  1.00  0.00     0.060 A 
BRANCH  69  70
ATOM     70  S   UNL A   1      34.536  33.675  31.535  1.00  0.00     0.124 S 
ATOM     71  O   UNL A   1      33.981  33.894  30.202  1.00  0.00    -0.237 OA
ATOM     72  O   UNL A   1      34.022  32.514  32.253  1.00  0.00    -0.237 OA
ATOM     73  O   UNL A   1      34.720  34.878  32.341  1.00  0.00    -0.744 OA
ENDBRANCH  69  70
ENDBRANCH  48  62
BRANCH  49  74
ATOM     74  C   UNL A   1      48.002  29.124  28.156  1.00  0.00     0.058 A 
ATOM     75  C   UNL A   1      48.380  29.048  26.806  1.00  0.00     0.135 A 
ATOM     76  C   UNL A   1      48.951  28.740  29.118  1.00  0.00     0.135 A 
ATOM     77  F   UNL A   1      47.505  29.385  25.845  1.00  0.00    -0.206 F 
ATOM     78  C   UNL A   1      49.639  28.598  26.424  1.00  0.00     0.059 A 
ATOM     79  C   UNL A   1      50.228  28.317  28.762  1.00  0.00     0.059 A 
ATOM     80  F   UNL A   1      48.644  28.793  30.424  1.00  0.00    -0.206 F 
ATOM     81  C   UNL A   1      50.560  28.239  27.411  1.00  0.00     0.060 A 
BRANCH  81  82
ATOM     82  S   UNL A   1      52.208  27.702  26.905  1.00  0.00     0.124 S 
ATOM     83  O   UNL A   1      51.918  26.422  26.269  1.00  0.00    -0.237 OA
ATOM     84  O   UNL A   1      52.619  28.781  26.011  1.00  0.00    -0.237 OA
ATOM     85  O   UNL A   1      52.940  27.629  28.165  1.00  0.00    -0.744 OA
ENDBRANCH  81  82
ENDBRANCH  49  74
BRANCH  61  86
ATOM     86  C   UNL A   1      45.459  35.207  30.473  1.00  0.00     0.058 A 
ATOM     87  C   UNL A   1      45.578  36.243  29.534  1.00  0.00     0.135 A 
ATOM     88  C   UNL A   1      45.900  35.458  31.783  1.00  0.00     0.135 A 
ATOM     89  F   UNL A   1      45.176  36.055  28.266  1.00  0.00    -0.206 F 
ATOM     90  C   UNL A   1      46.131  37.472  29.875  1.00  0.00     0.059 A 
ATOM     91  C   UNL A   1      46.427  36.691  32.154  1.00  0.00     0.059 A 
ATOM     92  F   UNL A   1      45.798  34.507  32.725  1.00  0.00    -0.206 F 
ATOM     93  C   UNL A   1      46.548  37.690  31.190  1.00  0.00     0.060 A 
BRANCH  93  94
ATOM     94  S   UNL A   1      47.223  39.305  31.631  1.00  0.00     0.124 S 
ATOM     95  O   UNL A   1      46.201  39.813  32.540  1.00  0.00    -0.237 OA
ATOM     96  O   UNL A   1      48.499  38.952  32.245  1.00  0.00    -0.237 OA
ATOM     97  O   UNL A   1      47.321  39.995  30.348  1.00  0.00    -0.744 OA
ENDBRANCH  93  94
ENDBRANCH  61  86
ENDBRANCH  35  36
ENDBRANCH  28  30
ENDBRANCH  27  28
ENDBRANCH  26  27
ENDBRANCH  25  26
ENDBRANCH  24  25
ENDBRANCH  23  24
ENDBRANCH   1  23
TORSDOF 26
ENDMDL
