MODEL 1
REMARK VINA RESULT:     -10.6      0.000      0.000
REMARK SMILES O=C(OCCOCCOCCOC(=O)c1ccc(-c2ccn(C(F)F)c(=O)c2)cc1O)c1ccc(-c2c3nc(c(-c4c(F)cc(S(=O)(=O)[O-])cc4F)c4ccc([nH]4)c(-c4c(F)cc(S(=O)(=O)[O-])cc4F)c4nc(c(-c5c(F)cc(S(=O)(=O)[O-])cc5F)c5ccc2[nH]5)C=C4)C=C3)cc1
REMARK SMILES IDX 7 1 6 2 5 3 4 4 3 5 2 6 1 7 32 8 33 9 97 10 34 11 96 12
REMARK SMILES IDX 35 13 36 14 37 15 90 16 38 17 95 18 89 19 91 20 39 21 94 22
REMARK SMILES IDX 88 23 87 24 40 26 74 27 53 28 73 29 54 30 57 31 72 32 92 33
REMARK SMILES IDX 55 34 56 35 71 37 93 38 58 39 41 40 42 41 51 42 43 43 44 44
REMARK SMILES IDX 50 45 52 46 45 47 46 48 47 49 48 50 49 51 75 52 76 53 85 54
REMARK SMILES IDX 77 55 78 56 84 57 86 58 79 59 80 60 81 61 82 62 83 63 59 64
REMARK SMILES IDX 60 65 69 66 61 67 62 68 68 69 70 70 63 71 64 72 65 73 66 74
REMARK SMILES IDX 67 75 8 76 9 77 10 78 11 79 12 80 13 81 14 82 15 83 16 84
REMARK SMILES IDX 30 85 17 86 29 87 18 88 31 89 19 91 20 92 28 93 21 94 26 95
REMARK SMILES IDX 22 96 27 97 23 98 24 99 25 100
REMARK H PARENT 91 25 57 36 31 90
REMARK Flexibility Score: inf
ROOT
ATOM      1  C   UNL A   1      34.491  29.575  27.414  1.00  0.00     0.188 C 
ENDROOT
BRANCH   1   2
ATOM      2  O   UNL A   1      33.856  30.694  27.997  1.00  0.00    -0.376 OA
BRANCH   2   3
ATOM      3  C   UNL A   1      33.546  31.846  27.239  1.00  0.00     0.202 C 
BRANCH   3   4
ATOM      4  C   UNL A   1      32.453  32.816  27.700  1.00  0.00     0.261 C 
BRANCH   4   5
ATOM      5  O   UNL A   1      32.753  34.209  27.587  1.00  0.00    -0.460 OA
BRANCH   5   6
ATOM      6  C   UNL A   1      32.975  34.919  28.722  1.00  0.00     0.338 C 
ATOM      7  O   UNL A   1      32.485  36.018  28.927  1.00  0.00    -0.246 OA
BRANCH   6   8
ATOM      8  C   UNL A   1      34.156  34.435  29.469  1.00  0.00     0.060 A 
ATOM      9  C   UNL A   1      33.970  33.965  30.777  1.00  0.00     0.016 A 
ATOM     10  C   UNL A   1      35.429  34.450  28.899  1.00  0.00     0.016 A 
ATOM     11  C   UNL A   1      35.069  33.533  31.525  1.00  0.00     0.010 A 
ATOM     12  C   UNL A   1      36.529  34.062  29.659  1.00  0.00     0.010 A 
ATOM     13  C   UNL A   1      36.353  33.574  30.966  1.00  0.00    -0.014 A 
BRANCH  13  14
ATOM     14  C   UNL A   1      37.482  32.862  31.601  1.00  0.00     0.031 A 
ATOM     15  C   UNL A   1      38.042  31.581  31.068  1.00  0.00     0.074 A 
ATOM     16  C   UNL A   1      37.928  33.372  32.766  1.00  0.00     0.049 A 
ATOM     17  N   UNL A   1      39.055  30.891  31.522  1.00  0.00    -0.248 NA
ATOM     18  C   UNL A   1      37.388  30.991  29.892  1.00  0.00     0.031 C 
ATOM     19  C   UNL A   1      37.408  34.586  33.401  1.00  0.00     0.029 A 
ATOM     20  N   UNL A   1      38.869  32.913  33.646  1.00  0.00    -0.354 N 
ATOM     21  C   UNL A   1      39.208  29.818  30.655  1.00  0.00     0.074 A 
ATOM     22  C   UNL A   1      38.129  29.904  29.694  1.00  0.00     0.031 C 
ATOM     23  C   UNL A   1      37.992  34.740  34.598  1.00  0.00     0.029 A 
ATOM     24  C   UNL A   1      38.941  33.653  34.799  1.00  0.00     0.049 A 
ATOM     25  H   UNL A   1      39.440  32.130  33.470  1.00  0.00     0.167 HD
ATOM     26  C   UNL A   1      40.180  28.875  30.660  1.00  0.00     0.037 A 
ATOM     27  C   UNL A   1      39.688  33.477  35.904  1.00  0.00     0.037 A 
ATOM     28  C   UNL A   1      41.198  28.767  31.672  1.00  0.00     0.049 A 
ATOM     29  C   UNL A   1      40.695  32.369  35.929  1.00  0.00     0.074 A 
ATOM     30  C   UNL A   1      42.265  27.886  31.728  1.00  0.00     0.029 A 
ATOM     31  N   UNL A   1      41.256  29.539  32.822  1.00  0.00    -0.354 N 
ATOM     32  N   UNL A   1      40.940  31.464  35.012  1.00  0.00    -0.248 NA
ATOM     33  C   UNL A   1      41.551  32.271  37.117  1.00  0.00     0.031 C 
ATOM     34  C   UNL A   1      42.931  28.084  32.941  1.00  0.00     0.029 A 
ATOM     35  C   UNL A   1      42.307  29.119  33.619  1.00  0.00     0.049 A 
ATOM     36  H   UNL A   1      40.640  30.276  33.040  1.00  0.00     0.167 HD
ATOM     37  C   UNL A   1      42.003  30.715  35.494  1.00  0.00     0.074 A 
ATOM     38  C   UNL A   1      42.350  31.265  36.789  1.00  0.00     0.031 C 
ATOM     39  C   UNL A   1      42.639  29.673  34.907  1.00  0.00     0.037 A 
BRANCH  26  40
ATOM     40  C   UNL A   1      40.251  27.910  29.514  1.00  0.00     0.058 A 
ATOM     41  C   UNL A   1      41.142  28.142  28.457  1.00  0.00     0.135 A 
ATOM     42  C   UNL A   1      39.563  26.687  29.536  1.00  0.00     0.135 A 
ATOM     43  F   UNL A   1      41.828  29.293  28.390  1.00  0.00    -0.206 F 
ATOM     44  C   UNL A   1      41.340  27.204  27.451  1.00  0.00     0.059 A 
ATOM     45  C   UNL A   1      39.757  25.724  28.548  1.00  0.00     0.059 A 
ATOM     46  F   UNL A   1      38.713  26.409  30.536  1.00  0.00    -0.206 F 
ATOM     47  C   UNL A   1      40.644  25.996  27.507  1.00  0.00     0.060 A 
BRANCH  47  48
ATOM     48  S   UNL A   1      40.927  24.797  26.189  1.00  0.00     0.124 S 
ATOM     49  O   UNL A   1      39.562  24.354  25.924  1.00  0.00    -0.237 OA
ATOM     50  O   UNL A   1      41.538  25.617  25.148  1.00  0.00    -0.237 OA
ATOM     51  O   UNL A   1      41.803  23.808  26.809  1.00  0.00    -0.744 OA
ENDBRANCH  47  48
ENDBRANCH  26  40
BRANCH  27  52
ATOM     52  C   UNL A   1      39.534  34.422  37.034  1.00  0.00     0.058 A 
ATOM     53  C   UNL A   1      38.787  34.068  38.165  1.00  0.00     0.135 A 
ATOM     54  C   UNL A   1      40.196  35.660  37.040  1.00  0.00     0.135 A 
ATOM     55  F   UNL A   1      38.147  32.890  38.204  1.00  0.00    -0.206 F 
ATOM     56  C   UNL A   1      38.692  34.913  39.263  1.00  0.00     0.059 A 
ATOM     57  C   UNL A   1      40.131  36.515  38.134  1.00  0.00     0.059 A 
ATOM     58  F   UNL A   1      40.948  36.026  35.989  1.00  0.00    -0.206 F 
ATOM     59  C   UNL A   1      39.370  36.134  39.239  1.00  0.00     0.060 A 
BRANCH  59  60
ATOM     60  S   UNL A   1      39.281  37.197  40.695  1.00  0.00     0.124 S 
ATOM     61  O   UNL A   1      38.427  38.279  40.217  1.00  0.00    -0.237 OA
ATOM     62  O   UNL A   1      38.689  36.307  41.690  1.00  0.00    -0.237 OA
ATOM     63  O   UNL A   1      40.676  37.555  40.937  1.00  0.00    -0.744 OA
ENDBRANCH  59  60
ENDBRANCH  27  52
BRANCH  39  64
ATOM     64  C   UNL A   1      43.784  29.050  35.651  1.00  0.00     0.058 A 
ATOM     65  C   UNL A   1      45.085  29.556  35.536  1.00  0.00     0.135 A 
ATOM     66  C   UNL A   1      43.557  28.004  36.560  1.00  0.00     0.135 A 
ATOM     67  F   UNL A   1      45.351  30.549  34.672  1.00  0.00    -0.206 F 
ATOM     68  C   UNL A   1      46.129  29.048  36.301  1.00  0.00     0.059 A 
ATOM     69  C   UNL A   1      44.582  27.495  37.352  1.00  0.00     0.059 A 
ATOM     70  F   UNL A   1      42.325  27.493  36.710  1.00  0.00    -0.206 F 
ATOM     71  C   UNL A   1      45.864  28.025  37.214  1.00  0.00     0.060 A 
BRANCH  71  72
ATOM     72  S   UNL A   1      47.213  27.434  38.257  1.00  0.00     0.124 S 
ATOM     73  O   UNL A   1      48.040  28.631  38.377  1.00  0.00    -0.237 OA
ATOM     74  O   UNL A   1      46.511  27.024  39.470  1.00  0.00    -0.237 OA
ATOM     75  O   UNL A   1      47.795  26.345  37.479  1.00  0.00    -0.744 OA
ENDBRANCH  71  72
ENDBRANCH  39  64
ENDBRANCH  13  14
ENDBRANCH   6   8
ENDBRANCH   5   6
ENDBRANCH   4   5
ENDBRANCH   3   4
ENDBRANCH   2   3
ENDBRANCH   1   2
BRANCH   1  76
ATOM     76  C   UNL A   1      33.687  28.496  26.680  1.00  0.00     0.188 C 
BRANCH  76  77
ATOM     77  O   UNL A   1      32.272  28.542  26.643  1.00  0.00    -0.376 OA
BRANCH  77  78
ATOM     78  C   UNL A   1      31.612  29.137  25.535  1.00  0.00     0.202 C 
BRANCH  78  79
ATOM     79  C   UNL A   1      31.139  28.260  24.378  1.00  0.00     0.261 C 
BRANCH  79  80
ATOM     80  O   UNL A   1      31.374  26.861  24.580  1.00  0.00    -0.460 OA
BRANCH  80  81
ATOM     81  C   UNL A   1      32.386  26.339  23.848  1.00  0.00     0.341 C 
ATOM     82  O   UNL A   1      33.384  26.919  23.454  1.00  0.00    -0.246 OA
BRANCH  81  83
ATOM     83  C   UNL A   1      32.213  24.888  23.689  1.00  0.00     0.101 A 
ATOM     84  C   UNL A   1      31.549  24.190  24.708  1.00  0.00     0.020 A 
ATOM     85  C   UNL A   1      32.842  24.197  22.655  1.00  0.00     0.130 A 
ATOM     86  C   UNL A   1      31.538  22.794  24.706  1.00  0.00     0.010 A 
ATOM     87  C   UNL A   1      32.849  22.805  22.668  1.00  0.00     0.055 A 
ATOM     88  C   UNL A   1      32.219  22.094  23.703  1.00  0.00    -0.014 A 
BRANCH  85  89
ATOM     89  O   UNL A   1      33.494  24.876  21.667  1.00  0.00    -0.507 OA
ATOM     90  H   UNL A   1      33.928  25.684  21.860  1.00  0.00     0.293 HD
ENDBRANCH  85  89
BRANCH  88  91
ATOM     91  C   UNL A   1      32.433  20.638  23.806  1.00  0.00    -0.011 A 
ATOM     92  C   UNL A   1      32.869  20.044  25.057  1.00  0.00     0.027 A 
ATOM     93  C   UNL A   1      32.234  19.840  22.742  1.00  0.00     0.080 A 
ATOM     94  C   UNL A   1      33.120  18.735  25.143  1.00  0.00     0.095 A 
ATOM     95  C   UNL A   1      32.443  18.365  22.845  1.00  0.00     0.255 A 
ATOM     96  N   UNL A   1      32.932  17.904  24.057  1.00  0.00    -0.258 N 
ATOM     97  O   UNL A   1      32.148  17.660  21.884  1.00  0.00    -0.269 OA
BRANCH  96  98
ATOM     98  C   UNL A   1      33.206  16.495  24.172  1.00  0.00     0.451 C 
ATOM     99  F   UNL A   1      34.413  16.192  23.632  1.00  0.00    -0.185 F 
ATOM    100  F   UNL A   1      33.209  16.085  25.461  1.00  0.00    -0.185 F 
ENDBRANCH  96  98
ENDBRANCH  88  91
ENDBRANCH  81  83
ENDBRANCH  80  81
ENDBRANCH  79  80
ENDBRANCH  78  79
ENDBRANCH  77  78
ENDBRANCH  76  77
ENDBRANCH   1  76
TORSDOF 23
ENDMDL
MODEL 2
REMARK VINA RESULT:     -10.3      0.836      8.088
REMARK SMILES O=C(OCCOCCOCCOC(=O)c1ccc(-c2ccn(C(F)F)c(=O)c2)cc1O)c1ccc(-c2c3nc(c(-c4c(F)cc(S(=O)(=O)[O-])cc4F)c4ccc([nH]4)c(-c4c(F)cc(S(=O)(=O)[O-])cc4F)c4nc(c(-c5c(F)cc(S(=O)(=O)[O-])cc5F)c5ccc2[nH]5)C=C4)C=C3)cc1
REMARK SMILES IDX 7 1 6 2 5 3 4 4 3 5 2 6 1 7 32 8 33 9 97 10 34 11 96 12
REMARK SMILES IDX 35 13 36 14 37 15 90 16 38 17 95 18 89 19 91 20 39 21 94 22
REMARK SMILES IDX 88 23 87 24 40 26 74 27 53 28 73 29 54 30 57 31 72 32 92 33
REMARK SMILES IDX 55 34 56 35 71 37 93 38 58 39 41 40 42 41 51 42 43 43 44 44
REMARK SMILES IDX 50 45 52 46 45 47 46 48 47 49 48 50 49 51 75 52 76 53 85 54
REMARK SMILES IDX 77 55 78 56 84 57 86 58 79 59 80 60 81 61 82 62 83 63 59 64
REMARK SMILES IDX 60 65 69 66 61 67 62 68 68 69 70 70 63 71 64 72 65 73 66 74
REMARK SMILES IDX 67 75 8 76 9 77 10 78 11 79 12 80 13 81 14 82 15 83 16 84
REMARK SMILES IDX 30 85 17 86 29 87 18 88 31 89 19 91 20 92 28 93 21 94 26 95
REMARK SMILES IDX 22 96 27 97 23 98 24 99 25 100
REMARK H PARENT 91 25 57 36 31 90
REMARK Flexibility Score: inf
ROOT
ATOM      1  C   UNL A   1      34.518  29.674  27.506  1.00  0.00     0.188 C 
ENDROOT
BRANCH   1   2
ATOM      2  O   UNL A   1      33.720  30.744  27.971  1.00  0.00    -0.376 OA
BRANCH   2   3
ATOM      3  C   UNL A   1      33.611  31.954  27.248  1.00  0.00     0.202 C 
BRANCH   3   4
ATOM      4  C   UNL A   1      32.538  32.986  27.606  1.00  0.00     0.261 C 
BRANCH   4   5
ATOM      5  O   UNL A   1      32.973  34.344  27.704  1.00  0.00    -0.460 OA
BRANCH   5   6
ATOM      6  C   UNL A   1      33.278  34.841  28.930  1.00  0.00     0.338 C 
ATOM      7  O   UNL A   1      32.935  35.951  29.304  1.00  0.00    -0.246 OA
BRANCH   6   8
ATOM      8  C   UNL A   1      34.381  34.100  29.581  1.00  0.00     0.060 A 
ATOM      9  C   UNL A   1      35.680  34.264  29.080  1.00  0.00     0.016 A 
ATOM     10  C   UNL A   1      34.143  33.250  30.660  1.00  0.00     0.016 A 
ATOM     11  C   UNL A   1      36.741  33.553  29.647  1.00  0.00     0.010 A 
ATOM     12  C   UNL A   1      35.192  32.507  31.196  1.00  0.00     0.010 A 
ATOM     13  C   UNL A   1      36.501  32.675  30.714  1.00  0.00    -0.014 A 
BRANCH  13  14
ATOM     14  C   UNL A   1      37.617  32.140  31.523  1.00  0.00     0.031 A 
ATOM     15  C   UNL A   1      38.097  32.791  32.781  1.00  0.00     0.074 A 
ATOM     16  C   UNL A   1      38.264  31.074  31.013  1.00  0.00     0.049 A 
ATOM     17  N   UNL A   1      39.041  32.387  33.591  1.00  0.00    -0.248 NA
ATOM     18  C   UNL A   1      37.457  34.051  33.182  1.00  0.00     0.031 C 
ATOM     19  C   UNL A   1      37.908  30.400  29.760  1.00  0.00     0.029 A 
ATOM     20  N   UNL A   1      39.378  30.408  31.445  1.00  0.00    -0.354 N 
ATOM     21  C   UNL A   1      39.071  33.302  34.632  1.00  0.00     0.074 A 
ATOM     22  C   UNL A   1      38.104  34.330  34.310  1.00  0.00     0.031 C 
ATOM     23  C   UNL A   1      38.825  29.458  29.493  1.00  0.00     0.029 A 
ATOM     24  C   UNL A   1      39.812  29.447  30.566  1.00  0.00     0.049 A 
ATOM     25  H   UNL A   1      39.824  30.597  32.302  1.00  0.00     0.167 HD
ATOM     26  C   UNL A   1      39.821  33.259  35.759  1.00  0.00     0.037 A 
ATOM     27  C   UNL A   1      40.889  28.644  30.613  1.00  0.00     0.037 A 
ATOM     28  C   UNL A   1      40.830  32.266  36.021  1.00  0.00     0.049 A 
ATOM     29  C   UNL A   1      41.764  28.675  31.828  1.00  0.00     0.074 A 
ATOM     30  C   UNL A   1      41.597  32.100  37.162  1.00  0.00     0.029 A 
ATOM     31  N   UNL A   1      41.239  31.296  35.120  1.00  0.00    -0.354 N 
ATOM     32  N   UNL A   1      41.665  29.441  32.888  1.00  0.00    -0.248 NA
ATOM     33  C   UNL A   1      42.875  27.718  31.876  1.00  0.00     0.031 C 
ATOM     34  C   UNL A   1      42.511  31.069  36.927  1.00  0.00     0.029 A 
ATOM     35  C   UNL A   1      42.284  30.563  35.657  1.00  0.00     0.049 A 
ATOM     36  H   UNL A   1      40.846  31.150  34.228  1.00  0.00     0.167 HD
ATOM     37  C   UNL A   1      42.675  29.031  33.746  1.00  0.00     0.074 A 
ATOM     38  C   UNL A   1      43.381  27.956  33.078  1.00  0.00     0.031 C 
ATOM     39  C   UNL A   1      42.980  29.498  34.981  1.00  0.00     0.037 A 
BRANCH  26  40
ATOM     40  C   UNL A   1      39.556  34.266  36.839  1.00  0.00     0.058 A 
ATOM     41  C   UNL A   1      38.763  33.918  37.942  1.00  0.00     0.135 A 
ATOM     42  C   UNL A   1      40.209  35.507  36.866  1.00  0.00     0.135 A 
ATOM     43  F   UNL A   1      38.121  32.740  37.969  1.00  0.00    -0.206 F 
ATOM     44  C   UNL A   1      38.611  34.770  39.028  1.00  0.00     0.059 A 
ATOM     45  C   UNL A   1      40.085  36.372  37.951  1.00  0.00     0.059 A 
ATOM     46  F   UNL A   1      40.994  35.879  35.843  1.00  0.00    -0.206 F 
ATOM     47  C   UNL A   1      39.279  35.995  39.024  1.00  0.00     0.060 A 
BRANCH  47  48
ATOM     48  S   UNL A   1      39.066  37.077  40.452  1.00  0.00     0.124 S 
ATOM     49  O   UNL A   1      38.166  38.086  39.900  1.00  0.00    -0.237 OA
ATOM     50  O   UNL A   1      38.475  36.178  41.439  1.00  0.00    -0.237 OA
ATOM     51  O   UNL A   1      40.421  37.531  40.743  1.00  0.00    -0.744 OA
ENDBRANCH  47  48
ENDBRANCH  26  40
BRANCH  27  52
ATOM     52  C   UNL A   1      41.141  27.712  29.490  1.00  0.00     0.058 A 
ATOM     53  C   UNL A   1      42.244  27.891  28.645  1.00  0.00     0.135 A 
ATOM     54  C   UNL A   1      40.333  26.581  29.291  1.00  0.00     0.135 A 
ATOM     55  F   UNL A   1      43.047  28.954  28.808  1.00  0.00    -0.206 F 
ATOM     56  C   UNL A   1      42.535  26.986  27.632  1.00  0.00     0.059 A 
ATOM     57  C   UNL A   1      40.614  25.652  28.295  1.00  0.00     0.059 A 
ATOM     58  F   UNL A   1      39.283  26.354  30.097  1.00  0.00    -0.206 F 
ATOM     59  C   UNL A   1      41.715  25.868  27.467  1.00  0.00     0.060 A 
BRANCH  59  60
ATOM     60  S   UNL A   1      42.137  24.673  26.182  1.00  0.00     0.124 S 
ATOM     61  O   UNL A   1      40.970  23.799  26.199  1.00  0.00    -0.237 OA
ATOM     62  O   UNL A   1      42.281  25.526  25.005  1.00  0.00    -0.237 OA
ATOM     63  O   UNL A   1      43.378  24.078  26.670  1.00  0.00    -0.744 OA
ENDBRANCH  59  60
ENDBRANCH  27  52
BRANCH  39  64
ATOM     64  C   UNL A   1      44.124  28.854  35.705  1.00  0.00     0.058 A 
ATOM     65  C   UNL A   1      45.426  29.364  35.605  1.00  0.00     0.135 A 
ATOM     66  C   UNL A   1      43.899  27.782  36.583  1.00  0.00     0.135 A 
ATOM     67  F   UNL A   1      45.691  30.382  34.771  1.00  0.00    -0.206 F 
ATOM     68  C   UNL A   1      46.469  28.834  36.354  1.00  0.00     0.059 A 
ATOM     69  C   UNL A   1      44.924  27.251  37.359  1.00  0.00     0.059 A 
ATOM     70  F   UNL A   1      42.667  27.265  36.718  1.00  0.00    -0.206 F 
ATOM     71  C   UNL A   1      46.206  27.785  37.238  1.00  0.00     0.060 A 
BRANCH  71  72
ATOM     72  S   UNL A   1      47.555  27.165  38.262  1.00  0.00     0.124 S 
ATOM     73  O   UNL A   1      46.833  26.643  39.418  1.00  0.00    -0.237 OA
ATOM     74  O   UNL A   1      48.171  26.166  37.394  1.00  0.00    -0.237 OA
ATOM     75  O   UNL A   1      48.366  28.353  38.514  1.00  0.00    -0.744 OA
ENDBRANCH  71  72
ENDBRANCH  39  64
ENDBRANCH  13  14
ENDBRANCH   6   8
ENDBRANCH   5   6
ENDBRANCH   4   5
ENDBRANCH   3   4
ENDBRANCH   2   3
ENDBRANCH   1   2
BRANCH   1  76
ATOM     76  C   UNL A   1      33.994  28.691  26.454  1.00  0.00     0.188 C 
BRANCH  76  77
ATOM     77  O   UNL A   1      32.617  28.370  26.378  1.00  0.00    -0.376 OA
BRANCH  77  78
ATOM     78  C   UNL A   1      31.730  29.223  25.670  1.00  0.00     0.202 C 
BRANCH  78  79
ATOM     79  C   UNL A   1      31.493  28.999  24.179  1.00  0.00     0.261 C 
BRANCH  79  80
ATOM     80  O   UNL A   1      32.030  27.762  23.690  1.00  0.00    -0.460 OA
BRANCH  80  81
ATOM     81  C   UNL A   1      31.277  27.146  22.747  1.00  0.00     0.341 C 
ATOM     82  O   UNL A   1      30.547  27.676  21.927  1.00  0.00    -0.246 OA
BRANCH  81  83
ATOM     83  C   UNL A   1      31.559  25.704  22.725  1.00  0.00     0.101 A 
ATOM     84  C   UNL A   1      30.657  24.848  23.372  1.00  0.00     0.020 A 
ATOM     85  C   UNL A   1      32.770  25.215  22.238  1.00  0.00     0.130 A 
ATOM     86  C   UNL A   1      30.981  23.502  23.557  1.00  0.00     0.010 A 
ATOM     87  C   UNL A   1      33.100  23.878  22.444  1.00  0.00     0.055 A 
ATOM     88  C   UNL A   1      32.221  23.019  23.124  1.00  0.00    -0.014 A 
BRANCH  85  89
ATOM     89  O   UNL A   1      33.652  26.049  21.615  1.00  0.00    -0.507 OA
ATOM     90  H   UNL A   1      33.339  26.704  21.021  1.00  0.00     0.293 HD
ENDBRANCH  85  89
BRANCH  88  91
ATOM     91  C   UNL A   1      32.692  21.677  23.518  1.00  0.00    -0.011 A 
ATOM     92  C   UNL A   1      33.744  21.527  24.507  1.00  0.00     0.027 A 
ATOM     93  C   UNL A   1      32.158  20.574  22.963  1.00  0.00     0.080 A 
ATOM     94  C   UNL A   1      34.216  20.319  24.827  1.00  0.00     0.095 A 
ATOM     95  C   UNL A   1      32.629  19.215  23.364  1.00  0.00     0.255 A 
ATOM     96  N   UNL A   1      33.688  19.178  24.257  1.00  0.00    -0.258 N 
ATOM     97  O   UNL A   1      32.044  18.233  22.915  1.00  0.00    -0.269 OA
BRANCH  96  98
ATOM     98  C   UNL A   1      34.209  17.885  24.618  1.00  0.00     0.451 C 
ATOM     99  F   UNL A   1      33.317  17.199  25.377  1.00  0.00    -0.185 F 
ATOM    100  F   UNL A   1      34.498  17.136  23.530  1.00  0.00    -0.185 F 
ENDBRANCH  96  98
ENDBRANCH  88  91
ENDBRANCH  81  83
ENDBRANCH  80  81
ENDBRANCH  79  80
ENDBRANCH  78  79
ENDBRANCH  77  78
ENDBRANCH  76  77
ENDBRANCH   1  76
TORSDOF 23
ENDMDL
MODEL 3
REMARK VINA RESULT:     -10.3      3.871      9.873
REMARK SMILES O=C(OCCOCCOCCOC(=O)c1ccc(-c2ccn(C(F)F)c(=O)c2)cc1O)c1ccc(-c2c3nc(c(-c4c(F)cc(S(=O)(=O)[O-])cc4F)c4ccc([nH]4)c(-c4c(F)cc(S(=O)(=O)[O-])cc4F)c4nc(c(-c5c(F)cc(S(=O)(=O)[O-])cc5F)c5ccc2[nH]5)C=C4)C=C3)cc1
REMARK SMILES IDX 7 1 6 2 5 3 4 4 3 5 2 6 1 7 32 8 33 9 97 10 34 11 96 12
REMARK SMILES IDX 35 13 36 14 37 15 90 16 38 17 95 18 89 19 91 20 39 21 94 22
REMARK SMILES IDX 88 23 87 24 40 26 74 27 53 28 73 29 54 30 57 31 72 32 92 33
REMARK SMILES IDX 55 34 56 35 71 37 93 38 58 39 41 40 42 41 51 42 43 43 44 44
REMARK SMILES IDX 50 45 52 46 45 47 46 48 47 49 48 50 49 51 75 52 76 53 85 54
REMARK SMILES IDX 77 55 78 56 84 57 86 58 79 59 80 60 81 61 82 62 83 63 59 64
REMARK SMILES IDX 60 65 69 66 61 67 62 68 68 69 70 70 63 71 64 72 65 73 66 74
REMARK SMILES IDX 67 75 8 76 9 77 10 78 11 79 12 80 13 81 14 82 15 83 16 84
REMARK SMILES IDX 30 85 17 86 29 87 18 88 31 89 19 91 20 92 28 93 21 94 26 95
REMARK SMILES IDX 22 96 27 97 23 98 24 99 25 100
REMARK H PARENT 91 25 57 36 31 90
REMARK Flexibility Score: inf
ROOT
ATOM      1  C   UNL A   1      31.418  26.998  26.614  1.00  0.00     0.188 C 
ENDROOT
BRANCH   1   2
ATOM      2  O   UNL A   1      31.549  28.195  27.356  1.00  0.00    -0.376 OA
BRANCH   2   3
ATOM      3  C   UNL A   1      31.394  29.461  26.749  1.00  0.00     0.202 C 
BRANCH   3   4
ATOM      4  C   UNL A   1      32.465  30.545  26.915  1.00  0.00     0.261 C 
BRANCH   4   5
ATOM      5  O   UNL A   1      33.651  30.161  27.615  1.00  0.00    -0.460 OA
BRANCH   5   6
ATOM      6  C   UNL A   1      34.677  29.626  26.906  1.00  0.00     0.338 C 
ATOM      7  O   UNL A   1      34.514  28.959  25.896  1.00  0.00    -0.246 OA
BRANCH   6   8
ATOM      8  C   UNL A   1      35.936  29.579  27.682  1.00  0.00     0.060 A 
ATOM      9  C   UNL A   1      35.856  29.398  29.069  1.00  0.00     0.016 A 
ATOM     10  C   UNL A   1      37.176  29.721  27.058  1.00  0.00     0.016 A 
ATOM     11  C   UNL A   1      37.024  29.384  29.839  1.00  0.00     0.010 A 
ATOM     12  C   UNL A   1      38.335  29.752  27.829  1.00  0.00     0.010 A 
ATOM     13  C   UNL A   1      38.269  29.555  29.219  1.00  0.00    -0.014 A 
BRANCH  13  14
ATOM     14  C   UNL A   1      39.524  29.254  29.941  1.00  0.00     0.031 A 
ATOM     15  C   UNL A   1      40.077  30.134  31.016  1.00  0.00     0.074 A 
ATOM     16  C   UNL A   1      40.218  28.183  29.507  1.00  0.00     0.049 A 
ATOM     17  N   UNL A   1      41.148  29.947  31.742  1.00  0.00    -0.248 NA
ATOM     18  C   UNL A   1      39.357  31.379  31.314  1.00  0.00     0.031 C 
ATOM     19  C   UNL A   1      39.792  27.293  28.423  1.00  0.00     0.029 A 
ATOM     20  N   UNL A   1      41.441  27.695  29.878  1.00  0.00    -0.354 N 
ATOM     21  C   UNL A   1      41.202  31.013  32.628  1.00  0.00     0.074 A 
ATOM     22  C   UNL A   1      40.099  31.888  32.294  1.00  0.00     0.031 C 
ATOM     23  C   UNL A   1      40.766  26.407  28.174  1.00  0.00     0.029 A 
ATOM     24  C   UNL A   1      41.869  26.652  29.095  1.00  0.00     0.049 A 
ATOM     25  H   UNL A   1      41.963  28.055  30.631  1.00  0.00     0.167 HD
ATOM     26  C   UNL A   1      42.081  31.213  33.639  1.00  0.00     0.037 A 
ATOM     27  C   UNL A   1      43.025  25.965  29.113  1.00  0.00     0.037 A 
ATOM     28  C   UNL A   1      43.215  30.368  33.904  1.00  0.00     0.049 A 
ATOM     29  C   UNL A   1      44.029  26.263  30.184  1.00  0.00     0.074 A 
ATOM     30  C   UNL A   1      44.126  30.451  34.945  1.00  0.00     0.029 A 
ATOM     31  N   UNL A   1      43.618  29.309  33.105  1.00  0.00    -0.354 N 
ATOM     32  N   UNL A   1      43.974  27.173  31.126  1.00  0.00    -0.248 NA
ATOM     33  C   UNL A   1      45.235  25.428  30.219  1.00  0.00     0.031 C 
ATOM     34  C   UNL A   1      45.112  29.481  34.740  1.00  0.00     0.029 A 
ATOM     35  C   UNL A   1      44.791  28.765  33.598  1.00  0.00     0.049 A 
ATOM     36  H   UNL A   1      43.140  28.991  32.304  1.00  0.00     0.167 HD
ATOM     37  C   UNL A   1      45.117  26.994  31.892  1.00  0.00     0.074 A 
ATOM     38  C   UNL A   1      45.851  25.895  31.297  1.00  0.00     0.031 C 
ATOM     39  C   UNL A   1      45.513  27.673  32.995  1.00  0.00     0.037 A 
BRANCH  26  40
ATOM     40  C   UNL A   1      41.839  32.349  34.589  1.00  0.00     0.058 A 
ATOM     41  C   UNL A   1      42.404  33.606  34.336  1.00  0.00     0.135 A 
ATOM     42  C   UNL A   1      40.928  32.240  35.651  1.00  0.00     0.135 A 
ATOM     43  F   UNL A   1      43.277  33.766  33.330  1.00  0.00    -0.206 F 
ATOM     44  C   UNL A   1      42.090  34.716  35.110  1.00  0.00     0.059 A 
ATOM     45  C   UNL A   1      40.584  33.342  36.431  1.00  0.00     0.059 A 
ATOM     46  F   UNL A   1      40.345  31.063  35.922  1.00  0.00    -0.206 F 
ATOM     47  C   UNL A   1      41.176  34.574  36.155  1.00  0.00     0.060 A 
BRANCH  47  48
ATOM     48  S   UNL A   1      40.785  36.035  37.139  1.00  0.00     0.124 S 
ATOM     49  O   UNL A   1      39.778  36.671  36.295  1.00  0.00    -0.237 OA
ATOM     50  O   UNL A   1      40.288  35.450  38.381  1.00  0.00    -0.237 OA
ATOM     51  O   UNL A   1      42.062  36.733  37.237  1.00  0.00    -0.744 OA
ENDBRANCH  47  48
ENDBRANCH  26  40
BRANCH  27  52
ATOM     52  C   UNL A   1      43.241  24.895  28.112  1.00  0.00     0.058 A 
ATOM     53  C   UNL A   1      43.910  25.164  26.912  1.00  0.00     0.135 A 
ATOM     54  C   UNL A   1      42.857  23.570  28.373  1.00  0.00     0.135 A 
ATOM     55  F   UNL A   1      44.303  26.415  26.628  1.00  0.00    -0.206 F 
ATOM     56  C   UNL A   1      44.185  24.157  25.994  1.00  0.00     0.059 A 
ATOM     57  C   UNL A   1      43.136  22.542  27.478  1.00  0.00     0.059 A 
ATOM     58  F   UNL A   1      42.240  23.262  29.525  1.00  0.00    -0.206 F 
ATOM     59  C   UNL A   1      43.796  22.848  26.289  1.00  0.00     0.060 A 
BRANCH  59  60
ATOM     60  S   UNL A   1      44.207  21.543  25.112  1.00  0.00     0.124 S 
ATOM     61  O   UNL A   1      43.166  20.559  25.390  1.00  0.00    -0.237 OA
ATOM     62  O   UNL A   1      44.104  22.239  23.833  1.00  0.00    -0.237 OA
ATOM     63  O   UNL A   1      45.560  21.155  25.499  1.00  0.00    -0.744 OA
ENDBRANCH  59  60
ENDBRANCH  27  52
BRANCH  39  64
ATOM     64  C   UNL A   1      46.799  27.255  33.645  1.00  0.00     0.058 A 
ATOM     65  C   UNL A   1      46.822  26.263  34.634  1.00  0.00     0.135 A 
ATOM     66  C   UNL A   1      48.025  27.779  33.202  1.00  0.00     0.135 A 
ATOM     67  F   UNL A   1      45.675  25.740  35.095  1.00  0.00    -0.206 F 
ATOM     68  C   UNL A   1      48.021  25.800  35.165  1.00  0.00     0.059 A 
ATOM     69  C   UNL A   1      49.236  27.314  33.703  1.00  0.00     0.059 A 
ATOM     70  F   UNL A   1      48.052  28.725  32.250  1.00  0.00    -0.206 F 
ATOM     71  C   UNL A   1      49.223  26.324  34.684  1.00  0.00     0.060 A 
BRANCH  71  72
ATOM     72  S   UNL A   1      50.771  25.652  35.325  1.00  0.00     0.124 S 
ATOM     73  O   UNL A   1      51.383  26.836  35.919  1.00  0.00    -0.237 OA
ATOM     74  O   UNL A   1      50.303  24.639  36.265  1.00  0.00    -0.237 OA
ATOM     75  O   UNL A   1      51.436  25.133  34.133  1.00  0.00    -0.744 OA
ENDBRANCH  71  72
ENDBRANCH  39  64
ENDBRANCH  13  14
ENDBRANCH   6   8
ENDBRANCH   5   6
ENDBRANCH   4   5
ENDBRANCH   3   4
ENDBRANCH   2   3
ENDBRANCH   1   2
BRANCH   1  76
ATOM     76  C   UNL A   1      32.640  26.142  26.264  1.00  0.00     0.188 C 
BRANCH  76  77
ATOM     77  O   UNL A   1      32.543  24.731  26.191  1.00  0.00    -0.376 OA
BRANCH  77  78
ATOM     78  C   UNL A   1      33.684  23.929  26.457  1.00  0.00     0.202 C 
BRANCH  78  79
ATOM     79  C   UNL A   1      34.157  22.917  25.416  1.00  0.00     0.261 C 
BRANCH  79  80
ATOM     80  O   UNL A   1      33.392  22.938  24.203  1.00  0.00    -0.460 OA
BRANCH  80  81
ATOM     81  C   UNL A   1      33.913  23.700  23.212  1.00  0.00     0.341 C 
ATOM     82  O   UNL A   1      34.954  23.508  22.606  1.00  0.00    -0.246 OA
BRANCH  81  83
ATOM     83  C   UNL A   1      32.971  24.762  22.830  1.00  0.00     0.101 A 
ATOM     84  C   UNL A   1      33.449  26.079  22.781  1.00  0.00     0.020 A 
ATOM     85  C   UNL A   1      31.609  24.500  22.697  1.00  0.00     0.130 A 
ATOM     86  C   UNL A   1      32.556  27.141  22.625  1.00  0.00     0.010 A 
ATOM     87  C   UNL A   1      30.718  25.562  22.564  1.00  0.00     0.055 A 
ATOM     88  C   UNL A   1      31.181  26.889  22.552  1.00  0.00    -0.014 A 
BRANCH  85  89
ATOM     89  O   UNL A   1      31.142  23.219  22.752  1.00  0.00    -0.507 OA
ATOM     90  H   UNL A   1      30.450  22.997  23.344  1.00  0.00     0.293 HD
ENDBRANCH  85  89
BRANCH  88  91
ATOM     91  C   UNL A   1      30.202  27.990  22.633  1.00  0.00    -0.011 A 
ATOM     92  C   UNL A   1      30.583  29.342  22.264  1.00  0.00     0.027 A 
ATOM     93  C   UNL A   1      28.946  27.760  23.054  1.00  0.00     0.080 A 
ATOM     94  C   UNL A   1      29.721  30.354  22.389  1.00  0.00     0.095 A 
ATOM     95  C   UNL A   1      27.952  28.872  23.131  1.00  0.00     0.255 A 
ATOM     96  N   UNL A   1      28.432  30.137  22.832  1.00  0.00    -0.258 N 
ATOM     97  O   UNL A   1      26.789  28.602  23.416  1.00  0.00    -0.269 OA
BRANCH  96  98
ATOM     98  C   UNL A   1      27.517  31.242  22.956  1.00  0.00     0.451 C 
ATOM     99  F   UNL A   1      27.242  31.497  24.260  1.00  0.00    -0.185 F 
ATOM    100  F   UNL A   1      28.013  32.373  22.404  1.00  0.00    -0.185 F 
ENDBRANCH  96  98
ENDBRANCH  88  91
ENDBRANCH  81  83
ENDBRANCH  80  81
ENDBRANCH  79  80
ENDBRANCH  78  79
ENDBRANCH  77  78
ENDBRANCH  76  77
ENDBRANCH   1  76
TORSDOF 23
ENDMDL
