MODEL 1
REMARK VINA RESULT:      -9.4      0.000      0.000
REMARK SMILES CC[C@](C(=O)OCCOCCOCCOC(=O)c1ccc(-c2c3nc(c(-c4c(F)cc(S(=O)(=O)[O-])cc4F)c4ccc([nH]4)c(-c4c(F)cc(S(=O)(=O)[O-])cc4F)c4nc(c(-c5c(F)cc(S(=O)(=O)[O-])cc5F)c5ccc2[nH]5)C=C4)C=C3)cc1)(C(=O)OC(C)(C)C)c1ccc(N)c(O)c1
REMARK SMILES IDX 10 1 9 2 8 3 7 4 6 5 4 6 5 7 3 8 2 9 1 10 84 11 85 12 86 13
REMARK SMILES IDX 87 14 88 15 89 16 90 17 91 18 92 19 98 20 93 21 96 22 94 23
REMARK SMILES IDX 97 24 95 26 11 29 12 30 13 31 14 32 15 33 16 34 17 35 18 36
REMARK SMILES IDX 19 37 83 38 20 39 82 40 21 41 22 42 23 43 76 44 24 45 81 46
REMARK SMILES IDX 75 47 77 48 25 49 80 50 74 51 73 52 26 54 60 55 39 56 59 57
REMARK SMILES IDX 40 58 43 59 58 60 78 61 41 62 42 63 57 65 79 66 44 67 27 68
REMARK SMILES IDX 28 69 37 70 29 71 30 72 36 73 38 74 31 75 32 76 33 77 34 78
REMARK SMILES IDX 35 79 61 80 62 81 71 82 63 83 64 84 70 85 72 86 65 87 66 88
REMARK SMILES IDX 67 89 68 90 69 91 45 92 46 93 55 94 47 95 48 96 54 97 56 98
REMARK SMILES IDX 49 99 50 100 51 101 52 102 53 103
REMARK H PARENT 97 25 95 27 95 28 77 53 43 64
REMARK Flexibility Score: inf
ROOT
ATOM      1  C   UNL A   1      34.331  32.799  28.017  1.00  0.00     0.188 C 
ENDROOT
BRANCH   1   2
ATOM      2  O   UNL A   1      33.945  31.461  28.293  1.00  0.00    -0.376 OA
BRANCH   2   3
ATOM      3  C   UNL A   1      33.789  30.545  27.214  1.00  0.00     0.202 C 
BRANCH   3   4
ATOM      4  C   UNL A   1      34.817  29.415  27.014  1.00  0.00     0.261 C 
BRANCH   4   5
ATOM      5  O   UNL A   1      34.276  28.079  26.860  1.00  0.00    -0.462 OA
BRANCH   5   6
ATOM      6  C   UNL A   1      33.713  27.770  25.654  1.00  0.00     0.328 C 
ATOM      7  O   UNL A   1      33.984  28.388  24.628  1.00  0.00    -0.251 OA
BRANCH   6   8
ATOM      8  C   UNL A   1      32.634  26.631  25.704  1.00  0.00     0.189 C 
BRANCH   8   9
ATOM      9  C   UNL A   1      31.377  26.866  26.629  1.00  0.00     0.032 C 
ATOM     10  C   UNL A   1      31.417  28.000  27.663  1.00  0.00     0.006 C 
ENDBRANCH   8   9
BRANCH   8  11
ATOM     11  C   UNL A   1      32.105  26.680  24.253  1.00  0.00     0.328 C 
ATOM     12  O   UNL A   1      32.698  26.314  23.249  1.00  0.00    -0.250 OA
BRANCH  11  13
ATOM     13  O   UNL A   1      30.853  27.235  24.245  1.00  0.00    -0.459 OA
BRANCH  13  14
ATOM     14  C   UNL A   1      30.605  28.458  23.515  1.00  0.00     0.104 C 
ATOM     15  C   UNL A   1      30.808  29.672  24.428  1.00  0.00     0.056 C 
ATOM     16  C   UNL A   1      31.449  28.520  22.239  1.00  0.00     0.056 C 
ATOM     17  C   UNL A   1      29.122  28.391  23.119  1.00  0.00     0.056 C 
ENDBRANCH  13  14
ENDBRANCH  11  13
ENDBRANCH   8  11
BRANCH   8  18
ATOM     18  C   UNL A   1      33.281  25.252  26.039  1.00  0.00    -0.016 A 
ATOM     19  C   UNL A   1      34.549  24.904  25.532  1.00  0.00     0.008 A 
ATOM     20  C   UNL A   1      32.593  24.262  26.765  1.00  0.00     0.054 A 
ATOM     21  C   UNL A   1      35.118  23.646  25.769  1.00  0.00     0.030 A 
ATOM     22  C   UNL A   1      33.168  23.010  26.991  1.00  0.00     0.138 A 
ATOM     23  C   UNL A   1      34.443  22.691  26.521  1.00  0.00     0.074 A 
BRANCH  22  24
ATOM     24  O   UNL A   1      32.488  22.053  27.699  1.00  0.00    -0.506 OA
ATOM     25  H   UNL A   1      31.564  21.953  27.583  1.00  0.00     0.293 HD
ENDBRANCH  22  24
BRANCH  23  26
ATOM     26  N   UNL A   1      34.956  21.410  26.681  1.00  0.00    -0.396 N 
ATOM     27  H   UNL A   1      35.821  21.173  26.277  1.00  0.00     0.156 HD
ATOM     28  H   UNL A   1      34.452  20.740  27.196  1.00  0.00     0.156 HD
ENDBRANCH  23  26
ENDBRANCH   8  18
ENDBRANCH   6   8
ENDBRANCH   5   6
ENDBRANCH   4   5
ENDBRANCH   3   4
ENDBRANCH   2   3
ENDBRANCH   1   2
BRANCH   1  29
ATOM     29  C   UNL A   1      34.165  33.845  29.124  1.00  0.00     0.188 C 
BRANCH  29  30
ATOM     30  O   UNL A   1      35.341  34.539  29.463  1.00  0.00    -0.376 OA
BRANCH  30  31
ATOM     31  C   UNL A   1      36.469  33.806  29.903  1.00  0.00     0.202 C 
BRANCH  31  32
ATOM     32  C   UNL A   1      36.928  33.849  31.369  1.00  0.00     0.261 C 
BRANCH  32  33
ATOM     33  O   UNL A   1      37.563  32.681  31.905  1.00  0.00    -0.460 OA
BRANCH  33  34
ATOM     34  C   UNL A   1      37.225  31.475  31.381  1.00  0.00     0.338 C 
ATOM     35  O   UNL A   1      36.106  31.031  31.244  1.00  0.00    -0.246 OA
BRANCH  34  36
ATOM     36  C   UNL A   1      38.466  30.916  30.778  1.00  0.00     0.060 A 
ATOM     37  C   UNL A   1      39.570  30.633  31.596  1.00  0.00     0.016 A 
ATOM     38  C   UNL A   1      38.512  30.629  29.412  1.00  0.00     0.016 A 
ATOM     39  C   UNL A   1      40.732  30.086  31.041  1.00  0.00     0.010 A 
ATOM     40  C   UNL A   1      39.680  30.104  28.856  1.00  0.00     0.010 A 
ATOM     41  C   UNL A   1      40.806  29.852  29.661  1.00  0.00    -0.014 A 
BRANCH  41  42
ATOM     42  C   UNL A   1      42.104  29.568  29.000  1.00  0.00     0.031 A 
ATOM     43  C   UNL A   1      42.347  28.164  28.519  1.00  0.00     0.074 A 
ATOM     44  C   UNL A   1      43.063  30.503  28.869  1.00  0.00     0.049 A 
ATOM     45  N   UNL A   1      43.448  27.613  28.079  1.00  0.00    -0.248 NA
ATOM     46  C   UNL A   1      41.188  27.254  28.555  1.00  0.00     0.031 C 
ATOM     47  C   UNL A   1      42.934  31.908  29.246  1.00  0.00     0.029 A 
ATOM     48  N   UNL A   1      44.349  30.401  28.392  1.00  0.00    -0.354 N 
ATOM     49  C   UNL A   1      43.118  26.294  27.794  1.00  0.00     0.074 A 
ATOM     50  C   UNL A   1      41.724  26.118  28.134  1.00  0.00     0.031 C 
ATOM     51  C   UNL A   1      44.095  32.540  28.985  1.00  0.00     0.029 A 
ATOM     52  C   UNL A   1      45.070  31.570  28.487  1.00  0.00     0.049 A 
ATOM     53  H   UNL A   1      44.719  29.570  28.018  1.00  0.00     0.167 HD
ATOM     54  C   UNL A   1      43.907  25.316  27.292  1.00  0.00     0.037 A 
ATOM     55  C   UNL A   1      46.374  31.813  28.240  1.00  0.00     0.037 A 
ATOM     56  C   UNL A   1      45.299  25.490  26.976  1.00  0.00     0.049 A 
ATOM     57  C   UNL A   1      47.264  30.676  27.786  1.00  0.00     0.074 A 
ATOM     58  C   UNL A   1      46.197  24.552  26.498  1.00  0.00     0.029 A 
ATOM     59  N   UNL A   1      45.997  26.681  27.111  1.00  0.00    -0.354 N 
ATOM     60  N   UNL A   1      46.948  29.426  27.539  1.00  0.00    -0.248 NA
ATOM     61  C   UNL A   1      48.690  30.980  27.590  1.00  0.00     0.031 C 
ATOM     62  C   UNL A   1      47.448  25.162  26.390  1.00  0.00     0.029 A 
ATOM     63  C   UNL A   1      47.318  26.498  26.736  1.00  0.00     0.049 A 
ATOM     64  H   UNL A   1      45.613  27.531  27.427  1.00  0.00     0.167 HD
ATOM     65  C   UNL A   1      48.123  28.812  27.109  1.00  0.00     0.074 A 
ATOM     66  C   UNL A   1      49.157  29.825  27.135  1.00  0.00     0.031 C 
ATOM     67  C   UNL A   1      48.326  27.529  26.723  1.00  0.00     0.037 A 
BRANCH  54  68
ATOM     68  C   UNL A   1      43.289  23.962  27.085  1.00  0.00     0.058 A 
ATOM     69  C   UNL A   1      42.575  23.649  25.919  1.00  0.00     0.135 A 
ATOM     70  C   UNL A   1      43.439  22.956  28.052  1.00  0.00     0.135 A 
ATOM     71  F   UNL A   1      42.380  24.583  24.973  1.00  0.00    -0.206 F 
ATOM     72  C   UNL A   1      42.015  22.391  25.725  1.00  0.00     0.059 A 
ATOM     73  C   UNL A   1      42.914  21.681  27.866  1.00  0.00     0.059 A 
ATOM     74  F   UNL A   1      44.106  23.204  29.191  1.00  0.00    -0.206 F 
ATOM     75  C   UNL A   1      42.194  21.412  26.703  1.00  0.00     0.060 A 
BRANCH  75  76
ATOM     76  S   UNL A   1      41.475  19.780  26.429  1.00  0.00     0.124 S 
ATOM     77  O   UNL A   1      42.317  19.267  25.351  1.00  0.00    -0.237 OA
ATOM     78  O   UNL A   1      41.652  19.141  27.729  1.00  0.00    -0.237 OA
ATOM     79  O   UNL A   1      40.094  20.073  26.059  1.00  0.00    -0.744 OA
ENDBRANCH  75  76
ENDBRANCH  54  68
BRANCH  55  80
ATOM     80  C   UNL A   1      46.951  33.174  28.445  1.00  0.00     0.058 A 
ATOM     81  C   UNL A   1      46.980  34.112  27.400  1.00  0.00     0.135 A 
ATOM     82  C   UNL A   1      47.537  33.547  29.665  1.00  0.00     0.135 A 
ATOM     83  F   UNL A   1      46.449  33.804  26.207  1.00  0.00    -0.206 F 
ATOM     84  C   UNL A   1      47.598  35.352  27.545  1.00  0.00     0.059 A 
ATOM     85  C   UNL A   1      48.131  34.792  29.845  1.00  0.00     0.059 A 
ATOM     86  F   UNL A   1      47.535  32.693  30.702  1.00  0.00    -0.206 F 
ATOM     87  C   UNL A   1      48.174  35.682  28.773  1.00  0.00     0.060 A 
BRANCH  87  88
ATOM     88  S   UNL A   1      48.969  37.293  28.953  1.00  0.00     0.124 S 
ATOM     89  O   UNL A   1      49.279  37.309  30.378  1.00  0.00    -0.237 OA
ATOM     90  O   UNL A   1      50.112  37.174  28.052  1.00  0.00    -0.237 OA
ATOM     91  O   UNL A   1      47.935  38.229  28.523  1.00  0.00    -0.744 OA
ENDBRANCH  87  88
ENDBRANCH  55  80
BRANCH  67  92
ATOM     92  C   UNL A   1      49.688  27.147  26.206  1.00  0.00     0.058 A 
ATOM     93  C   UNL A   1      50.024  27.225  24.845  1.00  0.00     0.135 A 
ATOM     94  C   UNL A   1      50.704  26.792  27.111  1.00  0.00     0.135 A 
ATOM     95  F   UNL A   1      49.093  27.554  23.937  1.00  0.00    -0.206 F 
ATOM     96  C   UNL A   1      51.315  26.954  24.400  1.00  0.00     0.059 A 
ATOM     97  C   UNL A   1      52.007  26.548  26.692  1.00  0.00     0.059 A 
ATOM     98  F   UNL A   1      50.441  26.713  28.425  1.00  0.00    -0.206 F 
ATOM     99  C   UNL A   1      52.303  26.627  25.332  1.00  0.00     0.060 A 
BRANCH  99 100
ATOM    100  S   UNL A   1      53.988  26.348  24.747  1.00  0.00     0.124 S 
ATOM    101  O   UNL A   1      54.032  27.190  23.557  1.00  0.00    -0.237 OA
ATOM    102  O   UNL A   1      54.790  26.807  25.878  1.00  0.00    -0.237 OA
ATOM    103  O   UNL A   1      54.030  24.910  24.500  1.00  0.00    -0.744 OA
ENDBRANCH  99 100
ENDBRANCH  67  92
ENDBRANCH  41  42
ENDBRANCH  34  36
ENDBRANCH  33  34
ENDBRANCH  32  33
ENDBRANCH  31  32
ENDBRANCH  30  31
ENDBRANCH  29  30
ENDBRANCH   1  29
TORSDOF 27
ENDMDL
MODEL 2
REMARK VINA RESULT:      -8.7      5.983     12.002
REMARK SMILES CC[C@](C(=O)OCCOCCOCCOC(=O)c1ccc(-c2c3nc(c(-c4c(F)cc(S(=O)(=O)[O-])cc4F)c4ccc([nH]4)c(-c4c(F)cc(S(=O)(=O)[O-])cc4F)c4nc(c(-c5c(F)cc(S(=O)(=O)[O-])cc5F)c5ccc2[nH]5)C=C4)C=C3)cc1)(C(=O)OC(C)(C)C)c1ccc(N)c(O)c1
REMARK SMILES IDX 10 1 9 2 8 3 7 4 6 5 4 6 5 7 3 8 2 9 1 10 84 11 85 12 86 13
REMARK SMILES IDX 87 14 88 15 89 16 90 17 91 18 92 19 98 20 93 21 96 22 94 23
REMARK SMILES IDX 97 24 95 26 11 29 12 30 13 31 14 32 15 33 16 34 17 35 18 36
REMARK SMILES IDX 19 37 83 38 20 39 82 40 21 41 22 42 23 43 76 44 24 45 81 46
REMARK SMILES IDX 75 47 77 48 25 49 80 50 74 51 73 52 26 54 60 55 39 56 59 57
REMARK SMILES IDX 40 58 43 59 58 60 78 61 41 62 42 63 57 65 79 66 44 67 27 68
REMARK SMILES IDX 28 69 37 70 29 71 30 72 36 73 38 74 31 75 32 76 33 77 34 78
REMARK SMILES IDX 35 79 61 80 62 81 71 82 63 83 64 84 70 85 72 86 65 87 66 88
REMARK SMILES IDX 67 89 68 90 69 91 45 92 46 93 55 94 47 95 48 96 54 97 56 98
REMARK SMILES IDX 49 99 50 100 51 101 52 102 53 103
REMARK H PARENT 97 25 95 27 95 28 77 53 43 64
REMARK Flexibility Score: inf
ROOT
ATOM      1  C   UNL A   1      41.158  21.009  26.801  1.00  0.00     0.188 C 
ENDROOT
BRANCH   1   2
ATOM      2  O   UNL A   1      40.084  21.839  27.217  1.00  0.00    -0.376 OA
BRANCH   2   3
ATOM      3  C   UNL A   1      39.018  22.105  26.312  1.00  0.00     0.202 C 
BRANCH   3   4
ATOM      4  C   UNL A   1      38.393  23.512  26.258  1.00  0.00     0.261 C 
BRANCH   4   5
ATOM      5  O   UNL A   1      36.951  23.565  26.127  1.00  0.00    -0.462 OA
BRANCH   5   6
ATOM      6  C   UNL A   1      36.431  23.357  24.880  1.00  0.00     0.328 C 
ATOM      7  O   UNL A   1      37.101  23.496  23.861  1.00  0.00    -0.251 OA
BRANCH   6   8
ATOM      8  C   UNL A   1      34.898  23.017  24.854  1.00  0.00     0.189 C 
BRANCH   8   9
ATOM      9  C   UNL A   1      33.998  23.648  25.988  1.00  0.00     0.032 C 
ATOM     10  C   UNL A   1      33.836  22.892  27.315  1.00  0.00     0.006 C 
ENDBRANCH   8   9
BRANCH   8  11
ATOM     11  C   UNL A   1      34.476  23.716  23.542  1.00  0.00     0.328 C 
ATOM     12  O   UNL A   1      34.459  23.220  22.426  1.00  0.00    -0.250 OA
BRANCH  11  13
ATOM     13  O   UNL A   1      34.144  25.018  23.809  1.00  0.00    -0.459 OA
BRANCH  13  14
ATOM     14  C   UNL A   1      32.937  25.588  23.253  1.00  0.00     0.104 C 
ATOM     15  C   UNL A   1      33.231  26.231  21.892  1.00  0.00     0.056 C 
ATOM     16  C   UNL A   1      31.812  24.550  23.194  1.00  0.00     0.056 C 
ATOM     17  C   UNL A   1      32.530  26.696  24.236  1.00  0.00     0.056 C 
ENDBRANCH  13  14
ENDBRANCH  11  13
ENDBRANCH   8  11
BRANCH   8  18
ATOM     18  C   UNL A   1      34.660  21.477  24.793  1.00  0.00    -0.016 A 
ATOM     19  C   UNL A   1      35.733  20.573  24.925  1.00  0.00     0.008 A 
ATOM     20  C   UNL A   1      33.399  20.928  24.500  1.00  0.00     0.054 A 
ATOM     21  C   UNL A   1      35.549  19.189  24.809  1.00  0.00     0.030 A 
ATOM     22  C   UNL A   1      33.227  19.547  24.382  1.00  0.00     0.138 A 
ATOM     23  C   UNL A   1      34.289  18.658  24.558  1.00  0.00     0.074 A 
BRANCH  22  24
ATOM     24  O   UNL A   1      31.993  19.024  24.096  1.00  0.00    -0.506 OA
ATOM     25  H   UNL A   1      31.621  19.141  23.244  1.00  0.00     0.293 HD
ENDBRANCH  22  24
BRANCH  23  26
ATOM     26  N   UNL A   1      34.113  17.297  24.346  1.00  0.00    -0.396 N 
ATOM     27  H   UNL A   1      34.500  16.647  24.975  1.00  0.00     0.156 HD
ATOM     28  H   UNL A   1      33.601  16.983  23.566  1.00  0.00     0.156 HD
ENDBRANCH  23  26
ENDBRANCH   8  18
ENDBRANCH   6   8
ENDBRANCH   5   6
ENDBRANCH   4   5
ENDBRANCH   3   4
ENDBRANCH   2   3
ENDBRANCH   1   2
BRANCH   1  29
ATOM     29  C   UNL A   1      42.366  21.668  26.128  1.00  0.00     0.188 C 
BRANCH  29  30
ATOM     30  O   UNL A   1      42.100  22.908  25.518  1.00  0.00    -0.376 OA
BRANCH  30  31
ATOM     31  C   UNL A   1      43.044  23.955  25.649  1.00  0.00     0.202 C 
BRANCH  31  32
ATOM     32  C   UNL A   1      44.267  23.819  26.569  1.00  0.00     0.261 C 
BRANCH  32  33
ATOM     33  O   UNL A   1      45.033  25.000  26.842  1.00  0.00    -0.460 OA
BRANCH  33  34
ATOM     34  C   UNL A   1      45.647  25.096  28.049  1.00  0.00     0.338 C 
ATOM     35  O   UNL A   1      46.671  24.546  28.389  1.00  0.00    -0.246 OA
BRANCH  34  36
ATOM     36  C   UNL A   1      44.963  26.196  28.781  1.00  0.00     0.060 A 
ATOM     37  C   UNL A   1      45.191  27.529  28.406  1.00  0.00     0.016 A 
ATOM     38  C   UNL A   1      44.060  25.900  29.805  1.00  0.00     0.016 A 
ATOM     39  C   UNL A   1      44.534  28.568  29.074  1.00  0.00     0.010 A 
ATOM     40  C   UNL A   1      43.422  26.939  30.486  1.00  0.00     0.010 A 
ATOM     41  C   UNL A   1      43.673  28.280  30.142  1.00  0.00    -0.014 A 
BRANCH  41  42
ATOM     42  C   UNL A   1      43.206  29.349  31.060  1.00  0.00     0.031 A 
ATOM     43  C   UNL A   1      44.012  29.595  32.306  1.00  0.00     0.074 A 
ATOM     44  C   UNL A   1      42.082  30.052  30.832  1.00  0.00     0.049 A 
ATOM     45  N   UNL A   1      43.731  30.332  33.348  1.00  0.00    -0.248 NA
ATOM     46  C   UNL A   1      45.308  28.897  32.392  1.00  0.00     0.031 C 
ATOM     47  C   UNL A   1      41.243  29.946  29.642  1.00  0.00     0.029 A 
ATOM     48  N   UNL A   1      41.444  30.989  31.610  1.00  0.00    -0.354 N 
ATOM     49  C   UNL A   1      44.806  30.183  34.214  1.00  0.00     0.074 A 
ATOM     50  C   UNL A   1      45.733  29.266  33.591  1.00  0.00     0.031 C 
ATOM     51  C   UNL A   1      40.199  30.788  29.766  1.00  0.00     0.029 A 
ATOM     52  C   UNL A   1      40.259  31.441  31.074  1.00  0.00     0.049 A 
ATOM     53  H   UNL A   1      41.801  31.309  32.470  1.00  0.00     0.167 HD
ATOM     54  C   UNL A   1      45.004  30.759  35.423  1.00  0.00     0.037 A 
ATOM     55  C   UNL A   1      39.316  32.252  31.599  1.00  0.00     0.037 A 
ATOM     56  C   UNL A   1      44.068  31.654  36.048  1.00  0.00     0.049 A 
ATOM     57  C   UNL A   1      39.507  32.796  32.998  1.00  0.00     0.074 A 
ATOM     58  C   UNL A   1      44.157  32.263  37.287  1.00  0.00     0.029 A 
ATOM     59  N   UNL A   1      42.869  32.065  35.484  1.00  0.00    -0.354 N 
ATOM     60  N   UNL A   1      40.518  32.632  33.819  1.00  0.00    -0.248 NA
ATOM     61  C   UNL A   1      38.423  33.625  33.548  1.00  0.00     0.031 C 
ATOM     62  C   UNL A   1      42.990  33.002  37.494  1.00  0.00     0.029 A 
ATOM     63  C   UNL A   1      42.204  32.910  36.357  1.00  0.00     0.049 A 
ATOM     64  H   UNL A   1      42.539  31.795  34.597  1.00  0.00     0.167 HD
ATOM     65  C   UNL A   1      40.213  33.379  34.956  1.00  0.00     0.074 A 
ATOM     66  C   UNL A   1      38.923  33.989  34.720  1.00  0.00     0.031 C 
ATOM     67  C   UNL A   1      40.939  33.548  36.089  1.00  0.00     0.037 A 
BRANCH  54  68
ATOM     68  C   UNL A   1      46.267  30.413  36.159  1.00  0.00     0.058 A 
ATOM     69  C   UNL A   1      46.336  29.313  37.027  1.00  0.00     0.135 A 
ATOM     70  C   UNL A   1      47.432  31.174  35.971  1.00  0.00     0.135 A 
ATOM     71  F   UNL A   1      45.244  28.566  37.263  1.00  0.00    -0.206 F 
ATOM     72  C   UNL A   1      47.511  28.988  37.697  1.00  0.00     0.059 A 
ATOM     73  C   UNL A   1      48.626  30.850  36.607  1.00  0.00     0.059 A 
ATOM     74  F   UNL A   1      47.419  32.243  35.158  1.00  0.00    -0.206 F 
ATOM     75  C   UNL A   1      48.652  29.761  37.476  1.00  0.00     0.060 A 
BRANCH  75  76
ATOM     76  S   UNL A   1      50.172  29.317  38.342  1.00  0.00     0.124 S 
ATOM     77  O   UNL A   1      49.648  28.788  39.598  1.00  0.00    -0.237 OA
ATOM     78  O   UNL A   1      50.765  28.335  37.440  1.00  0.00    -0.237 OA
ATOM     79  O   UNL A   1      50.889  30.583  38.446  1.00  0.00    -0.744 OA
ENDBRANCH  75  76
ENDBRANCH  54  68
BRANCH  55  80
ATOM     80  C   UNL A   1      38.079  32.583  30.832  1.00  0.00     0.058 A 
ATOM     81  C   UNL A   1      36.874  31.907  31.077  1.00  0.00     0.135 A 
ATOM     82  C   UNL A   1      38.089  33.537  29.801  1.00  0.00     0.135 A 
ATOM     83  F   UNL A   1      36.811  30.973  32.039  1.00  0.00    -0.206 F 
ATOM     84  C   UNL A   1      35.735  32.136  30.308  1.00  0.00     0.059 A 
ATOM     85  C   UNL A   1      36.955  33.808  29.041  1.00  0.00     0.059 A 
ATOM     86  F   UNL A   1      39.212  34.219  29.524  1.00  0.00    -0.206 F 
ATOM     87  C   UNL A   1      35.787  33.088  29.289  1.00  0.00     0.060 A 
BRANCH  87  88
ATOM     88  S   UNL A   1      34.306  33.382  28.300  1.00  0.00     0.124 S 
ATOM     89  O   UNL A   1      34.086  32.070  27.703  1.00  0.00    -0.237 OA
ATOM     90  O   UNL A   1      33.337  33.793  29.313  1.00  0.00    -0.237 OA
ATOM     91  O   UNL A   1      34.721  34.432  27.375  1.00  0.00    -0.744 OA
ENDBRANCH  87  88
ENDBRANCH  55  80
BRANCH  67  92
ATOM     92  C   UNL A   1      40.416  34.497  37.135  1.00  0.00     0.058 A 
ATOM     93  C   UNL A   1      39.623  34.067  38.209  1.00  0.00     0.135 A 
ATOM     94  C   UNL A   1      40.804  35.848  37.107  1.00  0.00     0.135 A 
ATOM     95  F   UNL A   1      39.219  32.790  38.283  1.00  0.00    -0.206 F 
ATOM     96  C   UNL A   1      39.225  34.944  39.214  1.00  0.00     0.059 A 
ATOM     97  C   UNL A   1      40.444  36.735  38.116  1.00  0.00     0.059 A 
ATOM     98  F   UNL A   1      41.572  36.311  36.108  1.00  0.00    -0.206 F 
ATOM     99  C   UNL A   1      39.650  36.275  39.165  1.00  0.00     0.060 A 
BRANCH  99 100
ATOM    100  S   UNL A   1      39.185  37.383  40.511  1.00  0.00     0.124 S 
ATOM    101  O   UNL A   1      38.652  36.447  41.496  1.00  0.00    -0.237 OA
ATOM    102  O   UNL A   1      40.459  38.007  40.855  1.00  0.00    -0.237 OA
ATOM    103  O   UNL A   1      38.203  38.273  39.898  1.00  0.00    -0.744 OA
ENDBRANCH  99 100
ENDBRANCH  67  92
ENDBRANCH  41  42
ENDBRANCH  34  36
ENDBRANCH  33  34
ENDBRANCH  32  33
ENDBRANCH  31  32
ENDBRANCH  30  31
ENDBRANCH  29  30
ENDBRANCH   1  29
TORSDOF 27
ENDMDL
MODEL 3
REMARK VINA RESULT:      -8.4      4.009      9.513
REMARK SMILES CC[C@](C(=O)OCCOCCOCCOC(=O)c1ccc(-c2c3nc(c(-c4c(F)cc(S(=O)(=O)[O-])cc4F)c4ccc([nH]4)c(-c4c(F)cc(S(=O)(=O)[O-])cc4F)c4nc(c(-c5c(F)cc(S(=O)(=O)[O-])cc5F)c5ccc2[nH]5)C=C4)C=C3)cc1)(C(=O)OC(C)(C)C)c1ccc(N)c(O)c1
REMARK SMILES IDX 10 1 9 2 8 3 7 4 6 5 4 6 5 7 3 8 2 9 1 10 84 11 85 12 86 13
REMARK SMILES IDX 87 14 88 15 89 16 90 17 91 18 92 19 98 20 93 21 96 22 94 23
REMARK SMILES IDX 97 24 95 26 11 29 12 30 13 31 14 32 15 33 16 34 17 35 18 36
REMARK SMILES IDX 19 37 83 38 20 39 82 40 21 41 22 42 23 43 76 44 24 45 81 46
REMARK SMILES IDX 75 47 77 48 25 49 80 50 74 51 73 52 26 54 60 55 39 56 59 57
REMARK SMILES IDX 40 58 43 59 58 60 78 61 41 62 42 63 57 65 79 66 44 67 27 68
REMARK SMILES IDX 28 69 37 70 29 71 30 72 36 73 38 74 31 75 32 76 33 77 34 78
REMARK SMILES IDX 35 79 61 80 62 81 71 82 63 83 64 84 70 85 72 86 65 87 66 88
REMARK SMILES IDX 67 89 68 90 69 91 45 92 46 93 55 94 47 95 48 96 54 97 56 98
REMARK SMILES IDX 49 99 50 100 51 101 52 102 53 103
REMARK H PARENT 97 25 95 27 95 28 77 53 43 64
REMARK Flexibility Score: inf
ROOT
ATOM      1  C   UNL A   1      41.071  21.962  26.736  1.00  0.00     0.188 C 
ENDROOT
BRANCH   1   2
ATOM      2  O   UNL A   1      39.847  22.679  26.713  1.00  0.00    -0.376 OA
BRANCH   2   3
ATOM      3  C   UNL A   1      38.711  22.099  26.079  1.00  0.00     0.202 C 
BRANCH   3   4
ATOM      4  C   UNL A   1      37.884  22.930  25.080  1.00  0.00     0.261 C 
BRANCH   4   5
ATOM      5  O   UNL A   1      36.469  23.052  25.369  1.00  0.00    -0.462 OA
BRANCH   5   6
ATOM      6  C   UNL A   1      35.625  23.188  24.303  1.00  0.00     0.328 C 
ATOM      7  O   UNL A   1      36.037  23.387  23.164  1.00  0.00    -0.251 OA
BRANCH   6   8
ATOM      8  C   UNL A   1      34.098  23.161  24.665  1.00  0.00     0.189 C 
BRANCH   8   9
ATOM      9  C   UNL A   1      33.712  23.337  26.186  1.00  0.00     0.032 C 
ATOM     10  C   UNL A   1      32.228  23.319  26.583  1.00  0.00     0.006 C 
ENDBRANCH   8   9
BRANCH   8  11
ATOM     11  C   UNL A   1      33.617  24.448  23.957  1.00  0.00     0.328 C 
ATOM     12  O   UNL A   1      32.883  24.511  22.982  1.00  0.00    -0.250 OA
BRANCH  11  13
ATOM     13  O   UNL A   1      34.168  25.539  24.574  1.00  0.00    -0.459 OA
BRANCH  13  14
ATOM     14  C   UNL A   1      33.416  26.769  24.684  1.00  0.00     0.104 C 
ATOM     15  C   UNL A   1      33.749  27.480  26.001  1.00  0.00     0.056 C 
ATOM     16  C   UNL A   1      33.627  27.657  23.454  1.00  0.00     0.056 C 
ATOM     17  C   UNL A   1      31.944  26.332  24.726  1.00  0.00     0.056 C 
ENDBRANCH  13  14
ENDBRANCH  11  13
ENDBRANCH   8  11
BRANCH   8  18
ATOM     18  C   UNL A   1      33.402  21.889  24.092  1.00  0.00    -0.016 A 
ATOM     19  C   UNL A   1      33.584  20.629  24.698  1.00  0.00     0.008 A 
ATOM     20  C   UNL A   1      32.660  21.918  22.898  1.00  0.00     0.054 A 
ATOM     21  C   UNL A   1      33.020  19.464  24.160  1.00  0.00     0.030 A 
ATOM     22  C   UNL A   1      32.106  20.750  22.368  1.00  0.00     0.138 A 
ATOM     23  C   UNL A   1      32.255  19.515  23.001  1.00  0.00     0.074 A 
BRANCH  22  24
ATOM     24  O   UNL A   1      31.384  20.791  21.204  1.00  0.00    -0.506 OA
ATOM     25  H   UNL A   1      30.783  20.101  21.001  1.00  0.00     0.293 HD
ENDBRANCH  22  24
BRANCH  23  26
ATOM     26  N   UNL A   1      31.773  18.354  22.408  1.00  0.00    -0.396 N 
ATOM     27  H   UNL A   1      32.402  17.675  22.074  1.00  0.00     0.156 HD
ATOM     28  H   UNL A   1      30.803  18.213  22.322  1.00  0.00     0.156 HD
ENDBRANCH  23  26
ENDBRANCH   8  18
ENDBRANCH   6   8
ENDBRANCH   5   6
ENDBRANCH   4   5
ENDBRANCH   3   4
ENDBRANCH   2   3
ENDBRANCH   1   2
BRANCH   1  29
ATOM     29  C   UNL A   1      42.253  22.518  25.934  1.00  0.00     0.188 C 
BRANCH  29  30
ATOM     30  O   UNL A   1      42.203  23.903  25.691  1.00  0.00    -0.376 OA
BRANCH  30  31
ATOM     31  C   UNL A   1      43.415  24.623  25.565  1.00  0.00     0.202 C 
BRANCH  31  32
ATOM     32  C   UNL A   1      44.577  24.091  24.710  1.00  0.00     0.261 C 
BRANCH  32  33
ATOM     33  O   UNL A   1      45.775  24.875  24.649  1.00  0.00    -0.460 OA
BRANCH  33  34
ATOM     34  C   UNL A   1      46.591  24.876  25.734  1.00  0.00     0.338 C 
ATOM     35  O   UNL A   1      47.321  23.979  26.094  1.00  0.00    -0.246 OA
BRANCH  34  36
ATOM     36  C   UNL A   1      46.607  26.273  26.246  1.00  0.00     0.060 A 
ATOM     37  C   UNL A   1      47.262  26.564  27.452  1.00  0.00     0.016 A 
ATOM     38  C   UNL A   1      46.015  27.297  25.504  1.00  0.00     0.016 A 
ATOM     39  C   UNL A   1      47.302  27.879  27.929  1.00  0.00     0.010 A 
ATOM     40  C   UNL A   1      46.036  28.605  25.992  1.00  0.00     0.010 A 
ATOM     41  C   UNL A   1      46.657  28.901  27.218  1.00  0.00    -0.014 A 
BRANCH  41  42
ATOM     42  C   UNL A   1      46.415  30.229  27.837  1.00  0.00     0.031 A 
ATOM     43  C   UNL A   1      45.162  30.396  28.654  1.00  0.00     0.074 A 
ATOM     44  C   UNL A   1      47.244  31.272  27.649  1.00  0.00     0.049 A 
ATOM     45  N   UNL A   1      44.628  31.483  29.145  1.00  0.00    -0.248 NA
ATOM     46  C   UNL A   1      44.403  29.166  28.940  1.00  0.00     0.031 C 
ATOM     47  C   UNL A   1      48.511  31.227  26.925  1.00  0.00     0.029 A 
ATOM     48  N   UNL A   1      47.130  32.584  28.044  1.00  0.00    -0.354 N 
ATOM     49  C   UNL A   1      43.469  31.072  29.790  1.00  0.00     0.074 A 
ATOM     50  C   UNL A   1      43.362  29.642  29.607  1.00  0.00     0.031 C 
ATOM     51  C   UNL A   1      49.061  32.456  26.927  1.00  0.00     0.029 A 
ATOM     52  C   UNL A   1      48.152  33.389  27.594  1.00  0.00     0.049 A 
ATOM     53  H   UNL A   1      46.387  32.917  28.598  1.00  0.00     0.167 HD
ATOM     54  C   UNL A   1      42.572  31.820  30.474  1.00  0.00     0.037 A 
ATOM     55  C   UNL A   1      48.309  34.727  27.676  1.00  0.00     0.037 A 
ATOM     56  C   UNL A   1      42.671  33.245  30.634  1.00  0.00     0.049 A 
ATOM     57  C   UNL A   1      47.237  35.556  28.350  1.00  0.00     0.074 A 
ATOM     58  C   UNL A   1      41.796  34.101  31.279  1.00  0.00     0.029 A 
ATOM     59  N   UNL A   1      43.707  34.026  30.142  1.00  0.00    -0.354 N 
ATOM     60  N   UNL A   1      46.133  35.161  28.939  1.00  0.00    -0.248 NA
ATOM     61  C   UNL A   1      47.426  37.015  28.358  1.00  0.00     0.031 C 
ATOM     62  C   UNL A   1      42.276  35.405  31.133  1.00  0.00     0.029 A 
ATOM     63  C   UNL A   1      43.485  35.355  30.458  1.00  0.00     0.049 A 
ATOM     64  H   UNL A   1      44.483  33.686  29.641  1.00  0.00     0.167 HD
ATOM     65  C   UNL A   1      45.527  36.315  29.432  1.00  0.00     0.074 A 
ATOM     66  C   UNL A   1      46.383  37.424  29.067  1.00  0.00     0.031 C 
ATOM     67  C   UNL A   1      44.371  36.445  30.128  1.00  0.00     0.037 A 
BRANCH  54  68
ATOM     68  C   UNL A   1      41.390  31.111  31.074  1.00  0.00     0.058 A 
ATOM     69  C   UNL A   1      40.267  30.770  30.305  1.00  0.00     0.135 A 
ATOM     70  C   UNL A   1      41.394  30.742  32.428  1.00  0.00     0.135 A 
ATOM     71  F   UNL A   1      40.201  31.122  29.010  1.00  0.00    -0.206 F 
ATOM     72  C   UNL A   1      39.181  30.103  30.861  1.00  0.00     0.059 A 
ATOM     73  C   UNL A   1      40.332  30.047  32.998  1.00  0.00     0.059 A 
ATOM     74  F   UNL A   1      42.440  31.051  33.212  1.00  0.00    -0.206 F 
ATOM     75  C   UNL A   1      39.225  29.742  32.208  1.00  0.00     0.060 A 
BRANCH  75  76
ATOM     76  S   UNL A   1      37.813  28.863  32.910  1.00  0.00     0.124 S 
ATOM     77  O   UNL A   1      37.727  29.464  34.238  1.00  0.00    -0.237 OA
ATOM     78  O   UNL A   1      36.741  29.214  31.985  1.00  0.00    -0.237 OA
ATOM     79  O   UNL A   1      38.232  27.466  32.880  1.00  0.00    -0.744 OA
ENDBRANCH  75  76
ENDBRANCH  54  68
BRANCH  55  80
ATOM     80  C   UNL A   1      49.503  35.395  27.079  1.00  0.00     0.058 A 
ATOM     81  C   UNL A   1      49.527  35.755  25.722  1.00  0.00     0.135 A 
ATOM     82  C   UNL A   1      50.664  35.632  27.832  1.00  0.00     0.135 A 
ATOM     83  F   UNL A   1      48.451  35.536  24.950  1.00  0.00    -0.206 F 
ATOM     84  C   UNL A   1      50.666  36.292  25.126  1.00  0.00     0.059 A 
ATOM     85  C   UNL A   1      51.803  36.198  27.268  1.00  0.00     0.059 A 
ATOM     86  F   UNL A   1      50.698  35.312  29.136  1.00  0.00    -0.206 F 
ATOM     87  C   UNL A   1      51.801  36.507  25.908  1.00  0.00     0.060 A 
BRANCH  87  88
ATOM     88  S   UNL A   1      53.272  37.207  25.129  1.00  0.00     0.124 S 
ATOM     89  O   UNL A   1      53.076  38.634  25.361  1.00  0.00    -0.237 OA
ATOM     90  O   UNL A   1      54.350  36.579  25.887  1.00  0.00    -0.237 OA
ATOM     91  O   UNL A   1      53.155  36.774  23.740  1.00  0.00    -0.744 OA
ENDBRANCH  87  88
ENDBRANCH  55  80
BRANCH  67  92
ATOM     92  C   UNL A   1      43.991  37.813  30.630  1.00  0.00     0.058 A 
ATOM     93  C   UNL A   1      44.311  38.253  31.923  1.00  0.00     0.135 A 
ATOM     94  C   UNL A   1      43.381  38.731  29.757  1.00  0.00     0.135 A 
ATOM     95  F   UNL A   1      44.889  37.417  32.798  1.00  0.00    -0.206 F 
ATOM     96  C   UNL A   1      44.030  39.553  32.336  1.00  0.00     0.059 A 
ATOM     97  C   UNL A   1      43.120  40.043  30.139  1.00  0.00     0.059 A 
ATOM     98  F   UNL A   1      43.063  38.365  28.505  1.00  0.00    -0.206 F 
ATOM     99  C   UNL A   1      43.444  40.444  31.433  1.00  0.00     0.060 A 
BRANCH  99 100
ATOM    100  S   UNL A   1      43.152  42.145  31.962  1.00  0.00     0.124 S 
ATOM    101  O   UNL A   1      44.512  42.663  32.062  1.00  0.00    -0.237 OA
ATOM    102  O   UNL A   1      42.350  42.678  30.864  1.00  0.00    -0.237 OA
ATOM    103  O   UNL A   1      42.445  41.993  33.230  1.00  0.00    -0.744 OA
ENDBRANCH  99 100
ENDBRANCH  67  92
ENDBRANCH  41  42
ENDBRANCH  34  36
ENDBRANCH  33  34
ENDBRANCH  32  33
ENDBRANCH  31  32
ENDBRANCH  30  31
ENDBRANCH  29  30
ENDBRANCH   1  29
TORSDOF 27
ENDMDL
