MODEL 1
REMARK VINA RESULT:     -10.8      0.000      0.000
REMARK SMILES O=C(OCCOCCOCCOC(=O)[C@H]1c2[nH]cnc2CC[N@H+]1Cc1ccoc1)c1ccc(-c2c3nc(c(-c4c(F)cc(S(=O)(=O)[O-])cc4F)c4ccc([nH]4)c(-c4c(F)cc(S(=O)(=O)[O-])cc4F)c4nc(c(-c5c(F)cc(S(=O)(=O)[O-])cc5F)c5ccc2[nH]5)C=C4)C=C3)cc1
REMARK SMILES IDX 7 1 6 2 5 3 4 4 3 5 2 6 1 7 30 8 31 9 95 10 32 11 94 12
REMARK SMILES IDX 33 13 34 14 35 15 88 16 36 17 93 18 87 19 89 20 37 21 92 22
REMARK SMILES IDX 86 23 85 24 38 26 72 27 51 28 71 29 52 30 55 31 70 32 90 33
REMARK SMILES IDX 53 34 54 35 69 37 91 38 56 39 39 40 40 41 49 42 41 43 42 44
REMARK SMILES IDX 48 45 50 46 43 47 44 48 45 49 46 50 47 51 73 52 74 53 83 54
REMARK SMILES IDX 75 55 76 56 82 57 84 58 77 59 78 60 79 61 80 62 81 63 57 64
REMARK SMILES IDX 58 65 67 66 59 67 60 68 66 69 68 70 61 71 62 72 63 73 64 74
REMARK SMILES IDX 65 75 8 76 9 77 10 78 11 79 12 80 13 81 14 82 15 83 16 84
REMARK SMILES IDX 23 85 17 86 20 87 22 88 18 90 19 92 21 93 24 94 25 95 26 96
REMARK SMILES IDX 29 97 27 98 28 99
REMARK H PARENT 89 25 55 36 23 89 17 91
REMARK Flexibility Score: inf
ROOT
ATOM      1  C   UNL A   1      30.631  29.399  23.960  1.00  0.00     0.188 C 
ENDROOT
BRANCH   1   2
ATOM      2  O   UNL A   1      31.194  29.297  25.247  1.00  0.00    -0.376 OA
BRANCH   2   3
ATOM      3  C   UNL A   1      31.940  30.328  25.863  1.00  0.00     0.202 C 
BRANCH   3   4
ATOM      4  C   UNL A   1      32.919  30.150  27.028  1.00  0.00     0.261 C 
BRANCH   4   5
ATOM      5  O   UNL A   1      33.611  31.326  27.435  1.00  0.00    -0.460 OA
BRANCH   5   6
ATOM      6  C   UNL A   1      34.542  31.489  28.400  1.00  0.00     0.338 C 
ATOM      7  O   UNL A   1      34.258  32.224  29.347  1.00  0.00    -0.246 OA
BRANCH   6   8
ATOM      8  C   UNL A   1      35.921  30.918  28.362  1.00  0.00     0.060 A 
ATOM      9  C   UNL A   1      36.288  29.611  28.025  1.00  0.00     0.016 A 
ATOM     10  C   UNL A   1      36.937  31.832  28.693  1.00  0.00     0.016 A 
ATOM     11  C   UNL A   1      37.572  29.163  28.286  1.00  0.00     0.010 A 
ATOM     12  C   UNL A   1      38.235  31.412  28.879  1.00  0.00     0.010 A 
ATOM     13  C   UNL A   1      38.513  30.056  28.787  1.00  0.00    -0.014 A 
BRANCH  13  14
ATOM     14  C   UNL A   1      39.830  29.561  29.138  1.00  0.00     0.031 A 
ATOM     15  C   UNL A   1      40.074  29.515  30.601  1.00  0.00     0.074 A 
ATOM     16  C   UNL A   1      40.667  29.087  28.190  1.00  0.00     0.049 A 
ATOM     17  N   UNL A   1      40.917  30.216  31.282  1.00  0.00    -0.248 NA
ATOM     18  C   UNL A   1      39.135  28.742  31.434  1.00  0.00     0.031 C 
ATOM     19  C   UNL A   1      40.376  28.890  26.765  1.00  0.00     0.029 A 
ATOM     20  N   UNL A   1      41.920  28.570  28.306  1.00  0.00    -0.354 N 
ATOM     21  C   UNL A   1      40.820  29.740  32.587  1.00  0.00     0.074 A 
ATOM     22  C   UNL A   1      39.572  29.030  32.661  1.00  0.00     0.031 C 
ATOM     23  C   UNL A   1      41.306  28.076  26.223  1.00  0.00     0.029 A 
ATOM     24  C   UNL A   1      42.330  27.806  27.214  1.00  0.00     0.049 A 
ATOM     25  H   UNL A   1      42.490  28.724  29.094  1.00  0.00     0.167 HD
ATOM     26  C   UNL A   1      41.928  29.687  33.378  1.00  0.00     0.037 A 
ATOM     27  C   UNL A   1      43.395  26.962  27.164  1.00  0.00     0.037 A 
ATOM     28  C   UNL A   1      42.941  30.600  32.899  1.00  0.00     0.049 A 
ATOM     29  C   UNL A   1      44.308  27.354  28.271  1.00  0.00     0.074 A 
ATOM     30  C   UNL A   1      42.976  31.954  32.619  1.00  0.00     0.029 A 
ATOM     31  N   UNL A   1      44.035  30.062  32.266  1.00  0.00    -0.354 N 
ATOM     32  N   UNL A   1      44.954  28.489  28.305  1.00  0.00    -0.248 NA
ATOM     33  C   UNL A   1      44.119  26.709  29.561  1.00  0.00     0.031 C 
ATOM     34  C   UNL A   1      43.786  32.068  31.450  1.00  0.00     0.029 A 
ATOM     35  C   UNL A   1      44.273  30.799  31.136  1.00  0.00     0.049 A 
ATOM     36  H   UNL A   1      44.557  29.285  32.570  1.00  0.00     0.167 HD
ATOM     37  C   UNL A   1      44.848  28.916  29.621  1.00  0.00     0.074 A 
ATOM     38  C   UNL A   1      44.394  27.740  30.364  1.00  0.00     0.031 C 
ATOM     39  C   UNL A   1      44.849  30.246  29.931  1.00  0.00     0.037 A 
BRANCH  26  40
ATOM     40  C   UNL A   1      42.264  28.498  34.263  1.00  0.00     0.058 A 
ATOM     41  C   UNL A   1      42.444  28.714  35.646  1.00  0.00     0.135 A 
ATOM     42  C   UNL A   1      42.721  27.247  33.787  1.00  0.00     0.135 A 
ATOM     43  F   UNL A   1      42.038  29.861  36.216  1.00  0.00    -0.206 F 
ATOM     44  C   UNL A   1      43.127  27.815  36.463  1.00  0.00     0.059 A 
ATOM     45  C   UNL A   1      43.360  26.315  34.596  1.00  0.00     0.059 A 
ATOM     46  F   UNL A   1      42.659  26.888  32.501  1.00  0.00    -0.206 F 
ATOM     47  C   UNL A   1      43.600  26.624  35.921  1.00  0.00     0.060 A 
BRANCH  47  48
ATOM     48  S   UNL A   1      44.562  25.505  36.948  1.00  0.00     0.124 S 
ATOM     49  O   UNL A   1      44.222  25.968  38.281  1.00  0.00    -0.237 OA
ATOM     50  O   UNL A   1      44.026  24.206  36.557  1.00  0.00    -0.237 OA
ATOM     51  O   UNL A   1      45.940  25.760  36.516  1.00  0.00    -0.744 OA
ENDBRANCH  47  48
ENDBRANCH  26  40
BRANCH  27  52
ATOM     52  C   UNL A   1      43.494  25.643  26.473  1.00  0.00     0.058 A 
ATOM     53  C   UNL A   1      44.374  25.448  25.391  1.00  0.00     0.135 A 
ATOM     54  C   UNL A   1      42.941  24.470  27.031  1.00  0.00     0.135 A 
ATOM     55  F   UNL A   1      44.961  26.501  24.802  1.00  0.00    -0.206 F 
ATOM     56  C   UNL A   1      44.727  24.173  24.929  1.00  0.00     0.059 A 
ATOM     57  C   UNL A   1      43.269  23.191  26.581  1.00  0.00     0.059 A 
ATOM     58  F   UNL A   1      42.132  24.523  28.098  1.00  0.00    -0.206 F 
ATOM     59  C   UNL A   1      44.185  23.047  25.547  1.00  0.00     0.060 A 
BRANCH  59  60
ATOM     60  S   UNL A   1      44.770  21.399  25.085  1.00  0.00     0.124 S 
ATOM     61  O   UNL A   1      43.784  20.535  25.726  1.00  0.00    -0.237 OA
ATOM     62  O   UNL A   1      44.723  21.449  23.628  1.00  0.00    -0.237 OA
ATOM     63  O   UNL A   1      46.113  21.342  25.658  1.00  0.00    -0.744 OA
ENDBRANCH  59  60
ENDBRANCH  27  52
BRANCH  39  64
ATOM     64  C   UNL A   1      45.298  31.228  28.880  1.00  0.00     0.058 A 
ATOM     65  C   UNL A   1      44.533  31.636  27.772  1.00  0.00     0.135 A 
ATOM     66  C   UNL A   1      46.522  31.881  29.085  1.00  0.00     0.135 A 
ATOM     67  F   UNL A   1      43.302  31.146  27.564  1.00  0.00    -0.206 F 
ATOM     68  C   UNL A   1      44.993  32.607  26.880  1.00  0.00     0.059 A 
ATOM     69  C   UNL A   1      46.984  32.875  28.230  1.00  0.00     0.059 A 
ATOM     70  F   UNL A   1      47.271  31.587  30.162  1.00  0.00    -0.206 F 
ATOM     71  C   UNL A   1      46.224  33.219  27.115  1.00  0.00     0.060 A 
BRANCH  71  72
ATOM     72  S   UNL A   1      46.807  34.502  25.986  1.00  0.00     0.124 S 
ATOM     73  O   UNL A   1      48.126  34.006  25.611  1.00  0.00    -0.237 OA
ATOM     74  O   UNL A   1      45.796  34.479  24.932  1.00  0.00    -0.237 OA
ATOM     75  O   UNL A   1      46.806  35.709  26.810  1.00  0.00    -0.744 OA
ENDBRANCH  71  72
ENDBRANCH  39  64
ENDBRANCH  13  14
ENDBRANCH   6   8
ENDBRANCH   5   6
ENDBRANCH   4   5
ENDBRANCH   3   4
ENDBRANCH   2   3
ENDBRANCH   1   2
BRANCH   1  76
ATOM     76  C   UNL A   1      31.153  28.495  22.812  1.00  0.00     0.188 C 
BRANCH  76  77
ATOM     77  O   UNL A   1      31.991  27.380  23.059  1.00  0.00    -0.376 OA
BRANCH  77  78
ATOM     78  C   UNL A   1      33.028  27.119  22.142  1.00  0.00     0.202 C 
BRANCH  78  79
ATOM     79  C   UNL A   1      33.165  25.705  21.568  1.00  0.00     0.261 C 
BRANCH  79  80
ATOM     80  O   UNL A   1      34.018  24.777  22.280  1.00  0.00    -0.459 OA
BRANCH  80  81
ATOM     81  C   UNL A   1      33.407  23.831  23.047  1.00  0.00     0.371 C 
ATOM     82  O   UNL A   1      32.684  22.952  22.575  1.00  0.00    -0.245 OA
BRANCH  81  83
ATOM     83  C   UNL A   1      33.656  23.925  24.573  1.00  0.00     0.345 C 
ATOM     84  C   UNL A   1      32.473  24.378  25.379  1.00  0.00     0.108 A 
ATOM     85  N   UNL A   1      34.293  22.738  25.203  1.00  0.00    -0.314 N 
ATOM     86  N   UNL A   1      31.703  25.503  25.248  1.00  0.00    -0.343 N 
ATOM     87  C   UNL A   1      32.006  23.782  26.529  1.00  0.00     0.074 A 
ATOM     88  C   UNL A   1      33.461  21.863  26.050  1.00  0.00     0.270 C 
ATOM     89  H   UNL A   1      34.795  23.240  25.934  1.00  0.00     0.349 HD
ATOM     90  C   UNL A   1      30.763  25.473  26.248  1.00  0.00     0.197 A 
ATOM     91  H   UNL A   1      31.805  26.204  24.564  1.00  0.00     0.167 HD
ATOM     92  N   UNL A   1      30.928  24.440  27.043  1.00  0.00    -0.241 NA
ATOM     93  C   UNL A   1      32.651  22.604  27.136  1.00  0.00     0.120 C 
BRANCH  85  94
ATOM     94  C   UNL A   1      35.419  22.117  24.516  1.00  0.00     0.303 C 
BRANCH  94  95
ATOM     95  C   UNL A   1      36.739  22.486  25.110  1.00  0.00     0.044 A 
ATOM     96  C   UNL A   1      37.809  21.624  25.472  1.00  0.00     0.051 A 
ATOM     97  C   UNL A   1      37.199  23.757  25.405  1.00  0.00     0.204 A 
ATOM     98  C   UNL A   1      38.748  22.402  26.106  1.00  0.00     0.195 A 
ATOM     99  O   UNL A   1      38.400  23.709  26.034  1.00  0.00    -0.472 OA
ENDBRANCH  94  95
ENDBRANCH  85  94
ENDBRANCH  81  83
ENDBRANCH  80  81
ENDBRANCH  79  80
ENDBRANCH  78  79
ENDBRANCH  77  78
ENDBRANCH  76  77
ENDBRANCH   1  76
TORSDOF 22
ENDMDL
MODEL 2
REMARK VINA RESULT:     -10.7      1.633      2.474
REMARK SMILES O=C(OCCOCCOCCOC(=O)[C@H]1c2[nH]cnc2CC[N@H+]1Cc1ccoc1)c1ccc(-c2c3nc(c(-c4c(F)cc(S(=O)(=O)[O-])cc4F)c4ccc([nH]4)c(-c4c(F)cc(S(=O)(=O)[O-])cc4F)c4nc(c(-c5c(F)cc(S(=O)(=O)[O-])cc5F)c5ccc2[nH]5)C=C4)C=C3)cc1
REMARK SMILES IDX 7 1 6 2 5 3 4 4 3 5 2 6 1 7 30 8 31 9 95 10 32 11 94 12
REMARK SMILES IDX 33 13 34 14 35 15 88 16 36 17 93 18 87 19 89 20 37 21 92 22
REMARK SMILES IDX 86 23 85 24 38 26 72 27 51 28 71 29 52 30 55 31 70 32 90 33
REMARK SMILES IDX 53 34 54 35 69 37 91 38 56 39 39 40 40 41 49 42 41 43 42 44
REMARK SMILES IDX 48 45 50 46 43 47 44 48 45 49 46 50 47 51 73 52 74 53 83 54
REMARK SMILES IDX 75 55 76 56 82 57 84 58 77 59 78 60 79 61 80 62 81 63 57 64
REMARK SMILES IDX 58 65 67 66 59 67 60 68 66 69 68 70 61 71 62 72 63 73 64 74
REMARK SMILES IDX 65 75 8 76 9 77 10 78 11 79 12 80 13 81 14 82 15 83 16 84
REMARK SMILES IDX 23 85 17 86 20 87 22 88 18 90 19 92 21 93 24 94 25 95 26 96
REMARK SMILES IDX 29 97 27 98 28 99
REMARK H PARENT 89 25 55 36 23 89 17 91
REMARK Flexibility Score: inf
ROOT
ATOM      1  C   UNL A   1      30.540  29.024  23.627  1.00  0.00     0.188 C 
ENDROOT
BRANCH   1   2
ATOM      2  O   UNL A   1      30.714  29.976  24.650  1.00  0.00    -0.376 OA
BRANCH   2   3
ATOM      3  C   UNL A   1      31.763  29.929  25.597  1.00  0.00     0.202 C 
BRANCH   3   4
ATOM      4  C   UNL A   1      32.146  31.054  26.564  1.00  0.00     0.261 C 
BRANCH   4   5
ATOM      5  O   UNL A   1      33.071  30.699  27.586  1.00  0.00    -0.460 OA
BRANCH   5   6
ATOM      6  C   UNL A   1      34.118  31.393  28.081  1.00  0.00     0.338 C 
ATOM      7  O   UNL A   1      33.899  32.530  28.503  1.00  0.00    -0.246 OA
BRANCH   6   8
ATOM      8  C   UNL A   1      35.535  30.923  28.073  1.00  0.00     0.060 A 
ATOM      9  C   UNL A   1      36.011  29.674  27.663  1.00  0.00     0.016 A 
ATOM     10  C   UNL A   1      36.465  31.878  28.521  1.00  0.00     0.016 A 
ATOM     11  C   UNL A   1      37.311  29.297  27.957  1.00  0.00     0.010 A 
ATOM     12  C   UNL A   1      37.781  31.536  28.743  1.00  0.00     0.010 A 
ATOM     13  C   UNL A   1      38.160  30.213  28.569  1.00  0.00    -0.014 A 
BRANCH  13  14
ATOM     14  C   UNL A   1      39.492  29.785  28.951  1.00  0.00     0.031 A 
ATOM     15  C   UNL A   1      39.735  29.845  30.413  1.00  0.00     0.074 A 
ATOM     16  C   UNL A   1      40.345  29.276  28.036  1.00  0.00     0.049 A 
ATOM     17  N   UNL A   1      40.555  30.616  31.046  1.00  0.00    -0.248 NA
ATOM     18  C   UNL A   1      38.821  29.099  31.297  1.00  0.00     0.031 C 
ATOM     19  C   UNL A   1      40.062  28.975  26.628  1.00  0.00     0.029 A 
ATOM     20  N   UNL A   1      41.614  28.809  28.185  1.00  0.00    -0.354 N 
ATOM     21  C   UNL A   1      40.471  30.226  32.379  1.00  0.00     0.074 A 
ATOM     22  C   UNL A   1      39.247  29.482  32.501  1.00  0.00     0.031 C 
ATOM     23  C   UNL A   1      41.019  28.157  26.140  1.00  0.00     0.029 A 
ATOM     24  C   UNL A   1      42.050  27.987  27.146  1.00  0.00     0.049 A 
ATOM     25  H   UNL A   1      42.178  29.033  28.960  1.00  0.00     0.167 HD
ATOM     26  C   UNL A   1      41.580  30.261  33.171  1.00  0.00     0.037 A 
ATOM     27  C   UNL A   1      43.142  27.176  27.151  1.00  0.00     0.037 A 
ATOM     28  C   UNL A   1      42.563  31.172  32.632  1.00  0.00     0.049 A 
ATOM     29  C   UNL A   1      44.040  27.671  28.229  1.00  0.00     0.074 A 
ATOM     30  C   UNL A   1      42.555  32.505  32.261  1.00  0.00     0.029 A 
ATOM     31  N   UNL A   1      43.675  30.629  32.034  1.00  0.00    -0.354 N 
ATOM     32  N   UNL A   1      44.649  28.826  28.186  1.00  0.00    -0.248 NA
ATOM     33  C   UNL A   1      43.870  27.107  29.559  1.00  0.00     0.031 C 
ATOM     34  C   UNL A   1      43.363  32.567  31.086  1.00  0.00     0.029 A 
ATOM     35  C   UNL A   1      43.890  31.296  30.858  1.00  0.00     0.049 A 
ATOM     36  H   UNL A   1      44.221  29.891  32.390  1.00  0.00     0.167 HD
ATOM     37  C   UNL A   1      44.528  29.335  29.471  1.00  0.00     0.074 A 
ATOM     38  C   UNL A   1      44.111  28.198  30.291  1.00  0.00     0.031 C 
ATOM     39  C   UNL A   1      44.485  30.683  29.692  1.00  0.00     0.037 A 
BRANCH  26  40
ATOM     40  C   UNL A   1      41.953  29.145  34.133  1.00  0.00     0.058 A 
ATOM     41  C   UNL A   1      41.931  27.814  33.663  1.00  0.00     0.135 A 
ATOM     42  C   UNL A   1      42.018  29.284  35.539  1.00  0.00     0.135 A 
ATOM     43  F   UNL A   1      41.883  27.555  32.346  1.00  0.00    -0.206 F 
ATOM     44  C   UNL A   1      41.860  26.717  34.521  1.00  0.00     0.059 A 
ATOM     45  C   UNL A   1      41.998  28.202  36.410  1.00  0.00     0.059 A 
ATOM     46  F   UNL A   1      42.014  30.469  36.156  1.00  0.00    -0.206 F 
ATOM     47  C   UNL A   1      41.874  26.925  35.896  1.00  0.00     0.060 A 
BRANCH  47  48
ATOM     48  S   UNL A   1      41.688  25.522  37.005  1.00  0.00     0.124 S 
ATOM     49  O   UNL A   1      40.275  25.593  37.331  1.00  0.00    -0.237 OA
ATOM     50  O   UNL A   1      42.101  24.412  36.152  1.00  0.00    -0.237 OA
ATOM     51  O   UNL A   1      42.612  25.837  38.098  1.00  0.00    -0.744 OA
ENDBRANCH  47  48
ENDBRANCH  26  40
BRANCH  27  52
ATOM     52  C   UNL A   1      43.283  25.818  26.550  1.00  0.00     0.058 A 
ATOM     53  C   UNL A   1      44.056  25.608  25.391  1.00  0.00     0.135 A 
ATOM     54  C   UNL A   1      42.902  24.653  27.249  1.00  0.00     0.135 A 
ATOM     55  F   UNL A   1      44.479  26.655  24.665  1.00  0.00    -0.206 F 
ATOM     56  C   UNL A   1      44.471  24.333  24.984  1.00  0.00     0.059 A 
ATOM     57  C   UNL A   1      43.294  23.373  26.858  1.00  0.00     0.059 A 
ATOM     58  F   UNL A   1      42.212  24.727  28.396  1.00  0.00    -0.206 F 
ATOM     59  C   UNL A   1      44.102  23.220  25.739  1.00  0.00     0.060 A 
BRANCH  59  60
ATOM     60  S   UNL A   1      44.780  21.593  25.332  1.00  0.00     0.124 S 
ATOM     61  O   UNL A   1      43.797  20.696  25.931  1.00  0.00    -0.237 OA
ATOM     62  O   UNL A   1      44.809  21.624  23.874  1.00  0.00    -0.237 OA
ATOM     63  O   UNL A   1      46.091  21.600  25.977  1.00  0.00    -0.744 OA
ENDBRANCH  59  60
ENDBRANCH  27  52
BRANCH  39  64
ATOM     64  C   UNL A   1      44.904  31.606  28.577  1.00  0.00     0.058 A 
ATOM     65  C   UNL A   1      44.138  31.895  27.432  1.00  0.00     0.135 A 
ATOM     66  C   UNL A   1      46.091  32.332  28.750  1.00  0.00     0.135 A 
ATOM     67  F   UNL A   1      42.936  31.331  27.246  1.00  0.00    -0.206 F 
ATOM     68  C   UNL A   1      44.566  32.819  26.477  1.00  0.00     0.059 A 
ATOM     69  C   UNL A   1      46.519  33.283  27.830  1.00  0.00     0.059 A 
ATOM     70  F   UNL A   1      46.836  32.154  29.855  1.00  0.00    -0.206 F 
ATOM     71  C   UNL A   1      45.762  33.507  26.683  1.00  0.00     0.060 A 
BRANCH  71  72
ATOM     72  S   UNL A   1      46.300  34.731  25.470  1.00  0.00     0.124 S 
ATOM     73  O   UNL A   1      47.718  34.420  25.327  1.00  0.00    -0.237 OA
ATOM     74  O   UNL A   1      45.463  34.422  24.314  1.00  0.00    -0.237 OA
ATOM     75  O   UNL A   1      46.005  36.007  26.117  1.00  0.00    -0.744 OA
ENDBRANCH  71  72
ENDBRANCH  39  64
ENDBRANCH  13  14
ENDBRANCH   6   8
ENDBRANCH   5   6
ENDBRANCH   4   5
ENDBRANCH   3   4
ENDBRANCH   2   3
ENDBRANCH   1   2
BRANCH   1  76
ATOM     76  C   UNL A   1      30.807  27.522  23.913  1.00  0.00     0.188 C 
BRANCH  76  77
ATOM     77  O   UNL A   1      31.993  26.877  23.485  1.00  0.00    -0.376 OA
BRANCH  77  78
ATOM     78  C   UNL A   1      32.245  25.576  23.963  1.00  0.00     0.202 C 
BRANCH  78  79
ATOM     79  C   UNL A   1      31.433  24.411  23.388  1.00  0.00     0.261 C 
BRANCH  79  80
ATOM     80  O   UNL A   1      31.676  23.094  23.939  1.00  0.00    -0.459 OA
BRANCH  80  81
ATOM     81  C   UNL A   1      32.503  22.268  23.239  1.00  0.00     0.371 C 
ATOM     82  O   UNL A   1      32.354  22.033  22.039  1.00  0.00    -0.245 OA
BRANCH  81  83
ATOM     83  C   UNL A   1      33.653  21.612  24.044  1.00  0.00     0.345 C 
ATOM     84  C   UNL A   1      34.616  22.578  24.669  1.00  0.00     0.108 A 
ATOM     85  N   UNL A   1      33.249  20.570  25.025  1.00  0.00    -0.314 N 
ATOM     86  N   UNL A   1      35.345  23.585  24.092  1.00  0.00    -0.343 N 
ATOM     87  C   UNL A   1      35.061  22.545  25.972  1.00  0.00     0.074 A 
ATOM     88  C   UNL A   1      33.304  20.901  26.461  1.00  0.00     0.270 C 
ATOM     89  H   UNL A   1      34.093  20.002  24.958  1.00  0.00     0.349 HD
ATOM     90  C   UNL A   1      36.101  24.162  25.084  1.00  0.00     0.197 A 
ATOM     91  H   UNL A   1      35.331  23.847  23.143  1.00  0.00     0.167 HD
ATOM     92  N   UNL A   1      35.950  23.544  26.234  1.00  0.00    -0.241 NA
ATOM     93  C   UNL A   1      34.646  21.503  26.930  1.00  0.00     0.120 C 
BRANCH  85  94
ATOM     94  C   UNL A   1      32.258  19.584  24.610  1.00  0.00     0.303 C 
BRANCH  94  95
ATOM     95  C   UNL A   1      32.870  18.295  24.168  1.00  0.00     0.044 A 
ATOM     96  C   UNL A   1      33.362  17.235  24.976  1.00  0.00     0.051 A 
ATOM     97  C   UNL A   1      33.057  17.859  22.869  1.00  0.00     0.204 A 
ATOM     98  C   UNL A   1      33.956  16.332  24.128  1.00  0.00     0.195 A 
ATOM     99  O   UNL A   1      33.740  16.687  22.839  1.00  0.00    -0.472 OA
ENDBRANCH  94  95
ENDBRANCH  85  94
ENDBRANCH  81  83
ENDBRANCH  80  81
ENDBRANCH  79  80
ENDBRANCH  78  79
ENDBRANCH  77  78
ENDBRANCH  76  77
ENDBRANCH   1  76
TORSDOF 22
ENDMDL
MODEL 3
REMARK VINA RESULT:     -10.4      1.230      2.847
REMARK SMILES O=C(OCCOCCOCCOC(=O)[C@H]1c2[nH]cnc2CC[N@H+]1Cc1ccoc1)c1ccc(-c2c3nc(c(-c4c(F)cc(S(=O)(=O)[O-])cc4F)c4ccc([nH]4)c(-c4c(F)cc(S(=O)(=O)[O-])cc4F)c4nc(c(-c5c(F)cc(S(=O)(=O)[O-])cc5F)c5ccc2[nH]5)C=C4)C=C3)cc1
REMARK SMILES IDX 7 1 6 2 5 3 4 4 3 5 2 6 1 7 30 8 31 9 95 10 32 11 94 12
REMARK SMILES IDX 33 13 34 14 35 15 88 16 36 17 93 18 87 19 89 20 37 21 92 22
REMARK SMILES IDX 86 23 85 24 38 26 72 27 51 28 71 29 52 30 55 31 70 32 90 33
REMARK SMILES IDX 53 34 54 35 69 37 91 38 56 39 39 40 40 41 49 42 41 43 42 44
REMARK SMILES IDX 48 45 50 46 43 47 44 48 45 49 46 50 47 51 73 52 74 53 83 54
REMARK SMILES IDX 75 55 76 56 82 57 84 58 77 59 78 60 79 61 80 62 81 63 57 64
REMARK SMILES IDX 58 65 67 66 59 67 60 68 66 69 68 70 61 71 62 72 63 73 64 74
REMARK SMILES IDX 65 75 8 76 9 77 10 78 11 79 12 80 13 81 14 82 15 83 16 84
REMARK SMILES IDX 23 85 17 86 20 87 22 88 18 90 19 92 21 93 24 94 25 95 26 96
REMARK SMILES IDX 29 97 27 98 28 99
REMARK H PARENT 89 25 55 36 23 89 17 91
REMARK Flexibility Score: inf
ROOT
ATOM      1  C   UNL A   1      32.317  28.918  24.019  1.00  0.00     0.188 C 
ENDROOT
BRANCH   1   2
ATOM      2  O   UNL A   1      31.679  28.790  25.267  1.00  0.00    -0.376 OA
BRANCH   2   3
ATOM      3  C   UNL A   1      32.184  29.340  26.468  1.00  0.00     0.202 C 
BRANCH   3   4
ATOM      4  C   UNL A   1      32.850  30.712  26.614  1.00  0.00     0.261 C 
BRANCH   4   5
ATOM      5  O   UNL A   1      33.248  31.067  27.934  1.00  0.00    -0.460 OA
BRANCH   5   6
ATOM      6  C   UNL A   1      34.333  31.753  28.353  1.00  0.00     0.338 C 
ATOM      7  O   UNL A   1      34.164  32.918  28.717  1.00  0.00    -0.246 OA
BRANCH   6   8
ATOM      8  C   UNL A   1      35.734  31.238  28.324  1.00  0.00     0.060 A 
ATOM      9  C   UNL A   1      36.162  29.969  27.921  1.00  0.00     0.016 A 
ATOM     10  C   UNL A   1      36.702  32.169  28.741  1.00  0.00     0.016 A 
ATOM     11  C   UNL A   1      37.454  29.555  28.195  1.00  0.00     0.010 A 
ATOM     12  C   UNL A   1      38.011  31.787  28.941  1.00  0.00     0.010 A 
ATOM     13  C   UNL A   1      38.344  30.451  28.778  1.00  0.00    -0.014 A 
BRANCH  13  14
ATOM     14  C   UNL A   1      39.670  29.985  29.139  1.00  0.00     0.031 A 
ATOM     15  C   UNL A   1      39.898  29.934  30.604  1.00  0.00     0.074 A 
ATOM     16  C   UNL A   1      40.528  29.539  28.197  1.00  0.00     0.049 A 
ATOM     17  N   UNL A   1      40.717  30.650  31.300  1.00  0.00    -0.248 NA
ATOM     18  C   UNL A   1      38.970  29.132  31.422  1.00  0.00     0.031 C 
ATOM     19  C   UNL A   1      40.257  29.347  26.768  1.00  0.00     0.029 A 
ATOM     20  N   UNL A   1      41.792  29.053  28.323  1.00  0.00    -0.354 N 
ATOM     21  C   UNL A   1      40.617  30.162  32.600  1.00  0.00     0.074 A 
ATOM     22  C   UNL A   1      39.387  29.421  32.655  1.00  0.00     0.031 C 
ATOM     23  C   UNL A   1      41.213  28.559  26.230  1.00  0.00     0.029 A 
ATOM     24  C   UNL A   1      42.232  28.307  27.230  1.00  0.00     0.049 A 
ATOM     25  H   UNL A   1      42.349  29.214  29.118  1.00  0.00     0.167 HD
ATOM     26  C   UNL A   1      41.717  30.130  33.403  1.00  0.00     0.037 A 
ATOM     27  C   UNL A   1      43.319  27.489  27.185  1.00  0.00     0.037 A 
ATOM     28  C   UNL A   1      42.713  31.071  32.942  1.00  0.00     0.049 A 
ATOM     29  C   UNL A   1      44.210  27.896  28.305  1.00  0.00     0.074 A 
ATOM     30  C   UNL A   1      42.718  32.427  32.672  1.00  0.00     0.029 A 
ATOM     31  N   UNL A   1      43.827  30.566  32.317  1.00  0.00    -0.354 N 
ATOM     32  N   UNL A   1      44.827  29.046  28.355  1.00  0.00    -0.248 NA
ATOM     33  C   UNL A   1      44.022  27.236  29.588  1.00  0.00     0.031 C 
ATOM     34  C   UNL A   1      43.538  32.571  31.513  1.00  0.00     0.029 A 
ATOM     35  C   UNL A   1      44.059  31.317  31.195  1.00  0.00     0.049 A 
ATOM     36  H   UNL A   1      44.364  29.798  32.621  1.00  0.00     0.167 HD
ATOM     37  C   UNL A   1      44.696  29.459  29.672  1.00  0.00     0.074 A 
ATOM     38  C   UNL A   1      44.263  28.267  30.402  1.00  0.00     0.031 C 
ATOM     39  C   UNL A   1      44.661  30.787  29.993  1.00  0.00     0.037 A 
BRANCH  26  40
ATOM     40  C   UNL A   1      42.073  28.942  34.282  1.00  0.00     0.058 A 
ATOM     41  C   UNL A   1      42.150  27.663  33.691  1.00  0.00     0.135 A 
ATOM     42  C   UNL A   1      42.029  28.948  35.696  1.00  0.00     0.135 A 
ATOM     43  F   UNL A   1      42.210  27.531  32.355  1.00  0.00    -0.206 F 
ATOM     44  C   UNL A   1      42.069  26.487  34.434  1.00  0.00     0.059 A 
ATOM     45  C   UNL A   1      41.999  27.787  36.459  1.00  0.00     0.059 A 
ATOM     46  F   UNL A   1      41.924  30.067  36.419  1.00  0.00    -0.206 F 
ATOM     47  C   UNL A   1      41.973  26.562  35.820  1.00  0.00     0.060 A 
BRANCH  47  48
ATOM     48  S   UNL A   1      41.775  25.051  36.775  1.00  0.00     0.124 S 
ATOM     49  O   UNL A   1      43.053  24.968  37.459  1.00  0.00    -0.237 OA
ATOM     50  O   UNL A   1      40.617  25.372  37.603  1.00  0.00    -0.237 OA
ATOM     51  O   UNL A   1      41.535  24.036  35.745  1.00  0.00    -0.744 OA
ENDBRANCH  47  48
ENDBRANCH  26  40
BRANCH  27  52
ATOM     52  C   UNL A   1      43.457  26.179  26.486  1.00  0.00     0.058 A 
ATOM     53  C   UNL A   1      44.433  25.981  25.490  1.00  0.00     0.135 A 
ATOM     54  C   UNL A   1      42.830  25.011  26.968  1.00  0.00     0.135 A 
ATOM     55  F   UNL A   1      45.095  27.030  24.978  1.00  0.00    -0.206 F 
ATOM     56  C   UNL A   1      44.804  24.705  25.044  1.00  0.00     0.059 A 
ATOM     57  C   UNL A   1      43.174  23.731  26.532  1.00  0.00     0.059 A 
ATOM     58  F   UNL A   1      41.923  25.066  27.954  1.00  0.00    -0.206 F 
ATOM     59  C   UNL A   1      44.183  23.582  25.589  1.00  0.00     0.060 A 
BRANCH  59  60
ATOM     60  S   UNL A   1      44.777  21.929  25.158  1.00  0.00     0.124 S 
ATOM     61  O   UNL A   1      46.144  21.955  25.667  1.00  0.00    -0.237 OA
ATOM     62  O   UNL A   1      43.846  21.066  25.876  1.00  0.00    -0.237 OA
ATOM     63  O   UNL A   1      44.656  21.893  23.702  1.00  0.00    -0.744 OA
ENDBRANCH  59  60
ENDBRANCH  27  52
BRANCH  39  64
ATOM     64  C   UNL A   1      45.097  31.788  28.954  1.00  0.00     0.058 A 
ATOM     65  C   UNL A   1      46.430  32.152  28.688  1.00  0.00     0.135 A 
ATOM     66  C   UNL A   1      44.112  32.305  28.100  1.00  0.00     0.135 A 
ATOM     67  F   UNL A   1      47.444  31.615  29.382  1.00  0.00    -0.206 F 
ATOM     68  C   UNL A   1      46.757  33.035  27.657  1.00  0.00     0.059 A 
ATOM     69  C   UNL A   1      44.418  33.159  27.046  1.00  0.00     0.059 A 
ATOM     70  F   UNL A   1      42.827  31.945  28.258  1.00  0.00    -0.206 F 
ATOM     71  C   UNL A   1      45.742  33.537  26.842  1.00  0.00     0.060 A 
BRANCH  71  72
ATOM     72  S   UNL A   1      46.164  34.650  25.485  1.00  0.00     0.124 S 
ATOM     73  O   UNL A   1      45.916  35.961  26.073  1.00  0.00    -0.237 OA
ATOM     74  O   UNL A   1      47.564  34.322  25.229  1.00  0.00    -0.237 OA
ATOM     75  O   UNL A   1      45.240  34.259  24.422  1.00  0.00    -0.744 OA
ENDBRANCH  71  72
ENDBRANCH  39  64
ENDBRANCH  13  14
ENDBRANCH   6   8
ENDBRANCH   5   6
ENDBRANCH   4   5
ENDBRANCH   3   4
ENDBRANCH   2   3
ENDBRANCH   1   2
BRANCH   1  76
ATOM     76  C   UNL A   1      33.754  28.365  23.823  1.00  0.00     0.188 C 
BRANCH  76  77
ATOM     77  O   UNL A   1      33.993  27.028  23.422  1.00  0.00    -0.376 OA
BRANCH  77  78
ATOM     78  C   UNL A   1      33.495  26.616  22.170  1.00  0.00     0.202 C 
BRANCH  78  79
ATOM     79  C   UNL A   1      33.300  25.119  21.911  1.00  0.00     0.261 C 
BRANCH  79  80
ATOM     80  O   UNL A   1      34.002  24.196  22.778  1.00  0.00    -0.459 OA
BRANCH  80  81
ATOM     81  C   UNL A   1      33.495  22.936  22.890  1.00  0.00     0.371 C 
ATOM     82  O   UNL A   1      32.763  22.432  22.037  1.00  0.00    -0.245 OA
BRANCH  81  83
ATOM     83  C   UNL A   1      33.877  22.159  24.175  1.00  0.00     0.345 C 
ATOM     84  C   UNL A   1      35.303  22.325  24.611  1.00  0.00     0.108 A 
ATOM     85  N   UNL A   1      32.955  22.320  25.331  1.00  0.00    -0.314 N 
ATOM     86  N   UNL A   1      36.463  22.111  23.914  1.00  0.00    -0.343 N 
ATOM     87  C   UNL A   1      35.728  22.611  25.890  1.00  0.00     0.074 A 
ATOM     88  C   UNL A   1      33.401  23.138  26.473  1.00  0.00     0.270 C 
ATOM     89  H   UNL A   1      33.097  21.393  25.732  1.00  0.00     0.349 HD
ATOM     90  C   UNL A   1      37.507  22.375  24.766  1.00  0.00     0.197 A 
ATOM     91  H   UNL A   1      36.536  21.821  22.976  1.00  0.00     0.167 HD
ATOM     92  N   UNL A   1      37.086  22.676  25.974  1.00  0.00    -0.241 NA
ATOM     93  C   UNL A   1      34.797  22.768  27.022  1.00  0.00     0.120 C 
BRANCH  85  94
ATOM     94  C   UNL A   1      31.521  22.260  25.079  1.00  0.00     0.303 C 
BRANCH  94  95
ATOM     95  C   UNL A   1      30.827  23.555  25.351  1.00  0.00     0.044 A 
ATOM     96  C   UNL A   1      30.602  24.634  24.455  1.00  0.00     0.051 A 
ATOM     97  C   UNL A   1      30.236  23.956  26.536  1.00  0.00     0.204 A 
ATOM     98  C   UNL A   1      30.057  25.657  25.193  1.00  0.00     0.195 A 
ATOM     99  O   UNL A   1      29.796  25.236  26.454  1.00  0.00    -0.472 OA
ENDBRANCH  94  95
ENDBRANCH  85  94
ENDBRANCH  81  83
ENDBRANCH  80  81
ENDBRANCH  79  80
ENDBRANCH  78  79
ENDBRANCH  77  78
ENDBRANCH  76  77
ENDBRANCH   1  76
TORSDOF 22
ENDMDL
