MODEL 1
REMARK VINA RESULT:      -9.1      0.000      0.000
REMARK SMILES Cc1nn(-c2cccc(C(=O)OCCOCCOCCOC(=O)c3ccc(-c4c5nc(c(-c6c(F)cc(S(=O)(=O)[O-])cc6F)c6ccc([nH]6)c(-c6c(F)cc(S(=O)(=O)[O-])cc6F)c6nc(c(-c7c(F)cc(S(=O)(=O)[O-])cc7F)c7ccc4[nH]7)C=C6)C=C5)cc3)c2)c(C)c1Cl
REMARK SMILES IDX 17 1 16 2 15 3 14 4 13 5 12 6 10 7 11 8 9 9 5 10 6 11 90 12
REMARK SMILES IDX 7 13 8 14 4 15 1 16 2 17 3 18 93 19 91 20 94 21 92 22 18 23
REMARK SMILES IDX 19 24 20 25 21 26 22 27 23 28 24 29 25 30 89 31 26 32 88 33
REMARK SMILES IDX 27 34 28 35 29 36 82 37 30 38 87 39 81 40 83 41 31 42 86 43
REMARK SMILES IDX 80 44 79 45 32 47 66 48 45 49 65 50 46 51 49 52 64 53 84 54
REMARK SMILES IDX 47 55 48 56 63 58 85 59 50 60 33 61 34 62 43 63 35 64 36 65
REMARK SMILES IDX 42 66 44 67 37 68 38 69 39 70 40 71 41 72 67 73 68 74 77 75
REMARK SMILES IDX 69 76 70 77 76 78 78 79 71 80 72 81 73 82 74 83 75 84 51 85
REMARK SMILES IDX 52 86 61 87 53 88 54 89 60 90 62 91 55 92 56 93 57 94 58 95
REMARK SMILES IDX 59 96
REMARK H PARENT 83 46 49 57
REMARK Flexibility Score: inf
ROOT
ATOM      1  C   UNL A   1      42.899  18.606  25.838  1.00  0.00     0.188 C 
ENDROOT
BRANCH   1   2
ATOM      2  C   UNL A   1      44.412  18.301  25.741  1.00  0.00     0.188 C 
BRANCH   2   3
ATOM      3  O   UNL A   1      45.192  18.829  24.675  1.00  0.00    -0.376 OA
BRANCH   3   4
ATOM      4  C   UNL A   1      45.952  20.010  24.887  1.00  0.00     0.202 C 
BRANCH   4   5
ATOM      5  C   UNL A   1      45.248  21.265  25.438  1.00  0.00     0.261 C 
BRANCH   5   6
ATOM      6  O   UNL A   1      46.136  22.293  25.913  1.00  0.00    -0.460 OA
BRANCH   6   7
ATOM      7  C   UNL A   1      46.264  23.395  25.133  1.00  0.00     0.338 C 
ATOM      8  O   UNL A   1      46.284  23.438  23.916  1.00  0.00    -0.246 OA
BRANCH   7   9
ATOM      9  C   UNL A   1      46.199  24.612  25.981  1.00  0.00     0.062 A 
ATOM     10  C   UNL A   1      46.381  25.739  28.119  1.00  0.00     0.066 A 
ATOM     11  C   UNL A   1      45.873  26.912  27.541  1.00  0.00     0.028 A 
ATOM     12  C   UNL A   1      46.493  24.572  27.348  1.00  0.00     0.044 A 
ATOM     13  C   UNL A   1      45.587  26.947  26.174  1.00  0.00     0.003 A 
ATOM     14  C   UNL A   1      45.775  25.808  25.390  1.00  0.00     0.016 A 
BRANCH  10  15
ATOM     15  N   UNL A   1      46.803  25.762  29.477  1.00  0.00    -0.236 N 
ATOM     16  C   UNL A   1      49.472  26.096  31.806  1.00  0.00     0.070 C 
ATOM     17  C   UNL A   1      48.167  25.926  31.117  1.00  0.00     0.079 A 
ATOM     18  N   UNL A   1      48.126  25.789  29.786  1.00  0.00    -0.171 NA
ATOM     19  C   UNL A   1      46.878  25.841  31.680  1.00  0.00     0.085 A 
ATOM     20  C   UNL A   1      46.018  25.666  30.618  1.00  0.00     0.060 A 
ATOM     21  Cl  UNL A   1      46.488  25.863  33.333  1.00  0.00    -0.080 Cl
ATOM     22  C   UNL A   1      44.571  25.328  30.620  1.00  0.00     0.068 C 
ENDBRANCH  10  15
ENDBRANCH   7   9
ENDBRANCH   6   7
ENDBRANCH   5   6
ENDBRANCH   4   5
ENDBRANCH   3   4
ENDBRANCH   2   3
ENDBRANCH   1   2
BRANCH   1  23
ATOM     23  O   UNL A   1      42.399  18.799  27.155  1.00  0.00    -0.376 OA
BRANCH  23  24
ATOM     24  C   UNL A   1      41.785  20.058  27.411  1.00  0.00     0.202 C 
BRANCH  24  25
ATOM     25  C   UNL A   1      41.076  20.693  26.216  1.00  0.00     0.261 C 
BRANCH  25  26
ATOM     26  O   UNL A   1      41.316  22.086  26.064  1.00  0.00    -0.460 OA
BRANCH  26  27
ATOM     27  C   UNL A   1      40.373  22.900  26.580  1.00  0.00     0.338 C 
ATOM     28  O   UNL A   1      39.239  22.595  26.901  1.00  0.00    -0.246 OA
BRANCH  27  29
ATOM     29  C   UNL A   1      40.912  24.264  26.621  1.00  0.00     0.060 A 
ATOM     30  C   UNL A   1      42.125  24.441  27.288  1.00  0.00     0.016 A 
ATOM     31  C   UNL A   1      40.081  25.345  26.284  1.00  0.00     0.016 A 
ATOM     32  C   UNL A   1      42.385  25.673  27.840  1.00  0.00     0.010 A 
ATOM     33  C   UNL A   1      40.333  26.570  26.853  1.00  0.00     0.010 A 
ATOM     34  C   UNL A   1      41.426  26.682  27.707  1.00  0.00    -0.014 A 
BRANCH  34  35
ATOM     35  C   UNL A   1      41.560  27.835  28.571  1.00  0.00     0.031 A 
ATOM     36  C   UNL A   1      42.615  28.790  28.188  1.00  0.00     0.074 A 
ATOM     37  C   UNL A   1      40.720  28.035  29.603  1.00  0.00     0.049 A 
ATOM     38  N   UNL A   1      43.662  29.135  28.860  1.00  0.00    -0.248 NA
ATOM     39  C   UNL A   1      42.546  29.354  26.832  1.00  0.00     0.031 C 
ATOM     40  C   UNL A   1      39.463  27.335  29.889  1.00  0.00     0.029 A 
ATOM     41  N   UNL A   1      40.759  29.005  30.555  1.00  0.00    -0.354 N 
ATOM     42  C   UNL A   1      44.281  30.118  28.099  1.00  0.00     0.074 A 
ATOM     43  C   UNL A   1      43.649  30.099  26.805  1.00  0.00     0.031 C 
ATOM     44  C   UNL A   1      38.759  28.052  30.794  1.00  0.00     0.029 A 
ATOM     45  C   UNL A   1      39.558  29.190  31.222  1.00  0.00     0.049 A 
ATOM     46  H   UNL A   1      41.568  29.529  30.751  1.00  0.00     0.167 HD
ATOM     47  C   UNL A   1      45.116  31.035  28.655  1.00  0.00     0.037 A 
ATOM     48  C   UNL A   1      39.221  30.267  31.975  1.00  0.00     0.037 A 
ATOM     49  C   UNL A   1      45.619  30.607  29.934  1.00  0.00     0.049 A 
ATOM     50  C   UNL A   1      40.483  30.968  32.345  1.00  0.00     0.074 A 
ATOM     51  C   UNL A   1      46.319  29.498  30.370  1.00  0.00     0.029 A 
ATOM     52  N   UNL A   1      45.125  31.203  31.070  1.00  0.00    -0.354 N 
ATOM     53  N   UNL A   1      41.374  30.503  33.177  1.00  0.00    -0.248 NA
ATOM     54  C   UNL A   1      40.952  32.029  31.464  1.00  0.00     0.031 C 
ATOM     55  C   UNL A   1      45.816  29.223  31.675  1.00  0.00     0.029 A 
ATOM     56  C   UNL A   1      44.862  30.197  31.967  1.00  0.00     0.049 A 
ATOM     57  H   UNL A   1      44.987  32.167  31.213  1.00  0.00     0.167 HD
ATOM     58  C   UNL A   1      42.595  30.911  32.660  1.00  0.00     0.074 A 
ATOM     59  C   UNL A   1      42.267  31.930  31.668  1.00  0.00     0.031 C 
ATOM     60  C   UNL A   1      43.739  30.198  32.879  1.00  0.00     0.037 A 
BRANCH  47  61
ATOM     61  C   UNL A   1      45.204  32.457  28.167  1.00  0.00     0.058 A 
ATOM     62  C   UNL A   1      46.455  33.005  27.831  1.00  0.00     0.135 A 
ATOM     63  C   UNL A   1      44.136  33.379  28.269  1.00  0.00     0.135 A 
ATOM     64  F   UNL A   1      47.540  32.220  27.733  1.00  0.00    -0.206 F 
ATOM     65  C   UNL A   1      46.644  34.377  27.664  1.00  0.00     0.059 A 
ATOM     66  C   UNL A   1      44.288  34.739  28.045  1.00  0.00     0.059 A 
ATOM     67  F   UNL A   1      42.916  33.014  28.689  1.00  0.00    -0.206 F 
ATOM     68  C   UNL A   1      45.554  35.235  27.791  1.00  0.00     0.060 A 
BRANCH  68  69
ATOM     69  S   UNL A   1      45.809  37.015  27.708  1.00  0.00     0.124 S 
ATOM     70  O   UNL A   1      46.059  37.334  29.109  1.00  0.00    -0.237 OA
ATOM     71  O   UNL A   1      46.957  37.120  26.812  1.00  0.00    -0.237 OA
ATOM     72  O   UNL A   1      44.548  37.507  27.160  1.00  0.00    -0.744 OA
ENDBRANCH  68  69
ENDBRANCH  47  61
BRANCH  48  73
ATOM     73  C   UNL A   1      37.888  30.913  32.104  1.00  0.00     0.058 A 
ATOM     74  C   UNL A   1      37.379  31.254  33.369  1.00  0.00     0.135 A 
ATOM     75  C   UNL A   1      37.207  31.459  30.996  1.00  0.00     0.135 A 
ATOM     76  F   UNL A   1      37.972  30.796  34.482  1.00  0.00    -0.206 F 
ATOM     77  C   UNL A   1      36.301  32.130  33.529  1.00  0.00     0.059 A 
ATOM     78  C   UNL A   1      36.117  32.315  31.129  1.00  0.00     0.059 A 
ATOM     79  F   UNL A   1      37.638  31.262  29.742  1.00  0.00    -0.206 F 
ATOM     80  C   UNL A   1      35.690  32.674  32.401  1.00  0.00     0.060 A 
BRANCH  80  81
ATOM     81  S   UNL A   1      34.432  33.955  32.600  1.00  0.00     0.124 S 
ATOM     82  O   UNL A   1      33.272  33.176  33.018  1.00  0.00    -0.237 OA
ATOM     83  O   UNL A   1      35.026  34.814  33.618  1.00  0.00    -0.237 OA
ATOM     84  O   UNL A   1      34.339  34.547  31.267  1.00  0.00    -0.744 OA
ENDBRANCH  80  81
ENDBRANCH  48  73
BRANCH  60  85
ATOM     85  C   UNL A   1      43.738  29.155  33.966  1.00  0.00     0.058 A 
ATOM     86  C   UNL A   1      43.257  27.844  33.806  1.00  0.00     0.135 A 
ATOM     87  C   UNL A   1      44.373  29.460  35.181  1.00  0.00     0.135 A 
ATOM     88  F   UNL A   1      42.745  27.434  32.636  1.00  0.00    -0.206 F 
ATOM     89  C   UNL A   1      43.348  26.899  34.830  1.00  0.00     0.059 A 
ATOM     90  C   UNL A   1      44.506  28.522  36.202  1.00  0.00     0.059 A 
ATOM     91  F   UNL A   1      44.915  30.674  35.371  1.00  0.00    -0.206 F 
ATOM     92  C   UNL A   1      43.973  27.248  36.027  1.00  0.00     0.060 A 
BRANCH  92  93
ATOM     93  S   UNL A   1      44.153  26.002  37.323  1.00  0.00     0.124 S 
ATOM     94  O   UNL A   1      43.236  24.961  36.876  1.00  0.00    -0.237 OA
ATOM     95  O   UNL A   1      45.574  25.670  37.251  1.00  0.00    -0.237 OA
ATOM     96  O   UNL A   1      43.750  26.711  38.535  1.00  0.00    -0.744 OA
ENDBRANCH  92  93
ENDBRANCH  60  85
ENDBRANCH  34  35
ENDBRANCH  27  29
ENDBRANCH  26  27
ENDBRANCH  25  26
ENDBRANCH  24  25
ENDBRANCH  23  24
ENDBRANCH   1  23
TORSDOF 21
ENDMDL
MODEL 2
REMARK VINA RESULT:      -9.0      4.765      7.616
REMARK SMILES Cc1nn(-c2cccc(C(=O)OCCOCCOCCOC(=O)c3ccc(-c4c5nc(c(-c6c(F)cc(S(=O)(=O)[O-])cc6F)c6ccc([nH]6)c(-c6c(F)cc(S(=O)(=O)[O-])cc6F)c6nc(c(-c7c(F)cc(S(=O)(=O)[O-])cc7F)c7ccc4[nH]7)C=C6)C=C5)cc3)c2)c(C)c1Cl
REMARK SMILES IDX 17 1 16 2 15 3 14 4 13 5 12 6 10 7 11 8 9 9 5 10 6 11 90 12
REMARK SMILES IDX 7 13 8 14 4 15 1 16 2 17 3 18 93 19 91 20 94 21 92 22 18 23
REMARK SMILES IDX 19 24 20 25 21 26 22 27 23 28 24 29 25 30 89 31 26 32 88 33
REMARK SMILES IDX 27 34 28 35 29 36 82 37 30 38 87 39 81 40 83 41 31 42 86 43
REMARK SMILES IDX 80 44 79 45 32 47 66 48 45 49 65 50 46 51 49 52 64 53 84 54
REMARK SMILES IDX 47 55 48 56 63 58 85 59 50 60 33 61 34 62 43 63 35 64 36 65
REMARK SMILES IDX 42 66 44 67 37 68 38 69 39 70 40 71 41 72 67 73 68 74 77 75
REMARK SMILES IDX 69 76 70 77 76 78 78 79 71 80 72 81 73 82 74 83 75 84 51 85
REMARK SMILES IDX 52 86 61 87 53 88 54 89 60 90 62 91 55 92 56 93 57 94 58 95
REMARK SMILES IDX 59 96
REMARK H PARENT 83 46 49 57
REMARK Flexibility Score: inf
ROOT
ATOM      1  C   UNL A   1      38.885  22.917  26.528  1.00  0.00     0.188 C 
ENDROOT
BRANCH   1   2
ATOM      2  C   UNL A   1      38.221  22.004  25.472  1.00  0.00     0.188 C 
BRANCH   2   3
ATOM      3  O   UNL A   1      36.990  21.348  25.750  1.00  0.00    -0.376 OA
BRANCH   3   4
ATOM      4  C   UNL A   1      35.768  21.992  25.417  1.00  0.00     0.202 C 
BRANCH   4   5
ATOM      5  C   UNL A   1      34.686  21.198  24.661  1.00  0.00     0.261 C 
BRANCH   5   6
ATOM      6  O   UNL A   1      33.888  21.982  23.755  1.00  0.00    -0.460 OA
BRANCH   6   7
ATOM      7  C   UNL A   1      32.557  21.718  23.732  1.00  0.00     0.338 C 
ATOM      8  O   UNL A   1      32.007  20.754  23.230  1.00  0.00    -0.246 OA
BRANCH   7   9
ATOM      9  C   UNL A   1      31.842  22.703  24.581  1.00  0.00     0.062 A 
ATOM     10  C   UNL A   1      31.267  24.976  25.197  1.00  0.00     0.066 A 
ATOM     11  C   UNL A   1      30.613  24.497  26.342  1.00  0.00     0.028 A 
ATOM     12  C   UNL A   1      31.929  24.079  24.344  1.00  0.00     0.044 A 
ATOM     13  C   UNL A   1      30.525  23.122  26.570  1.00  0.00     0.003 A 
ATOM     14  C   UNL A   1      31.115  22.225  25.678  1.00  0.00     0.016 A 
BRANCH  10  15
ATOM     15  N   UNL A   1      31.223  26.367  24.903  1.00  0.00    -0.236 N 
ATOM     16  C   UNL A   1      32.821  29.542  25.069  1.00  0.00     0.070 C 
ATOM     17  C   UNL A   1      31.909  28.393  24.836  1.00  0.00     0.079 A 
ATOM     18  N   UNL A   1      32.176  27.204  25.392  1.00  0.00    -0.171 NA
ATOM     19  C   UNL A   1      30.705  28.357  24.105  1.00  0.00     0.085 A 
ATOM     20  C   UNL A   1      30.240  27.065  24.214  1.00  0.00     0.060 A 
ATOM     21  Cl  UNL A   1      29.949  29.664  23.328  1.00  0.00    -0.080 Cl
ATOM     22  C   UNL A   1      28.928  26.495  23.812  1.00  0.00     0.068 C 
ENDBRANCH  10  15
ENDBRANCH   7   9
ENDBRANCH   6   7
ENDBRANCH   5   6
ENDBRANCH   4   5
ENDBRANCH   3   4
ENDBRANCH   2   3
ENDBRANCH   1   2
BRANCH   1  23
ATOM     23  O   UNL A   1      40.287  22.746  26.688  1.00  0.00    -0.376 OA
BRANCH  23  24
ATOM     24  C   UNL A   1      40.691  21.789  27.663  1.00  0.00     0.202 C 
BRANCH  24  25
ATOM     25  C   UNL A   1      41.354  20.530  27.107  1.00  0.00     0.261 C 
BRANCH  25  26
ATOM     26  O   UNL A   1      42.773  20.599  27.033  1.00  0.00    -0.460 OA
BRANCH  26  27
ATOM     27  C   UNL A   1      43.278  20.947  25.832  1.00  0.00     0.338 C 
ATOM     28  O   UNL A   1      43.410  20.229  24.858  1.00  0.00    -0.246 OA
BRANCH  27  29
ATOM     29  C   UNL A   1      43.730  22.341  25.907  1.00  0.00     0.060 A 
ATOM     30  C   UNL A   1      44.569  22.674  26.971  1.00  0.00     0.016 A 
ATOM     31  C   UNL A   1      43.085  23.318  25.131  1.00  0.00     0.016 A 
ATOM     32  C   UNL A   1      44.562  23.975  27.417  1.00  0.00     0.010 A 
ATOM     33  C   UNL A   1      43.065  24.613  25.589  1.00  0.00     0.010 A 
ATOM     34  C   UNL A   1      43.719  24.895  26.785  1.00  0.00    -0.014 A 
BRANCH  34  35
ATOM     35  C   UNL A   1      43.474  26.143  27.474  1.00  0.00     0.031 A 
ATOM     36  C   UNL A   1      44.500  27.182  27.279  1.00  0.00     0.074 A 
ATOM     37  C   UNL A   1      42.344  26.341  28.177  1.00  0.00     0.049 A 
ATOM     38  N   UNL A   1      45.254  27.735  28.169  1.00  0.00    -0.248 NA
ATOM     39  C   UNL A   1      44.796  27.580  25.896  1.00  0.00     0.031 C 
ATOM     40  C   UNL A   1      41.132  25.515  28.183  1.00  0.00     0.029 A 
ATOM     41  N   UNL A   1      41.999  27.406  28.948  1.00  0.00    -0.354 N 
ATOM     42  C   UNL A   1      45.980  28.703  27.487  1.00  0.00     0.074 A 
ATOM     43  C   UNL A   1      45.779  28.458  26.082  1.00  0.00     0.031 C 
ATOM     44  C   UNL A   1      40.121  26.227  28.732  1.00  0.00     0.029 A 
ATOM     45  C   UNL A   1      40.639  27.501  29.204  1.00  0.00     0.049 A 
ATOM     46  H   UNL A   1      42.656  28.052  29.293  1.00  0.00     0.167 HD
ATOM     47  C   UNL A   1      46.515  29.779  28.122  1.00  0.00     0.037 A 
ATOM     48  C   UNL A   1      39.989  28.600  29.661  1.00  0.00     0.037 A 
ATOM     49  C   UNL A   1      46.641  29.565  29.540  1.00  0.00     0.049 A 
ATOM     50  C   UNL A   1      41.005  29.499  30.276  1.00  0.00     0.074 A 
ATOM     51  C   UNL A   1      47.276  28.614  30.316  1.00  0.00     0.029 A 
ATOM     52  N   UNL A   1      45.770  30.211  30.385  1.00  0.00    -0.354 N 
ATOM     53  N   UNL A   1      41.639  29.252  31.390  1.00  0.00    -0.248 NA
ATOM     54  C   UNL A   1      41.618  30.510  29.426  1.00  0.00     0.031 C 
ATOM     55  C   UNL A   1      46.428  28.420  31.444  1.00  0.00     0.029 A 
ATOM     56  C   UNL A   1      45.342  29.283  31.302  1.00  0.00     0.049 A 
ATOM     57  H   UNL A   1      45.505  31.158  30.341  1.00  0.00     0.167 HD
ATOM     58  C   UNL A   1      42.915  29.760  31.196  1.00  0.00     0.074 A 
ATOM     59  C   UNL A   1      42.811  30.610  30.015  1.00  0.00     0.031 C 
ATOM     60  C   UNL A   1      44.000  29.234  31.839  1.00  0.00     0.037 A 
BRANCH  47  61
ATOM     61  C   UNL A   1      46.614  31.138  27.480  1.00  0.00     0.058 A 
ATOM     62  C   UNL A   1      47.841  31.826  27.483  1.00  0.00     0.135 A 
ATOM     63  C   UNL A   1      45.483  31.896  27.096  1.00  0.00     0.135 A 
ATOM     64  F   UNL A   1      48.971  31.204  27.855  1.00  0.00    -0.206 F 
ATOM     65  C   UNL A   1      47.930  33.184  27.181  1.00  0.00     0.059 A 
ATOM     66  C   UNL A   1      45.559  33.232  26.730  1.00  0.00     0.059 A 
ATOM     67  F   UNL A   1      44.239  31.403  27.154  1.00  0.00    -0.206 F 
ATOM     68  C   UNL A   1      46.778  33.881  26.823  1.00  0.00     0.060 A 
BRANCH  68  69
ATOM     69  S   UNL A   1      46.859  35.659  26.559  1.00  0.00     0.124 S 
ATOM     70  O   UNL A   1      45.475  35.960  26.213  1.00  0.00    -0.237 OA
ATOM     71  O   UNL A   1      47.315  36.143  27.858  1.00  0.00    -0.237 OA
ATOM     72  O   UNL A   1      47.827  35.791  25.473  1.00  0.00    -0.744 OA
ENDBRANCH  68  69
ENDBRANCH  47  61
BRANCH  48  73
ATOM     73  C   UNL A   1      38.625  29.072  29.302  1.00  0.00     0.058 A 
ATOM     74  C   UNL A   1      37.663  29.303  30.301  1.00  0.00     0.135 A 
ATOM     75  C   UNL A   1      38.315  29.569  28.020  1.00  0.00     0.135 A 
ATOM     76  F   UNL A   1      37.878  28.883  31.558  1.00  0.00    -0.206 F 
ATOM     77  C   UNL A   1      36.496  30.034  30.060  1.00  0.00     0.059 A 
ATOM     78  C   UNL A   1      37.148  30.279  27.749  1.00  0.00     0.059 A 
ATOM     79  F   UNL A   1      39.182  29.470  27.002  1.00  0.00    -0.206 F 
ATOM     80  C   UNL A   1      36.258  30.538  28.782  1.00  0.00     0.060 A 
BRANCH  80  81
ATOM     81  S   UNL A   1      34.859  31.647  28.508  1.00  0.00     0.124 S 
ATOM     82  O   UNL A   1      34.654  32.207  29.840  1.00  0.00    -0.237 OA
ATOM     83  O   UNL A   1      35.385  32.563  27.503  1.00  0.00    -0.237 OA
ATOM     84  O   UNL A   1      33.804  30.752  28.039  1.00  0.00    -0.744 OA
ENDBRANCH  80  81
ENDBRANCH  48  73
BRANCH  60  85
ATOM     85  C   UNL A   1      43.765  28.327  33.018  1.00  0.00     0.058 A 
ATOM     86  C   UNL A   1      43.646  28.770  34.347  1.00  0.00     0.135 A 
ATOM     87  C   UNL A   1      43.518  26.966  32.772  1.00  0.00     0.135 A 
ATOM     88  F   UNL A   1      43.747  30.072  34.652  1.00  0.00    -0.206 F 
ATOM     89  C   UNL A   1      43.356  27.889  35.390  1.00  0.00     0.059 A 
ATOM     90  C   UNL A   1      43.192  26.077  33.794  1.00  0.00     0.059 A 
ATOM     91  F   UNL A   1      43.547  26.493  31.516  1.00  0.00    -0.206 F 
ATOM     92  C   UNL A   1      43.133  26.543  35.105  1.00  0.00     0.060 A 
BRANCH  92  93
ATOM     93  S   UNL A   1      42.688  25.419  36.448  1.00  0.00     0.124 S 
ATOM     94  O   UNL A   1      41.718  24.542  35.803  1.00  0.00    -0.237 OA
ATOM     95  O   UNL A   1      43.969  24.806  36.789  1.00  0.00    -0.237 OA
ATOM     96  O   UNL A   1      42.143  26.308  37.471  1.00  0.00    -0.744 OA
ENDBRANCH  92  93
ENDBRANCH  60  85
ENDBRANCH  34  35
ENDBRANCH  27  29
ENDBRANCH  26  27
ENDBRANCH  25  26
ENDBRANCH  24  25
ENDBRANCH  23  24
ENDBRANCH   1  23
TORSDOF 21
ENDMDL
MODEL 3
REMARK VINA RESULT:      -8.8      4.606     11.656
REMARK SMILES Cc1nn(-c2cccc(C(=O)OCCOCCOCCOC(=O)c3ccc(-c4c5nc(c(-c6c(F)cc(S(=O)(=O)[O-])cc6F)c6ccc([nH]6)c(-c6c(F)cc(S(=O)(=O)[O-])cc6F)c6nc(c(-c7c(F)cc(S(=O)(=O)[O-])cc7F)c7ccc4[nH]7)C=C6)C=C5)cc3)c2)c(C)c1Cl
REMARK SMILES IDX 17 1 16 2 15 3 14 4 13 5 12 6 10 7 11 8 9 9 5 10 6 11 90 12
REMARK SMILES IDX 7 13 8 14 4 15 1 16 2 17 3 18 93 19 91 20 94 21 92 22 18 23
REMARK SMILES IDX 19 24 20 25 21 26 22 27 23 28 24 29 25 30 89 31 26 32 88 33
REMARK SMILES IDX 27 34 28 35 29 36 82 37 30 38 87 39 81 40 83 41 31 42 86 43
REMARK SMILES IDX 80 44 79 45 32 47 66 48 45 49 65 50 46 51 49 52 64 53 84 54
REMARK SMILES IDX 47 55 48 56 63 58 85 59 50 60 33 61 34 62 43 63 35 64 36 65
REMARK SMILES IDX 42 66 44 67 37 68 38 69 39 70 40 71 41 72 67 73 68 74 77 75
REMARK SMILES IDX 69 76 70 77 76 78 78 79 71 80 72 81 73 82 74 83 75 84 51 85
REMARK SMILES IDX 52 86 61 87 53 88 54 89 60 90 62 91 55 92 56 93 57 94 58 95
REMARK SMILES IDX 59 96
REMARK H PARENT 83 46 49 57
REMARK Flexibility Score: inf
ROOT
ATOM      1  C   UNL A   1      33.838  34.296  28.021  1.00  0.00     0.188 C 
ENDROOT
BRANCH   1   2
ATOM      2  C   UNL A   1      34.141  32.848  28.471  1.00  0.00     0.188 C 
BRANCH   2   3
ATOM      3  O   UNL A   1      34.342  31.817  27.512  1.00  0.00    -0.376 OA
BRANCH   3   4
ATOM      4  C   UNL A   1      34.931  30.590  27.921  1.00  0.00     0.202 C 
BRANCH   4   5
ATOM      5  C   UNL A   1      34.275  29.265  27.488  1.00  0.00     0.261 C 
BRANCH   5   6
ATOM      6  O   UNL A   1      34.436  28.942  26.095  1.00  0.00    -0.460 OA
BRANCH   6   7
ATOM      7  C   UNL A   1      33.319  28.993  25.326  1.00  0.00     0.338 C 
ATOM      8  O   UNL A   1      32.467  29.863  25.322  1.00  0.00    -0.246 OA
BRANCH   7   9
ATOM      9  C   UNL A   1      33.357  27.897  24.326  1.00  0.00     0.062 A 
ATOM     10  C   UNL A   1      33.553  25.556  23.726  1.00  0.00     0.066 A 
ATOM     11  C   UNL A   1      33.605  25.911  22.370  1.00  0.00     0.028 A 
ATOM     12  C   UNL A   1      33.483  26.557  24.708  1.00  0.00     0.044 A 
ATOM     13  C   UNL A   1      33.473  27.250  21.995  1.00  0.00     0.003 A 
ATOM     14  C   UNL A   1      33.322  28.239  22.969  1.00  0.00     0.016 A 
BRANCH  10  15
ATOM     15  N   UNL A   1      33.543  24.179  24.084  1.00  0.00    -0.236 N 
ATOM     16  C   UNL A   1      35.347  21.355  25.279  1.00  0.00     0.070 C 
ATOM     17  C   UNL A   1      34.330  22.315  24.778  1.00  0.00     0.079 A 
ATOM     18  N   UNL A   1      34.704  23.535  24.374  1.00  0.00    -0.171 NA
ATOM     19  C   UNL A   1      32.944  22.123  24.612  1.00  0.00     0.085 A 
ATOM     20  C   UNL A   1      32.462  23.308  24.100  1.00  0.00     0.060 A 
ATOM     21  Cl  UNL A   1      32.074  20.694  24.904  1.00  0.00    -0.080 Cl
ATOM     22  C   UNL A   1      31.118  23.623  23.552  1.00  0.00     0.068 C 
ENDBRANCH  10  15
ENDBRANCH   7   9
ENDBRANCH   6   7
ENDBRANCH   5   6
ENDBRANCH   4   5
ENDBRANCH   3   4
ENDBRANCH   2   3
ENDBRANCH   1   2
BRANCH   1  23
ATOM     23  O   UNL A   1      32.776  34.939  28.713  1.00  0.00    -0.376 OA
BRANCH  23  24
ATOM     24  C   UNL A   1      33.024  36.279  29.129  1.00  0.00     0.202 C 
BRANCH  24  25
ATOM     25  C   UNL A   1      32.793  36.555  30.614  1.00  0.00     0.261 C 
BRANCH  25  26
ATOM     26  O   UNL A   1      33.768  35.981  31.475  1.00  0.00    -0.460 OA
BRANCH  26  27
ATOM     27  C   UNL A   1      33.303  35.083  32.367  1.00  0.00     0.338 C 
ATOM     28  O   UNL A   1      32.140  34.884  32.665  1.00  0.00    -0.246 OA
BRANCH  27  29
ATOM     29  C   UNL A   1      34.449  34.419  32.997  1.00  0.00     0.060 A 
ATOM     30  C   UNL A   1      35.587  35.199  33.212  1.00  0.00     0.016 A 
ATOM     31  C   UNL A   1      34.481  33.017  33.070  1.00  0.00     0.016 A 
ATOM     32  C   UNL A   1      36.807  34.565  33.250  1.00  0.00     0.010 A 
ATOM     33  C   UNL A   1      35.701  32.387  33.090  1.00  0.00     0.010 A 
ATOM     34  C   UNL A   1      36.846  33.178  33.073  1.00  0.00    -0.014 A 
BRANCH  34  35
ATOM     35  C   UNL A   1      38.134  32.590  32.776  1.00  0.00     0.031 A 
ATOM     36  C   UNL A   1      39.026  32.408  33.935  1.00  0.00     0.074 A 
ATOM     37  C   UNL A   1      38.444  32.178  31.533  1.00  0.00     0.049 A 
ATOM     38  N   UNL A   1      40.184  32.939  34.142  1.00  0.00    -0.248 NA
ATOM     39  C   UNL A   1      38.510  31.613  35.058  1.00  0.00     0.031 C 
ATOM     40  C   UNL A   1      37.542  32.020  30.387  1.00  0.00     0.029 A 
ATOM     41  N   UNL A   1      39.625  31.692  31.068  1.00  0.00    -0.354 N 
ATOM     42  C   UNL A   1      40.639  32.382  35.331  1.00  0.00     0.074 A 
ATOM     43  C   UNL A   1      39.516  31.705  35.926  1.00  0.00     0.031 C 
ATOM     44  C   UNL A   1      38.157  31.268  29.447  1.00  0.00     0.029 A 
ATOM     45  C   UNL A   1      39.517  30.988  29.879  1.00  0.00     0.049 A 
ATOM     46  H   UNL A   1      40.481  31.829  31.535  1.00  0.00     0.167 HD
ATOM     47  C   UNL A   1      41.961  32.322  35.635  1.00  0.00     0.037 A 
ATOM     48  C   UNL A   1      40.448  30.146  29.364  1.00  0.00     0.037 A 
ATOM     49  C   UNL A   1      42.738  33.258  34.866  1.00  0.00     0.049 A 
ATOM     50  C   UNL A   1      41.749  30.463  30.015  1.00  0.00     0.074 A 
ATOM     51  C   UNL A   1      42.698  34.628  34.691  1.00  0.00     0.029 A 
ATOM     52  N   UNL A   1      43.530  32.779  33.849  1.00  0.00    -0.354 N 
ATOM     53  N   UNL A   1      42.436  31.554  29.811  1.00  0.00    -0.248 NA
ATOM     54  C   UNL A   1      42.100  29.728  31.223  1.00  0.00     0.031 C 
ATOM     55  C   UNL A   1      43.061  34.847  33.331  1.00  0.00     0.029 A 
ATOM     56  C   UNL A   1      43.329  33.601  32.766  1.00  0.00     0.049 A 
ATOM     57  H   UNL A   1      44.127  31.998  33.888  1.00  0.00     0.167 HD
ATOM     58  C   UNL A   1      43.003  31.856  31.041  1.00  0.00     0.074 A 
ATOM     59  C   UNL A   1      42.846  30.646  31.840  1.00  0.00     0.031 C 
ATOM     60  C   UNL A   1      43.299  33.142  31.395  1.00  0.00     0.037 A 
BRANCH  47  61
ATOM     61  C   UNL A   1      42.570  31.177  36.401  1.00  0.00     0.058 A 
ATOM     62  C   UNL A   1      43.447  31.438  37.469  1.00  0.00     0.135 A 
ATOM     63  C   UNL A   1      42.524  29.836  35.955  1.00  0.00     0.135 A 
ATOM     64  F   UNL A   1      43.583  32.683  37.952  1.00  0.00    -0.206 F 
ATOM     65  C   UNL A   1      44.264  30.448  38.016  1.00  0.00     0.059 A 
ATOM     66  C   UNL A   1      43.280  28.824  36.526  1.00  0.00     0.059 A 
ATOM     67  F   UNL A   1      41.819  29.466  34.877  1.00  0.00    -0.206 F 
ATOM     68  C   UNL A   1      44.184  29.148  37.523  1.00  0.00     0.060 A 
BRANCH  68  69
ATOM     69  S   UNL A   1      45.323  27.894  38.131  1.00  0.00     0.124 S 
ATOM     70  O   UNL A   1      44.466  27.149  39.045  1.00  0.00    -0.237 OA
ATOM     71  O   UNL A   1      45.705  27.204  36.903  1.00  0.00    -0.237 OA
ATOM     72  O   UNL A   1      46.383  28.682  38.754  1.00  0.00    -0.744 OA
ENDBRANCH  68  69
ENDBRANCH  47  61
BRANCH  48  73
ATOM     73  C   UNL A   1      40.223  28.881  28.615  1.00  0.00     0.058 A 
ATOM     74  C   UNL A   1      40.926  28.620  27.425  1.00  0.00     0.135 A 
ATOM     75  C   UNL A   1      39.533  27.787  29.176  1.00  0.00     0.135 A 
ATOM     76  F   UNL A   1      41.628  29.595  26.828  1.00  0.00    -0.206 F 
ATOM     77  C   UNL A   1      40.993  27.342  26.862  1.00  0.00     0.059 A 
ATOM     78  C   UNL A   1      39.564  26.510  28.621  1.00  0.00     0.059 A 
ATOM     79  F   UNL A   1      38.882  27.894  30.344  1.00  0.00    -0.206 F 
ATOM     80  C   UNL A   1      40.325  26.288  27.481  1.00  0.00     0.060 A 
BRANCH  80  81
ATOM     81  S   UNL A   1      40.567  24.603  26.876  1.00  0.00     0.124 S 
ATOM     82  O   UNL A   1      41.543  24.803  25.810  1.00  0.00    -0.237 OA
ATOM     83  O   UNL A   1      41.051  23.915  28.067  1.00  0.00    -0.237 OA
ATOM     84  O   UNL A   1      39.232  24.208  26.432  1.00  0.00    -0.744 OA
ENDBRANCH  80  81
ENDBRANCH  48  73
BRANCH  60  85
ATOM     85  C   UNL A   1      43.328  34.194  30.318  1.00  0.00     0.058 A 
ATOM     86  C   UNL A   1      42.185  34.821  29.792  1.00  0.00     0.135 A 
ATOM     87  C   UNL A   1      44.576  34.682  29.898  1.00  0.00     0.135 A 
ATOM     88  F   UNL A   1      40.959  34.499  30.228  1.00  0.00    -0.206 F 
ATOM     89  C   UNL A   1      42.279  35.843  28.845  1.00  0.00     0.059 A 
ATOM     90  C   UNL A   1      44.693  35.725  28.981  1.00  0.00     0.059 A 
ATOM     91  F   UNL A   1      45.707  34.173  30.414  1.00  0.00    -0.206 F 
ATOM     92  C   UNL A   1      43.538  36.287  28.443  1.00  0.00     0.060 A 
BRANCH  92  93
ATOM     93  S   UNL A   1      43.657  37.657  27.272  1.00  0.00     0.124 S 
ATOM     94  O   UNL A   1      44.885  37.339  26.553  1.00  0.00    -0.237 OA
ATOM     95  O   UNL A   1      42.421  37.529  26.504  1.00  0.00    -0.237 OA
ATOM     96  O   UNL A   1      43.724  38.836  28.131  1.00  0.00    -0.744 OA
ENDBRANCH  92  93
ENDBRANCH  60  85
ENDBRANCH  34  35
ENDBRANCH  27  29
ENDBRANCH  26  27
ENDBRANCH  25  26
ENDBRANCH  24  25
ENDBRANCH  23  24
ENDBRANCH   1  23
TORSDOF 21
ENDMDL
