MODEL 1
REMARK VINA RESULT:     -10.9      0.000      0.000
REMARK SMILES Cc1ccc(O[C@H](C)C(=O)Nc2ccsc2C(=O)OCCOCCOCCOC(=O)c2ccc(-c3c4nc(c(-c5c(F)cc(S(=O)(=O)[O-])cc5F)c5ccc([nH]5)c(-c5c(F)cc(S(=O)(=O)[O-])cc5F)c5nc(c(-c6c(F)cc(S(=O)(=O)[O-])cc6F)c6ccc3[nH]6)C=C5)C=C4)cc2)cc1
REMARK SMILES IDX 23 1 22 2 21 3 20 4 19 5 17 6 18 7 16 8 12 9 13 10 14 11
REMARK SMILES IDX 15 12 11 13 9 14 10 15 7 17 8 18 6 19 5 20 1 21 2 22 3 23
REMARK SMILES IDX 98 24 4 25 97 26 24 27 25 28 26 29 27 30 28 31 29 32 30 33
REMARK SMILES IDX 31 34 32 35 96 36 33 37 95 38 34 39 35 40 36 41 89 42 37 43
REMARK SMILES IDX 94 44 88 45 90 46 38 47 93 48 87 49 86 50 39 52 73 53 52 54
REMARK SMILES IDX 72 55 53 56 56 57 71 58 91 59 54 60 55 61 70 63 92 64 57 65
REMARK SMILES IDX 40 66 41 67 50 68 42 69 43 70 49 71 51 72 44 73 45 74 46 75
REMARK SMILES IDX 47 76 48 77 74 78 75 79 84 80 76 81 77 82 83 83 85 84 78 85
REMARK SMILES IDX 79 86 80 87 81 88 82 89 58 90 59 91 68 92 60 93 61 94 67 95
REMARK SMILES IDX 69 96 62 97 63 98 64 99 65 100 66 101
REMARK H PARENT 11 16 90 51 56 62
REMARK Flexibility Score: inf
ROOT
ATOM      1  C   UNL A   1      35.901  32.572  28.412  1.00  0.00     0.188 C 
ENDROOT
BRANCH   1   2
ATOM      2  O   UNL A   1      34.803  32.398  27.513  1.00  0.00    -0.376 OA
BRANCH   2   3
ATOM      3  C   UNL A   1      34.415  30.986  27.444  1.00  0.00     0.202 C 
BRANCH   3   4
ATOM      4  C   UNL A   1      32.884  30.790  27.008  1.00  0.00     0.261 C 
BRANCH   4   5
ATOM      5  O   UNL A   1      32.310  29.910  25.802  1.00  0.00    -0.459 OA
BRANCH   5   6
ATOM      6  C   UNL A   1      32.705  29.262  24.623  1.00  0.00     0.350 C 
ATOM      7  O   UNL A   1      33.827  29.008  24.242  1.00  0.00    -0.245 OA
BRANCH   6   8
ATOM      8  C   UNL A   1      31.654  29.023  23.687  1.00  0.00     0.136 A 
ATOM      9  C   UNL A   1      31.691  28.181  22.614  1.00  0.00     0.066 A 
ATOM     10  C   UNL A   1      30.377  27.863  22.170  1.00  0.00     0.039 A 
ATOM     11  C   UNL A   1      29.403  28.587  22.826  1.00  0.00     0.068 A 
ATOM     12  S   UNL A   1      30.072  29.594  24.029  1.00  0.00    -0.135 S 
BRANCH   9  13
ATOM     13  N   UNL A   1      32.907  27.686  22.163  1.00  0.00    -0.321 N 
ATOM     14  C   UNL A   1      33.163  26.328  22.253  1.00  0.00     0.265 C 
ATOM     15  O   UNL A   1      33.828  25.776  21.371  1.00  0.00    -0.270 OA
ATOM     16  H   UNL A   1      33.581  28.294  21.782  1.00  0.00     0.170 HD
BRANCH  14  17
ATOM     17  C   UNL A   1      32.651  25.566  23.485  1.00  0.00     0.259 C 
ATOM     18  C   UNL A   1      31.871  24.377  22.938  1.00  0.00     0.064 C 
BRANCH  17  19
ATOM     19  O   UNL A   1      33.759  25.428  24.371  1.00  0.00    -0.481 OA
BRANCH  19  20
ATOM     20  C   UNL A   1      34.623  24.387  24.471  1.00  0.00     0.120 A 
ATOM     21  C   UNL A   1      37.848  21.576  25.139  1.00  0.00     0.044 C 
ATOM     22  C   UNL A   1      36.694  22.510  24.933  1.00  0.00    -0.051 A 
ATOM     23  C   UNL A   1      36.122  22.659  23.666  1.00  0.00     0.007 A 
ATOM     24  C   UNL A   1      36.225  23.314  25.972  1.00  0.00     0.007 A 
ATOM     25  C   UNL A   1      35.090  23.581  23.442  1.00  0.00     0.047 A 
ATOM     26  C   UNL A   1      35.204  24.243  25.737  1.00  0.00     0.047 A 
ENDBRANCH  19  20
ENDBRANCH  17  19
ENDBRANCH  14  17
ENDBRANCH   9  13
ENDBRANCH   6   8
ENDBRANCH   5   6
ENDBRANCH   4   5
ENDBRANCH   3   4
ENDBRANCH   2   3
ENDBRANCH   1   2
BRANCH   1  27
ATOM     27  C   UNL A   1      35.616  32.993  29.855  1.00  0.00     0.188 C 
BRANCH  27  28
ATOM     28  O   UNL A   1      35.156  32.007  30.777  1.00  0.00    -0.376 OA
BRANCH  28  29
ATOM     29  C   UNL A   1      35.636  32.032  32.127  1.00  0.00     0.202 C 
BRANCH  29  30
ATOM     30  C   UNL A   1      36.383  30.784  32.650  1.00  0.00     0.261 C 
BRANCH  30  31
ATOM     31  O   UNL A   1      36.309  29.760  31.646  1.00  0.00    -0.460 OA
BRANCH  31  32
ATOM     32  C   UNL A   1      37.407  29.020  31.318  1.00  0.00     0.338 C 
ATOM     33  O   UNL A   1      37.929  28.164  32.008  1.00  0.00    -0.246 OA
BRANCH  32  34
ATOM     34  C   UNL A   1      37.776  29.528  29.962  1.00  0.00     0.060 A 
ATOM     35  C   UNL A   1      37.869  28.699  28.868  1.00  0.00     0.016 A 
ATOM     36  C   UNL A   1      38.590  30.617  29.928  1.00  0.00     0.016 A 
ATOM     37  C   UNL A   1      38.968  28.789  27.971  1.00  0.00     0.010 A 
ATOM     38  C   UNL A   1      39.796  30.462  29.220  1.00  0.00     0.010 A 
ATOM     39  C   UNL A   1      40.142  29.440  28.331  1.00  0.00    -0.014 A 
BRANCH  39  40
ATOM     40  C   UNL A   1      41.590  28.835  27.904  1.00  0.00     0.031 A 
ATOM     41  C   UNL A   1      42.125  27.387  27.326  1.00  0.00     0.074 A 
ATOM     42  C   UNL A   1      42.596  29.689  28.242  1.00  0.00     0.049 A 
ATOM     43  N   UNL A   1      43.260  26.782  27.633  1.00  0.00    -0.248 NA
ATOM     44  C   UNL A   1      41.428  26.487  26.385  1.00  0.00     0.031 C 
ATOM     45  C   UNL A   1      44.034  29.478  28.173  1.00  0.00     0.029 A 
ATOM     46  N   UNL A   1      42.485  30.828  29.073  1.00  0.00    -0.354 N 
ATOM     47  C   UNL A   1      43.354  25.551  26.951  1.00  0.00     0.074 A 
ATOM     48  C   UNL A   1      42.172  25.409  26.203  1.00  0.00     0.031 C 
ATOM     49  C   UNL A   1      44.588  30.128  29.215  1.00  0.00     0.029 A 
ATOM     50  C   UNL A   1      43.519  30.733  30.011  1.00  0.00     0.049 A 
ATOM     51  H   UNL A   1      41.812  31.544  29.006  1.00  0.00     0.167 HD
ATOM     52  C   UNL A   1      44.358  24.630  27.014  1.00  0.00     0.037 A 
ATOM     53  C   UNL A   1      43.252  30.510  31.338  1.00  0.00     0.037 A 
ATOM     54  C   UNL A   1      45.377  25.057  27.918  1.00  0.00     0.049 A 
ATOM     55  C   UNL A   1      43.845  29.188  31.835  1.00  0.00     0.074 A 
ATOM     56  C   UNL A   1      46.348  26.034  27.820  1.00  0.00     0.029 A 
ATOM     57  N   UNL A   1      45.132  24.863  29.258  1.00  0.00    -0.354 N 
ATOM     58  N   UNL A   1      44.426  28.288  31.082  1.00  0.00    -0.248 NA
ATOM     59  C   UNL A   1      43.753  28.754  33.233  1.00  0.00     0.031 C 
ATOM     60  C   UNL A   1      46.461  26.621  29.117  1.00  0.00     0.029 A 
ATOM     61  C   UNL A   1      45.655  25.912  29.991  1.00  0.00     0.049 A 
ATOM     62  H   UNL A   1      44.655  24.091  29.638  1.00  0.00     0.167 HD
ATOM     63  C   UNL A   1      44.710  27.182  31.842  1.00  0.00     0.074 A 
ATOM     64  C   UNL A   1      44.255  27.513  33.176  1.00  0.00     0.031 C 
ATOM     65  C   UNL A   1      45.268  26.032  31.380  1.00  0.00     0.037 A 
BRANCH  52  66
ATOM     66  C   UNL A   1      44.399  23.450  26.062  1.00  0.00     0.058 A 
ATOM     67  C   UNL A   1      43.607  22.321  26.329  1.00  0.00     0.135 A 
ATOM     68  C   UNL A   1      45.339  23.302  25.015  1.00  0.00     0.135 A 
ATOM     69  F   UNL A   1      42.658  22.371  27.276  1.00  0.00    -0.206 F 
ATOM     70  C   UNL A   1      43.816  21.089  25.696  1.00  0.00     0.059 A 
ATOM     71  C   UNL A   1      45.589  22.069  24.389  1.00  0.00     0.059 A 
ATOM     72  F   UNL A   1      46.111  24.340  24.648  1.00  0.00    -0.206 F 
ATOM     73  C   UNL A   1      44.837  20.957  24.757  1.00  0.00     0.060 A 
BRANCH  73  74
ATOM     74  S   UNL A   1      45.264  19.303  24.141  1.00  0.00     0.124 S 
ATOM     75  O   UNL A   1      46.719  19.371  24.021  1.00  0.00    -0.237 OA
ATOM     76  O   UNL A   1      44.758  18.441  25.203  1.00  0.00    -0.237 OA
ATOM     77  O   UNL A   1      44.550  19.224  22.869  1.00  0.00    -0.744 OA
ENDBRANCH  73  74
ENDBRANCH  52  66
BRANCH  53  78
ATOM     78  C   UNL A   1      42.069  31.223  31.989  1.00  0.00     0.058 A 
ATOM     79  C   UNL A   1      40.933  30.484  32.405  1.00  0.00     0.135 A 
ATOM     80  C   UNL A   1      42.059  32.587  32.360  1.00  0.00     0.135 A 
ATOM     81  F   UNL A   1      40.849  29.171  32.135  1.00  0.00    -0.206 F 
ATOM     82  C   UNL A   1      39.903  31.034  33.190  1.00  0.00     0.059 A 
ATOM     83  C   UNL A   1      41.044  33.159  33.146  1.00  0.00     0.059 A 
ATOM     84  F   UNL A   1      43.106  33.376  32.090  1.00  0.00    -0.206 F 
ATOM     85  C   UNL A   1      39.989  32.367  33.591  1.00  0.00     0.060 A 
BRANCH  85  86
ATOM     86  S   UNL A   1      38.907  33.018  34.902  1.00  0.00     0.124 S 
ATOM     87  O   UNL A   1      38.334  31.801  35.465  1.00  0.00    -0.237 OA
ATOM     88  O   UNL A   1      39.833  33.734  35.773  1.00  0.00    -0.237 OA
ATOM     89  O   UNL A   1      37.985  33.856  34.140  1.00  0.00    -0.744 OA
ENDBRANCH  85  86
ENDBRANCH  53  78
BRANCH  65  90
ATOM     90  C   UNL A   1      45.535  24.888  32.298  1.00  0.00     0.058 A 
ATOM     91  C   UNL A   1      44.580  23.879  32.456  1.00  0.00     0.135 A 
ATOM     92  C   UNL A   1      46.644  24.883  33.161  1.00  0.00     0.135 A 
ATOM     93  F   UNL A   1      43.504  23.832  31.653  1.00  0.00    -0.206 F 
ATOM     94  C   UNL A   1      44.695  22.924  33.457  1.00  0.00     0.059 A 
ATOM     95  C   UNL A   1      46.763  23.963  34.193  1.00  0.00     0.059 A 
ATOM     96  F   UNL A   1      47.609  25.811  33.042  1.00  0.00    -0.206 F 
ATOM     97  C   UNL A   1      45.779  22.988  34.335  1.00  0.00     0.060 A 
BRANCH  97  98
ATOM     98  S   UNL A   1      45.868  21.844  35.725  1.00  0.00     0.124 S 
ATOM     99  O   UNL A   1      45.361  22.642  36.839  1.00  0.00    -0.237 OA
ATOM    100  O   UNL A   1      44.994  20.768  35.273  1.00  0.00    -0.237 OA
ATOM    101  O   UNL A   1      47.290  21.523  35.793  1.00  0.00    -0.744 OA
ENDBRANCH  97  98
ENDBRANCH  65  90
ENDBRANCH  39  40
ENDBRANCH  32  34
ENDBRANCH  31  32
ENDBRANCH  30  31
ENDBRANCH  29  30
ENDBRANCH  28  29
ENDBRANCH  27  28
ENDBRANCH   1  27
TORSDOF 24
ENDMDL
MODEL 2
REMARK VINA RESULT:     -10.5      2.166      3.040
REMARK SMILES Cc1ccc(O[C@H](C)C(=O)Nc2ccsc2C(=O)OCCOCCOCCOC(=O)c2ccc(-c3c4nc(c(-c5c(F)cc(S(=O)(=O)[O-])cc5F)c5ccc([nH]5)c(-c5c(F)cc(S(=O)(=O)[O-])cc5F)c5nc(c(-c6c(F)cc(S(=O)(=O)[O-])cc6F)c6ccc3[nH]6)C=C5)C=C4)cc2)cc1
REMARK SMILES IDX 23 1 22 2 21 3 20 4 19 5 17 6 18 7 16 8 12 9 13 10 14 11
REMARK SMILES IDX 15 12 11 13 9 14 10 15 7 17 8 18 6 19 5 20 1 21 2 22 3 23
REMARK SMILES IDX 98 24 4 25 97 26 24 27 25 28 26 29 27 30 28 31 29 32 30 33
REMARK SMILES IDX 31 34 32 35 96 36 33 37 95 38 34 39 35 40 36 41 89 42 37 43
REMARK SMILES IDX 94 44 88 45 90 46 38 47 93 48 87 49 86 50 39 52 73 53 52 54
REMARK SMILES IDX 72 55 53 56 56 57 71 58 91 59 54 60 55 61 70 63 92 64 57 65
REMARK SMILES IDX 40 66 41 67 50 68 42 69 43 70 49 71 51 72 44 73 45 74 46 75
REMARK SMILES IDX 47 76 48 77 74 78 75 79 84 80 76 81 77 82 83 83 85 84 78 85
REMARK SMILES IDX 79 86 80 87 81 88 82 89 58 90 59 91 68 92 60 93 61 94 67 95
REMARK SMILES IDX 69 96 62 97 63 98 64 99 65 100 66 101
REMARK H PARENT 11 16 90 51 56 62
REMARK Flexibility Score: inf
ROOT
ATOM      1  C   UNL A   1      33.904  31.438  27.690  1.00  0.00     0.188 C 
ENDROOT
BRANCH   1   2
ATOM      2  O   UNL A   1      33.124  30.822  26.662  1.00  0.00    -0.376 OA
BRANCH   2   3
ATOM      3  C   UNL A   1      32.256  29.785  27.228  1.00  0.00     0.202 C 
BRANCH   3   4
ATOM      4  C   UNL A   1      32.955  28.340  27.240  1.00  0.00     0.261 C 
BRANCH   4   5
ATOM      5  O   UNL A   1      33.668  27.584  26.024  1.00  0.00    -0.459 OA
BRANCH   5   6
ATOM      6  C   UNL A   1      33.472  27.217  24.684  1.00  0.00     0.350 C 
ATOM      7  O   UNL A   1      34.076  27.594  23.704  1.00  0.00    -0.245 OA
BRANCH   6   8
ATOM      8  C   UNL A   1      32.309  26.426  24.442  1.00  0.00     0.136 A 
ATOM      9  C   UNL A   1      31.941  25.290  25.100  1.00  0.00     0.066 A 
ATOM     10  C   UNL A   1      30.558  25.015  24.911  1.00  0.00     0.039 A 
ATOM     11  C   UNL A   1      29.966  25.865  24.000  1.00  0.00     0.068 A 
ATOM     12  S   UNL A   1      31.063  27.042  23.434  1.00  0.00    -0.135 S 
BRANCH   9  13
ATOM     13  N   UNL A   1      32.859  24.625  25.903  1.00  0.00    -0.321 N 
ATOM     14  C   UNL A   1      33.925  23.966  25.314  1.00  0.00     0.265 C 
ATOM     15  O   UNL A   1      35.016  23.942  25.891  1.00  0.00    -0.270 OA
ATOM     16  H   UNL A   1      32.753  24.623  26.883  1.00  0.00     0.170 HD
BRANCH  14  17
ATOM     17  C   UNL A   1      33.690  23.238  23.982  1.00  0.00     0.259 C 
ATOM     18  C   UNL A   1      35.077  22.969  23.411  1.00  0.00     0.064 C 
BRANCH  17  19
ATOM     19  O   UNL A   1      32.742  22.204  24.241  1.00  0.00    -0.481 OA
BRANCH  19  20
ATOM     20  C   UNL A   1      32.931  20.863  24.175  1.00  0.00     0.120 A 
ATOM     21  C   UNL A   1      34.261  16.763  23.765  1.00  0.00     0.044 C 
ATOM     22  C   UNL A   1      33.778  18.169  23.961  1.00  0.00    -0.051 A 
ATOM     23  C   UNL A   1      32.624  18.616  23.314  1.00  0.00     0.007 A 
ATOM     24  C   UNL A   1      34.514  19.082  24.716  1.00  0.00     0.007 A 
ATOM     25  C   UNL A   1      32.200  19.948  23.429  1.00  0.00     0.047 A 
ATOM     26  C   UNL A   1      34.093  20.414  24.814  1.00  0.00     0.047 A 
ENDBRANCH  19  20
ENDBRANCH  17  19
ENDBRANCH  14  17
ENDBRANCH   9  13
ENDBRANCH   6   8
ENDBRANCH   5   6
ENDBRANCH   4   5
ENDBRANCH   3   4
ENDBRANCH   2   3
ENDBRANCH   1   2
BRANCH   1  27
ATOM     27  C   UNL A   1      33.544  32.855  28.143  1.00  0.00     0.188 C 
BRANCH  27  28
ATOM     28  O   UNL A   1      34.294  33.446  29.202  1.00  0.00    -0.376 OA
BRANCH  28  29
ATOM     29  C   UNL A   1      35.416  34.280  28.885  1.00  0.00     0.202 C 
BRANCH  29  30
ATOM     30  C   UNL A   1      36.785  33.596  28.669  1.00  0.00     0.261 C 
BRANCH  30  31
ATOM     31  O   UNL A   1      36.842  32.427  29.502  1.00  0.00    -0.460 OA
BRANCH  31  32
ATOM     32  C   UNL A   1      37.441  32.469  30.727  1.00  0.00     0.338 C 
ATOM     33  O   UNL A   1      37.798  33.471  31.319  1.00  0.00    -0.246 OA
BRANCH  32  34
ATOM     34  C   UNL A   1      37.540  31.029  31.114  1.00  0.00     0.060 A 
ATOM     35  C   UNL A   1      38.507  30.566  31.976  1.00  0.00     0.016 A 
ATOM     36  C   UNL A   1      37.113  30.126  30.190  1.00  0.00     0.016 A 
ATOM     37  C   UNL A   1      39.237  29.381  31.689  1.00  0.00     0.010 A 
ATOM     38  C   UNL A   1      38.058  29.163  29.790  1.00  0.00     0.010 A 
ATOM     39  C   UNL A   1      39.272  28.846  30.406  1.00  0.00    -0.014 A 
BRANCH  39  40
ATOM     40  C   UNL A   1      40.648  28.220  29.806  1.00  0.00     0.031 A 
ATOM     41  C   UNL A   1      41.073  26.784  29.117  1.00  0.00     0.074 A 
ATOM     42  C   UNL A   1      41.711  29.030  30.071  1.00  0.00     0.049 A 
ATOM     43  N   UNL A   1      42.213  26.135  29.280  1.00  0.00    -0.248 NA
ATOM     44  C   UNL A   1      40.254  25.944  28.220  1.00  0.00     0.031 C 
ATOM     45  C   UNL A   1      43.126  28.782  29.842  1.00  0.00     0.029 A 
ATOM     46  N   UNL A   1      41.723  30.135  30.953  1.00  0.00    -0.354 N 
ATOM     47  C   UNL A   1      42.197  24.932  28.543  1.00  0.00     0.074 A 
ATOM     48  C   UNL A   1      40.940  24.855  27.918  1.00  0.00     0.031 C 
ATOM     49  C   UNL A   1      43.806  29.371  30.846  1.00  0.00     0.029 A 
ATOM     50  C   UNL A   1      42.845  29.971  31.773  1.00  0.00     0.049 A 
ATOM     51  H   UNL A   1      41.070  30.872  30.986  1.00  0.00     0.167 HD
ATOM     52  C   UNL A   1      43.172  23.982  28.464  1.00  0.00     0.037 A 
ATOM     53  C   UNL A   1      42.710  29.699  33.110  1.00  0.00     0.037 A 
ATOM     54  C   UNL A   1      44.292  24.341  29.272  1.00  0.00     0.049 A 
ATOM     55  C   UNL A   1      43.309  28.340  33.490  1.00  0.00     0.074 A 
ATOM     56  C   UNL A   1      45.279  25.293  29.112  1.00  0.00     0.029 A 
ATOM     57  N   UNL A   1      44.181  24.096  30.621  1.00  0.00    -0.354 N 
ATOM     58  N   UNL A   1      43.779  27.457  32.645  1.00  0.00    -0.248 NA
ATOM     59  C   UNL A   1      43.348  27.850  34.871  1.00  0.00     0.031 C 
ATOM     60  C   UNL A   1      45.545  25.820  30.412  1.00  0.00     0.029 A 
ATOM     61  C   UNL A   1      44.811  25.098  31.337  1.00  0.00     0.049 A 
ATOM     62  H   UNL A   1      43.721  23.322  31.018  1.00  0.00     0.167 HD
ATOM     63  C   UNL A   1      44.104  26.313  33.326  1.00  0.00     0.074 A 
ATOM     64  C   UNL A   1      43.801  26.599  34.712  1.00  0.00     0.031 C 
ATOM     65  C   UNL A   1      44.574  25.168  32.763  1.00  0.00     0.037 A 
BRANCH  52  66
ATOM     66  C   UNL A   1      43.076  22.843  27.466  1.00  0.00     0.058 A 
ATOM     67  C   UNL A   1      42.272  21.730  27.765  1.00  0.00     0.135 A 
ATOM     68  C   UNL A   1      43.904  22.709  26.327  1.00  0.00     0.135 A 
ATOM     69  F   UNL A   1      41.422  21.772  28.803  1.00  0.00    -0.206 F 
ATOM     70  C   UNL A   1      42.372  20.520  27.066  1.00  0.00     0.059 A 
ATOM     71  C   UNL A   1      44.045  21.496  25.630  1.00  0.00     0.059 A 
ATOM     72  F   UNL A   1      44.675  23.735  25.927  1.00  0.00    -0.206 F 
ATOM     73  C   UNL A   1      43.291  20.395  26.027  1.00  0.00     0.060 A 
BRANCH  73  74
ATOM     74  S   UNL A   1      43.595  18.755  25.307  1.00  0.00     0.124 S 
ATOM     75  O   UNL A   1      42.375  18.025  25.645  1.00  0.00    -0.237 OA
ATOM     76  O   UNL A   1      43.772  19.069  23.894  1.00  0.00    -0.237 OA
ATOM     77  O   UNL A   1      44.793  18.300  26.008  1.00  0.00    -0.744 OA
ENDBRANCH  73  74
ENDBRANCH  52  66
BRANCH  53  78
ATOM     78  C   UNL A   1      41.624  30.415  33.910  1.00  0.00     0.058 A 
ATOM     79  C   UNL A   1      41.497  31.825  33.833  1.00  0.00     0.135 A 
ATOM     80  C   UNL A   1      40.602  29.766  34.638  1.00  0.00     0.135 A 
ATOM     81  F   UNL A   1      42.394  32.545  33.140  1.00  0.00    -0.206 F 
ATOM     82  C   UNL A   1      40.404  32.530  34.373  1.00  0.00     0.059 A 
ATOM     83  C   UNL A   1      39.500  30.445  35.184  1.00  0.00     0.059 A 
ATOM     84  F   UNL A   1      40.567  28.430  34.724  1.00  0.00    -0.206 F 
ATOM     85  C   UNL A   1      39.387  31.823  35.013  1.00  0.00     0.060 A 
BRANCH  85  86
ATOM     86  S   UNL A   1      37.791  32.616  35.384  1.00  0.00     0.124 S 
ATOM     87  O   UNL A   1      37.571  32.237  36.775  1.00  0.00    -0.237 OA
ATOM     88  O   UNL A   1      38.062  34.031  35.156  1.00  0.00    -0.237 OA
ATOM     89  O   UNL A   1      36.908  31.980  34.409  1.00  0.00    -0.744 OA
ENDBRANCH  85  86
ENDBRANCH  53  78
BRANCH  65  90
ATOM     90  C   UNL A   1      44.898  23.979  33.601  1.00  0.00     0.058 A 
ATOM     91  C   UNL A   1      46.230  23.681  33.908  1.00  0.00     0.135 A 
ATOM     92  C   UNL A   1      43.918  23.031  33.941  1.00  0.00     0.135 A 
ATOM     93  F   UNL A   1      47.207  24.555  33.611  1.00  0.00    -0.206 F 
ATOM     94  C   UNL A   1      46.585  22.473  34.493  1.00  0.00     0.059 A 
ATOM     95  C   UNL A   1      44.251  21.801  34.492  1.00  0.00     0.059 A 
ATOM     96  F   UNL A   1      42.619  23.271  33.696  1.00  0.00    -0.206 F 
ATOM     97  C   UNL A   1      45.590  21.530  34.760  1.00  0.00     0.060 A 
BRANCH  97  98
ATOM     98  S   UNL A   1      46.050  19.903  35.386  1.00  0.00     0.124 S 
ATOM     99  O   UNL A   1      44.868  19.095  35.097  1.00  0.00    -0.237 OA
ATOM    100  O   UNL A   1      47.229  19.605  34.582  1.00  0.00    -0.237 OA
ATOM    101  O   UNL A   1      46.293  20.156  36.803  1.00  0.00    -0.744 OA
ENDBRANCH  97  98
ENDBRANCH  65  90
ENDBRANCH  39  40
ENDBRANCH  32  34
ENDBRANCH  31  32
ENDBRANCH  30  31
ENDBRANCH  29  30
ENDBRANCH  28  29
ENDBRANCH  27  28
ENDBRANCH   1  27
TORSDOF 24
ENDMDL
MODEL 3
REMARK VINA RESULT:     -10.2      2.707      5.242
REMARK SMILES Cc1ccc(O[C@H](C)C(=O)Nc2ccsc2C(=O)OCCOCCOCCOC(=O)c2ccc(-c3c4nc(c(-c5c(F)cc(S(=O)(=O)[O-])cc5F)c5ccc([nH]5)c(-c5c(F)cc(S(=O)(=O)[O-])cc5F)c5nc(c(-c6c(F)cc(S(=O)(=O)[O-])cc6F)c6ccc3[nH]6)C=C5)C=C4)cc2)cc1
REMARK SMILES IDX 23 1 22 2 21 3 20 4 19 5 17 6 18 7 16 8 12 9 13 10 14 11
REMARK SMILES IDX 15 12 11 13 9 14 10 15 7 17 8 18 6 19 5 20 1 21 2 22 3 23
REMARK SMILES IDX 98 24 4 25 97 26 24 27 25 28 26 29 27 30 28 31 29 32 30 33
REMARK SMILES IDX 31 34 32 35 96 36 33 37 95 38 34 39 35 40 36 41 89 42 37 43
REMARK SMILES IDX 94 44 88 45 90 46 38 47 93 48 87 49 86 50 39 52 73 53 52 54
REMARK SMILES IDX 72 55 53 56 56 57 71 58 91 59 54 60 55 61 70 63 92 64 57 65
REMARK SMILES IDX 40 66 41 67 50 68 42 69 43 70 49 71 51 72 44 73 45 74 46 75
REMARK SMILES IDX 47 76 48 77 74 78 75 79 84 80 76 81 77 82 83 83 85 84 78 85
REMARK SMILES IDX 79 86 80 87 81 88 82 89 58 90 59 91 68 92 60 93 61 94 67 95
REMARK SMILES IDX 69 96 62 97 63 98 64 99 65 100 66 101
REMARK H PARENT 11 16 90 51 56 62
REMARK Flexibility Score: inf
ROOT
ATOM      1  C   UNL A   1      39.634  23.726  26.830  1.00  0.00     0.188 C 
ENDROOT
BRANCH   1   2
ATOM      2  O   UNL A   1      38.465  23.303  26.124  1.00  0.00    -0.376 OA
BRANCH   2   3
ATOM      3  C   UNL A   1      38.561  21.882  25.778  1.00  0.00     0.202 C 
BRANCH   3   4
ATOM      4  C   UNL A   1      37.241  21.337  25.045  1.00  0.00     0.261 C 
BRANCH   4   5
ATOM      5  O   UNL A   1      35.750  21.907  25.157  1.00  0.00    -0.459 OA
BRANCH   5   6
ATOM      6  C   UNL A   1      34.477  21.578  25.643  1.00  0.00     0.350 C 
ATOM      7  O   UNL A   1      34.161  21.245  26.765  1.00  0.00    -0.245 OA
BRANCH   6   8
ATOM      8  C   UNL A   1      33.462  21.468  24.645  1.00  0.00     0.136 A 
ATOM      9  C   UNL A   1      33.134  22.402  23.707  1.00  0.00     0.066 A 
ATOM     10  C   UNL A   1      32.407  21.814  22.633  1.00  0.00     0.039 A 
ATOM     11  C   UNL A   1      32.085  20.494  22.869  1.00  0.00     0.068 A 
ATOM     12  S   UNL A   1      32.727  19.945  24.351  1.00  0.00    -0.135 S 
BRANCH   9  13
ATOM     13  N   UNL A   1      33.591  23.707  23.838  1.00  0.00    -0.321 N 
ATOM     14  C   UNL A   1      33.038  24.526  24.808  1.00  0.00     0.265 C 
ATOM     15  O   UNL A   1      33.753  25.353  25.382  1.00  0.00    -0.270 OA
ATOM     16  H   UNL A   1      34.301  24.047  23.245  1.00  0.00     0.170 HD
BRANCH  14  17
ATOM     17  C   UNL A   1      31.534  24.410  25.095  1.00  0.00     0.259 C 
ATOM     18  C   UNL A   1      31.326  25.045  26.464  1.00  0.00     0.064 C 
BRANCH  17  19
ATOM     19  O   UNL A   1      30.857  24.854  23.922  1.00  0.00    -0.481 OA
BRANCH  19  20
ATOM     20  C   UNL A   1      30.492  26.118  23.596  1.00  0.00     0.120 A 
ATOM     21  C   UNL A   1      28.722  29.819  22.209  1.00  0.00     0.044 C 
ATOM     22  C   UNL A   1      29.338  28.561  22.745  1.00  0.00    -0.051 A 
ATOM     23  C   UNL A   1      30.684  28.274  22.501  1.00  0.00     0.007 A 
ATOM     24  C   UNL A   1      28.567  27.613  23.416  1.00  0.00     0.007 A 
ATOM     25  C   UNL A   1      31.256  27.069  22.932  1.00  0.00     0.047 A 
ATOM     26  C   UNL A   1      29.142  26.405  23.830  1.00  0.00     0.047 A 
ENDBRANCH  19  20
ENDBRANCH  17  19
ENDBRANCH  14  17
ENDBRANCH   9  13
ENDBRANCH   6   8
ENDBRANCH   5   6
ENDBRANCH   4   5
ENDBRANCH   3   4
ENDBRANCH   2   3
ENDBRANCH   1   2
BRANCH   1  27
ATOM     27  C   UNL A   1      39.491  24.774  27.936  1.00  0.00     0.188 C 
BRANCH  27  28
ATOM     28  O   UNL A   1      39.801  26.133  27.634  1.00  0.00    -0.376 OA
BRANCH  28  29
ATOM     29  C   UNL A   1      39.446  27.157  28.572  1.00  0.00     0.202 C 
BRANCH  29  30
ATOM     30  C   UNL A   1      38.903  28.491  28.011  1.00  0.00     0.261 C 
BRANCH  30  31
ATOM     31  O   UNL A   1      37.867  28.962  28.887  1.00  0.00    -0.460 OA
BRANCH  31  32
ATOM     32  C   UNL A   1      37.620  30.296  29.027  1.00  0.00     0.338 C 
ATOM     33  O   UNL A   1      36.931  30.980  28.293  1.00  0.00    -0.246 OA
BRANCH  32  34
ATOM     34  C   UNL A   1      38.392  30.665  30.253  1.00  0.00     0.060 A 
ATOM     35  C   UNL A   1      39.414  31.587  30.226  1.00  0.00     0.016 A 
ATOM     36  C   UNL A   1      38.515  29.698  31.201  1.00  0.00     0.016 A 
ATOM     37  C   UNL A   1      40.646  31.333  30.887  1.00  0.00     0.010 A 
ATOM     38  C   UNL A   1      39.831  29.350  31.558  1.00  0.00     0.010 A 
ATOM     39  C   UNL A   1      41.008  30.047  31.271  1.00  0.00    -0.014 A 
BRANCH  39  40
ATOM     40  C   UNL A   1      42.545  29.537  31.114  1.00  0.00     0.031 A 
ATOM     41  C   UNL A   1      43.291  28.312  30.301  1.00  0.00     0.074 A 
ATOM     42  C   UNL A   1      43.371  30.201  31.971  1.00  0.00     0.049 A 
ATOM     43  N   UNL A   1      44.317  27.592  30.722  1.00  0.00    -0.248 NA
ATOM     44  C   UNL A   1      42.935  27.774  28.973  1.00  0.00     0.031 C 
ATOM     45  C   UNL A   1      44.777  29.956  32.256  1.00  0.00     0.029 A 
ATOM     46  N   UNL A   1      42.973  31.035  33.041  1.00  0.00    -0.354 N 
ATOM     47  C   UNL A   1      44.661  26.624  29.754  1.00  0.00     0.074 A 
ATOM     48  C   UNL A   1      43.750  26.771  28.691  1.00  0.00     0.031 C 
ATOM     49  C   UNL A   1      44.977  30.231  33.560  1.00  0.00     0.029 A 
ATOM     50  C   UNL A   1      43.698  30.611  34.160  1.00  0.00     0.049 A 
ATOM     51  H   UNL A   1      42.314  31.767  33.006  1.00  0.00     0.167 HD
ATOM     52  C   UNL A   1      45.646  25.685  29.818  1.00  0.00     0.037 A 
ATOM     53  C   UNL A   1      43.072  30.006  35.221  1.00  0.00     0.037 A 
ATOM     54  C   UNL A   1      46.342  25.769  31.062  1.00  0.00     0.049 A 
ATOM     55  C   UNL A   1      43.559  28.570  35.439  1.00  0.00     0.074 A 
ATOM     56  C   UNL A   1      47.253  26.684  31.550  1.00  0.00     0.029 A 
ATOM     57  N   UNL A   1      45.732  25.186  32.149  1.00  0.00    -0.354 N 
ATOM     58  N   UNL A   1      44.374  27.918  34.648  1.00  0.00    -0.248 NA
ATOM     59  C   UNL A   1      43.091  27.735  36.550  1.00  0.00     0.031 C 
ATOM     60  C   UNL A   1      46.962  26.841  32.939  1.00  0.00     0.029 A 
ATOM     61  C   UNL A   1      45.974  25.936  33.285  1.00  0.00     0.049 A 
ATOM     62  H   UNL A   1      45.203  24.357  32.121  1.00  0.00     0.167 HD
ATOM     63  C   UNL A   1      44.479  26.621  35.082  1.00  0.00     0.074 A 
ATOM     64  C   UNL A   1      43.646  26.549  36.263  1.00  0.00     0.031 C 
ATOM     65  C   UNL A   1      45.199  25.643  34.471  1.00  0.00     0.037 A 
BRANCH  52  66
ATOM     66  C   UNL A   1      46.013  24.851  28.605  1.00  0.00     0.058 A 
ATOM     67  C   UNL A   1      46.826  25.410  27.605  1.00  0.00     0.135 A 
ATOM     68  C   UNL A   1      45.427  23.602  28.288  1.00  0.00     0.135 A 
ATOM     69  F   UNL A   1      47.459  26.573  27.822  1.00  0.00    -0.206 F 
ATOM     70  C   UNL A   1      46.949  24.841  26.331  1.00  0.00     0.059 A 
ATOM     71  C   UNL A   1      45.510  23.029  27.008  1.00  0.00     0.059 A 
ATOM     72  F   UNL A   1      44.672  22.960  29.196  1.00  0.00    -0.206 F 
ATOM     73  C   UNL A   1      46.256  23.673  26.023  1.00  0.00     0.060 A 
BRANCH  73  74
ATOM     74  S   UNL A   1      46.215  23.094  24.303  1.00  0.00     0.124 S 
ATOM     75  O   UNL A   1      47.221  23.934  23.658  1.00  0.00    -0.237 OA
ATOM     76  O   UNL A   1      46.566  21.685  24.445  1.00  0.00    -0.237 OA
ATOM     77  O   UNL A   1      44.840  23.364  23.892  1.00  0.00    -0.744 OA
ENDBRANCH  73  74
ENDBRANCH  52  66
BRANCH  53  78
ATOM     78  C   UNL A   1      41.720  30.539  35.690  1.00  0.00     0.058 A 
ATOM     79  C   UNL A   1      41.653  31.706  36.491  1.00  0.00     0.135 A 
ATOM     80  C   UNL A   1      40.469  30.038  35.265  1.00  0.00     0.135 A 
ATOM     81  F   UNL A   1      42.783  32.289  36.926  1.00  0.00    -0.206 F 
ATOM     82  C   UNL A   1      40.447  32.368  36.787  1.00  0.00     0.059 A 
ATOM     83  C   UNL A   1      39.251  30.681  35.545  1.00  0.00     0.059 A 
ATOM     84  F   UNL A   1      40.398  28.982  34.444  1.00  0.00    -0.206 F 
ATOM     85  C   UNL A   1      39.251  31.868  36.274  1.00  0.00     0.060 A 
BRANCH  85  86
ATOM     86  S   UNL A   1      37.734  32.873  36.296  1.00  0.00     0.124 S 
ATOM     87  O   UNL A   1      38.261  34.233  36.274  1.00  0.00    -0.237 OA
ATOM     88  O   UNL A   1      37.037  32.452  35.085  1.00  0.00    -0.237 OA
ATOM     89  O   UNL A   1      37.118  32.454  37.553  1.00  0.00    -0.744 OA
ENDBRANCH  85  86
ENDBRANCH  53  78
BRANCH  65  90
ATOM     90  C   UNL A   1      45.246  24.264  35.033  1.00  0.00     0.058 A 
ATOM     91  C   UNL A   1      46.342  23.856  35.801  1.00  0.00     0.135 A 
ATOM     92  C   UNL A   1      44.307  23.286  34.659  1.00  0.00     0.135 A 
ATOM     93  F   UNL A   1      47.265  24.750  36.192  1.00  0.00    -0.206 F 
ATOM     94  C   UNL A   1      46.525  22.526  36.152  1.00  0.00     0.059 A 
ATOM     95  C   UNL A   1      44.488  21.944  34.964  1.00  0.00     0.059 A 
ATOM     96  F   UNL A   1      43.219  23.620  33.943  1.00  0.00    -0.206 F 
ATOM     97  C   UNL A   1      45.605  21.574  35.709  1.00  0.00     0.060 A 
BRANCH  97  98
ATOM     98  S   UNL A   1      45.904  19.826  36.034  1.00  0.00     0.124 S 
ATOM     99  O   UNL A   1      44.938  19.160  35.164  1.00  0.00    -0.237 OA
ATOM    100  O   UNL A   1      47.302  19.693  35.641  1.00  0.00    -0.237 OA
ATOM    101  O   UNL A   1      45.631  19.709  37.463  1.00  0.00    -0.744 OA
ENDBRANCH  97  98
ENDBRANCH  65  90
ENDBRANCH  39  40
ENDBRANCH  32  34
ENDBRANCH  31  32
ENDBRANCH  30  31
ENDBRANCH  29  30
ENDBRANCH  28  29
ENDBRANCH  27  28
ENDBRANCH   1  27
TORSDOF 24
ENDMDL
