MODEL 1
REMARK VINA RESULT:      -9.9      0.000      0.000
REMARK SMILES Cc1ccccc1NC(=S)NN1C(=O)CS[C@H]1c1ccccc1C(=O)OCCOCCOCCOC(=O)c1ccc(-c2c3nc(c(-c4c(F)cc(S(=O)(=O)[O-])cc4F)c4ccc([nH]4)c(-c4c(F)cc(S(=O)(=O)[O-])cc4F)c4nc(c(-c5c(F)cc(S(=O)(=O)[O-])cc5F)c5ccc2[nH]5)C=C4)C=C3)cc1
REMARK SMILES IDX 30 1 29 2 28 3 27 4 26 5 24 6 25 7 23 8 18 9 19 10 20 11
REMARK SMILES IDX 22 12 21 13 17 14 12 15 13 16 14 17 15 18 16 19 11 20 9 22
REMARK SMILES IDX 10 23 8 24 7 26 1 27 2 28 3 29 4 30 6 31 5 32 31 33 32 34
REMARK SMILES IDX 33 35 34 36 35 37 36 38 37 39 38 40 39 41 103 42 40 43
REMARK SMILES IDX 102 44 41 45 42 46 43 47 96 48 44 49 101 50 95 51 97 52
REMARK SMILES IDX 45 53 100 54 94 55 93 56 46 58 80 59 59 60 79 61 60 62 63 63
REMARK SMILES IDX 78 64 98 65 61 66 62 67 77 69 99 70 64 71 47 72 48 73 57 74
REMARK SMILES IDX 49 75 50 76 56 77 58 78 51 79 52 80 53 81 54 82 55 83 81 84
REMARK SMILES IDX 82 85 91 86 83 87 84 88 90 89 92 90 85 91 86 92 87 93 88 94
REMARK SMILES IDX 89 95 65 96 66 97 75 98 67 99 68 100 74 101 76 102 69 103
REMARK SMILES IDX 70 104 71 105 72 106 73 107
REMARK H PARENT 11 21 8 25 97 57 63 68
REMARK Flexibility Score: inf
ROOT
ATOM      1  C   UNL A   1      43.701  23.926  29.267  1.00  0.00     0.188 C 
ENDROOT
BRANCH   1   2
ATOM      2  O   UNL A   1      42.695  23.674  28.308  1.00  0.00    -0.376 OA
BRANCH   2   3
ATOM      3  C   UNL A   1      41.560  24.496  28.508  1.00  0.00     0.202 C 
BRANCH   3   4
ATOM      4  C   UNL A   1      40.935  25.335  27.345  1.00  0.00     0.261 C 
BRANCH   4   5
ATOM      5  O   UNL A   1      40.586  27.008  27.507  1.00  0.00    -0.460 OA
BRANCH   5   6
ATOM      6  C   UNL A   1      39.785  28.184  28.232  1.00  0.00     0.338 C 
ATOM      7  O   UNL A   1      39.926  29.218  27.664  1.00  0.00    -0.246 OA
BRANCH   6   8
ATOM      8  C   UNL A   1      38.424  28.263  29.522  1.00  0.00     0.066 A 
ATOM      9  C   UNL A   1      37.475  29.544  30.023  1.00  0.00     0.001 A 
ATOM     10  C   UNL A   1      37.318  29.639  31.423  1.00  0.00     0.008 A 
ATOM     11  C   UNL A   1      37.847  28.636  32.265  1.00  0.00     0.000 A 
ATOM     12  C   UNL A   1      38.762  27.265  30.446  1.00  0.00     0.016 A 
ATOM     13  C   UNL A   1      38.509  27.481  31.797  1.00  0.00     0.001 A 
BRANCH   9  14
ATOM     14  C   UNL A   1      36.699  30.987  29.093  1.00  0.00     0.197 C 
ATOM     15  N   UNL A   1      35.082  31.380  28.519  1.00  0.00    -0.236 N 
ATOM     16  C   UNL A   1      34.790  32.714  28.312  1.00  0.00     0.252 C 
ATOM     17  O   UNL A   1      33.694  33.165  27.999  1.00  0.00    -0.272 OA
ATOM     18  C   UNL A   1      36.049  33.529  28.349  1.00  0.00     0.174 C 
ATOM     19  S   UNL A   1      37.260  32.750  29.501  1.00  0.00    -0.120 SA
BRANCH  15  20
ATOM     20  N   UNL A   1      33.888  30.412  28.079  1.00  0.00    -0.270 N 
ATOM     21  H   UNL A   1      33.566  29.885  28.845  1.00  0.00     0.191 HD
BRANCH  20  22
ATOM     22  C   UNL A   1      33.169  30.099  26.928  1.00  0.00     0.189 C 
ATOM     23  S   UNL A   1      31.778  30.842  26.289  1.00  0.00    -0.039 S 
BRANCH  22  24
ATOM     24  N   UNL A   1      32.843  28.809  26.649  1.00  0.00    -0.331 N 
ATOM     25  H   UNL A   1      32.635  28.220  27.410  1.00  0.00     0.169 HD
BRANCH  24  26
ATOM     26  C   UNL A   1      32.781  28.261  25.399  1.00  0.00     0.043 A 
ATOM     27  C   UNL A   1      30.980  26.683  26.119  1.00  0.00     0.046 C 
ATOM     28  C   UNL A   1      31.671  27.513  25.078  1.00  0.00    -0.028 A 
ATOM     29  C   UNL A   1      31.249  27.646  23.765  1.00  0.00     0.005 A 
ATOM     30  C   UNL A   1      32.076  28.278  22.818  1.00  0.00     0.000 A 
ATOM     31  C   UNL A   1      33.718  28.621  24.474  1.00  0.00     0.026 A 
ATOM     32  C   UNL A   1      33.370  28.659  23.151  1.00  0.00     0.002 A 
ENDBRANCH  24  26
ENDBRANCH  22  24
ENDBRANCH  20  22
ENDBRANCH  15  20
ENDBRANCH   9  14
ENDBRANCH   6   8
ENDBRANCH   5   6
ENDBRANCH   4   5
ENDBRANCH   3   4
ENDBRANCH   2   3
ENDBRANCH   1   2
BRANCH   1  33
ATOM     33  C   UNL A   1      43.556  23.003  30.466  1.00  0.00     0.188 C 
BRANCH  33  34
ATOM     34  O   UNL A   1      44.061  23.577  31.679  1.00  0.00    -0.376 OA
BRANCH  34  35
ATOM     35  C   UNL A   1      43.851  23.005  32.946  1.00  0.00     0.202 C 
BRANCH  35  36
ATOM     36  C   UNL A   1      44.124  24.011  34.007  1.00  0.00     0.261 C 
BRANCH  36  37
ATOM     37  O   UNL A   1      43.098  24.080  35.061  1.00  0.00    -0.460 OA
BRANCH  37  38
ATOM     38  C   UNL A   1      42.226  25.058  35.447  1.00  0.00     0.338 C 
ATOM     39  O   UNL A   1      41.273  24.755  36.165  1.00  0.00    -0.246 OA
BRANCH  38  40
ATOM     40  C   UNL A   1      42.408  26.508  35.095  1.00  0.00     0.060 A 
ATOM     41  C   UNL A   1      41.416  27.095  34.389  1.00  0.00     0.016 A 
ATOM     42  C   UNL A   1      43.534  27.310  35.251  1.00  0.00     0.016 A 
ATOM     43  C   UNL A   1      41.784  28.156  33.546  1.00  0.00     0.010 A 
ATOM     44  C   UNL A   1      43.920  28.318  34.252  1.00  0.00     0.010 A 
ATOM     45  C   UNL A   1      43.156  28.778  33.167  1.00  0.00    -0.014 A 
BRANCH  45  46
ATOM     46  C   UNL A   1      43.644  29.956  31.686  1.00  0.00     0.031 A 
ATOM     47  C   UNL A   1      45.193  29.823  30.779  1.00  0.00     0.074 A 
ATOM     48  C   UNL A   1      42.934  31.171  31.188  1.00  0.00     0.049 A 
ATOM     49  N   UNL A   1      45.093  29.945  29.509  1.00  0.00    -0.248 NA
ATOM     50  C   UNL A   1      46.622  29.239  30.954  1.00  0.00     0.031 C 
ATOM     51  C   UNL A   1      42.670  31.719  29.839  1.00  0.00     0.029 A 
ATOM     52  N   UNL A   1      42.008  32.071  31.819  1.00  0.00    -0.354 N 
ATOM     53  C   UNL A   1      45.970  29.077  28.851  1.00  0.00     0.074 A 
ATOM     54  C   UNL A   1      46.914  28.628  29.795  1.00  0.00     0.031 C 
ATOM     55  C   UNL A   1      41.855  32.815  29.823  1.00  0.00     0.029 A 
ATOM     56  C   UNL A   1      41.664  33.233  31.182  1.00  0.00     0.049 A 
ATOM     57  H   UNL A   1      41.623  31.855  32.700  1.00  0.00     0.167 HD
ATOM     58  C   UNL A   1      45.660  28.840  27.557  1.00  0.00     0.037 A 
ATOM     59  C   UNL A   1      42.064  34.389  31.784  1.00  0.00     0.037 A 
ATOM     60  C   UNL A   1      44.963  30.051  27.105  1.00  0.00     0.049 A 
ATOM     61  C   UNL A   1      43.344  34.712  30.990  1.00  0.00     0.074 A 
ATOM     62  C   UNL A   1      43.779  30.409  26.520  1.00  0.00     0.029 A 
ATOM     63  N   UNL A   1      45.487  31.249  27.582  1.00  0.00    -0.354 N 
ATOM     64  N   UNL A   1      44.188  33.808  30.507  1.00  0.00    -0.248 NA
ATOM     65  C   UNL A   1      43.425  35.983  30.277  1.00  0.00     0.031 C 
ATOM     66  C   UNL A   1      43.555  31.816  26.817  1.00  0.00     0.029 A 
ATOM     67  C   UNL A   1      44.611  32.305  27.593  1.00  0.00     0.049 A 
ATOM     68  H   UNL A   1      46.419  31.333  27.888  1.00  0.00     0.167 HD
ATOM     69  C   UNL A   1      44.653  34.246  29.273  1.00  0.00     0.074 A 
ATOM     70  C   UNL A   1      44.177  35.634  29.222  1.00  0.00     0.031 C 
ATOM     71  C   UNL A   1      45.120  33.570  28.155  1.00  0.00     0.037 A 
BRANCH  58  72
ATOM     72  C   UNL A   1      45.870  27.575  26.752  1.00  0.00     0.058 A 
ATOM     73  C   UNL A   1      44.750  26.747  26.571  1.00  0.00     0.135 A 
ATOM     74  C   UNL A   1      47.087  27.018  26.277  1.00  0.00     0.135 A 
ATOM     75  F   UNL A   1      43.525  27.152  26.927  1.00  0.00    -0.206 F 
ATOM     76  C   UNL A   1      44.807  25.482  26.000  1.00  0.00     0.059 A 
ATOM     77  C   UNL A   1      47.176  25.727  25.704  1.00  0.00     0.059 A 
ATOM     78  F   UNL A   1      48.241  27.702  26.350  1.00  0.00    -0.206 F 
ATOM     79  C   UNL A   1      46.015  24.975  25.555  1.00  0.00     0.060 A 
BRANCH  79  80
ATOM     80  S   UNL A   1      45.967  23.391  24.693  1.00  0.00     0.124 S 
ATOM     81  O   UNL A   1      44.588  23.326  24.219  1.00  0.00    -0.237 OA
ATOM     82  O   UNL A   1      46.978  23.590  23.658  1.00  0.00    -0.237 OA
ATOM     83  O   UNL A   1      46.317  22.418  25.724  1.00  0.00    -0.744 OA
ENDBRANCH  79  80
ENDBRANCH  58  72
BRANCH  59  84
ATOM     84  C   UNL A   1      41.678  34.459  33.270  1.00  0.00     0.058 A 
ATOM     85  C   UNL A   1      40.292  34.538  33.615  1.00  0.00     0.135 A 
ATOM     86  C   UNL A   1      42.512  34.127  34.342  1.00  0.00     0.135 A 
ATOM     87  F   UNL A   1      39.401  34.946  32.691  1.00  0.00    -0.206 F 
ATOM     88  C   UNL A   1      39.755  34.074  34.836  1.00  0.00     0.059 A 
ATOM     89  C   UNL A   1      41.996  33.677  35.596  1.00  0.00     0.059 A 
ATOM     90  F   UNL A   1      43.833  34.001  34.134  1.00  0.00    -0.206 F 
ATOM     91  C   UNL A   1      40.615  33.533  35.784  1.00  0.00     0.060 A 
BRANCH  91  92
ATOM     92  S   UNL A   1      39.981  32.327  37.035  1.00  0.00     0.124 S 
ATOM     93  O   UNL A   1      39.837  31.110  36.244  1.00  0.00    -0.237 OA
ATOM     94  O   UNL A   1      41.046  32.280  38.036  1.00  0.00    -0.237 OA
ATOM     95  O   UNL A   1      38.733  32.909  37.516  1.00  0.00    -0.744 OA
ENDBRANCH  91  92
ENDBRANCH  59  84
BRANCH  71  96
ATOM     96  C   UNL A   1      46.420  34.085  27.533  1.00  0.00     0.058 A 
ATOM     97  C   UNL A   1      47.645  34.069  28.211  1.00  0.00     0.135 A 
ATOM     98  C   UNL A   1      46.499  34.546  26.184  1.00  0.00     0.135 A 
ATOM     99  F   UNL A   1      47.812  33.479  29.401  1.00  0.00    -0.206 F 
ATOM    100  C   UNL A   1      48.782  34.649  27.681  1.00  0.00     0.059 A 
ATOM    101  C   UNL A   1      47.657  34.990  25.591  1.00  0.00     0.059 A 
ATOM    102  F   UNL A   1      45.474  34.598  25.327  1.00  0.00    -0.206 F 
ATOM    103  C   UNL A   1      48.773  35.113  26.376  1.00  0.00     0.060 A 
BRANCH 103 104
ATOM    104  S   UNL A   1      50.232  35.884  25.718  1.00  0.00     0.124 S 
ATOM    105  O   UNL A   1      50.276  37.113  26.503  1.00  0.00    -0.237 OA
ATOM    106  O   UNL A   1      51.255  34.890  26.025  1.00  0.00    -0.237 OA
ATOM    107  O   UNL A   1      49.925  36.049  24.301  1.00  0.00    -0.744 OA
ENDBRANCH 103 104
ENDBRANCH  71  96
ENDBRANCH  45  46
ENDBRANCH  38  40
ENDBRANCH  37  38
ENDBRANCH  36  37
ENDBRANCH  35  36
ENDBRANCH  34  35
ENDBRANCH  33  34
ENDBRANCH   1  33
TORSDOF 25
ENDMDL
MODEL 2
REMARK VINA RESULT:      -9.2      1.199      2.007
REMARK SMILES Cc1ccccc1NC(=S)NN1C(=O)CS[C@H]1c1ccccc1C(=O)OCCOCCOCCOC(=O)c1ccc(-c2c3nc(c(-c4c(F)cc(S(=O)(=O)[O-])cc4F)c4ccc([nH]4)c(-c4c(F)cc(S(=O)(=O)[O-])cc4F)c4nc(c(-c5c(F)cc(S(=O)(=O)[O-])cc5F)c5ccc2[nH]5)C=C4)C=C3)cc1
REMARK SMILES IDX 30 1 29 2 28 3 27 4 26 5 24 6 25 7 23 8 18 9 19 10 20 11
REMARK SMILES IDX 22 12 21 13 17 14 12 15 13 16 14 17 15 18 16 19 11 20 9 22
REMARK SMILES IDX 10 23 8 24 7 26 1 27 2 28 3 29 4 30 6 31 5 32 31 33 32 34
REMARK SMILES IDX 33 35 34 36 35 37 36 38 37 39 38 40 39 41 103 42 40 43
REMARK SMILES IDX 102 44 41 45 42 46 43 47 96 48 44 49 101 50 95 51 97 52
REMARK SMILES IDX 45 53 100 54 94 55 93 56 46 58 80 59 59 60 79 61 60 62 63 63
REMARK SMILES IDX 78 64 98 65 61 66 62 67 77 69 99 70 64 71 47 72 48 73 57 74
REMARK SMILES IDX 49 75 50 76 56 77 58 78 51 79 52 80 53 81 54 82 55 83 81 84
REMARK SMILES IDX 82 85 91 86 83 87 84 88 90 89 92 90 85 91 86 92 87 93 88 94
REMARK SMILES IDX 89 95 65 96 66 97 75 98 67 99 68 100 74 101 76 102 69 103
REMARK SMILES IDX 70 104 71 105 72 106 73 107
REMARK H PARENT 11 21 8 25 97 57 63 68
REMARK Flexibility Score: inf
ROOT
ATOM      1  C   UNL A   1      43.963  24.188  29.206  1.00  0.00     0.188 C 
ENDROOT
BRANCH   1   2
ATOM      2  O   UNL A   1      43.007  24.088  28.172  1.00  0.00    -0.376 OA
BRANCH   2   3
ATOM      3  C   UNL A   1      41.764  24.649  28.549  1.00  0.00     0.202 C 
BRANCH   3   4
ATOM      4  C   UNL A   1      40.786  25.267  27.496  1.00  0.00     0.261 C 
BRANCH   4   5
ATOM      5  O   UNL A   1      40.433  26.946  27.447  1.00  0.00    -0.460 OA
BRANCH   5   6
ATOM      6  C   UNL A   1      39.673  28.213  28.053  1.00  0.00     0.338 C 
ATOM      7  O   UNL A   1      39.650  29.115  27.279  1.00  0.00    -0.246 OA
BRANCH   6   8
ATOM      8  C   UNL A   1      38.527  28.499  29.512  1.00  0.00     0.066 A 
ATOM      9  C   UNL A   1      38.041  29.917  30.250  1.00  0.00     0.001 A 
ATOM     10  C   UNL A   1      38.058  29.873  31.661  1.00  0.00     0.008 A 
ATOM     11  C   UNL A   1      38.356  28.665  32.329  1.00  0.00     0.000 A 
ATOM     12  C   UNL A   1      38.652  27.338  30.286  1.00  0.00     0.016 A 
ATOM     13  C   UNL A   1      38.607  27.442  31.673  1.00  0.00     0.001 A 
BRANCH   9  14
ATOM     14  C   UNL A   1      37.627  31.624  29.569  1.00  0.00     0.197 C 
ATOM     15  N   UNL A   1      36.286  32.316  28.660  1.00  0.00    -0.236 N 
ATOM     16  C   UNL A   1      36.095  33.680  28.755  1.00  0.00     0.252 C 
ATOM     17  O   UNL A   1      35.164  34.307  28.261  1.00  0.00    -0.272 OA
ATOM     18  C   UNL A   1      37.285  34.325  29.401  1.00  0.00     0.174 C 
ATOM     19  S   UNL A   1      38.050  33.154  30.604  1.00  0.00    -0.120 SA
BRANCH  15  20
ATOM     20  N   UNL A   1      35.285  31.623  27.625  1.00  0.00    -0.270 N 
ATOM     21  H   UNL A   1      34.933  32.283  26.985  1.00  0.00     0.191 HD
BRANCH  20  22
ATOM     22  C   UNL A   1      34.766  30.357  27.364  1.00  0.00     0.189 C 
ATOM     23  S   UNL A   1      35.535  28.840  27.432  1.00  0.00    -0.039 S 
BRANCH  22  24
ATOM     24  N   UNL A   1      34.007  30.138  26.257  1.00  0.00    -0.331 N 
ATOM     25  H   UNL A   1      34.268  30.604  25.431  1.00  0.00     0.169 HD
BRANCH  24  26
ATOM     26  C   UNL A   1      32.912  29.324  26.197  1.00  0.00     0.043 A 
ATOM     27  C   UNL A   1      33.381  28.778  23.802  1.00  0.00     0.046 C 
ATOM     28  C   UNL A   1      32.831  28.429  25.154  1.00  0.00    -0.028 A 
ATOM     29  C   UNL A   1      32.264  27.209  25.487  1.00  0.00     0.005 A 
ATOM     30  C   UNL A   1      31.595  27.053  26.715  1.00  0.00     0.000 A 
ATOM     31  C   UNL A   1      32.046  29.303  27.252  1.00  0.00     0.026 A 
ATOM     32  C   UNL A   1      31.382  28.145  27.548  1.00  0.00     0.002 A 
ENDBRANCH  24  26
ENDBRANCH  22  24
ENDBRANCH  20  22
ENDBRANCH  15  20
ENDBRANCH   9  14
ENDBRANCH   6   8
ENDBRANCH   5   6
ENDBRANCH   4   5
ENDBRANCH   3   4
ENDBRANCH   2   3
ENDBRANCH   1   2
BRANCH   1  33
ATOM     33  C   UNL A   1      43.727  23.134  30.275  1.00  0.00     0.188 C 
BRANCH  33  34
ATOM     34  O   UNL A   1      44.191  23.535  31.570  1.00  0.00    -0.376 OA
BRANCH  34  35
ATOM     35  C   UNL A   1      44.034  22.744  32.723  1.00  0.00     0.202 C 
BRANCH  35  36
ATOM     36  C   UNL A   1      44.436  23.519  33.927  1.00  0.00     0.261 C 
BRANCH  36  37
ATOM     37  O   UNL A   1      43.448  23.507  35.018  1.00  0.00    -0.460 OA
BRANCH  37  38
ATOM     38  C   UNL A   1      42.566  24.440  35.486  1.00  0.00     0.338 C 
ATOM     39  O   UNL A   1      41.638  24.072  36.206  1.00  0.00    -0.246 OA
BRANCH  38  40
ATOM     40  C   UNL A   1      42.710  25.912  35.220  1.00  0.00     0.060 A 
ATOM     41  C   UNL A   1      41.684  26.521  34.584  1.00  0.00     0.016 A 
ATOM     42  C   UNL A   1      43.825  26.726  35.391  1.00  0.00     0.016 A 
ATOM     43  C   UNL A   1      42.004  27.640  33.799  1.00  0.00     0.010 A 
ATOM     44  C   UNL A   1      44.159  27.802  34.446  1.00  0.00     0.010 A 
ATOM     45  C   UNL A   1      43.351  28.313  33.417  1.00  0.00    -0.014 A 
BRANCH  45  46
ATOM     46  C   UNL A   1      43.769  29.591  31.998  1.00  0.00     0.031 A 
ATOM     47  C   UNL A   1      45.296  29.557  31.047  1.00  0.00     0.074 A 
ATOM     48  C   UNL A   1      43.013  30.813  31.592  1.00  0.00     0.049 A 
ATOM     49  N   UNL A   1      45.160  29.752  29.789  1.00  0.00    -0.248 NA
ATOM     50  C   UNL A   1      46.744  29.004  31.151  1.00  0.00     0.031 C 
ATOM     51  C   UNL A   1      42.699  31.433  30.286  1.00  0.00     0.029 A 
ATOM     52  N   UNL A   1      42.080  31.647  32.300  1.00  0.00    -0.354 N 
ATOM     53  C   UNL A   1      46.042  28.950  29.059  1.00  0.00     0.074 A 
ATOM     54  C   UNL A   1      47.022  28.472  29.951  1.00  0.00     0.031 C 
ATOM     55  C   UNL A   1      41.855  32.504  30.357  1.00  0.00     0.029 A 
ATOM     56  C   UNL A   1      41.689  32.834  31.743  1.00  0.00     0.049 A 
ATOM     57  H   UNL A   1      41.725  31.367  33.175  1.00  0.00     0.167 HD
ATOM     58  C   UNL A   1      45.704  28.782  27.761  1.00  0.00     0.037 A 
ATOM     59  C   UNL A   1      42.073  33.964  32.404  1.00  0.00     0.037 A 
ATOM     60  C   UNL A   1      44.964  29.998  27.401  1.00  0.00     0.049 A 
ATOM     61  C   UNL A   1      43.322  34.370  31.599  1.00  0.00     0.074 A 
ATOM     62  C   UNL A   1      43.756  30.356  26.868  1.00  0.00     0.029 A 
ATOM     63  N   UNL A   1      45.467  31.180  27.936  1.00  0.00    -0.354 N 
ATOM     64  N   UNL A   1      44.177  33.521  31.042  1.00  0.00    -0.248 NA
ATOM     65  C   UNL A   1      43.350  35.683  30.963  1.00  0.00     0.031 C 
ATOM     66  C   UNL A   1      43.501  31.736  27.254  1.00  0.00     0.029 A 
ATOM     67  C   UNL A   1      44.564  32.208  28.033  1.00  0.00     0.049 A 
ATOM     68  H   UNL A   1      46.404  31.272  28.224  1.00  0.00     0.167 HD
ATOM     69  C   UNL A   1      44.597  34.044  29.826  1.00  0.00     0.074 A 
ATOM     70  C   UNL A   1      44.083  35.419  29.871  1.00  0.00     0.031 C 
ATOM     71  C   UNL A   1      45.053  33.450  28.658  1.00  0.00     0.037 A 
BRANCH  58  72
ATOM     72  C   UNL A   1      45.928  27.575  26.876  1.00  0.00     0.058 A 
ATOM     73  C   UNL A   1      44.826  26.728  26.671  1.00  0.00     0.135 A 
ATOM     74  C   UNL A   1      47.146  27.081  26.339  1.00  0.00     0.135 A 
ATOM     75  F   UNL A   1      43.600  27.076  27.081  1.00  0.00    -0.206 F 
ATOM     76  C   UNL A   1      44.902  25.501  26.024  1.00  0.00     0.059 A 
ATOM     77  C   UNL A   1      47.254  25.830  25.686  1.00  0.00     0.059 A 
ATOM     78  F   UNL A   1      48.283  27.792  26.425  1.00  0.00    -0.206 F 
ATOM     79  C   UNL A   1      46.111  25.056  25.520  1.00  0.00     0.060 A 
BRANCH  79  80
ATOM     80  S   UNL A   1      46.083  23.526  24.564  1.00  0.00     0.124 S 
ATOM     81  O   UNL A   1      46.370  22.512  25.575  1.00  0.00    -0.237 OA
ATOM     82  O   UNL A   1      44.717  23.529  24.047  1.00  0.00    -0.237 OA
ATOM     83  O   UNL A   1      47.126  23.718  23.562  1.00  0.00    -0.744 OA
ENDBRANCH  79  80
ENDBRANCH  58  72
BRANCH  59  84
ATOM     84  C   UNL A   1      41.724  33.933  33.901  1.00  0.00     0.058 A 
ATOM     85  C   UNL A   1      42.765  34.173  34.852  1.00  0.00     0.135 A 
ATOM     86  C   UNL A   1      40.435  34.015  34.436  1.00  0.00     0.135 A 
ATOM     87  F   UNL A   1      44.051  34.026  34.480  1.00  0.00    -0.206 F 
ATOM     88  C   UNL A   1      42.547  34.706  36.142  1.00  0.00     0.059 A 
ATOM     89  C   UNL A   1      40.188  34.528  35.746  1.00  0.00     0.059 A 
ATOM     90  F   UNL A   1      39.376  33.830  33.632  1.00  0.00    -0.206 F 
ATOM     91  C   UNL A   1      41.246  34.991  36.539  1.00  0.00     0.060 A 
BRANCH  91  92
ATOM     92  S   UNL A   1      40.928  36.266  37.840  1.00  0.00     0.124 S 
ATOM     93  O   UNL A   1      39.658  36.837  37.408  1.00  0.00    -0.237 OA
ATOM     94  O   UNL A   1      40.855  35.485  39.074  1.00  0.00    -0.237 OA
ATOM     95  O   UNL A   1      42.073  37.166  37.769  1.00  0.00    -0.744 OA
ENDBRANCH  91  92
ENDBRANCH  59  84
BRANCH  71  96
ATOM     96  C   UNL A   1      46.322  34.039  28.037  1.00  0.00     0.058 A 
ATOM     97  C   UNL A   1      46.369  34.526  26.724  1.00  0.00     0.135 A 
ATOM     98  C   UNL A   1      47.533  34.210  28.774  1.00  0.00     0.135 A 
ATOM     99  F   UNL A   1      45.283  34.646  25.952  1.00  0.00    -0.206 F 
ATOM    100  C   UNL A   1      47.552  34.940  26.141  1.00  0.00     0.059 A 
ATOM    101  C   UNL A   1      48.679  34.759  28.250  1.00  0.00     0.059 A 
ATOM    102  F   UNL A   1      47.708  33.874  30.056  1.00  0.00    -0.206 F 
ATOM    103  C   UNL A   1      48.699  35.044  26.910  1.00  0.00     0.060 A 
BRANCH 103 104
ATOM    104  S   UNL A   1      50.218  35.548  26.138  1.00  0.00     0.124 S 
ATOM    105  O   UNL A   1      50.831  34.254  25.857  1.00  0.00    -0.237 OA
ATOM    106  O   UNL A   1      49.730  36.292  24.982  1.00  0.00    -0.237 OA
ATOM    107  O   UNL A   1      50.877  36.348  27.165  1.00  0.00    -0.744 OA
ENDBRANCH 103 104
ENDBRANCH  71  96
ENDBRANCH  45  46
ENDBRANCH  38  40
ENDBRANCH  37  38
ENDBRANCH  36  37
ENDBRANCH  35  36
ENDBRANCH  34  35
ENDBRANCH  33  34
ENDBRANCH   1  33
TORSDOF 25
ENDMDL
MODEL 3
REMARK VINA RESULT:      -8.8      3.929      7.567
REMARK SMILES Cc1ccccc1NC(=S)NN1C(=O)CS[C@H]1c1ccccc1C(=O)OCCOCCOCCOC(=O)c1ccc(-c2c3nc(c(-c4c(F)cc(S(=O)(=O)[O-])cc4F)c4ccc([nH]4)c(-c4c(F)cc(S(=O)(=O)[O-])cc4F)c4nc(c(-c5c(F)cc(S(=O)(=O)[O-])cc5F)c5ccc2[nH]5)C=C4)C=C3)cc1
REMARK SMILES IDX 30 1 29 2 28 3 27 4 26 5 24 6 25 7 23 8 18 9 19 10 20 11
REMARK SMILES IDX 22 12 21 13 17 14 12 15 13 16 14 17 15 18 16 19 11 20 9 22
REMARK SMILES IDX 10 23 8 24 7 26 1 27 2 28 3 29 4 30 6 31 5 32 31 33 32 34
REMARK SMILES IDX 33 35 34 36 35 37 36 38 37 39 38 40 39 41 103 42 40 43
REMARK SMILES IDX 102 44 41 45 42 46 43 47 96 48 44 49 101 50 95 51 97 52
REMARK SMILES IDX 45 53 100 54 94 55 93 56 46 58 80 59 59 60 79 61 60 62 63 63
REMARK SMILES IDX 78 64 98 65 61 66 62 67 77 69 99 70 64 71 47 72 48 73 57 74
REMARK SMILES IDX 49 75 50 76 56 77 58 78 51 79 52 80 53 81 54 82 55 83 81 84
REMARK SMILES IDX 82 85 91 86 83 87 84 88 90 89 92 90 85 91 86 92 87 93 88 94
REMARK SMILES IDX 89 95 65 96 66 97 75 98 67 99 68 100 74 101 76 102 69 103
REMARK SMILES IDX 70 104 71 105 72 106 73 107
REMARK H PARENT 11 21 8 25 97 57 63 68
REMARK Flexibility Score: inf
ROOT
ATOM      1  C   UNL A   1      34.529  35.739  32.532  1.00  0.00     0.188 C 
ENDROOT
BRANCH   1   2
ATOM      2  O   UNL A   1      33.447  35.238  31.776  1.00  0.00    -0.376 OA
BRANCH   2   3
ATOM      3  C   UNL A   1      32.869  36.237  30.957  1.00  0.00     0.202 C 
BRANCH   3   4
ATOM      4  C   UNL A   1      33.238  36.374  29.442  1.00  0.00     0.261 C 
BRANCH   4   5
ATOM      5  O   UNL A   1      33.708  35.027  28.488  1.00  0.00    -0.460 OA
BRANCH   5   6
ATOM      6  C   UNL A   1      33.518  33.496  28.077  1.00  0.00     0.338 C 
ATOM      7  O   UNL A   1      32.418  33.288  27.677  1.00  0.00    -0.246 OA
BRANCH   6   8
ATOM      8  C   UNL A   1      34.678  32.058  27.745  1.00  0.00     0.066 A 
ATOM      9  C   UNL A   1      34.359  30.504  27.220  1.00  0.00     0.001 A 
ATOM     10  C   UNL A   1      35.061  29.499  27.920  1.00  0.00     0.008 A 
ATOM     11  C   UNL A   1      36.024  29.852  28.891  1.00  0.00     0.000 A 
ATOM     12  C   UNL A   1      35.759  32.275  28.610  1.00  0.00     0.016 A 
ATOM     13  C   UNL A   1      36.384  31.180  29.198  1.00  0.00     0.001 A 
BRANCH   9  14
ATOM     14  C   UNL A   1      33.121  29.814  25.979  1.00  0.00     0.197 C 
ATOM     15  N   UNL A   1      32.588  28.202  25.510  1.00  0.00    -0.236 N 
ATOM     16  C   UNL A   1      31.341  28.094  24.926  1.00  0.00     0.252 C 
ATOM     17  O   UNL A   1      30.784  27.046  24.620  1.00  0.00    -0.272 OA
ATOM     18  C   UNL A   1      30.827  29.452  24.548  1.00  0.00     0.174 C 
ATOM     19  S   UNL A   1      31.470  30.710  25.734  1.00  0.00    -0.120 SA
BRANCH  15  20
ATOM     20  N   UNL A   1      33.374  26.811  25.549  1.00  0.00    -0.270 N 
ATOM     21  H   UNL A   1      33.841  26.699  26.408  1.00  0.00     0.191 HD
BRANCH  20  22
ATOM     22  C   UNL A   1      33.590  25.712  24.722  1.00  0.00     0.189 C 
ATOM     23  S   UNL A   1      33.725  25.647  23.026  1.00  0.00    -0.039 S 
BRANCH  22  24
ATOM     24  N   UNL A   1      32.884  24.564  24.902  1.00  0.00    -0.331 N 
ATOM     25  H   UNL A   1      32.017  24.490  24.442  1.00  0.00     0.169 HD
BRANCH  24  26
ATOM     26  C   UNL A   1      33.277  23.505  25.670  1.00  0.00     0.043 A 
ATOM     27  C   UNL A   1      30.915  22.715  25.888  1.00  0.00     0.046 C 
ATOM     28  C   UNL A   1      32.392  22.463  25.831  1.00  0.00    -0.028 A 
ATOM     29  C   UNL A   1      32.983  21.210  25.876  1.00  0.00     0.005 A 
ATOM     30  C   UNL A   1      34.378  21.092  26.024  1.00  0.00     0.000 A 
ATOM     31  C   UNL A   1      34.574  23.440  26.090  1.00  0.00     0.026 A 
ATOM     32  C   UNL A   1      35.163  22.216  26.253  1.00  0.00     0.002 A 
ENDBRANCH  24  26
ENDBRANCH  22  24
ENDBRANCH  20  22
ENDBRANCH  15  20
ENDBRANCH   9  14
ENDBRANCH   6   8
ENDBRANCH   5   6
ENDBRANCH   4   5
ENDBRANCH   3   4
ENDBRANCH   2   3
ENDBRANCH   1   2
BRANCH   1  33
ATOM     33  C   UNL A   1      34.788  34.876  33.755  1.00  0.00     0.188 C 
BRANCH  33  34
ATOM     34  O   UNL A   1      35.008  33.497  33.432  1.00  0.00    -0.376 OA
BRANCH  34  35
ATOM     35  C   UNL A   1      36.003  33.066  32.537  1.00  0.00     0.202 C 
BRANCH  35  36
ATOM     36  C   UNL A   1      36.379  31.658  32.837  1.00  0.00     0.261 C 
BRANCH  36  37
ATOM     37  O   UNL A   1      37.434  31.511  33.852  1.00  0.00    -0.460 OA
BRANCH  37  38
ATOM     38  C   UNL A   1      38.208  32.413  34.528  1.00  0.00     0.338 C 
ATOM     39  O   UNL A   1      37.771  32.910  35.566  1.00  0.00    -0.246 OA
BRANCH  38  40
ATOM     40  C   UNL A   1      39.602  32.780  34.103  1.00  0.00     0.060 A 
ATOM     41  C   UNL A   1      39.741  33.334  32.877  1.00  0.00     0.016 A 
ATOM     42  C   UNL A   1      40.811  32.488  34.726  1.00  0.00     0.016 A 
ATOM     43  C   UNL A   1      40.964  33.115  32.222  1.00  0.00     0.010 A 
ATOM     44  C   UNL A   1      42.020  32.145  33.963  1.00  0.00     0.010 A 
ATOM     45  C   UNL A   1      42.218  32.270  32.578  1.00  0.00    -0.014 A 
BRANCH  45  46
ATOM     46  C   UNL A   1      43.697  31.667  31.453  1.00  0.00     0.031 A 
ATOM     47  C   UNL A   1      45.215  30.951  32.104  1.00  0.00     0.074 A 
ATOM     48  C   UNL A   1      43.870  31.822  29.978  1.00  0.00     0.049 A 
ATOM     49  N   UNL A   1      45.651  29.928  31.470  1.00  0.00    -0.248 NA
ATOM     50  C   UNL A   1      46.033  30.908  33.424  1.00  0.00     0.031 C 
ATOM     51  C   UNL A   1      44.401  30.942  28.914  1.00  0.00     0.029 A 
ATOM     52  N   UNL A   1      43.312  32.754  29.036  1.00  0.00    -0.354 N 
ATOM     53  C   UNL A   1      46.194  28.987  32.350  1.00  0.00     0.074 A 
ATOM     54  C   UNL A   1      46.404  29.628  33.585  1.00  0.00     0.031 C 
ATOM     55  C   UNL A   1      44.258  31.436  27.648  1.00  0.00     0.029 A 
ATOM     56  C   UNL A   1      43.807  32.793  27.761  1.00  0.00     0.049 A 
ATOM     57  H   UNL A   1      42.582  33.358  29.305  1.00  0.00     0.167 HD
ATOM     58  C   UNL A   1      46.301  27.739  31.840  1.00  0.00     0.037 A 
ATOM     59  C   UNL A   1      44.450  33.940  27.400  1.00  0.00     0.037 A 
ATOM     60  C   UNL A   1      46.467  27.933  30.394  1.00  0.00     0.049 A 
ATOM     61  C   UNL A   1      45.922  33.536  27.612  1.00  0.00     0.074 A 
ATOM     62  C   UNL A   1      45.889  27.529  29.221  1.00  0.00     0.029 A 
ATOM     63  N   UNL A   1      47.274  29.005  30.027  1.00  0.00    -0.354 N 
ATOM     64  N   UNL A   1      46.357  32.721  28.565  1.00  0.00    -0.248 NA
ATOM     65  C   UNL A   1      46.837  33.602  26.476  1.00  0.00     0.031 C 
ATOM     66  C   UNL A   1      46.256  28.498  28.198  1.00  0.00     0.029 A 
ATOM     67  C   UNL A   1      47.055  29.496  28.765  1.00  0.00     0.049 A 
ATOM     68  H   UNL A   1      47.955  29.384  30.630  1.00  0.00     0.167 HD
ATOM     69  C   UNL A   1      47.383  31.940  28.050  1.00  0.00     0.074 A 
ATOM     70  C   UNL A   1      47.664  32.584  26.760  1.00  0.00     0.031 C 
ATOM     71  C   UNL A   1      47.851  30.675  28.376  1.00  0.00     0.037 A 
BRANCH  58  72
ATOM     72  C   UNL A   1      46.174  26.412  32.556  1.00  0.00     0.058 A 
ATOM     73  C   UNL A   1      44.871  25.946  32.800  1.00  0.00     0.135 A 
ATOM     74  C   UNL A   1      47.192  25.631  33.165  1.00  0.00     0.135 A 
ATOM     75  F   UNL A   1      43.808  26.551  32.256  1.00  0.00    -0.206 F 
ATOM     76  C   UNL A   1      44.579  24.836  33.582  1.00  0.00     0.059 A 
ATOM     77  C   UNL A   1      46.922  24.503  33.977  1.00  0.00     0.059 A 
ATOM     78  F   UNL A   1      48.492  25.930  32.999  1.00  0.00    -0.206 F 
ATOM     79  C   UNL A   1      45.602  24.106  34.161  1.00  0.00     0.060 A 
BRANCH  79  80
ATOM     80  S   UNL A   1      45.135  22.596  35.031  1.00  0.00     0.124 S 
ATOM     81  O   UNL A   1      46.291  21.732  34.815  1.00  0.00    -0.237 OA
ATOM     82  O   UNL A   1      44.964  23.087  36.396  1.00  0.00    -0.237 OA
ATOM     83  O   UNL A   1      43.908  22.172  34.365  1.00  0.00    -0.744 OA
ENDBRANCH  79  80
ENDBRANCH  58  72
BRANCH  59  84
ATOM     84  C   UNL A   1      43.632  35.207  27.696  1.00  0.00     0.058 A 
ATOM     85  C   UNL A   1      44.001  36.015  28.818  1.00  0.00     0.135 A 
ATOM     86  C   UNL A   1      42.763  35.840  26.803  1.00  0.00     0.135 A 
ATOM     87  F   UNL A   1      44.756  35.483  29.799  1.00  0.00    -0.206 F 
ATOM     88  C   UNL A   1      43.750  37.401  28.909  1.00  0.00     0.059 A 
ATOM     89  C   UNL A   1      42.472  37.236  26.885  1.00  0.00     0.059 A 
ATOM     90  F   UNL A   1      42.364  35.187  25.699  1.00  0.00    -0.206 F 
ATOM     91  C   UNL A   1      43.077  38.030  27.868  1.00  0.00     0.060 A 
BRANCH  91  92
ATOM     92  S   UNL A   1      43.305  39.841  27.571  1.00  0.00     0.124 S 
ATOM     93  O   UNL A   1      44.654  40.068  28.077  1.00  0.00    -0.237 OA
ATOM     94  O   UNL A   1      43.169  39.971  26.121  1.00  0.00    -0.237 OA
ATOM     95  O   UNL A   1      42.239  40.482  28.332  1.00  0.00    -0.744 OA
ENDBRANCH  91  92
ENDBRANCH  59  84
BRANCH  71  96
ATOM     96  C   UNL A   1      49.365  30.520  28.528  1.00  0.00     0.058 A 
ATOM     97  C   UNL A   1      50.091  31.125  29.562  1.00  0.00     0.135 A 
ATOM     98  C   UNL A   1      50.144  29.679  27.675  1.00  0.00     0.135 A 
ATOM     99  F   UNL A   1      49.509  31.774  30.578  1.00  0.00    -0.206 F 
ATOM    100  C   UNL A   1      51.471  31.074  29.614  1.00  0.00     0.059 A 
ATOM    101  C   UNL A   1      51.500  29.499  27.805  1.00  0.00     0.059 A 
ATOM    102  F   UNL A   1      49.662  28.957  26.659  1.00  0.00    -0.206 F 
ATOM    103  C   UNL A   1      52.163  30.267  28.726  1.00  0.00     0.060 A 
BRANCH 103 104
ATOM    104  S   UNL A   1      53.939  30.236  28.785  1.00  0.00     0.124 S 
ATOM    105  O   UNL A   1      54.184  30.783  30.115  1.00  0.00    -0.237 OA
ATOM    106  O   UNL A   1      54.215  28.813  28.616  1.00  0.00    -0.237 OA
ATOM    107  O   UNL A   1      54.336  31.087  27.669  1.00  0.00    -0.744 OA
ENDBRANCH 103 104
ENDBRANCH  71  96
ENDBRANCH  45  46
ENDBRANCH  38  40
ENDBRANCH  37  38
ENDBRANCH  36  37
ENDBRANCH  35  36
ENDBRANCH  34  35
ENDBRANCH  33  34
ENDBRANCH   1  33
TORSDOF 25
ENDMDL
