MODEL 1
REMARK VINA RESULT:     -10.9      0.000      0.000
REMARK SMILES CC(C)(C)c1cc2c(cc1Cl)C=C(C(=O)OCCOCCOCCOC(=O)c1ccc(-c3c4nc(c(-c5c(F)cc(S(=O)(=O)[O-])cc5F)c5ccc([nH]5)c(-c5c(F)cc(S(=O)(=O)[O-])cc5F)c5nc(c(-c6c(F)cc(S(=O)(=O)[O-])cc6F)c6ccc3[nH]6)C=C5)C=C4)cc1)[C@H](C(F)(F)F)O2
REMARK SMILES IDX 21 1 20 2 19 3 18 4 17 5 16 6 14 7 15 8 13 9 5 10 6 11 10 12
REMARK SMILES IDX 7 13 9 14 11 15 8 16 99 17 12 18 94 19 2 20 1 21 3 22 4 23
REMARK SMILES IDX 95 24 96 25 97 26 98 27 22 28 23 29 24 30 25 31 26 32 27 33
REMARK SMILES IDX 28 34 29 35 93 36 30 37 92 38 31 39 32 40 33 41 86 42 34 43
REMARK SMILES IDX 91 44 85 45 87 46 35 47 90 48 84 49 83 50 36 52 70 53 49 54
REMARK SMILES IDX 69 55 50 56 53 57 68 58 88 59 51 60 52 61 67 63 89 64 54 65
REMARK SMILES IDX 37 66 38 67 47 68 39 69 40 70 46 71 48 72 41 73 42 74 43 75
REMARK SMILES IDX 44 76 45 77 71 78 72 79 81 80 73 81 74 82 80 83 82 84 75 85
REMARK SMILES IDX 76 86 77 87 78 88 79 89 55 90 56 91 65 92 57 93 58 94 64 95
REMARK SMILES IDX 66 96 59 97 60 98 61 99 62 100 63 101
REMARK H PARENT 87 51 53 62
REMARK Flexibility Score: inf
ROOT
ATOM      1  C   UNL A   1      40.882  21.558  27.368  1.00  0.00     0.188 C 
ENDROOT
BRANCH   1   2
ATOM      2  C   UNL A   1      39.971  21.388  26.138  1.00  0.00     0.188 C 
BRANCH   2   3
ATOM      3  O   UNL A   1      38.741  22.104  26.090  1.00  0.00    -0.376 OA
BRANCH   3   4
ATOM      4  C   UNL A   1      37.859  21.901  24.989  1.00  0.00     0.202 C 
BRANCH   4   5
ATOM      5  C   UNL A   1      36.676  20.934  25.154  1.00  0.00     0.261 C 
BRANCH   5   6
ATOM      6  O   UNL A   1      35.544  21.514  25.829  1.00  0.00    -0.460 OA
BRANCH   6   7
ATOM      7  C   UNL A   1      34.364  21.421  25.181  1.00  0.00     0.338 C 
ATOM      8  O   UNL A   1      33.899  20.420  24.661  1.00  0.00    -0.246 OA
BRANCH   7   9
ATOM      9  C   UNL A   1      33.609  22.684  25.284  1.00  0.00     0.087 C 
ATOM     10  C   UNL A   1      32.743  27.670  25.580  1.00  0.00    -0.020 A 
ATOM     11  C   UNL A   1      32.285  26.509  26.254  1.00  0.00     0.053 A 
ATOM     12  C   UNL A   1      33.610  27.444  24.485  1.00  0.00     0.045 A 
ATOM     13  C   UNL A   1      32.693  25.219  25.899  1.00  0.00     0.128 A 
ATOM     14  C   UNL A   1      33.991  26.141  24.109  1.00  0.00     0.032 A 
ATOM     15  Cl  UNL A   1      34.367  28.694  23.564  1.00  0.00    -0.084 Cl
ATOM     16  C   UNL A   1      33.555  25.030  24.828  1.00  0.00     0.019 A 
ATOM     17  O   UNL A   1      32.282  24.207  26.724  1.00  0.00    -0.475 OA
ATOM     18  C   UNL A   1      34.105  23.709  24.575  1.00  0.00     0.027 C 
ATOM     19  C   UNL A   1      32.495  22.832  26.284  1.00  0.00     0.316 C 
BRANCH  10  20
ATOM     20  C   UNL A   1      32.384  29.066  26.155  1.00  0.00    -0.012 C 
ATOM     21  C   UNL A   1      31.623  28.990  27.509  1.00  0.00     0.016 C 
ATOM     22  C   UNL A   1      31.478  29.924  25.243  1.00  0.00     0.016 C 
ATOM     23  C   UNL A   1      33.705  29.818  26.427  1.00  0.00     0.016 C 
ENDBRANCH  10  20
BRANCH  19  24
ATOM     24  C   UNL A   1      31.133  22.251  25.865  1.00  0.00     0.430 C 
ATOM     25  F   UNL A   1      30.642  22.832  24.747  1.00  0.00    -0.167 F 
ATOM     26  F   UNL A   1      31.187  20.918  25.660  1.00  0.00    -0.167 F 
ATOM     27  F   UNL A   1      30.210  22.443  26.844  1.00  0.00    -0.167 F 
ENDBRANCH  19  24
ENDBRANCH   7   9
ENDBRANCH   6   7
ENDBRANCH   5   6
ENDBRANCH   4   5
ENDBRANCH   3   4
ENDBRANCH   2   3
ENDBRANCH   1   2
BRANCH   1  28
ATOM     28  O   UNL A   1      42.258  21.510  27.065  1.00  0.00    -0.376 OA
BRANCH  28  29
ATOM     29  C   UNL A   1      42.699  22.047  25.831  1.00  0.00     0.202 C 
BRANCH  29  30
ATOM     30  C   UNL A   1      42.971  23.554  25.677  1.00  0.00     0.261 C 
BRANCH  30  31
ATOM     31  O   UNL A   1      41.958  24.454  26.141  1.00  0.00    -0.460 OA
BRANCH  31  32
ATOM     32  C   UNL A   1      42.133  25.776  25.913  1.00  0.00     0.338 C 
ATOM     33  O   UNL A   1      42.303  26.317  24.835  1.00  0.00    -0.246 OA
BRANCH  32  34
ATOM     34  C   UNL A   1      41.870  26.467  27.196  1.00  0.00     0.060 A 
ATOM     35  C   UNL A   1      42.672  27.543  27.582  1.00  0.00     0.016 A 
ATOM     36  C   UNL A   1      40.852  26.002  28.042  1.00  0.00     0.016 A 
ATOM     37  C   UNL A   1      42.443  28.166  28.808  1.00  0.00     0.010 A 
ATOM     38  C   UNL A   1      40.627  26.629  29.273  1.00  0.00     0.010 A 
ATOM     39  C   UNL A   1      41.410  27.726  29.656  1.00  0.00    -0.014 A 
BRANCH  39  40
ATOM     40  C   UNL A   1      41.075  28.536  30.855  1.00  0.00     0.031 A 
ATOM     41  C   UNL A   1      41.869  28.450  32.122  1.00  0.00     0.074 A 
ATOM     42  C   UNL A   1      40.048  29.402  30.756  1.00  0.00     0.049 A 
ATOM     43  N   UNL A   1      41.803  29.216  33.181  1.00  0.00    -0.248 NA
ATOM     44  C   UNL A   1      42.858  27.368  32.222  1.00  0.00     0.031 C 
ATOM     45  C   UNL A   1      39.181  29.539  29.583  1.00  0.00     0.029 A 
ATOM     46  N   UNL A   1      39.574  30.344  31.634  1.00  0.00    -0.354 N 
ATOM     47  C   UNL A   1      42.759  28.733  34.065  1.00  0.00     0.074 A 
ATOM     48  C   UNL A   1      43.353  27.569  33.439  1.00  0.00     0.031 C 
ATOM     49  C   UNL A   1      38.313  30.539  29.795  1.00  0.00     0.029 A 
ATOM     50  C   UNL A   1      38.546  31.100  31.122  1.00  0.00     0.049 A 
ATOM     51  H   UNL A   1      39.935  30.467  32.541  1.00  0.00     0.167 HD
ATOM     52  C   UNL A   1      43.120  29.234  35.272  1.00  0.00     0.037 A 
ATOM     53  C   UNL A   1      37.878  32.142  31.652  1.00  0.00     0.037 A 
ATOM     54  C   UNL A   1      42.508  30.385  35.890  1.00  0.00     0.049 A 
ATOM     55  C   UNL A   1      38.273  32.652  33.009  1.00  0.00     0.074 A 
ATOM     56  C   UNL A   1      42.838  30.995  37.088  1.00  0.00     0.029 A 
ATOM     57  N   UNL A   1      41.431  31.089  35.371  1.00  0.00    -0.354 N 
ATOM     58  N   UNL A   1      39.246  32.246  33.789  1.00  0.00    -0.248 NA
ATOM     59  C   UNL A   1      37.484  33.763  33.558  1.00  0.00     0.031 C 
ATOM     60  C   UNL A   1      41.927  32.032  37.319  1.00  0.00     0.029 A 
ATOM     61  C   UNL A   1      41.059  32.103  36.241  1.00  0.00     0.049 A 
ATOM     62  H   UNL A   1      40.993  30.898  34.509  1.00  0.00     0.167 HD
ATOM     63  C   UNL A   1      39.191  33.056  34.918  1.00  0.00     0.074 A 
ATOM     64  C   UNL A   1      38.106  33.993  34.707  1.00  0.00     0.031 C 
ATOM     65  C   UNL A   1      39.967  33.021  36.029  1.00  0.00     0.037 A 
BRANCH  52  66
ATOM     66  C   UNL A   1      44.246  28.556  36.007  1.00  0.00     0.058 A 
ATOM     67  C   UNL A   1      44.006  27.472  36.867  1.00  0.00     0.135 A 
ATOM     68  C   UNL A   1      45.582  28.936  35.793  1.00  0.00     0.135 A 
ATOM     69  F   UNL A   1      42.749  27.070  37.113  1.00  0.00    -0.206 F 
ATOM     70  C   UNL A   1      45.046  26.802  37.504  1.00  0.00     0.059 A 
ATOM     71  C   UNL A   1      46.640  28.264  36.400  1.00  0.00     0.059 A 
ATOM     72  F   UNL A   1      45.870  29.961  34.977  1.00  0.00    -0.206 F 
ATOM     73  C   UNL A   1      46.361  27.204  37.261  1.00  0.00     0.060 A 
BRANCH  73  74
ATOM     74  S   UNL A   1      47.695  26.312  38.089  1.00  0.00     0.124 S 
ATOM     75  O   UNL A   1      48.857  27.113  37.714  1.00  0.00    -0.237 OA
ATOM     76  O   UNL A   1      47.298  26.390  39.491  1.00  0.00    -0.237 OA
ATOM     77  O   UNL A   1      47.636  24.979  37.495  1.00  0.00    -0.744 OA
ENDBRANCH  73  74
ENDBRANCH  52  66
BRANCH  53  78
ATOM     78  C   UNL A   1      36.794  32.791  30.871  1.00  0.00     0.058 A 
ATOM     79  C   UNL A   1      35.454  32.416  31.044  1.00  0.00     0.135 A 
ATOM     80  C   UNL A   1      37.072  33.827  29.964  1.00  0.00     0.135 A 
ATOM     81  F   UNL A   1      35.139  31.429  31.897  1.00  0.00    -0.206 F 
ATOM     82  C   UNL A   1      34.428  33.039  30.342  1.00  0.00     0.059 A 
ATOM     83  C   UNL A   1      36.062  34.482  29.270  1.00  0.00     0.059 A 
ATOM     84  F   UNL A   1      38.337  34.234  29.776  1.00  0.00    -0.206 F 
ATOM     85  C   UNL A   1      34.741  34.077  29.461  1.00  0.00     0.060 A 
BRANCH  85  86
ATOM     86  S   UNL A   1      33.394  34.912  28.598  1.00  0.00     0.124 S 
ATOM     87  O   UNL A   1      32.700  35.567  29.700  1.00  0.00    -0.237 OA
ATOM     88  O   UNL A   1      34.118  35.792  27.685  1.00  0.00    -0.237 OA
ATOM     89  O   UNL A   1      32.672  33.816  27.959  1.00  0.00    -0.744 OA
ENDBRANCH  85  86
ENDBRANCH  53  78
BRANCH  65  90
ATOM     90  C   UNL A   1      39.664  34.013  37.120  1.00  0.00     0.058 A 
ATOM     91  C   UNL A   1      38.987  33.627  38.288  1.00  0.00     0.135 A 
ATOM     92  C   UNL A   1      40.118  35.339  37.034  1.00  0.00     0.135 A 
ATOM     93  F   UNL A   1      38.522  32.373  38.416  1.00  0.00    -0.206 F 
ATOM     94  C   UNL A   1      38.762  34.522  39.328  1.00  0.00     0.059 A 
ATOM     95  C   UNL A   1      39.928  36.244  38.075  1.00  0.00     0.059 A 
ATOM     96  F   UNL A   1      40.776  35.760  35.943  1.00  0.00    -0.206 F 
ATOM     97  C   UNL A   1      39.244  35.827  39.216  1.00  0.00     0.060 A 
BRANCH  97  98
ATOM     98  S   UNL A   1      38.994  36.958  40.602  1.00  0.00     0.124 S 
ATOM     99  O   UNL A   1      38.326  38.080  39.951  1.00  0.00    -0.237 OA
ATOM    100  O   UNL A   1      38.167  36.163  41.505  1.00  0.00    -0.237 OA
ATOM    101  O   UNL A   1      40.350  37.225  41.074  1.00  0.00    -0.744 OA
ENDBRANCH  97  98
ENDBRANCH  65  90
ENDBRANCH  39  40
ENDBRANCH  32  34
ENDBRANCH  31  32
ENDBRANCH  30  31
ENDBRANCH  29  30
ENDBRANCH  28  29
ENDBRANCH   1  28
TORSDOF 22
ENDMDL
MODEL 2
REMARK VINA RESULT:     -10.5      2.669      8.998
REMARK SMILES CC(C)(C)c1cc2c(cc1Cl)C=C(C(=O)OCCOCCOCCOC(=O)c1ccc(-c3c4nc(c(-c5c(F)cc(S(=O)(=O)[O-])cc5F)c5ccc([nH]5)c(-c5c(F)cc(S(=O)(=O)[O-])cc5F)c5nc(c(-c6c(F)cc(S(=O)(=O)[O-])cc6F)c6ccc3[nH]6)C=C5)C=C4)cc1)[C@H](C(F)(F)F)O2
REMARK SMILES IDX 21 1 20 2 19 3 18 4 17 5 16 6 14 7 15 8 13 9 5 10 6 11 10 12
REMARK SMILES IDX 7 13 9 14 11 15 8 16 99 17 12 18 94 19 2 20 1 21 3 22 4 23
REMARK SMILES IDX 95 24 96 25 97 26 98 27 22 28 23 29 24 30 25 31 26 32 27 33
REMARK SMILES IDX 28 34 29 35 93 36 30 37 92 38 31 39 32 40 33 41 86 42 34 43
REMARK SMILES IDX 91 44 85 45 87 46 35 47 90 48 84 49 83 50 36 52 70 53 49 54
REMARK SMILES IDX 69 55 50 56 53 57 68 58 88 59 51 60 52 61 67 63 89 64 54 65
REMARK SMILES IDX 37 66 38 67 47 68 39 69 40 70 46 71 48 72 41 73 42 74 43 75
REMARK SMILES IDX 44 76 45 77 71 78 72 79 81 80 73 81 74 82 80 83 82 84 75 85
REMARK SMILES IDX 76 86 77 87 78 88 79 89 55 90 56 91 65 92 57 93 58 94 64 95
REMARK SMILES IDX 66 96 59 97 60 98 61 99 62 100 63 101
REMARK H PARENT 87 51 53 62
REMARK Flexibility Score: inf
ROOT
ATOM      1  C   UNL A   1      34.752  29.632  27.202  1.00  0.00     0.188 C 
ENDROOT
BRANCH   1   2
ATOM      2  C   UNL A   1      33.736  29.208  26.126  1.00  0.00     0.188 C 
BRANCH   2   3
ATOM      3  O   UNL A   1      34.010  28.053  25.340  1.00  0.00    -0.376 OA
BRANCH   3   4
ATOM      4  C   UNL A   1      33.153  27.733  24.247  1.00  0.00     0.202 C 
BRANCH   4   5
ATOM      5  C   UNL A   1      33.214  26.320  23.643  1.00  0.00     0.261 C 
BRANCH   5   6
ATOM      6  O   UNL A   1      32.160  25.451  24.099  1.00  0.00    -0.460 OA
BRANCH   6   7
ATOM      7  C   UNL A   1      32.399  24.795  25.254  1.00  0.00     0.338 C 
ATOM      8  O   UNL A   1      32.019  25.123  26.366  1.00  0.00    -0.246 OA
BRANCH   7   9
ATOM      9  C   UNL A   1      33.092  23.519  24.996  1.00  0.00     0.087 C 
ATOM     10  C   UNL A   1      33.722  18.567  24.117  1.00  0.00    -0.020 A 
ATOM     11  C   UNL A   1      34.309  19.539  24.965  1.00  0.00     0.053 A 
ATOM     12  C   UNL A   1      32.755  19.051  23.203  1.00  0.00     0.045 A 
ATOM     13  C   UNL A   1      33.935  20.887  24.944  1.00  0.00     0.128 A 
ATOM     14  C   UNL A   1      32.405  20.414  23.161  1.00  0.00     0.032 A 
ATOM     15  Cl  UNL A   1      31.838  18.054  22.130  1.00  0.00    -0.084 Cl
ATOM     16  C   UNL A   1      32.973  21.329  24.046  1.00  0.00     0.019 A 
ATOM     17  O   UNL A   1      34.484  21.682  25.913  1.00  0.00    -0.475 OA
ATOM     18  C   UNL A   1      32.470  22.689  24.147  1.00  0.00     0.027 C 
ATOM     19  C   UNL A   1      34.298  23.125  25.805  1.00  0.00     0.316 C 
BRANCH  10  20
ATOM     20  C   UNL A   1      34.066  17.070  24.334  1.00  0.00    -0.012 C 
ATOM     21  C   UNL A   1      34.392  16.320  23.012  1.00  0.00     0.016 C 
ATOM     22  C   UNL A   1      32.939  16.238  24.989  1.00  0.00     0.016 C 
ATOM     23  C   UNL A   1      35.335  17.001  25.212  1.00  0.00     0.016 C 
ENDBRANCH  10  20
BRANCH  19  24
ATOM     24  C   UNL A   1      35.635  23.745  25.364  1.00  0.00     0.430 C 
ATOM     25  F   UNL A   1      36.704  23.043  25.802  1.00  0.00    -0.167 F 
ATOM     26  F   UNL A   1      35.727  23.862  24.023  1.00  0.00    -0.167 F 
ATOM     27  F   UNL A   1      35.764  25.005  25.860  1.00  0.00    -0.167 F 
ENDBRANCH  19  24
ENDBRANCH   7   9
ENDBRANCH   6   7
ENDBRANCH   5   6
ENDBRANCH   4   5
ENDBRANCH   3   4
ENDBRANCH   2   3
ENDBRANCH   1   2
BRANCH   1  28
ATOM     28  O   UNL A   1      34.498  30.907  27.750  1.00  0.00    -0.376 OA
BRANCH  28  29
ATOM     29  C   UNL A   1      33.189  31.437  27.653  1.00  0.00     0.202 C 
BRANCH  29  30
ATOM     30  C   UNL A   1      32.961  32.944  27.442  1.00  0.00     0.261 C 
BRANCH  30  31
ATOM     31  O   UNL A   1      32.488  33.700  28.563  1.00  0.00    -0.460 OA
BRANCH  31  32
ATOM     32  C   UNL A   1      33.173  34.813  28.910  1.00  0.00     0.338 C 
ATOM     33  O   UNL A   1      32.799  35.967  28.807  1.00  0.00    -0.246 OA
BRANCH  32  34
ATOM     34  C   UNL A   1      34.381  34.358  29.636  1.00  0.00     0.060 A 
ATOM     35  C   UNL A   1      34.252  33.753  30.888  1.00  0.00     0.016 A 
ATOM     36  C   UNL A   1      35.652  34.588  29.088  1.00  0.00     0.016 A 
ATOM     37  C   UNL A   1      35.395  33.361  31.584  1.00  0.00     0.010 A 
ATOM     38  C   UNL A   1      36.797  34.195  29.791  1.00  0.00     0.010 A 
ATOM     39  C   UNL A   1      36.675  33.563  31.036  1.00  0.00    -0.014 A 
BRANCH  39  40
ATOM     40  C   UNL A   1      37.848  32.957  31.715  1.00  0.00     0.031 A 
ATOM     41  C   UNL A   1      38.358  33.464  33.030  1.00  0.00     0.074 A 
ATOM     42  C   UNL A   1      38.424  31.888  31.132  1.00  0.00     0.049 A 
ATOM     43  N   UNL A   1      39.254  32.930  33.819  1.00  0.00    -0.248 NA
ATOM     44  C   UNL A   1      37.800  34.731  33.521  1.00  0.00     0.031 C 
ATOM     45  C   UNL A   1      38.035  31.335  29.832  1.00  0.00     0.029 A 
ATOM     46  N   UNL A   1      39.433  31.061  31.558  1.00  0.00    -0.354 N 
ATOM     47  C   UNL A   1      39.351  33.774  34.917  1.00  0.00     0.074 A 
ATOM     48  C   UNL A   1      38.461  34.890  34.663  1.00  0.00     0.031 C 
ATOM     49  C   UNL A   1      38.762  30.235  29.589  1.00  0.00     0.029 A 
ATOM     50  C   UNL A   1      39.680  30.014  30.702  1.00  0.00     0.049 A 
ATOM     51  H   UNL A   1      39.930  31.204  32.395  1.00  0.00     0.167 HD
ATOM     52  C   UNL A   1      40.095  33.616  36.039  1.00  0.00     0.037 A 
ATOM     53  C   UNL A   1      40.537  28.982  30.808  1.00  0.00     0.037 A 
ATOM     54  C   UNL A   1      40.989  32.507  36.271  1.00  0.00     0.049 A 
ATOM     55  C   UNL A   1      41.379  28.850  32.046  1.00  0.00     0.074 A 
ATOM     56  C   UNL A   1      41.748  32.235  37.396  1.00  0.00     0.029 A 
ATOM     57  N   UNL A   1      41.260  31.498  35.358  1.00  0.00    -0.354 N 
ATOM     58  N   UNL A   1      41.385  29.605  33.119  1.00  0.00    -0.248 NA
ATOM     59  C   UNL A   1      42.325  27.728  32.092  1.00  0.00     0.031 C 
ATOM     60  C   UNL A   1      42.518  31.095  37.143  1.00  0.00     0.029 A 
ATOM     61  C   UNL A   1      42.202  30.624  35.878  1.00  0.00     0.049 A 
ATOM     62  H   UNL A   1      40.844  31.414  34.469  1.00  0.00     0.167 HD
ATOM     63  C   UNL A   1      42.331  29.045  33.971  1.00  0.00     0.074 A 
ATOM     64  C   UNL A   1      42.856  27.873  33.299  1.00  0.00     0.031 C 
ATOM     65  C   UNL A   1      42.730  29.468  35.195  1.00  0.00     0.037 A 
BRANCH  52  66
ATOM     66  C   UNL A   1      39.965  34.654  37.123  1.00  0.00     0.058 A 
ATOM     67  C   UNL A   1      39.063  34.489  38.186  1.00  0.00     0.135 A 
ATOM     68  C   UNL A   1      40.802  35.782  37.146  1.00  0.00     0.135 A 
ATOM     69  F   UNL A   1      38.235  33.431  38.212  1.00  0.00    -0.206 F 
ATOM     70  C   UNL A   1      38.980  35.413  39.222  1.00  0.00     0.059 A 
ATOM     71  C   UNL A   1      40.753  36.708  38.186  1.00  0.00     0.059 A 
ATOM     72  F   UNL A   1      41.687  35.988  36.159  1.00  0.00    -0.206 F 
ATOM     73  C   UNL A   1      39.832  36.518  39.215  1.00  0.00     0.060 A 
BRANCH  73  74
ATOM     74  S   UNL A   1      39.715  37.699  40.576  1.00  0.00     0.124 S 
ATOM     75  O   UNL A   1      41.123  37.967  40.852  1.00  0.00    -0.237 OA
ATOM     76  O   UNL A   1      38.968  38.797  39.971  1.00  0.00    -0.237 OA
ATOM     77  O   UNL A   1      39.004  36.956  41.613  1.00  0.00    -0.744 OA
ENDBRANCH  73  74
ENDBRANCH  52  66
BRANCH  53  78
ATOM     78  C   UNL A   1      40.604  27.970  29.721  1.00  0.00     0.058 A 
ATOM     79  C   UNL A   1      39.690  26.908  29.665  1.00  0.00     0.135 A 
ATOM     80  C   UNL A   1      41.559  28.068  28.696  1.00  0.00     0.135 A 
ATOM     81  F   UNL A   1      38.761  26.772  30.623  1.00  0.00    -0.206 F 
ATOM     82  C   UNL A   1      39.723  25.974  28.635  1.00  0.00     0.059 A 
ATOM     83  C   UNL A   1      41.595  27.162  27.643  1.00  0.00     0.059 A 
ATOM     84  F   UNL A   1      42.444  29.077  28.696  1.00  0.00    -0.206 F 
ATOM     85  C   UNL A   1      40.676  26.113  27.624  1.00  0.00     0.060 A 
BRANCH  85  86
ATOM     86  S   UNL A   1      40.672  24.925  26.265  1.00  0.00     0.124 S 
ATOM     87  O   UNL A   1      39.250  24.630  26.137  1.00  0.00    -0.237 OA
ATOM     88  O   UNL A   1      41.264  25.703  25.180  1.00  0.00    -0.237 OA
ATOM     89  O   UNL A   1      41.500  23.834  26.769  1.00  0.00    -0.744 OA
ENDBRANCH  85  86
ENDBRANCH  53  78
BRANCH  65  90
ATOM     90  C   UNL A   1      43.803  28.673  35.889  1.00  0.00     0.058 A 
ATOM     91  C   UNL A   1      45.153  29.054  35.818  1.00  0.00     0.135 A 
ATOM     92  C   UNL A   1      43.476  27.569  36.693  1.00  0.00     0.135 A 
ATOM     93  F   UNL A   1      45.522  30.096  35.055  1.00  0.00    -0.206 F 
ATOM     94  C   UNL A   1      46.141  28.364  36.511  1.00  0.00     0.059 A 
ATOM     95  C   UNL A   1      44.446  26.881  37.417  1.00  0.00     0.059 A 
ATOM     96  F   UNL A   1      42.201  27.166  36.802  1.00  0.00    -0.206 F 
ATOM     97  C   UNL A   1      45.777  27.283  37.316  1.00  0.00     0.060 A 
BRANCH  97  98
ATOM     98  S   UNL A   1      47.067  26.436  38.254  1.00  0.00     0.124 S 
ATOM     99  O   UNL A   1      46.440  26.304  39.565  1.00  0.00    -0.237 OA
ATOM    100  O   UNL A   1      47.232  25.195  37.503  1.00  0.00    -0.237 OA
ATOM    101  O   UNL A   1      48.197  27.357  38.190  1.00  0.00    -0.744 OA
ENDBRANCH  97  98
ENDBRANCH  65  90
ENDBRANCH  39  40
ENDBRANCH  32  34
ENDBRANCH  31  32
ENDBRANCH  30  31
ENDBRANCH  29  30
ENDBRANCH  28  29
ENDBRANCH   1  28
TORSDOF 22
ENDMDL
MODEL 3
REMARK VINA RESULT:     -10.5      2.515      8.916
REMARK SMILES CC(C)(C)c1cc2c(cc1Cl)C=C(C(=O)OCCOCCOCCOC(=O)c1ccc(-c3c4nc(c(-c5c(F)cc(S(=O)(=O)[O-])cc5F)c5ccc([nH]5)c(-c5c(F)cc(S(=O)(=O)[O-])cc5F)c5nc(c(-c6c(F)cc(S(=O)(=O)[O-])cc6F)c6ccc3[nH]6)C=C5)C=C4)cc1)[C@H](C(F)(F)F)O2
REMARK SMILES IDX 21 1 20 2 19 3 18 4 17 5 16 6 14 7 15 8 13 9 5 10 6 11 10 12
REMARK SMILES IDX 7 13 9 14 11 15 8 16 99 17 12 18 94 19 2 20 1 21 3 22 4 23
REMARK SMILES IDX 95 24 96 25 97 26 98 27 22 28 23 29 24 30 25 31 26 32 27 33
REMARK SMILES IDX 28 34 29 35 93 36 30 37 92 38 31 39 32 40 33 41 86 42 34 43
REMARK SMILES IDX 91 44 85 45 87 46 35 47 90 48 84 49 83 50 36 52 70 53 49 54
REMARK SMILES IDX 69 55 50 56 53 57 68 58 88 59 51 60 52 61 67 63 89 64 54 65
REMARK SMILES IDX 37 66 38 67 47 68 39 69 40 70 46 71 48 72 41 73 42 74 43 75
REMARK SMILES IDX 44 76 45 77 71 78 72 79 81 80 73 81 74 82 80 83 82 84 75 85
REMARK SMILES IDX 76 86 77 87 78 88 79 89 55 90 56 91 65 92 57 93 58 94 64 95
REMARK SMILES IDX 66 96 59 97 60 98 61 99 62 100 63 101
REMARK H PARENT 87 51 53 62
REMARK Flexibility Score: inf
ROOT
ATOM      1  C   UNL A   1      34.421  29.592  27.139  1.00  0.00     0.188 C 
ENDROOT
BRANCH   1   2
ATOM      2  C   UNL A   1      33.451  29.133  26.035  1.00  0.00     0.188 C 
BRANCH   2   3
ATOM      3  O   UNL A   1      33.987  28.590  24.832  1.00  0.00    -0.376 OA
BRANCH   3   4
ATOM      4  C   UNL A   1      33.251  28.721  23.619  1.00  0.00     0.202 C 
BRANCH   4   5
ATOM      5  C   UNL A   1      33.930  28.342  22.293  1.00  0.00     0.261 C 
BRANCH   5   6
ATOM      6  O   UNL A   1      33.867  26.935  21.993  1.00  0.00    -0.460 OA
BRANCH   6   7
ATOM      7  C   UNL A   1      32.627  26.410  21.901  1.00  0.00     0.338 C 
ATOM      8  O   UNL A   1      31.731  26.792  21.166  1.00  0.00    -0.246 OA
BRANCH   7   9
ATOM      9  C   UNL A   1      32.510  25.195  22.729  1.00  0.00     0.087 C 
ATOM     10  C   UNL A   1      33.501  20.538  24.467  1.00  0.00    -0.020 A 
ATOM     11  C   UNL A   1      32.342  21.273  24.113  1.00  0.00     0.053 A 
ATOM     12  C   UNL A   1      34.723  21.251  24.415  1.00  0.00     0.045 A 
ATOM     13  C   UNL A   1      32.392  22.607  23.693  1.00  0.00     0.128 A 
ATOM     14  C   UNL A   1      34.765  22.603  24.023  1.00  0.00     0.032 A 
ATOM     15  Cl  UNL A   1      36.275  20.554  24.713  1.00  0.00    -0.084 Cl
ATOM     16  C   UNL A   1      33.607  23.276  23.638  1.00  0.00     0.019 A 
ATOM     17  O   UNL A   1      31.214  23.145  23.250  1.00  0.00    -0.475 OA
ATOM     18  C   UNL A   1      33.670  24.599  23.041  1.00  0.00     0.027 C 
ATOM     19  C   UNL A   1      31.164  24.583  23.006  1.00  0.00     0.316 C 
BRANCH  10  20
ATOM     20  C   UNL A   1      33.373  19.016  24.745  1.00  0.00    -0.012 C 
ATOM     21  C   UNL A   1      32.366  18.306  23.797  1.00  0.00     0.016 C 
ATOM     22  C   UNL A   1      32.888  18.661  26.170  1.00  0.00     0.016 C 
ATOM     23  C   UNL A   1      34.754  18.373  24.494  1.00  0.00     0.016 C 
ENDBRANCH  10  20
BRANCH  19  24
ATOM     24  C   UNL A   1      30.353  25.230  24.143  1.00  0.00     0.430 C 
ATOM     25  F   UNL A   1      30.168  24.395  25.191  1.00  0.00    -0.167 F 
ATOM     26  F   UNL A   1      30.926  26.363  24.599  1.00  0.00    -0.167 F 
ATOM     27  F   UNL A   1      29.116  25.585  23.703  1.00  0.00    -0.167 F 
ENDBRANCH  19  24
ENDBRANCH   7   9
ENDBRANCH   6   7
ENDBRANCH   5   6
ENDBRANCH   4   5
ENDBRANCH   3   4
ENDBRANCH   2   3
ENDBRANCH   1   2
BRANCH   1  28
ATOM     28  O   UNL A   1      34.120  30.866  27.663  1.00  0.00    -0.376 OA
BRANCH  28  29
ATOM     29  C   UNL A   1      32.869  31.449  27.349  1.00  0.00     0.202 C 
BRANCH  29  30
ATOM     30  C   UNL A   1      32.700  32.979  27.304  1.00  0.00     0.261 C 
BRANCH  30  31
ATOM     31  O   UNL A   1      32.432  33.646  28.543  1.00  0.00    -0.460 OA
BRANCH  31  32
ATOM     32  C   UNL A   1      33.152  34.755  28.832  1.00  0.00     0.338 C 
ATOM     33  O   UNL A   1      32.803  35.913  28.689  1.00  0.00    -0.246 OA
BRANCH  32  34
ATOM     34  C   UNL A   1      34.362  34.299  29.553  1.00  0.00     0.060 A 
ATOM     35  C   UNL A   1      34.245  33.766  30.839  1.00  0.00     0.016 A 
ATOM     36  C   UNL A   1      35.625  34.456  28.963  1.00  0.00     0.016 A 
ATOM     37  C   UNL A   1      35.392  33.373  31.527  1.00  0.00     0.010 A 
ATOM     38  C   UNL A   1      36.774  34.062  29.659  1.00  0.00     0.010 A 
ATOM     39  C   UNL A   1      36.664  33.502  30.939  1.00  0.00    -0.014 A 
BRANCH  39  40
ATOM     40  C   UNL A   1      37.833  32.894  31.622  1.00  0.00     0.031 A 
ATOM     41  C   UNL A   1      38.341  33.401  32.938  1.00  0.00     0.074 A 
ATOM     42  C   UNL A   1      38.408  31.824  31.041  1.00  0.00     0.049 A 
ATOM     43  N   UNL A   1      39.234  32.866  33.730  1.00  0.00    -0.248 NA
ATOM     44  C   UNL A   1      37.785  34.670  33.426  1.00  0.00     0.031 C 
ATOM     45  C   UNL A   1      38.021  31.270  29.741  1.00  0.00     0.029 A 
ATOM     46  N   UNL A   1      39.414  30.995  31.471  1.00  0.00    -0.354 N 
ATOM     47  C   UNL A   1      39.329  33.711  34.828  1.00  0.00     0.074 A 
ATOM     48  C   UNL A   1      38.442  34.829  34.570  1.00  0.00     0.031 C 
ATOM     49  C   UNL A   1      38.746  30.167  29.501  1.00  0.00     0.029 A 
ATOM     50  C   UNL A   1      39.661  29.946  30.617  1.00  0.00     0.049 A 
ATOM     51  H   UNL A   1      39.909  31.137  32.310  1.00  0.00     0.167 HD
ATOM     52  C   UNL A   1      40.069  33.552  35.952  1.00  0.00     0.037 A 
ATOM     53  C   UNL A   1      40.515  28.911  30.727  1.00  0.00     0.037 A 
ATOM     54  C   UNL A   1      40.960  32.442  36.187  1.00  0.00     0.049 A 
ATOM     55  C   UNL A   1      41.353  28.779  31.967  1.00  0.00     0.074 A 
ATOM     56  C   UNL A   1      41.716  32.169  37.315  1.00  0.00     0.029 A 
ATOM     57  N   UNL A   1      41.231  31.431  35.276  1.00  0.00    -0.354 N 
ATOM     58  N   UNL A   1      41.358  29.535  33.039  1.00  0.00    -0.248 NA
ATOM     59  C   UNL A   1      42.297  27.655  32.017  1.00  0.00     0.031 C 
ATOM     60  C   UNL A   1      42.483  31.026  37.065  1.00  0.00     0.029 A 
ATOM     61  C   UNL A   1      42.170  30.555  35.800  1.00  0.00     0.049 A 
ATOM     62  H   UNL A   1      40.818  31.347  34.386  1.00  0.00     0.167 HD
ATOM     63  C   UNL A   1      42.300  28.974  33.895  1.00  0.00     0.074 A 
ATOM     64  C   UNL A   1      42.824  27.800  33.225  1.00  0.00     0.031 C 
ATOM     65  C   UNL A   1      42.697  29.397  35.119  1.00  0.00     0.037 A 
BRANCH  52  66
ATOM     66  C   UNL A   1      39.939  34.591  37.034  1.00  0.00     0.058 A 
ATOM     67  C   UNL A   1      40.733  35.750  37.031  1.00  0.00     0.135 A 
ATOM     68  C   UNL A   1      38.962  34.472  38.037  1.00  0.00     0.135 A 
ATOM     69  F   UNL A   1      41.686  35.913  36.099  1.00  0.00    -0.206 F 
ATOM     70  C   UNL A   1      40.577  36.742  37.993  1.00  0.00     0.059 A 
ATOM     71  C   UNL A   1      38.772  35.465  38.995  1.00  0.00     0.059 A 
ATOM     72  F   UNL A   1      38.172  33.389  38.085  1.00  0.00    -0.206 F 
ATOM     73  C   UNL A   1      39.592  36.593  38.970  1.00  0.00     0.060 A 
BRANCH  73  74
ATOM     74  S   UNL A   1      39.401  37.900  40.200  1.00  0.00     0.124 S 
ATOM     75  O   UNL A   1      39.125  37.125  41.408  1.00  0.00    -0.237 OA
ATOM     76  O   UNL A   1      40.700  38.562  40.156  1.00  0.00    -0.237 OA
ATOM     77  O   UNL A   1      38.280  38.687  39.693  1.00  0.00    -0.744 OA
ENDBRANCH  73  74
ENDBRANCH  52  66
BRANCH  53  78
ATOM     78  C   UNL A   1      40.583  27.899  29.641  1.00  0.00     0.058 A 
ATOM     79  C   UNL A   1      39.680  26.827  29.595  1.00  0.00     0.135 A 
ATOM     80  C   UNL A   1      41.526  28.005  28.607  1.00  0.00     0.135 A 
ATOM     81  F   UNL A   1      38.762  26.682  30.563  1.00  0.00    -0.206 F 
ATOM     82  C   UNL A   1      39.713  25.891  28.567  1.00  0.00     0.059 A 
ATOM     83  C   UNL A   1      41.563  27.097  27.555  1.00  0.00     0.059 A 
ATOM     84  F   UNL A   1      42.401  29.023  28.596  1.00  0.00    -0.206 F 
ATOM     85  C   UNL A   1      40.655  26.039  27.547  1.00  0.00     0.060 A 
BRANCH  85  86
ATOM     86  S   UNL A   1      40.651  24.848  26.190  1.00  0.00     0.124 S 
ATOM     87  O   UNL A   1      39.224  24.600  26.020  1.00  0.00    -0.237 OA
ATOM     88  O   UNL A   1      41.300  25.603  25.122  1.00  0.00    -0.237 OA
ATOM     89  O   UNL A   1      41.427  23.731  26.720  1.00  0.00    -0.744 OA
ENDBRANCH  85  86
ENDBRANCH  53  78
BRANCH  65  90
ATOM     90  C   UNL A   1      43.766  28.600  35.818  1.00  0.00     0.058 A 
ATOM     91  C   UNL A   1      45.122  28.946  35.704  1.00  0.00     0.135 A 
ATOM     92  C   UNL A   1      43.431  27.533  36.666  1.00  0.00     0.135 A 
ATOM     93  F   UNL A   1      45.499  29.952  34.898  1.00  0.00    -0.206 F 
ATOM     94  C   UNL A   1      46.109  28.255  36.399  1.00  0.00     0.059 A 
ATOM     95  C   UNL A   1      44.400  26.846  37.392  1.00  0.00     0.059 A 
ATOM     96  F   UNL A   1      42.149  27.164  36.816  1.00  0.00    -0.206 F 
ATOM     97  C   UNL A   1      45.737  27.211  37.249  1.00  0.00     0.060 A 
BRANCH  97  98
ATOM     98  S   UNL A   1      47.027  26.365  38.188  1.00  0.00     0.124 S 
ATOM     99  O   UNL A   1      46.305  25.971  39.393  1.00  0.00    -0.237 OA
ATOM    100  O   UNL A   1      47.403  25.279  37.289  1.00  0.00    -0.237 OA
ATOM    101  O   UNL A   1      48.044  27.396  38.376  1.00  0.00    -0.744 OA
ENDBRANCH  97  98
ENDBRANCH  65  90
ENDBRANCH  39  40
ENDBRANCH  32  34
ENDBRANCH  31  32
ENDBRANCH  30  31
ENDBRANCH  29  30
ENDBRANCH  28  29
ENDBRANCH   1  28
TORSDOF 22
ENDMDL
