MODEL 1
REMARK VINA RESULT:     -11.5      0.000      0.000
REMARK SMILES C[C@H]1Oc2ccccc2C=C1/C=C/C(=O)N[C@H](C(=O)OCCOCCOCCOC(=O)c1ccc(-c2c3nc(c(-c4c(F)cc(S(=O)(=O)[O-])cc4F)c4ccc([nH]4)c(-c4c(F)cc(S(=O)(=O)[O-])cc4F)c4nc(c(-c5c(F)cc(S(=O)(=O)[O-])cc5F)c5ccc2[nH]5)C=C4)C=C3)cc1)c1ccccc1
REMARK SMILES IDX 24 1 23 2 22 3 21 4 20 5 18 6 19 7 17 8 16 9 14 10 15 11
REMARK SMILES IDX 13 13 12 14 11 15 1 16 2 17 3 18 4 19 10 20 5 21 9 22 6 23
REMARK SMILES IDX 8 24 7 25 98 26 99 27 103 28 100 29 102 30 101 31 25 32
REMARK SMILES IDX 26 33 27 34 28 35 29 36 30 37 31 38 32 39 33 40 97 41 34 42
REMARK SMILES IDX 96 43 35 44 36 45 37 46 90 47 38 48 95 49 89 50 91 51 39 52
REMARK SMILES IDX 94 53 88 54 87 55 40 57 74 58 53 59 73 60 54 61 57 62 72 63
REMARK SMILES IDX 92 64 55 65 56 66 71 68 93 69 58 70 41 71 42 72 51 73 43 74
REMARK SMILES IDX 44 75 50 76 52 77 45 78 46 79 47 80 48 81 49 82 75 83 76 84
REMARK SMILES IDX 85 85 77 86 78 87 84 88 86 89 79 90 80 91 81 92 82 93 83 94
REMARK SMILES IDX 59 95 60 96 69 97 61 98 62 99 68 100 70 101 63 102 64 103
REMARK SMILES IDX 65 104 66 105 67 106
REMARK H PARENT 16 12 91 56 57 67
REMARK Flexibility Score: inf
ROOT
ATOM      1  C   UNL A   1      34.863  30.819  27.933  1.00  0.00     0.188 C 
ENDROOT
BRANCH   1   2
ATOM      2  O   UNL A   1      33.920  29.988  27.285  1.00  0.00    -0.376 OA
BRANCH   2   3
ATOM      3  C   UNL A   1      34.388  28.732  26.856  1.00  0.00     0.202 C 
BRANCH   3   4
ATOM      4  C   UNL A   1      33.503  28.039  25.815  1.00  0.00     0.261 C 
BRANCH   4   5
ATOM      5  O   UNL A   1      32.869  26.786  26.141  1.00  0.00    -0.461 OA
BRANCH   5   6
ATOM      6  C   UNL A   1      31.546  26.811  26.460  1.00  0.00     0.333 C 
ATOM      7  O   UNL A   1      31.099  27.433  27.413  1.00  0.00    -0.249 OA
BRANCH   6   8
ATOM      8  C   UNL A   1      30.695  25.971  25.480  1.00  0.00     0.223 C 
BRANCH   8   9
ATOM      9  N   UNL A   1      29.846  25.060  26.255  1.00  0.00    -0.335 N 
ATOM     10  C   UNL A   1      30.128  23.891  26.896  1.00  0.00     0.244 C 
ATOM     11  O   UNL A   1      29.216  23.318  27.490  1.00  0.00    -0.270 OA
ATOM     12  H   UNL A   1      28.906  25.344  26.324  1.00  0.00     0.165 HD
BRANCH  10  13
ATOM     13  C   UNL A   1      31.452  23.207  26.796  1.00  0.00     0.071 C 
ATOM     14  C   UNL A   1      31.887  22.470  25.763  1.00  0.00     0.013 C 
BRANCH  14  15
ATOM     15  C   UNL A   1      33.138  21.753  25.615  1.00  0.00    -0.007 C 
ATOM     16  C   UNL A   1      32.459  20.302  23.600  1.00  0.00     0.058 C 
ATOM     17  C   UNL A   1      33.085  20.348  24.997  1.00  0.00     0.200 C 
ATOM     18  O   UNL A   1      34.334  19.640  24.902  1.00  0.00    -0.485 OA
ATOM     19  C   UNL A   1      35.480  20.355  25.051  1.00  0.00     0.127 A 
ATOM     20  C   UNL A   1      34.298  22.357  25.887  1.00  0.00     0.019 C 
ATOM     21  C   UNL A   1      36.653  19.700  24.694  1.00  0.00     0.047 A 
ATOM     22  C   UNL A   1      35.523  21.660  25.543  1.00  0.00     0.017 A 
ATOM     23  C   UNL A   1      37.874  20.352  24.829  1.00  0.00     0.004 A 
ATOM     24  C   UNL A   1      36.752  22.313  25.669  1.00  0.00     0.012 A 
ATOM     25  C   UNL A   1      37.926  21.658  25.308  1.00  0.00     0.001 A 
ENDBRANCH  14  15
ENDBRANCH  10  13
ENDBRANCH   8   9
BRANCH   8  26
ATOM     26  C   UNL A   1      29.967  26.785  24.406  1.00  0.00    -0.014 A 
ATOM     27  C   UNL A   1      30.647  27.823  23.739  1.00  0.00     0.006 A 
ATOM     28  C   UNL A   1      28.594  26.631  24.141  1.00  0.00     0.006 A 
ATOM     29  C   UNL A   1      29.947  28.763  22.974  1.00  0.00     0.000 A 
ATOM     30  C   UNL A   1      27.890  27.599  23.422  1.00  0.00     0.000 A 
ATOM     31  C   UNL A   1      28.563  28.677  22.858  1.00  0.00     0.000 A 
ENDBRANCH   8  26
ENDBRANCH   6   8
ENDBRANCH   5   6
ENDBRANCH   4   5
ENDBRANCH   3   4
ENDBRANCH   2   3
ENDBRANCH   1   2
BRANCH   1  32
ATOM     32  C   UNL A   1      34.344  32.261  28.089  1.00  0.00     0.188 C 
BRANCH  32  33
ATOM     33  O   UNL A   1      34.148  32.785  29.396  1.00  0.00    -0.376 OA
BRANCH  33  34
ATOM     34  C   UNL A   1      35.065  33.760  29.872  1.00  0.00     0.202 C 
BRANCH  34  35
ATOM     35  C   UNL A   1      36.561  33.393  29.927  1.00  0.00     0.261 C 
BRANCH  35  36
ATOM     36  O   UNL A   1      37.016  32.684  31.101  1.00  0.00    -0.460 OA
BRANCH  36  37
ATOM     37  C   UNL A   1      36.905  31.324  31.094  1.00  0.00     0.338 C 
ATOM     38  O   UNL A   1      35.907  30.682  31.338  1.00  0.00    -0.246 OA
BRANCH  37  39
ATOM     39  C   UNL A   1      38.147  30.717  30.520  1.00  0.00     0.060 A 
ATOM     40  C   UNL A   1      38.284  30.492  29.151  1.00  0.00     0.016 A 
ATOM     41  C   UNL A   1      39.205  30.379  31.382  1.00  0.00     0.016 A 
ATOM     42  C   UNL A   1      39.484  29.958  28.649  1.00  0.00     0.010 A 
ATOM     43  C   UNL A   1      40.389  29.814  30.882  1.00  0.00     0.010 A 
ATOM     44  C   UNL A   1      40.551  29.621  29.505  1.00  0.00    -0.014 A 
BRANCH  44  45
ATOM     45  C   UNL A   1      41.887  29.274  28.937  1.00  0.00     0.031 A 
ATOM     46  C   UNL A   1      43.023  30.257  28.864  1.00  0.00     0.074 A 
ATOM     47  C   UNL A   1      42.073  28.015  28.493  1.00  0.00     0.049 A 
ATOM     48  N   UNL A   1      44.262  30.055  28.485  1.00  0.00    -0.248 NA
ATOM     49  C   UNL A   1      42.740  31.642  29.266  1.00  0.00     0.031 C 
ATOM     50  C   UNL A   1      41.045  26.972  28.490  1.00  0.00     0.029 A 
ATOM     51  N   UNL A   1      43.185  27.387  27.987  1.00  0.00    -0.354 N 
ATOM     52  C   UNL A   1      44.915  31.275  28.618  1.00  0.00     0.074 A 
ATOM     53  C   UNL A   1      43.926  32.218  29.093  1.00  0.00     0.031 C 
ATOM     54  C   UNL A   1      41.585  25.824  28.053  1.00  0.00     0.029 A 
ATOM     55  C   UNL A   1      42.988  26.052  27.719  1.00  0.00     0.049 A 
ATOM     56  H   UNL A   1      44.040  27.848  27.832  1.00  0.00     0.167 HD
ATOM     57  C   UNL A   1      46.217  31.576  28.378  1.00  0.00     0.037 A 
ATOM     58  C   UNL A   1      43.839  25.108  27.269  1.00  0.00     0.037 A 
ATOM     59  C   UNL A   1      47.205  30.623  27.922  1.00  0.00     0.049 A 
ATOM     60  C   UNL A   1      45.277  25.468  27.009  1.00  0.00     0.074 A 
ATOM     61  C   UNL A   1      48.559  30.827  27.703  1.00  0.00     0.029 A 
ATOM     62  N   UNL A   1      46.958  29.291  27.621  1.00  0.00    -0.354 N 
ATOM     63  N   UNL A   1      45.882  26.618  27.180  1.00  0.00    -0.248 NA
ATOM     64  C   UNL A   1      46.149  24.399  26.503  1.00  0.00     0.031 C 
ATOM     65  C   UNL A   1      49.117  29.639  27.221  1.00  0.00     0.029 A 
ATOM     66  C   UNL A   1      48.127  28.672  27.199  1.00  0.00     0.049 A 
ATOM     67  H   UNL A   1      46.081  28.849  27.696  1.00  0.00     0.167 HD
ATOM     68  C   UNL A   1      47.212  26.403  26.830  1.00  0.00     0.074 A 
ATOM     69  C   UNL A   1      47.325  25.010  26.454  1.00  0.00     0.031 C 
ATOM     70  C   UNL A   1      48.242  27.284  26.824  1.00  0.00     0.037 A 
BRANCH  57  71
ATOM     71  C   UNL A   1      46.695  32.992  28.611  1.00  0.00     0.058 A 
ATOM     72  C   UNL A   1      47.256  33.385  29.836  1.00  0.00     0.135 A 
ATOM     73  C   UNL A   1      46.759  33.907  27.545  1.00  0.00     0.135 A 
ATOM     74  F   UNL A   1      47.209  32.562  30.895  1.00  0.00    -0.206 F 
ATOM     75  C   UNL A   1      47.897  34.614  29.986  1.00  0.00     0.059 A 
ATOM     76  C   UNL A   1      47.417  35.131  27.665  1.00  0.00     0.059 A 
ATOM     77  F   UNL A   1      46.236  33.589  26.350  1.00  0.00    -0.206 F 
ATOM     78  C   UNL A   1      48.001  35.467  28.885  1.00  0.00     0.060 A 
BRANCH  78  79
ATOM     79  S   UNL A   1      49.019  36.955  29.028  1.00  0.00     0.124 S 
ATOM     80  O   UNL A   1      49.825  36.892  27.816  1.00  0.00    -0.237 OA
ATOM     81  O   UNL A   1      48.018  38.017  29.055  1.00  0.00    -0.237 OA
ATOM     82  O   UNL A   1      49.751  36.753  30.274  1.00  0.00    -0.744 OA
ENDBRANCH  78  79
ENDBRANCH  57  71
BRANCH  58  83
ATOM     83  C   UNL A   1      43.361  23.711  27.084  1.00  0.00     0.058 A 
ATOM     84  C   UNL A   1      43.077  23.211  25.805  1.00  0.00     0.135 A 
ATOM     85  C   UNL A   1      43.198  22.846  28.176  1.00  0.00     0.135 A 
ATOM     86  F   UNL A   1      43.211  24.002  24.729  1.00  0.00    -0.206 F 
ATOM     87  C   UNL A   1      42.636  21.905  25.615  1.00  0.00     0.059 A 
ATOM     88  C   UNL A   1      42.788  21.527  28.010  1.00  0.00     0.059 A 
ATOM     89  F   UNL A   1      43.472  23.272  29.420  1.00  0.00    -0.206 F 
ATOM     90  C   UNL A   1      42.501  21.070  26.724  1.00  0.00     0.060 A 
BRANCH  90  91
ATOM     91  S   UNL A   1      41.973  19.363  26.458  1.00  0.00     0.124 S 
ATOM     92  O   UNL A   1      42.258  18.761  27.755  1.00  0.00    -0.237 OA
ATOM     93  O   UNL A   1      40.561  19.531  26.128  1.00  0.00    -0.237 OA
ATOM     94  O   UNL A   1      42.819  18.917  25.355  1.00  0.00    -0.744 OA
ENDBRANCH  90  91
ENDBRANCH  58  83
BRANCH  70  95
ATOM     95  C   UNL A   1      49.600  26.769  26.421  1.00  0.00     0.058 A 
ATOM     96  C   UNL A   1      50.449  26.124  27.335  1.00  0.00     0.135 A 
ATOM     97  C   UNL A   1      50.042  26.882  25.091  1.00  0.00     0.135 A 
ATOM     98  F   UNL A   1      50.083  25.992  28.620  1.00  0.00    -0.206 F 
ATOM     99  C   UNL A   1      51.696  25.635  26.953  1.00  0.00     0.059 A 
ATOM    100  C   UNL A   1      51.270  26.372  24.680  1.00  0.00     0.059 A 
ATOM    101  F   UNL A   1      49.269  27.481  24.172  1.00  0.00    -0.206 F 
ATOM    102  C   UNL A   1      52.097  25.761  25.622  1.00  0.00     0.060 A 
BRANCH 102 103
ATOM    103  S   UNL A   1      53.708  25.103  25.141  1.00  0.00     0.124 S 
ATOM    104  O   UNL A   1      54.583  25.702  26.143  1.00  0.00    -0.237 OA
ATOM    105  O   UNL A   1      53.501  23.663  25.259  1.00  0.00    -0.237 OA
ATOM    106  O   UNL A   1      53.887  25.596  23.778  1.00  0.00    -0.744 OA
ENDBRANCH 102 103
ENDBRANCH  70  95
ENDBRANCH  44  45
ENDBRANCH  37  39
ENDBRANCH  36  37
ENDBRANCH  35  36
ENDBRANCH  34  35
ENDBRANCH  33  34
ENDBRANCH  32  33
ENDBRANCH   1  32
TORSDOF 24
ENDMDL
MODEL 2
REMARK VINA RESULT:     -11.0      1.232      8.042
REMARK SMILES C[C@H]1Oc2ccccc2C=C1/C=C/C(=O)N[C@H](C(=O)OCCOCCOCCOC(=O)c1ccc(-c2c3nc(c(-c4c(F)cc(S(=O)(=O)[O-])cc4F)c4ccc([nH]4)c(-c4c(F)cc(S(=O)(=O)[O-])cc4F)c4nc(c(-c5c(F)cc(S(=O)(=O)[O-])cc5F)c5ccc2[nH]5)C=C4)C=C3)cc1)c1ccccc1
REMARK SMILES IDX 24 1 23 2 22 3 21 4 20 5 18 6 19 7 17 8 16 9 14 10 15 11
REMARK SMILES IDX 13 13 12 14 11 15 1 16 2 17 3 18 4 19 10 20 5 21 9 22 6 23
REMARK SMILES IDX 8 24 7 25 98 26 99 27 103 28 100 29 102 30 101 31 25 32
REMARK SMILES IDX 26 33 27 34 28 35 29 36 30 37 31 38 32 39 33 40 97 41 34 42
REMARK SMILES IDX 96 43 35 44 36 45 37 46 90 47 38 48 95 49 89 50 91 51 39 52
REMARK SMILES IDX 94 53 88 54 87 55 40 57 74 58 53 59 73 60 54 61 57 62 72 63
REMARK SMILES IDX 92 64 55 65 56 66 71 68 93 69 58 70 41 71 42 72 51 73 43 74
REMARK SMILES IDX 44 75 50 76 52 77 45 78 46 79 47 80 48 81 49 82 75 83 76 84
REMARK SMILES IDX 85 85 77 86 78 87 84 88 86 89 79 90 80 91 81 92 82 93 83 94
REMARK SMILES IDX 59 95 60 96 69 97 61 98 62 99 68 100 70 101 63 102 64 103
REMARK SMILES IDX 65 104 66 105 67 106
REMARK H PARENT 16 12 91 56 57 67
REMARK Flexibility Score: inf
ROOT
ATOM      1  C   UNL A   1      35.334  31.564  27.861  1.00  0.00     0.188 C 
ENDROOT
BRANCH   1   2
ATOM      2  O   UNL A   1      34.383  30.527  28.005  1.00  0.00    -0.376 OA
BRANCH   2   3
ATOM      3  C   UNL A   1      34.169  29.716  26.875  1.00  0.00     0.202 C 
BRANCH   3   4
ATOM      4  C   UNL A   1      32.781  29.851  26.241  1.00  0.00     0.261 C 
BRANCH   4   5
ATOM      5  O   UNL A   1      32.077  28.669  25.813  1.00  0.00    -0.461 OA
BRANCH   5   6
ATOM      6  C   UNL A   1      31.781  27.733  26.756  1.00  0.00     0.333 C 
ATOM      7  O   UNL A   1      31.481  28.014  27.907  1.00  0.00    -0.249 OA
BRANCH   6   8
ATOM      8  C   UNL A   1      31.866  26.294  26.195  1.00  0.00     0.223 C 
BRANCH   8   9
ATOM      9  N   UNL A   1      30.700  25.537  26.663  1.00  0.00    -0.335 N 
ATOM     10  C   UNL A   1      30.525  24.207  26.900  1.00  0.00     0.244 C 
ATOM     11  O   UNL A   1      29.426  23.827  27.303  1.00  0.00    -0.270 OA
ATOM     12  H   UNL A   1      29.903  26.088  26.837  1.00  0.00     0.165 HD
BRANCH  10  13
ATOM     13  C   UNL A   1      31.553  23.178  26.564  1.00  0.00     0.071 C 
ATOM     14  C   UNL A   1      31.570  22.401  25.471  1.00  0.00     0.013 C 
BRANCH  14  15
ATOM     15  C   UNL A   1      32.513  21.365  25.100  1.00  0.00    -0.007 C 
ATOM     16  C   UNL A   1      33.950  21.435  27.235  1.00  0.00     0.058 C 
ATOM     17  C   UNL A   1      33.923  21.435  25.703  1.00  0.00     0.200 C 
ATOM     18  O   UNL A   1      34.853  20.420  25.285  1.00  0.00    -0.485 OA
ATOM     19  C   UNL A   1      34.352  19.318  24.668  1.00  0.00     0.127 A 
ATOM     20  C   UNL A   1      32.115  20.321  24.366  1.00  0.00     0.019 C 
ATOM     21  C   UNL A   1      35.234  18.254  24.518  1.00  0.00     0.047 A 
ATOM     22  C   UNL A   1      33.046  19.225  24.184  1.00  0.00     0.017 A 
ATOM     23  C   UNL A   1      34.810  17.092  23.883  1.00  0.00     0.004 A 
ATOM     24  C   UNL A   1      32.623  18.051  23.554  1.00  0.00     0.012 A 
ATOM     25  C   UNL A   1      33.505  16.985  23.408  1.00  0.00     0.001 A 
ENDBRANCH  14  15
ENDBRANCH  10  13
ENDBRANCH   8   9
BRANCH   8  26
ATOM     26  C   UNL A   1      32.138  26.209  24.691  1.00  0.00    -0.014 A 
ATOM     27  C   UNL A   1      31.063  26.028  23.798  1.00  0.00     0.006 A 
ATOM     28  C   UNL A   1      33.440  26.171  24.158  1.00  0.00     0.006 A 
ATOM     29  C   UNL A   1      31.291  25.661  22.467  1.00  0.00     0.000 A 
ATOM     30  C   UNL A   1      33.665  25.753  22.845  1.00  0.00     0.000 A 
ATOM     31  C   UNL A   1      32.591  25.475  22.007  1.00  0.00     0.000 A 
ENDBRANCH   8  26
ENDBRANCH   6   8
ENDBRANCH   5   6
ENDBRANCH   4   5
ENDBRANCH   3   4
ENDBRANCH   2   3
ENDBRANCH   1   2
BRANCH   1  32
ATOM     32  C   UNL A   1      34.888  32.853  28.575  1.00  0.00     0.188 C 
BRANCH  32  33
ATOM     33  O   UNL A   1      35.877  33.724  29.108  1.00  0.00    -0.376 OA
BRANCH  33  34
ATOM     34  C   UNL A   1      36.028  33.783  30.519  1.00  0.00     0.202 C 
BRANCH  34  35
ATOM     35  C   UNL A   1      35.554  32.579  31.358  1.00  0.00     0.261 C 
BRANCH  35  36
ATOM     36  O   UNL A   1      36.580  31.701  31.874  1.00  0.00    -0.460 OA
BRANCH  36  37
ATOM     37  C   UNL A   1      36.685  30.463  31.311  1.00  0.00     0.338 C 
ATOM     38  O   UNL A   1      35.770  29.727  31.014  1.00  0.00    -0.246 OA
BRANCH  37  39
ATOM     39  C   UNL A   1      38.102  30.212  30.897  1.00  0.00     0.060 A 
ATOM     40  C   UNL A   1      39.027  29.643  31.771  1.00  0.00     0.016 A 
ATOM     41  C   UNL A   1      38.503  30.545  29.592  1.00  0.00     0.016 A 
ATOM     42  C   UNL A   1      40.337  29.387  31.329  1.00  0.00     0.010 A 
ATOM     43  C   UNL A   1      39.821  30.319  29.163  1.00  0.00     0.010 A 
ATOM     44  C   UNL A   1      40.746  29.712  30.020  1.00  0.00    -0.014 A 
BRANCH  44  45
ATOM     45  C   UNL A   1      42.059  29.226  29.502  1.00  0.00     0.031 A 
ATOM     46  C   UNL A   1      42.261  27.836  28.966  1.00  0.00     0.074 A 
ATOM     47  C   UNL A   1      43.094  30.091  29.504  1.00  0.00     0.049 A 
ATOM     48  N   UNL A   1      43.324  27.321  28.397  1.00  0.00    -0.248 NA
ATOM     49  C   UNL A   1      41.132  26.902  29.080  1.00  0.00     0.031 C 
ATOM     50  C   UNL A   1      43.033  31.462  30.015  1.00  0.00     0.029 A 
ATOM     51  N   UNL A   1      44.381  29.965  29.042  1.00  0.00    -0.354 N 
ATOM     52  C   UNL A   1      42.993  26.012  28.065  1.00  0.00     0.074 A 
ATOM     53  C   UNL A   1      41.635  25.806  28.518  1.00  0.00     0.031 C 
ATOM     54  C   UNL A   1      44.211  32.065  29.796  1.00  0.00     0.029 A 
ATOM     55  C   UNL A   1      45.121  31.120  29.155  1.00  0.00     0.049 A 
ATOM     56  H   UNL A   1      44.740  29.129  28.667  1.00  0.00     0.167 HD
ATOM     57  C   UNL A   1      43.747  25.076  27.433  1.00  0.00     0.037 A 
ATOM     58  C   UNL A   1      46.384  31.399  28.773  1.00  0.00     0.037 A 
ATOM     59  C   UNL A   1      45.097  25.296  26.963  1.00  0.00     0.049 A 
ATOM     60  C   UNL A   1      47.198  30.343  28.076  1.00  0.00     0.074 A 
ATOM     61  C   UNL A   1      45.918  24.422  26.266  1.00  0.00     0.029 A 
ATOM     62  N   UNL A   1      45.827  26.464  27.133  1.00  0.00    -0.354 N 
ATOM     63  N   UNL A   1      46.852  29.125  27.736  1.00  0.00    -0.248 NA
ATOM     64  C   UNL A   1      48.573  30.704  27.702  1.00  0.00     0.031 C 
ATOM     65  C   UNL A   1      47.156  25.039  26.062  1.00  0.00     0.029 A 
ATOM     66  C   UNL A   1      47.091  26.323  26.574  1.00  0.00     0.049 A 
ATOM     67  H   UNL A   1      45.497  27.274  27.584  1.00  0.00     0.167 HD
ATOM     68  C   UNL A   1      47.956  28.585  27.083  1.00  0.00     0.074 A 
ATOM     69  C   UNL A   1      48.974  29.614  27.061  1.00  0.00     0.031 C 
ATOM     70  C   UNL A   1      48.106  27.348  26.551  1.00  0.00     0.037 A 
BRANCH  57  71
ATOM     71  C   UNL A   1      43.151  23.710  27.174  1.00  0.00     0.058 A 
ATOM     72  C   UNL A   1      42.600  23.373  25.927  1.00  0.00     0.135 A 
ATOM     73  C   UNL A   1      43.299  22.678  28.117  1.00  0.00     0.135 A 
ATOM     74  F   UNL A   1      42.417  24.319  24.992  1.00  0.00    -0.206 F 
ATOM     75  C   UNL A   1      42.254  22.060  25.612  1.00  0.00     0.059 A 
ATOM     76  C   UNL A   1      42.982  21.354  27.815  1.00  0.00     0.059 A 
ATOM     77  F   UNL A   1      43.816  22.940  29.328  1.00  0.00    -0.206 F 
ATOM     78  C   UNL A   1      42.479  21.052  26.551  1.00  0.00     0.060 A 
BRANCH  78  79
ATOM     79  S   UNL A   1      42.233  19.329  26.056  1.00  0.00     0.124 S 
ATOM     80  O   UNL A   1      40.826  19.316  25.681  1.00  0.00    -0.237 OA
ATOM     81  O   UNL A   1      43.173  19.186  24.948  1.00  0.00    -0.237 OA
ATOM     82  O   UNL A   1      42.565  18.574  27.260  1.00  0.00    -0.744 OA
ENDBRANCH  78  79
ENDBRANCH  57  71
BRANCH  58  83
ATOM     83  C   UNL A   1      46.939  32.760  29.000  1.00  0.00     0.058 A 
ATOM     84  C   UNL A   1      47.660  33.059  30.165  1.00  0.00     0.135 A 
ATOM     85  C   UNL A   1      46.778  33.780  28.050  1.00  0.00     0.135 A 
ATOM     86  F   UNL A   1      47.835  32.119  31.107  1.00  0.00    -0.206 F 
ATOM     87  C   UNL A   1      48.192  34.325  30.388  1.00  0.00     0.059 A 
ATOM     88  C   UNL A   1      47.326  35.045  28.236  1.00  0.00     0.059 A 
ATOM     89  F   UNL A   1      46.109  33.540  26.911  1.00  0.00    -0.206 F 
ATOM     90  C   UNL A   1      48.024  35.309  29.413  1.00  0.00     0.060 A 
BRANCH  90  91
ATOM     91  S   UNL A   1      48.760  36.935  29.695  1.00  0.00     0.124 S 
ATOM     92  O   UNL A   1      49.534  37.123  28.473  1.00  0.00    -0.237 OA
ATOM     93  O   UNL A   1      47.579  37.780  29.839  1.00  0.00    -0.237 OA
ATOM     94  O   UNL A   1      49.541  36.744  30.914  1.00  0.00    -0.744 OA
ENDBRANCH  90  91
ENDBRANCH  58  83
BRANCH  70  95
ATOM     95  C   UNL A   1      49.414  27.033  25.870  1.00  0.00     0.058 A 
ATOM     96  C   UNL A   1      49.622  27.300  24.507  1.00  0.00     0.135 A 
ATOM     97  C   UNL A   1      50.489  26.498  26.600  1.00  0.00     0.135 A 
ATOM     98  F   UNL A   1      48.630  27.806  23.758  1.00  0.00    -0.206 F 
ATOM     99  C   UNL A   1      50.838  27.024  23.887  1.00  0.00     0.059 A 
ATOM    100  C   UNL A   1      51.724  26.243  26.009  1.00  0.00     0.059 A 
ATOM    101  F   UNL A   1      50.351  26.230  27.908  1.00  0.00    -0.206 F 
ATOM    102  C   UNL A   1      51.885  26.498  24.647  1.00  0.00     0.060 A 
BRANCH 102 103
ATOM    103  S   UNL A   1      53.460  26.165  23.831  1.00  0.00     0.124 S 
ATOM    104  O   UNL A   1      53.026  25.806  22.485  1.00  0.00    -0.237 OA
ATOM    105  O   UNL A   1      54.150  27.446  23.954  1.00  0.00    -0.237 OA
ATOM    106  O   UNL A   1      54.030  25.074  24.616  1.00  0.00    -0.744 OA
ENDBRANCH 102 103
ENDBRANCH  70  95
ENDBRANCH  44  45
ENDBRANCH  37  39
ENDBRANCH  36  37
ENDBRANCH  35  36
ENDBRANCH  34  35
ENDBRANCH  33  34
ENDBRANCH  32  33
ENDBRANCH   1  32
TORSDOF 24
ENDMDL
MODEL 3
REMARK VINA RESULT:     -10.5      1.109      2.079
REMARK SMILES C[C@H]1Oc2ccccc2C=C1/C=C/C(=O)N[C@H](C(=O)OCCOCCOCCOC(=O)c1ccc(-c2c3nc(c(-c4c(F)cc(S(=O)(=O)[O-])cc4F)c4ccc([nH]4)c(-c4c(F)cc(S(=O)(=O)[O-])cc4F)c4nc(c(-c5c(F)cc(S(=O)(=O)[O-])cc5F)c5ccc2[nH]5)C=C4)C=C3)cc1)c1ccccc1
REMARK SMILES IDX 24 1 23 2 22 3 21 4 20 5 18 6 19 7 17 8 16 9 14 10 15 11
REMARK SMILES IDX 13 13 12 14 11 15 1 16 2 17 3 18 4 19 10 20 5 21 9 22 6 23
REMARK SMILES IDX 8 24 7 25 98 26 99 27 103 28 100 29 102 30 101 31 25 32
REMARK SMILES IDX 26 33 27 34 28 35 29 36 30 37 31 38 32 39 33 40 97 41 34 42
REMARK SMILES IDX 96 43 35 44 36 45 37 46 90 47 38 48 95 49 89 50 91 51 39 52
REMARK SMILES IDX 94 53 88 54 87 55 40 57 74 58 53 59 73 60 54 61 57 62 72 63
REMARK SMILES IDX 92 64 55 65 56 66 71 68 93 69 58 70 41 71 42 72 51 73 43 74
REMARK SMILES IDX 44 75 50 76 52 77 45 78 46 79 47 80 48 81 49 82 75 83 76 84
REMARK SMILES IDX 85 85 77 86 78 87 84 88 86 89 79 90 80 91 81 92 82 93 83 94
REMARK SMILES IDX 59 95 60 96 69 97 61 98 62 99 68 100 70 101 63 102 64 103
REMARK SMILES IDX 65 104 66 105 67 106
REMARK H PARENT 16 12 91 56 57 67
REMARK Flexibility Score: inf
ROOT
ATOM      1  C   UNL A   1      36.140  30.873  27.896  1.00  0.00     0.188 C 
ENDROOT
BRANCH   1   2
ATOM      2  O   UNL A   1      35.806  29.521  27.652  1.00  0.00    -0.376 OA
BRANCH   2   3
ATOM      3  C   UNL A   1      34.787  29.291  26.709  1.00  0.00     0.202 C 
BRANCH   3   4
ATOM      4  C   UNL A   1      33.578  28.517  27.245  1.00  0.00     0.261 C 
BRANCH   4   5
ATOM      5  O   UNL A   1      32.962  27.504  26.426  1.00  0.00    -0.461 OA
BRANCH   5   6
ATOM      6  C   UNL A   1      31.736  27.048  26.800  1.00  0.00     0.333 C 
ATOM      7  O   UNL A   1      31.068  27.567  27.682  1.00  0.00    -0.249 OA
BRANCH   6   8
ATOM      8  C   UNL A   1      31.299  25.812  25.978  1.00  0.00     0.223 C 
BRANCH   8   9
ATOM      9  N   UNL A   1      30.110  25.227  26.605  1.00  0.00    -0.335 N 
ATOM     10  C   UNL A   1      29.766  23.932  26.853  1.00  0.00     0.244 C 
ATOM     11  O   UNL A   1      28.691  23.710  27.409  1.00  0.00    -0.270 OA
ATOM     12  H   UNL A   1      29.440  25.887  26.898  1.00  0.00     0.165 HD
BRANCH  10  13
ATOM     13  C   UNL A   1      30.564  22.770  26.360  1.00  0.00     0.071 C 
ATOM     14  C   UNL A   1      31.859  22.787  26.014  1.00  0.00     0.013 C 
BRANCH  14  15
ATOM     15  C   UNL A   1      32.682  21.712  25.498  1.00  0.00    -0.007 C 
ATOM     16  C   UNL A   1      34.257  21.488  27.522  1.00  0.00     0.058 C 
ATOM     17  C   UNL A   1      34.130  21.618  26.001  1.00  0.00     0.200 C 
ATOM     18  O   UNL A   1      34.939  20.569  25.440  1.00  0.00    -0.485 OA
ATOM     19  C   UNL A   1      34.306  19.565  24.777  1.00  0.00     0.127 A 
ATOM     20  C   UNL A   1      32.148  20.769  24.716  1.00  0.00     0.019 C 
ATOM     21  C   UNL A   1      35.080  18.450  24.483  1.00  0.00     0.047 A 
ATOM     22  C   UNL A   1      32.967  19.619  24.383  1.00  0.00     0.017 A 
ATOM     23  C   UNL A   1      34.516  17.382  23.792  1.00  0.00     0.004 A 
ATOM     24  C   UNL A   1      32.404  18.540  23.697  1.00  0.00     0.012 A 
ATOM     25  C   UNL A   1      33.179  17.422  23.406  1.00  0.00     0.001 A 
ENDBRANCH  14  15
ENDBRANCH  10  13
ENDBRANCH   8   9
BRANCH   8  26
ATOM     26  C   UNL A   1      31.190  26.054  24.470  1.00  0.00    -0.014 A 
ATOM     27  C   UNL A   1      32.061  25.380  23.592  1.00  0.00     0.006 A 
ATOM     28  C   UNL A   1      30.336  27.028  23.920  1.00  0.00     0.006 A 
ATOM     29  C   UNL A   1      32.187  25.784  22.257  1.00  0.00     0.000 A 
ATOM     30  C   UNL A   1      30.502  27.465  22.603  1.00  0.00     0.000 A 
ATOM     31  C   UNL A   1      31.443  26.858  21.780  1.00  0.00     0.000 A 
ENDBRANCH   8  26
ENDBRANCH   6   8
ENDBRANCH   5   6
ENDBRANCH   4   5
ENDBRANCH   3   4
ENDBRANCH   2   3
ENDBRANCH   1   2
BRANCH   1  32
ATOM     32  C   UNL A   1      35.170  31.532  28.894  1.00  0.00     0.188 C 
BRANCH  32  33
ATOM     33  O   UNL A   1      35.004  32.943  28.865  1.00  0.00    -0.376 OA
BRANCH  33  34
ATOM     34  C   UNL A   1      35.408  33.690  30.004  1.00  0.00     0.202 C 
BRANCH  34  35
ATOM     35  C   UNL A   1      35.765  32.923  31.293  1.00  0.00     0.261 C 
BRANCH  35  36
ATOM     36  O   UNL A   1      37.170  32.767  31.591  1.00  0.00    -0.460 OA
BRANCH  36  37
ATOM     37  C   UNL A   1      37.556  31.610  32.203  1.00  0.00     0.338 C 
ATOM     38  O   UNL A   1      36.972  31.041  33.098  1.00  0.00    -0.246 OA
BRANCH  37  39
ATOM     39  C   UNL A   1      38.707  31.003  31.463  1.00  0.00     0.060 A 
ATOM     40  C   UNL A   1      38.952  31.303  30.123  1.00  0.00     0.016 A 
ATOM     41  C   UNL A   1      39.568  30.123  32.139  1.00  0.00     0.016 A 
ATOM     42  C   UNL A   1      40.069  30.743  29.477  1.00  0.00     0.010 A 
ATOM     43  C   UNL A   1      40.663  29.538  31.482  1.00  0.00     0.010 A 
ATOM     44  C   UNL A   1      40.940  29.863  30.150  1.00  0.00    -0.014 A 
BRANCH  44  45
ATOM     45  C   UNL A   1      42.235  29.465  29.523  1.00  0.00     0.031 A 
ATOM     46  C   UNL A   1      43.441  30.363  29.500  1.00  0.00     0.074 A 
ATOM     47  C   UNL A   1      42.315  28.236  28.974  1.00  0.00     0.049 A 
ATOM     48  N   UNL A   1      44.653  30.099  29.075  1.00  0.00    -0.248 NA
ATOM     49  C   UNL A   1      43.273  31.727  30.019  1.00  0.00     0.031 C 
ATOM     50  C   UNL A   1      41.210  27.276  28.913  1.00  0.00     0.029 A 
ATOM     51  N   UNL A   1      43.365  27.570  28.392  1.00  0.00    -0.354 N 
ATOM     52  C   UNL A   1      45.401  31.252  29.289  1.00  0.00     0.074 A 
ATOM     53  C   UNL A   1      44.497  32.224  29.863  1.00  0.00     0.031 C 
ATOM     54  C   UNL A   1      41.652  26.132  28.372  1.00  0.00     0.029 A 
ATOM     55  C   UNL A   1      43.061  26.279  28.022  1.00  0.00     0.049 A 
ATOM     56  H   UNL A   1      44.250  27.976  28.253  1.00  0.00     0.167 HD
ATOM     57  C   UNL A   1      46.717  31.473  29.041  1.00  0.00     0.037 A 
ATOM     58  C   UNL A   1      43.828  25.314  27.476  1.00  0.00     0.037 A 
ATOM     59  C   UNL A   1      47.620  30.489  28.486  1.00  0.00     0.049 A 
ATOM     60  C   UNL A   1      45.284  25.586  27.210  1.00  0.00     0.074 A 
ATOM     61  C   UNL A   1      48.982  30.608  28.250  1.00  0.00     0.029 A 
ATOM     62  N   UNL A   1      47.266  29.209  28.086  1.00  0.00    -0.354 N 
ATOM     63  N   UNL A   1      45.979  26.669  27.458  1.00  0.00    -0.248 NA
ATOM     64  C   UNL A   1      46.062  24.499  26.598  1.00  0.00     0.031 C 
ATOM     65  C   UNL A   1      49.438  29.425  27.661  1.00  0.00     0.029 A 
ATOM     66  C   UNL A   1      48.376  28.540  27.585  1.00  0.00     0.049 A 
ATOM     67  H   UNL A   1      46.359  28.829  28.147  1.00  0.00     0.167 HD
ATOM     68  C   UNL A   1      47.282  26.384  27.059  1.00  0.00     0.074 A 
ATOM     69  C   UNL A   1      47.281  25.022  26.570  1.00  0.00     0.031 C 
ATOM     70  C   UNL A   1      48.376  27.182  27.098  1.00  0.00     0.037 A 
BRANCH  57  71
ATOM     71  C   UNL A   1      47.307  32.825  29.376  1.00  0.00     0.058 A 
ATOM     72  C   UNL A   1      47.869  33.090  30.635  1.00  0.00     0.135 A 
ATOM     73  C   UNL A   1      47.475  33.797  28.373  1.00  0.00     0.135 A 
ATOM     74  F   UNL A   1      47.725  32.209  31.637  1.00  0.00    -0.206 F 
ATOM     75  C   UNL A   1      48.607  34.248  30.877  1.00  0.00     0.059 A 
ATOM     76  C   UNL A   1      48.230  34.949  28.586  1.00  0.00     0.059 A 
ATOM     77  F   UNL A   1      46.957  33.601  27.150  1.00  0.00    -0.206 F 
ATOM     78  C   UNL A   1      48.810  35.156  29.836  1.00  0.00     0.060 A 
BRANCH  78  79
ATOM     79  S   UNL A   1      49.947  36.540  30.095  1.00  0.00     0.124 S 
ATOM     80  O   UNL A   1      51.246  35.884  30.031  1.00  0.00    -0.237 OA
ATOM     81  O   UNL A   1      49.635  37.415  28.969  1.00  0.00    -0.237 OA
ATOM     82  O   UNL A   1      49.571  37.052  31.409  1.00  0.00    -0.744 OA
ENDBRANCH  78  79
ENDBRANCH  57  71
BRANCH  58  83
ATOM     83  C   UNL A   1      43.240  23.978  27.191  1.00  0.00     0.058 A 
ATOM     84  C   UNL A   1      43.392  22.917  28.095  1.00  0.00     0.135 A 
ATOM     85  C   UNL A   1      42.500  23.742  26.023  1.00  0.00     0.135 A 
ATOM     86  F   UNL A   1      44.097  23.091  29.224  1.00  0.00    -0.206 F 
ATOM     87  C   UNL A   1      42.842  21.663  27.846  1.00  0.00     0.059 A 
ATOM     88  C   UNL A   1      41.914  22.506  25.765  1.00  0.00     0.059 A 
ATOM     89  F   UNL A   1      42.313  24.730  25.133  1.00  0.00    -0.206 F 
ATOM     90  C   UNL A   1      42.099  21.471  26.680  1.00  0.00     0.060 A 
BRANCH  90  91
ATOM     91  S   UNL A   1      41.351  19.853  26.392  1.00  0.00     0.124 S 
ATOM     92  O   UNL A   1      40.034  20.223  25.888  1.00  0.00    -0.237 OA
ATOM     93  O   UNL A   1      42.266  19.266  25.418  1.00  0.00    -0.237 OA
ATOM     94  O   UNL A   1      41.370  19.233  27.714  1.00  0.00    -0.744 OA
ENDBRANCH  90  91
ENDBRANCH  58  83
BRANCH  70  95
ATOM     95  C   UNL A   1      49.684  26.602  26.620  1.00  0.00     0.058 A 
ATOM     96  C   UNL A   1      50.077  26.673  25.274  1.00  0.00     0.135 A 
ATOM     97  C   UNL A   1      50.575  26.006  27.528  1.00  0.00     0.135 A 
ATOM     98  F   UNL A   1      49.263  27.226  24.361  1.00  0.00    -0.206 F 
ATOM     99  C   UNL A   1      51.293  26.152  24.841  1.00  0.00     0.059 A 
ATOM    100  C   UNL A   1      51.810  25.507  27.123  1.00  0.00     0.059 A 
ATOM    101  F   UNL A   1      50.257  25.918  28.829  1.00  0.00    -0.206 F 
ATOM    102  C   UNL A   1      52.155  25.572  25.774  1.00  0.00     0.060 A 
BRANCH 102 103
ATOM    103  S   UNL A   1      53.736  24.919  25.197  1.00  0.00     0.124 S 
ATOM    104  O   UNL A   1      53.438  23.497  25.065  1.00  0.00    -0.237 OA
ATOM    105  O   UNL A   1      53.933  25.645  23.946  1.00  0.00    -0.237 OA
ATOM    106  O   UNL A   1      54.663  25.267  26.271  1.00  0.00    -0.744 OA
ENDBRANCH 102 103
ENDBRANCH  70  95
ENDBRANCH  44  45
ENDBRANCH  37  39
ENDBRANCH  36  37
ENDBRANCH  35  36
ENDBRANCH  34  35
ENDBRANCH  33  34
ENDBRANCH  32  33
ENDBRANCH   1  32
TORSDOF 24
ENDMDL
