MODEL 1
REMARK VINA RESULT:      -9.6      0.000      0.000
REMARK SMILES O=C(Nc1ccccc1C(=O)OCCOCCOCCOC(=O)c1ccc(-c2c3nc(c(-c4c(F)cc(S(=O)(=O)[O-])cc4F)c4ccc([nH]4)c(-c4c(F)cc(S(=O)(=O)[O-])cc4F)c4nc(c(-c5c(F)cc(S(=O)(=O)[O-])cc5F)c5ccc2[nH]5)C=C4)C=C3)cc1)c1ccncc1
REMARK SMILES IDX 17 1 16 2 15 3 14 4 13 5 12 6 10 7 11 8 9 9 4 10 5 11 6 12
REMARK SMILES IDX 8 13 7 14 3 15 1 16 2 17 90 19 91 20 95 21 92 22 94 23 93 24
REMARK SMILES IDX 18 25 19 26 20 27 21 28 22 29 23 30 24 31 25 32 89 33 26 34
REMARK SMILES IDX 88 35 27 36 28 37 29 38 82 39 30 40 87 41 81 42 83 43 31 44
REMARK SMILES IDX 86 45 80 46 79 47 32 49 66 50 45 51 65 52 46 53 49 54 64 55
REMARK SMILES IDX 84 56 47 57 48 58 63 60 85 61 50 62 33 63 34 64 43 65 35 66
REMARK SMILES IDX 36 67 42 68 44 69 37 70 38 71 39 72 40 73 41 74 67 75 68 76
REMARK SMILES IDX 77 77 69 78 70 79 76 80 78 81 71 82 72 83 73 84 74 85 75 86
REMARK SMILES IDX 51 87 52 88 61 89 53 90 54 91 60 92 62 93 55 94 56 95 57 96
REMARK SMILES IDX 58 97 59 98
REMARK H PARENT 3 18 83 48 49 59
REMARK Flexibility Score: inf
ROOT
ATOM      1  C   UNL A   1      34.916  32.869  29.522  1.00  0.00     0.188 C 
ENDROOT
BRANCH   1   2
ATOM      2  C   UNL A   1      34.240  33.388  28.234  1.00  0.00     0.188 C 
BRANCH   2   3
ATOM      3  O   UNL A   1      33.202  32.602  27.656  1.00  0.00    -0.376 OA
BRANCH   3   4
ATOM      4  C   UNL A   1      33.463  31.228  27.394  1.00  0.00     0.202 C 
BRANCH   4   5
ATOM      5  C   UNL A   1      32.315  30.381  26.841  1.00  0.00     0.261 C 
BRANCH   5   6
ATOM      6  O   UNL A   1      32.647  29.678  25.626  1.00  0.00    -0.460 OA
BRANCH   6   7
ATOM      7  C   UNL A   1      32.566  28.325  25.690  1.00  0.00     0.340 C 
ATOM      8  O   UNL A   1      33.339  27.586  26.284  1.00  0.00    -0.246 OA
BRANCH   7   9
ATOM      9  C   UNL A   1      31.307  27.813  25.091  1.00  0.00     0.083 A 
ATOM     10  C   UNL A   1      30.664  26.599  25.392  1.00  0.00     0.056 A 
ATOM     11  C   UNL A   1      29.586  26.197  24.576  1.00  0.00     0.027 A 
ATOM     12  C   UNL A   1      29.097  27.012  23.552  1.00  0.00     0.002 A 
ATOM     13  C   UNL A   1      30.797  28.629  24.057  1.00  0.00     0.018 A 
ATOM     14  C   UNL A   1      29.695  28.238  23.301  1.00  0.00     0.001 A 
BRANCH  10  15
ATOM     15  N   UNL A   1      30.951  25.699  26.441  1.00  0.00    -0.321 N 
ATOM     16  O   UNL A   1      31.492  23.794  27.512  1.00  0.00    -0.269 OA
ATOM     17  C   UNL A   1      31.552  24.463  26.480  1.00  0.00     0.255 C 
ATOM     18  H   UNL A   1      30.662  26.022  27.324  1.00  0.00     0.170 HD
BRANCH  17  19
ATOM     19  C   UNL A   1      32.358  23.946  25.356  1.00  0.00     0.043 A 
ATOM     20  C   UNL A   1      33.702  24.311  25.302  1.00  0.00     0.034 A 
ATOM     21  C   UNL A   1      31.821  23.110  24.379  1.00  0.00     0.034 A 
ATOM     22  C   UNL A   1      34.485  23.740  24.319  1.00  0.00     0.112 A 
ATOM     23  C   UNL A   1      32.690  22.594  23.436  1.00  0.00     0.112 A 
ATOM     24  N   UNL A   1      34.006  22.896  23.383  1.00  0.00    -0.265 NA
ENDBRANCH  17  19
ENDBRANCH  10  15
ENDBRANCH   7   9
ENDBRANCH   6   7
ENDBRANCH   5   6
ENDBRANCH   4   5
ENDBRANCH   3   4
ENDBRANCH   2   3
ENDBRANCH   1   2
BRANCH   1  25
ATOM     25  O   UNL A   1      34.645  33.667  30.657  1.00  0.00    -0.376 OA
BRANCH  25  26
ATOM     26  C   UNL A   1      35.614  33.712  31.690  1.00  0.00     0.202 C 
BRANCH  26  27
ATOM     27  C   UNL A   1      35.850  32.493  32.599  1.00  0.00     0.261 C 
BRANCH  27  28
ATOM     28  O   UNL A   1      37.086  31.788  32.442  1.00  0.00    -0.460 OA
BRANCH  28  29
ATOM     29  C   UNL A   1      37.068  30.628  31.747  1.00  0.00     0.338 C 
ATOM     30  O   UNL A   1      36.087  29.974  31.445  1.00  0.00    -0.246 OA
BRANCH  29  31
ATOM     31  C   UNL A   1      38.437  30.410  31.218  1.00  0.00     0.060 A 
ATOM     32  C   UNL A   1      38.651  30.523  29.838  1.00  0.00     0.016 A 
ATOM     33  C   UNL A   1      39.513  30.165  32.080  1.00  0.00     0.016 A 
ATOM     34  C   UNL A   1      39.935  30.360  29.313  1.00  0.00     0.010 A 
ATOM     35  C   UNL A   1      40.794  29.980  31.551  1.00  0.00     0.010 A 
ATOM     36  C   UNL A   1      41.005  30.045  30.164  1.00  0.00    -0.014 A 
BRANCH  36  37
ATOM     37  C   UNL A   1      42.280  29.545  29.589  1.00  0.00     0.031 A 
ATOM     38  C   UNL A   1      43.417  30.523  29.462  1.00  0.00     0.074 A 
ATOM     39  C   UNL A   1      42.436  28.270  29.192  1.00  0.00     0.049 A 
ATOM     40  N   UNL A   1      44.612  30.349  28.964  1.00  0.00    -0.248 NA
ATOM     41  C   UNL A   1      43.166  31.883  29.967  1.00  0.00     0.031 C 
ATOM     42  C   UNL A   1      41.422  27.222  29.282  1.00  0.00     0.029 A 
ATOM     43  N   UNL A   1      43.515  27.647  28.615  1.00  0.00    -0.354 N 
ATOM     44  C   UNL A   1      45.257  31.571  29.102  1.00  0.00     0.074 A 
ATOM     45  C   UNL A   1      44.311  32.488  29.699  1.00  0.00     0.031 C 
ATOM     46  C   UNL A   1      41.921  26.088  28.759  1.00  0.00     0.029 A 
ATOM     47  C   UNL A   1      43.280  26.335  28.276  1.00  0.00     0.049 A 
ATOM     48  H   UNL A   1      44.377  28.097  28.460  1.00  0.00     0.167 HD
ATOM     49  C   UNL A   1      46.526  31.904  28.769  1.00  0.00     0.037 A 
ATOM     50  C   UNL A   1      44.065  25.448  27.631  1.00  0.00     0.037 A 
ATOM     51  C   UNL A   1      47.459  31.004  28.147  1.00  0.00     0.049 A 
ATOM     52  C   UNL A   1      45.453  25.858  27.201  1.00  0.00     0.074 A 
ATOM     53  C   UNL A   1      48.764  31.247  27.763  1.00  0.00     0.029 A 
ATOM     54  N   UNL A   1      47.177  29.690  27.806  1.00  0.00    -0.354 N 
ATOM     55  N   UNL A   1      46.061  27.010  27.363  1.00  0.00    -0.248 NA
ATOM     56  C   UNL A   1      46.262  24.847  26.505  1.00  0.00     0.031 C 
ATOM     57  C   UNL A   1      49.262  30.090  27.153  1.00  0.00     0.029 A 
ATOM     58  C   UNL A   1      48.279  29.113  27.199  1.00  0.00     0.049 A 
ATOM     59  H   UNL A   1      46.320  29.234  27.971  1.00  0.00     0.167 HD
ATOM     60  C   UNL A   1      47.329  26.855  26.810  1.00  0.00     0.074 A 
ATOM     61  C   UNL A   1      47.405  25.494  26.318  1.00  0.00     0.031 C 
ATOM     62  C   UNL A   1      48.341  27.754  26.720  1.00  0.00     0.037 A 
BRANCH  49  63
ATOM     63  C   UNL A   1      46.957  33.313  29.054  1.00  0.00     0.058 A 
ATOM     64  C   UNL A   1      46.827  34.328  28.092  1.00  0.00     0.135 A 
ATOM     65  C   UNL A   1      47.519  33.652  30.295  1.00  0.00     0.135 A 
ATOM     66  F   UNL A   1      46.321  34.049  26.880  1.00  0.00    -0.206 F 
ATOM     67  C   UNL A   1      47.270  35.622  28.338  1.00  0.00     0.059 A 
ATOM     68  C   UNL A   1      47.944  34.947  30.572  1.00  0.00     0.059 A 
ATOM     69  F   UNL A   1      47.671  32.718  31.246  1.00  0.00    -0.206 F 
ATOM     70  C   UNL A   1      47.832  35.921  29.580  1.00  0.00     0.060 A 
BRANCH  70  71
ATOM     71  S   UNL A   1      48.420  37.601  29.879  1.00  0.00     0.124 S 
ATOM     72  O   UNL A   1      49.840  37.472  29.567  1.00  0.00    -0.237 OA
ATOM     73  O   UNL A   1      47.632  38.383  28.932  1.00  0.00    -0.237 OA
ATOM     74  O   UNL A   1      48.105  37.825  31.287  1.00  0.00    -0.744 OA
ENDBRANCH  70  71
ENDBRANCH  49  63
BRANCH  50  75
ATOM     75  C   UNL A   1      43.554  24.083  27.334  1.00  0.00     0.058 A 
ATOM     76  C   UNL A   1      43.656  23.048  28.276  1.00  0.00     0.135 A 
ATOM     77  C   UNL A   1      42.956  23.786  26.099  1.00  0.00     0.135 A 
ATOM     78  F   UNL A   1      44.234  23.278  29.465  1.00  0.00    -0.206 F 
ATOM     79  C   UNL A   1      43.191  21.765  28.002  1.00  0.00     0.059 A 
ATOM     80  C   UNL A   1      42.463  22.517  25.810  1.00  0.00     0.059 A 
ATOM     81  F   UNL A   1      42.833  24.743  25.166  1.00  0.00    -0.206 F 
ATOM     82  C   UNL A   1      42.592  21.511  26.766  1.00  0.00     0.060 A 
BRANCH  82  83
ATOM     83  S   UNL A   1      41.942  19.856  26.443  1.00  0.00     0.124 S 
ATOM     84  O   UNL A   1      41.448  19.472  27.760  1.00  0.00    -0.237 OA
ATOM     85  O   UNL A   1      40.923  20.119  25.432  1.00  0.00    -0.237 OA
ATOM     86  O   UNL A   1      43.111  19.124  25.968  1.00  0.00    -0.744 OA
ENDBRANCH  82  83
ENDBRANCH  50  75
BRANCH  62  87
ATOM     87  C   UNL A   1      49.631  27.297  26.097  1.00  0.00     0.058 A 
ATOM     88  C   UNL A   1      50.678  26.771  26.869  1.00  0.00     0.135 A 
ATOM     89  C   UNL A   1      49.791  27.320  24.702  1.00  0.00     0.135 A 
ATOM     90  F   UNL A   1      50.576  26.729  28.207  1.00  0.00    -0.206 F 
ATOM     91  C   UNL A   1      51.848  26.300  26.280  1.00  0.00     0.059 A 
ATOM     92  C   UNL A   1      50.942  26.832  24.091  1.00  0.00     0.059 A 
ATOM     93  F   UNL A   1      48.814  27.800  23.917  1.00  0.00    -0.206 F 
ATOM     94  C   UNL A   1      51.970  26.332  24.890  1.00  0.00     0.060 A 
BRANCH  94  95
ATOM     95  S   UNL A   1      53.474  25.680  24.135  1.00  0.00     0.124 S 
ATOM     96  O   UNL A   1      54.502  26.488  24.781  1.00  0.00    -0.237 OA
ATOM     97  O   UNL A   1      53.436  24.273  24.522  1.00  0.00    -0.237 OA
ATOM     98  O   UNL A   1      53.277  25.935  22.710  1.00  0.00    -0.744 OA
ENDBRANCH  94  95
ENDBRANCH  62  87
ENDBRANCH  36  37
ENDBRANCH  29  31
ENDBRANCH  28  29
ENDBRANCH  27  28
ENDBRANCH  26  27
ENDBRANCH  25  26
ENDBRANCH   1  25
TORSDOF 22
ENDMDL
MODEL 2
REMARK VINA RESULT:      -9.6      4.023      7.179
REMARK SMILES O=C(Nc1ccccc1C(=O)OCCOCCOCCOC(=O)c1ccc(-c2c3nc(c(-c4c(F)cc(S(=O)(=O)[O-])cc4F)c4ccc([nH]4)c(-c4c(F)cc(S(=O)(=O)[O-])cc4F)c4nc(c(-c5c(F)cc(S(=O)(=O)[O-])cc5F)c5ccc2[nH]5)C=C4)C=C3)cc1)c1ccncc1
REMARK SMILES IDX 17 1 16 2 15 3 14 4 13 5 12 6 10 7 11 8 9 9 4 10 5 11 6 12
REMARK SMILES IDX 8 13 7 14 3 15 1 16 2 17 90 19 91 20 95 21 92 22 94 23 93 24
REMARK SMILES IDX 18 25 19 26 20 27 21 28 22 29 23 30 24 31 25 32 89 33 26 34
REMARK SMILES IDX 88 35 27 36 28 37 29 38 82 39 30 40 87 41 81 42 83 43 31 44
REMARK SMILES IDX 86 45 80 46 79 47 32 49 66 50 45 51 65 52 46 53 49 54 64 55
REMARK SMILES IDX 84 56 47 57 48 58 63 60 85 61 50 62 33 63 34 64 43 65 35 66
REMARK SMILES IDX 36 67 42 68 44 69 37 70 38 71 39 72 40 73 41 74 67 75 68 76
REMARK SMILES IDX 77 77 69 78 70 79 76 80 78 81 71 82 72 83 73 84 74 85 75 86
REMARK SMILES IDX 51 87 52 88 61 89 53 90 54 91 60 92 62 93 55 94 56 95 57 96
REMARK SMILES IDX 58 97 59 98
REMARK H PARENT 3 18 83 48 49 59
REMARK Flexibility Score: inf
ROOT
ATOM      1  C   UNL A   1      34.993  33.896  32.354  1.00  0.00     0.188 C 
ENDROOT
BRANCH   1   2
ATOM      2  C   UNL A   1      35.445  34.891  33.446  1.00  0.00     0.188 C 
BRANCH   2   3
ATOM      3  O   UNL A   1      36.805  34.853  33.868  1.00  0.00    -0.376 OA
BRANCH   3   4
ATOM      4  C   UNL A   1      37.155  33.984  34.940  1.00  0.00     0.202 C 
BRANCH   4   5
ATOM      5  C   UNL A   1      37.664  32.587  34.582  1.00  0.00     0.261 C 
BRANCH   5   6
ATOM      6  O   UNL A   1      38.140  32.473  33.225  1.00  0.00    -0.460 OA
BRANCH   6   7
ATOM      7  C   UNL A   1      39.473  32.653  33.052  1.00  0.00     0.340 C 
ATOM      8  O   UNL A   1      40.358  32.183  33.754  1.00  0.00    -0.246 OA
BRANCH   7   9
ATOM      9  C   UNL A   1      39.780  33.361  31.784  1.00  0.00     0.083 A 
ATOM     10  C   UNL A   1      41.054  33.723  31.308  1.00  0.00     0.056 A 
ATOM     11  C   UNL A   1      41.128  34.565  30.179  1.00  0.00     0.027 A 
ATOM     12  C   UNL A   1      39.983  34.963  29.484  1.00  0.00     0.002 A 
ATOM     13  C   UNL A   1      38.633  33.765  31.066  1.00  0.00     0.018 A 
ATOM     14  C   UNL A   1      38.733  34.550  29.920  1.00  0.00     0.001 A 
BRANCH  10  15
ATOM     15  N   UNL A   1      42.314  33.339  31.816  1.00  0.00    -0.321 N 
ATOM     16  O   UNL A   1      44.388  33.489  32.679  1.00  0.00    -0.269 OA
ATOM     17  C   UNL A   1      43.277  34.001  32.540  1.00  0.00     0.255 C 
ATOM     18  H   UNL A   1      42.552  32.406  31.610  1.00  0.00     0.170 HD
BRANCH  17  19
ATOM     19  C   UNL A   1      42.996  35.268  33.245  1.00  0.00     0.043 A 
ATOM     20  C   UNL A   1      42.052  35.242  34.271  1.00  0.00     0.034 A 
ATOM     21  C   UNL A   1      43.646  36.458  32.925  1.00  0.00     0.034 A 
ATOM     22  C   UNL A   1      41.869  36.395  35.007  1.00  0.00     0.112 A 
ATOM     23  C   UNL A   1      43.390  37.558  33.722  1.00  0.00     0.112 A 
ATOM     24  N   UNL A   1      42.513  37.552  34.749  1.00  0.00    -0.265 NA
ENDBRANCH  17  19
ENDBRANCH  10  15
ENDBRANCH   7   9
ENDBRANCH   6   7
ENDBRANCH   5   6
ENDBRANCH   4   5
ENDBRANCH   3   4
ENDBRANCH   2   3
ENDBRANCH   1   2
BRANCH   1  25
ATOM     25  O   UNL A   1      35.199  34.375  31.041  1.00  0.00    -0.376 OA
BRANCH  25  26
ATOM     26  C   UNL A   1      34.537  33.714  29.976  1.00  0.00     0.202 C 
BRANCH  26  27
ATOM     27  C   UNL A   1      34.762  32.213  29.723  1.00  0.00     0.261 C 
BRANCH  27  28
ATOM     28  O   UNL A   1      36.117  31.754  29.667  1.00  0.00    -0.460 OA
BRANCH  28  29
ATOM     29  C   UNL A   1      36.536  30.899  30.627  1.00  0.00     0.338 C 
ATOM     30  O   UNL A   1      35.934  30.585  31.636  1.00  0.00    -0.246 OA
BRANCH  29  31
ATOM     31  C   UNL A   1      37.762  30.233  30.120  1.00  0.00     0.060 A 
ATOM     32  C   UNL A   1      38.625  29.624  31.039  1.00  0.00     0.016 A 
ATOM     33  C   UNL A   1      38.022  30.151  28.747  1.00  0.00     0.016 A 
ATOM     34  C   UNL A   1      39.768  28.957  30.590  1.00  0.00     0.010 A 
ATOM     35  C   UNL A   1      39.178  29.502  28.300  1.00  0.00     0.010 A 
ATOM     36  C   UNL A   1      40.071  28.931  29.220  1.00  0.00    -0.014 A 
BRANCH  36  37
ATOM     37  C   UNL A   1      41.429  28.528  28.775  1.00  0.00     0.031 A 
ATOM     38  C   UNL A   1      42.481  29.601  28.689  1.00  0.00     0.074 A 
ATOM     39  C   UNL A   1      41.731  27.256  28.459  1.00  0.00     0.049 A 
ATOM     40  N   UNL A   1      43.725  29.517  28.297  1.00  0.00    -0.248 NA
ATOM     41  C   UNL A   1      42.068  30.953  29.101  1.00  0.00     0.031 C 
ATOM     42  C   UNL A   1      40.811  26.124  28.522  1.00  0.00     0.029 A 
ATOM     43  N   UNL A   1      42.906  26.711  28.003  1.00  0.00    -0.354 N 
ATOM     44  C   UNL A   1      44.244  30.799  28.423  1.00  0.00     0.074 A 
ATOM     45  C   UNL A   1      43.173  31.650  28.894  1.00  0.00     0.031 C 
ATOM     46  C   UNL A   1      41.452  25.018  28.100  1.00  0.00     0.029 A 
ATOM     47  C   UNL A   1      42.819  25.370  27.714  1.00  0.00     0.049 A 
ATOM     48  H   UNL A   1      43.734  27.233  27.894  1.00  0.00     0.167 HD
ATOM     49  C   UNL A   1      45.502  31.234  28.175  1.00  0.00     0.037 A 
ATOM     50  C   UNL A   1      43.732  24.533  27.181  1.00  0.00     0.037 A 
ATOM     51  C   UNL A   1      46.560  30.398  27.676  1.00  0.00     0.049 A 
ATOM     52  C   UNL A   1      45.108  25.051  26.842  1.00  0.00     0.074 A 
ATOM     53  C   UNL A   1      47.866  30.745  27.385  1.00  0.00     0.029 A 
ATOM     54  N   UNL A   1      46.426  29.049  27.382  1.00  0.00    -0.354 N 
ATOM     55  N   UNL A   1      45.595  26.260  26.991  1.00  0.00    -0.248 NA
ATOM     56  C   UNL A   1      46.060  24.089  26.266  1.00  0.00     0.031 C 
ATOM     57  C   UNL A   1      48.514  29.613  26.877  1.00  0.00     0.029 A 
ATOM     58  C   UNL A   1      47.622  28.551  26.896  1.00  0.00     0.049 A 
ATOM     59  H   UNL A   1      45.602  28.524  27.502  1.00  0.00     0.167 HD
ATOM     60  C   UNL A   1      46.914  26.199  26.550  1.00  0.00     0.074 A 
ATOM     61  C   UNL A   1      47.152  24.831  26.137  1.00  0.00     0.031 C 
ATOM     62  C   UNL A   1      47.845  27.185  26.495  1.00  0.00     0.037 A 
BRANCH  49  63
ATOM     63  C   UNL A   1      45.780  32.689  28.419  1.00  0.00     0.058 A 
ATOM     64  C   UNL A   1      45.635  33.643  27.400  1.00  0.00     0.135 A 
ATOM     65  C   UNL A   1      46.208  33.132  29.680  1.00  0.00     0.135 A 
ATOM     66  F   UNL A   1      45.253  33.266  26.169  1.00  0.00    -0.206 F 
ATOM     67  C   UNL A   1      45.938  34.984  27.613  1.00  0.00     0.059 A 
ATOM     68  C   UNL A   1      46.492  34.472  29.923  1.00  0.00     0.059 A 
ATOM     69  F   UNL A   1      46.369  32.258  30.686  1.00  0.00    -0.206 F 
ATOM     70  C   UNL A   1      46.371  35.387  28.877  1.00  0.00     0.060 A 
BRANCH  70  71
ATOM     71  S   UNL A   1      46.779  37.127  29.134  1.00  0.00     0.124 S 
ATOM     72  O   UNL A   1      45.651  37.574  29.945  1.00  0.00    -0.237 OA
ATOM     73  O   UNL A   1      48.063  37.049  29.824  1.00  0.00    -0.237 OA
ATOM     74  O   UNL A   1      46.831  37.666  27.778  1.00  0.00    -0.744 OA
ENDBRANCH  70  71
ENDBRANCH  49  63
BRANCH  50  75
ATOM     75  C   UNL A   1      43.371  23.114  26.915  1.00  0.00     0.058 A 
ATOM     76  C   UNL A   1      43.169  22.207  27.966  1.00  0.00     0.135 A 
ATOM     77  C   UNL A   1      43.225  22.637  25.603  1.00  0.00     0.135 A 
ATOM     78  F   UNL A   1      43.313  22.610  29.237  1.00  0.00    -0.206 F 
ATOM     79  C   UNL A   1      42.843  20.875  27.727  1.00  0.00     0.059 A 
ATOM     80  C   UNL A   1      42.878  21.316  25.338  1.00  0.00     0.059 A 
ATOM     81  F   UNL A   1      43.405  23.466  24.563  1.00  0.00    -0.206 F 
ATOM     82  C   UNL A   1      42.696  20.440  26.408  1.00  0.00     0.060 A 
BRANCH  82  83
ATOM     83  S   UNL A   1      42.218  18.723  26.110  1.00  0.00     0.124 S 
ATOM     84  O   UNL A   1      43.114  18.354  25.020  1.00  0.00    -0.237 OA
ATOM     85  O   UNL A   1      42.493  18.099  27.400  1.00  0.00    -0.237 OA
ATOM     86  O   UNL A   1      40.805  18.825  25.759  1.00  0.00    -0.744 OA
ENDBRANCH  82  83
ENDBRANCH  50  75
BRANCH  62  87
ATOM     87  C   UNL A   1      49.219  26.822  26.001  1.00  0.00     0.058 A 
ATOM     88  C   UNL A   1      49.592  27.002  24.660  1.00  0.00     0.135 A 
ATOM     89  C   UNL A   1      50.193  26.354  26.897  1.00  0.00     0.135 A 
ATOM     90  F   UNL A   1      48.698  27.444  23.763  1.00  0.00    -0.206 F 
ATOM     91  C   UNL A   1      50.882  26.715  24.221  1.00  0.00     0.059 A 
ATOM     92  C   UNL A   1      51.494  26.083  26.485  1.00  0.00     0.059 A 
ATOM     93  F   UNL A   1      49.891  26.177  28.192  1.00  0.00    -0.206 F 
ATOM     94  C   UNL A   1      51.827  26.257  25.141  1.00  0.00     0.060 A 
BRANCH  94  95
ATOM     95  S   UNL A   1      53.507  25.927  24.570  1.00  0.00     0.124 S 
ATOM     96  O   UNL A   1      54.264  26.953  25.278  1.00  0.00    -0.237 OA
ATOM     97  O   UNL A   1      53.727  24.555  25.015  1.00  0.00    -0.237 OA
ATOM     98  O   UNL A   1      53.415  26.102  23.123  1.00  0.00    -0.744 OA
ENDBRANCH  94  95
ENDBRANCH  62  87
ENDBRANCH  36  37
ENDBRANCH  29  31
ENDBRANCH  28  29
ENDBRANCH  27  28
ENDBRANCH  26  27
ENDBRANCH  25  26
ENDBRANCH   1  25
TORSDOF 22
ENDMDL
MODEL 3
REMARK VINA RESULT:      -9.4      1.430      8.255
REMARK SMILES O=C(Nc1ccccc1C(=O)OCCOCCOCCOC(=O)c1ccc(-c2c3nc(c(-c4c(F)cc(S(=O)(=O)[O-])cc4F)c4ccc([nH]4)c(-c4c(F)cc(S(=O)(=O)[O-])cc4F)c4nc(c(-c5c(F)cc(S(=O)(=O)[O-])cc5F)c5ccc2[nH]5)C=C4)C=C3)cc1)c1ccncc1
REMARK SMILES IDX 17 1 16 2 15 3 14 4 13 5 12 6 10 7 11 8 9 9 4 10 5 11 6 12
REMARK SMILES IDX 8 13 7 14 3 15 1 16 2 17 90 19 91 20 95 21 92 22 94 23 93 24
REMARK SMILES IDX 18 25 19 26 20 27 21 28 22 29 23 30 24 31 25 32 89 33 26 34
REMARK SMILES IDX 88 35 27 36 28 37 29 38 82 39 30 40 87 41 81 42 83 43 31 44
REMARK SMILES IDX 86 45 80 46 79 47 32 49 66 50 45 51 65 52 46 53 49 54 64 55
REMARK SMILES IDX 84 56 47 57 48 58 63 60 85 61 50 62 33 63 34 64 43 65 35 66
REMARK SMILES IDX 36 67 42 68 44 69 37 70 38 71 39 72 40 73 41 74 67 75 68 76
REMARK SMILES IDX 77 77 69 78 70 79 76 80 78 81 71 82 72 83 73 84 74 85 75 86
REMARK SMILES IDX 51 87 52 88 61 89 53 90 54 91 60 92 62 93 55 94 56 95 57 96
REMARK SMILES IDX 58 97 59 98
REMARK H PARENT 3 18 83 48 49 59
REMARK Flexibility Score: inf
ROOT
ATOM      1  C   UNL A   1      34.282  31.307  28.271  1.00  0.00     0.188 C 
ENDROOT
BRANCH   1   2
ATOM      2  C   UNL A   1      33.287  30.999  27.130  1.00  0.00     0.188 C 
BRANCH   2   3
ATOM      3  O   UNL A   1      32.314  29.981  27.343  1.00  0.00    -0.376 OA
BRANCH   3   4
ATOM      4  C   UNL A   1      32.764  28.642  27.519  1.00  0.00     0.202 C 
BRANCH   4   5
ATOM      5  C   UNL A   1      31.761  27.518  27.255  1.00  0.00     0.261 C 
BRANCH   5   6
ATOM      6  O   UNL A   1      31.129  27.596  25.961  1.00  0.00    -0.460 OA
BRANCH   6   7
ATOM      7  C   UNL A   1      31.379  26.560  25.121  1.00  0.00     0.340 C 
ATOM      8  O   UNL A   1      30.902  25.437  25.204  1.00  0.00    -0.246 OA
BRANCH   7   9
ATOM      9  C   UNL A   1      32.183  26.979  23.945  1.00  0.00     0.083 A 
ATOM     10  C   UNL A   1      32.696  26.144  22.935  1.00  0.00     0.056 A 
ATOM     11  C   UNL A   1      33.602  26.699  22.009  1.00  0.00     0.027 A 
ATOM     12  C   UNL A   1      33.922  28.059  22.021  1.00  0.00     0.002 A 
ATOM     13  C   UNL A   1      32.511  28.352  23.940  1.00  0.00     0.018 A 
ATOM     14  C   UNL A   1      33.364  28.891  22.980  1.00  0.00     0.001 A 
BRANCH  10  15
ATOM     15  N   UNL A   1      32.411  24.781  22.705  1.00  0.00    -0.321 N 
ATOM     16  O   UNL A   1      32.713  22.563  22.455  1.00  0.00    -0.269 OA
ATOM     17  C   UNL A   1      33.108  23.621  22.947  1.00  0.00     0.255 C 
ATOM     18  H   UNL A   1      31.533  24.628  22.286  1.00  0.00     0.170 HD
BRANCH  17  19
ATOM     19  C   UNL A   1      34.267  23.579  23.862  1.00  0.00     0.043 A 
ATOM     20  C   UNL A   1      34.017  23.703  25.228  1.00  0.00     0.034 A 
ATOM     21  C   UNL A   1      35.571  23.408  23.404  1.00  0.00     0.034 A 
ATOM     22  C   UNL A   1      35.081  23.551  26.093  1.00  0.00     0.112 A 
ATOM     23  C   UNL A   1      36.567  23.269  24.353  1.00  0.00     0.112 A 
ATOM     24  N   UNL A   1      36.349  23.344  25.684  1.00  0.00    -0.265 NA
ENDBRANCH  17  19
ENDBRANCH  10  15
ENDBRANCH   7   9
ENDBRANCH   6   7
ENDBRANCH   5   6
ENDBRANCH   4   5
ENDBRANCH   3   4
ENDBRANCH   2   3
ENDBRANCH   1   2
BRANCH   1  25
ATOM     25  O   UNL A   1      34.250  32.655  28.692  1.00  0.00    -0.376 OA
BRANCH  25  26
ATOM     26  C   UNL A   1      34.597  32.945  30.035  1.00  0.00     0.202 C 
BRANCH  26  27
ATOM     27  C   UNL A   1      35.280  31.885  30.916  1.00  0.00     0.261 C 
BRANCH  27  28
ATOM     28  O   UNL A   1      36.502  31.319  30.430  1.00  0.00    -0.460 OA
BRANCH  28  29
ATOM     29  C   UNL A   1      37.009  30.250  31.086  1.00  0.00     0.338 C 
ATOM     30  O   UNL A   1      36.387  29.430  31.734  1.00  0.00    -0.246 OA
BRANCH  29  31
ATOM     31  C   UNL A   1      38.433  30.124  30.687  1.00  0.00     0.060 A 
ATOM     32  C   UNL A   1      38.795  30.452  29.374  1.00  0.00     0.016 A 
ATOM     33  C   UNL A   1      39.412  29.751  31.616  1.00  0.00     0.016 A 
ATOM     34  C   UNL A   1      40.133  30.379  28.978  1.00  0.00     0.010 A 
ATOM     35  C   UNL A   1      40.748  29.657  31.212  1.00  0.00     0.010 A 
ATOM     36  C   UNL A   1      41.109  29.938  29.885  1.00  0.00    -0.014 A 
BRANCH  36  37
ATOM     37  C   UNL A   1      42.450  29.541  29.386  1.00  0.00     0.031 A 
ATOM     38  C   UNL A   1      42.615  28.133  28.880  1.00  0.00     0.074 A 
ATOM     39  C   UNL A   1      43.491  30.391  29.375  1.00  0.00     0.049 A 
ATOM     40  N   UNL A   1      43.684  27.532  28.428  1.00  0.00    -0.248 NA
ATOM     41  C   UNL A   1      41.407  27.292  28.887  1.00  0.00     0.031 C 
ATOM     42  C   UNL A   1      43.456  31.783  29.817  1.00  0.00     0.029 A 
ATOM     43  N   UNL A   1      44.794  30.193  28.988  1.00  0.00    -0.354 N 
ATOM     44  C   UNL A   1      43.275  26.248  28.090  1.00  0.00     0.074 A 
ATOM     45  C   UNL A   1      41.871  26.145  28.420  1.00  0.00     0.031 C 
ATOM     46  C   UNL A   1      44.688  32.310  29.693  1.00  0.00     0.029 A 
ATOM     47  C   UNL A   1      45.603  31.286  29.189  1.00  0.00     0.049 A 
ATOM     48  H   UNL A   1      45.118  29.347  28.602  1.00  0.00     0.167 HD
ATOM     49  C   UNL A   1      44.001  25.242  27.547  1.00  0.00     0.037 A 
ATOM     50  C   UNL A   1      46.931  31.432  29.004  1.00  0.00     0.037 A 
ATOM     51  C   UNL A   1      45.404  25.330  27.247  1.00  0.00     0.049 A 
ATOM     52  C   UNL A   1      47.739  30.276  28.466  1.00  0.00     0.074 A 
ATOM     53  C   UNL A   1      46.230  24.365  26.703  1.00  0.00     0.029 A 
ATOM     54  N   UNL A   1      46.189  26.449  27.479  1.00  0.00    -0.354 N 
ATOM     55  N   UNL A   1      47.336  29.075  28.125  1.00  0.00    -0.248 NA
ATOM     56  C   UNL A   1      49.181  30.497  28.284  1.00  0.00     0.031 C 
ATOM     57  C   UNL A   1      47.528  24.887  26.642  1.00  0.00     0.029 A 
ATOM     58  C   UNL A   1      47.498  26.193  27.106  1.00  0.00     0.049 A 
ATOM     59  H   UNL A   1      45.865  27.300  27.854  1.00  0.00     0.167 HD
ATOM     60  C   UNL A   1      48.468  28.406  27.668  1.00  0.00     0.074 A 
ATOM     61  C   UNL A   1      49.571  29.339  27.767  1.00  0.00     0.031 C 
ATOM     62  C   UNL A   1      48.584  27.135  27.205  1.00  0.00     0.037 A 
BRANCH  49  63
ATOM     63  C   UNL A   1      43.279  23.954  27.273  1.00  0.00     0.058 A 
ATOM     64  C   UNL A   1      42.762  23.660  26.001  1.00  0.00     0.135 A 
ATOM     65  C   UNL A   1      43.091  23.009  28.294  1.00  0.00     0.135 A 
ATOM     66  F   UNL A   1      42.893  24.543  24.998  1.00  0.00    -0.206 F 
ATOM     67  C   UNL A   1      42.052  22.490  25.759  1.00  0.00     0.059 A 
ATOM     68  C   UNL A   1      42.407  21.820  28.067  1.00  0.00     0.059 A 
ATOM     69  F   UNL A   1      43.561  23.246  29.529  1.00  0.00    -0.206 F 
ATOM     70  C   UNL A   1      41.876  21.578  26.801  1.00  0.00     0.060 A 
BRANCH  70  71
ATOM     71  S   UNL A   1      40.936  20.070  26.477  1.00  0.00     0.124 S 
ATOM     72  O   UNL A   1      41.794  19.395  25.508  1.00  0.00    -0.237 OA
ATOM     73  O   UNL A   1      40.867  19.454  27.799  1.00  0.00    -0.237 OA
ATOM     74  O   UNL A   1      39.668  20.569  25.954  1.00  0.00    -0.744 OA
ENDBRANCH  70  71
ENDBRANCH  49  63
BRANCH  50  75
ATOM     75  C   UNL A   1      47.592  32.720  29.348  1.00  0.00     0.058 A 
ATOM     76  C   UNL A   1      47.745  33.735  28.391  1.00  0.00     0.135 A 
ATOM     77  C   UNL A   1      48.084  32.960  30.640  1.00  0.00     0.135 A 
ATOM     78  F   UNL A   1      47.304  33.548  27.138  1.00  0.00    -0.206 F 
ATOM     79  C   UNL A   1      48.371  34.939  28.700  1.00  0.00     0.059 A 
ATOM     80  C   UNL A   1      48.694  34.164  30.980  1.00  0.00     0.059 A 
ATOM     81  F   UNL A   1      47.959  32.021  31.591  1.00  0.00    -0.206 F 
ATOM     82  C   UNL A   1      48.839  35.145  30.000  1.00  0.00     0.060 A 
BRANCH  82  83
ATOM     83  S   UNL A   1      49.601  36.733  30.405  1.00  0.00     0.124 S 
ATOM     84  O   UNL A   1      51.011  36.369  30.490  1.00  0.00    -0.237 OA
ATOM     85  O   UNL A   1      49.222  37.556  29.261  1.00  0.00    -0.237 OA
ATOM     86  O   UNL A   1      48.965  37.097  31.668  1.00  0.00    -0.744 OA
ENDBRANCH  82  83
ENDBRANCH  50  75
BRANCH  62  87
ATOM     87  C   UNL A   1      49.940  26.683  26.738  1.00  0.00     0.058 A 
ATOM     88  C   UNL A   1      50.876  26.125  27.621  1.00  0.00     0.135 A 
ATOM     89  C   UNL A   1      50.277  26.744  25.376  1.00  0.00     0.135 A 
ATOM     90  F   UNL A   1      50.604  26.046  28.933  1.00  0.00    -0.206 F 
ATOM     91  C   UNL A   1      52.109  25.658  27.173  1.00  0.00     0.059 A 
ATOM     92  C   UNL A   1      51.494  26.262  24.903  1.00  0.00     0.059 A 
ATOM     93  F   UNL A   1      49.412  27.257  24.487  1.00  0.00    -0.206 F 
ATOM     94  C   UNL A   1      52.408  25.730  25.812  1.00  0.00     0.060 A 
BRANCH  94  95
ATOM     95  S   UNL A   1      53.992  25.084  25.235  1.00  0.00     0.124 S 
ATOM     96  O   UNL A   1      54.792  25.135  26.454  1.00  0.00    -0.237 OA
ATOM     97  O   UNL A   1      53.636  23.749  24.766  1.00  0.00    -0.237 OA
ATOM     98  O   UNL A   1      54.382  26.025  24.188  1.00  0.00    -0.744 OA
ENDBRANCH  94  95
ENDBRANCH  62  87
ENDBRANCH  36  37
ENDBRANCH  29  31
ENDBRANCH  28  29
ENDBRANCH  27  28
ENDBRANCH  26  27
ENDBRANCH  25  26
ENDBRANCH   1  25
TORSDOF 22
ENDMDL
