MODEL 1
REMARK VINA RESULT:     -10.4      0.000      0.000
REMARK SMILES CCCc1c(C(=O)OCCOCCOCCOC(=O)c2ccc(-c3c4nc(c(-c5c(F)cc(S(=O)(=O)[O-])cc5F)c5ccc([nH]5)c(-c5c(F)cc(S(=O)(=O)[O-])cc5F)c5nc(c(-c6c(F)cc(S(=O)(=O)[O-])cc6F)c6ccc3[nH]6)C=C5)C=C4)cc2)nnn1-c1ccccc1[N+](=O)[O-]
REMARK SMILES IDX 13 1 12 2 11 3 10 4 9 5 8 6 6 7 7 8 5 9 4 10 88 11 86 12
REMARK SMILES IDX 87 13 3 14 2 15 1 16 89 17 90 18 94 19 91 20 93 21 92 22
REMARK SMILES IDX 95 23 96 24 97 25 14 26 15 27 16 28 17 29 18 30 19 31 20 32
REMARK SMILES IDX 21 33 85 34 22 35 84 36 23 37 24 38 25 39 78 40 26 41 83 42
REMARK SMILES IDX 77 43 79 44 27 45 82 46 76 47 75 48 28 50 62 51 41 52 61 53
REMARK SMILES IDX 42 54 45 55 60 56 80 57 43 58 44 59 59 61 81 62 46 63 29 64
REMARK SMILES IDX 30 65 39 66 31 67 32 68 38 69 40 70 33 71 34 72 35 73 36 74
REMARK SMILES IDX 37 75 63 76 64 77 73 78 65 79 66 80 72 81 74 82 67 83 68 84
REMARK SMILES IDX 69 85 70 86 71 87 47 88 48 89 57 90 49 91 50 92 56 93 58 94
REMARK SMILES IDX 51 95 52 96 53 97 54 98 55 99
REMARK H PARENT 79 49 45 60
REMARK Flexibility Score: inf
ROOT
ATOM      1  C   UNL A   1      39.351  21.539  26.385  1.00  0.00     0.188 C 
ENDROOT
BRANCH   1   2
ATOM      2  C   UNL A   1      38.497  22.662  25.762  1.00  0.00     0.188 C 
BRANCH   2   3
ATOM      3  O   UNL A   1      37.188  22.397  25.294  1.00  0.00    -0.376 OA
BRANCH   3   4
ATOM      4  C   UNL A   1      36.185  23.399  25.333  1.00  0.00     0.202 C 
BRANCH   4   5
ATOM      5  C   UNL A   1      35.356  23.820  24.102  1.00  0.00     0.261 C 
BRANCH   5   6
ATOM      6  O   UNL A   1      34.186  23.040  23.817  1.00  0.00    -0.458 OA
BRANCH   6   7
ATOM      7  C   UNL A   1      33.468  23.433  22.721  1.00  0.00     0.360 C 
ATOM      8  O   UNL A   1      33.110  22.675  21.838  1.00  0.00    -0.244 OA
BRANCH   7   9
ATOM      9  C   UNL A   1      33.042  24.831  22.775  1.00  0.00     0.194 A 
ATOM     10  C   UNL A   1      32.131  25.506  23.586  1.00  0.00     0.080 A 
ATOM     11  N   UNL A   1      32.307  26.824  23.197  1.00  0.00    -0.210 N 
ATOM     12  N   UNL A   1      33.515  25.707  21.821  1.00  0.00    -0.122 NA
ATOM     13  N   UNL A   1      32.969  26.891  22.030  1.00  0.00    -0.061 NA
BRANCH  10  14
ATOM     14  C   UNL A   1      31.113  25.047  24.584  1.00  0.00     0.059 C 
BRANCH  14  15
ATOM     15  C   UNL A   1      31.551  25.161  26.043  1.00  0.00     0.003 C 
ATOM     16  C   UNL A   1      32.416  23.994  26.503  1.00  0.00     0.004 C 
ENDBRANCH  14  15
ENDBRANCH  10  14
BRANCH  11  17
ATOM     17  C   UNL A   1      32.080  28.006  23.917  1.00  0.00     0.144 A 
ATOM     18  C   UNL A   1      33.049  28.408  24.845  1.00  0.00     0.036 A 
ATOM     19  C   UNL A   1      30.897  28.748  23.770  1.00  0.00     0.294 A 
ATOM     20  C   UNL A   1      32.865  29.591  25.567  1.00  0.00     0.003 A 
ATOM     21  C   UNL A   1      30.721  29.936  24.499  1.00  0.00     0.088 A 
ATOM     22  C   UNL A   1      31.712  30.358  25.385  1.00  0.00     0.007 A 
BRANCH  19  23
ATOM     23  N   UNL A   1      29.806  28.346  22.878  1.00  0.00     0.065 N 
ATOM     24  O   UNL A   1      29.834  28.792  21.721  1.00  0.00    -0.258 OA
ATOM     25  O   UNL A   1      28.919  27.612  23.321  1.00  0.00    -0.258 OA
ENDBRANCH  19  23
ENDBRANCH  11  17
ENDBRANCH   7   9
ENDBRANCH   6   7
ENDBRANCH   5   6
ENDBRANCH   4   5
ENDBRANCH   3   4
ENDBRANCH   2   3
ENDBRANCH   1   2
BRANCH   1  26
ATOM     26  O   UNL A   1      40.363  21.914  27.295  1.00  0.00    -0.376 OA
BRANCH  26  27
ATOM     27  C   UNL A   1      41.523  21.139  27.551  1.00  0.00     0.202 C 
BRANCH  27  28
ATOM     28  C   UNL A   1      42.151  20.120  26.602  1.00  0.00     0.261 C 
BRANCH  28  29
ATOM     29  O   UNL A   1      42.607  20.624  25.372  1.00  0.00    -0.460 OA
BRANCH  29  30
ATOM     30  C   UNL A   1      43.954  20.657  25.285  1.00  0.00     0.338 C 
ATOM     31  O   UNL A   1      44.711  19.706  25.278  1.00  0.00    -0.246 OA
BRANCH  30  32
ATOM     32  C   UNL A   1      44.375  22.057  25.293  1.00  0.00     0.060 A 
ATOM     33  C   UNL A   1      45.308  22.400  26.271  1.00  0.00     0.016 A 
ATOM     34  C   UNL A   1      43.546  22.996  24.663  1.00  0.00     0.016 A 
ATOM     35  C   UNL A   1      45.199  23.645  26.834  1.00  0.00     0.010 A 
ATOM     36  C   UNL A   1      43.417  24.225  25.248  1.00  0.00     0.010 A 
ATOM     37  C   UNL A   1      44.174  24.485  26.386  1.00  0.00    -0.014 A 
BRANCH  37  38
ATOM     38  C   UNL A   1      43.959  25.717  27.103  1.00  0.00     0.031 A 
ATOM     39  C   UNL A   1      45.058  26.669  26.870  1.00  0.00     0.074 A 
ATOM     40  C   UNL A   1      42.833  25.951  27.800  1.00  0.00     0.049 A 
ATOM     41  N   UNL A   1      46.001  26.995  27.688  1.00  0.00    -0.248 NA
ATOM     42  C   UNL A   1      45.277  27.121  25.486  1.00  0.00     0.031 C 
ATOM     43  C   UNL A   1      41.609  25.142  27.814  1.00  0.00     0.029 A 
ATOM     44  N   UNL A   1      42.503  27.024  28.567  1.00  0.00    -0.354 N 
ATOM     45  C   UNL A   1      46.762  27.924  26.991  1.00  0.00     0.074 A 
ATOM     46  C   UNL A   1      46.450  27.742  25.602  1.00  0.00     0.031 C 
ATOM     47  C   UNL A   1      40.606  25.865  28.363  1.00  0.00     0.029 A 
ATOM     48  C   UNL A   1      41.148  27.121  28.855  1.00  0.00     0.049 A 
ATOM     49  H   UNL A   1      43.167  27.675  28.890  1.00  0.00     0.167 HD
ATOM     50  C   UNL A   1      47.286  28.999  27.640  1.00  0.00     0.037 A 
ATOM     51  C   UNL A   1      40.522  28.190  29.406  1.00  0.00     0.037 A 
ATOM     52  C   UNL A   1      47.263  28.786  29.068  1.00  0.00     0.049 A 
ATOM     53  C   UNL A   1      41.557  29.001  30.095  1.00  0.00     0.074 A 
ATOM     54  C   UNL A   1      47.945  27.999  29.968  1.00  0.00     0.029 A 
ATOM     55  N   UNL A   1      46.111  29.211  29.683  1.00  0.00    -0.354 N 
ATOM     56  N   UNL A   1      42.209  28.589  31.148  1.00  0.00    -0.248 NA
ATOM     57  C   UNL A   1      42.154  30.140  29.403  1.00  0.00     0.031 C 
ATOM     58  C   UNL A   1      47.069  27.813  31.077  1.00  0.00     0.029 A 
ATOM     59  C   UNL A   1      45.887  28.514  30.840  1.00  0.00     0.049 A 
ATOM     60  H   UNL A   1      45.525  29.923  29.338  1.00  0.00     0.167 HD
ATOM     61  C   UNL A   1      43.478  29.121  31.002  1.00  0.00     0.074 A 
ATOM     62  C   UNL A   1      43.337  30.191  30.025  1.00  0.00     0.031 C 
ATOM     63  C   UNL A   1      44.571  28.434  31.440  1.00  0.00     0.037 A 
BRANCH  50  64
ATOM     64  C   UNL A   1      47.328  30.400  27.061  1.00  0.00     0.058 A 
ATOM     65  C   UNL A   1      48.542  31.115  27.129  1.00  0.00     0.135 A 
ATOM     66  C   UNL A   1      46.190  31.174  26.731  1.00  0.00     0.135 A 
ATOM     67  F   UNL A   1      49.690  30.485  27.423  1.00  0.00    -0.206 F 
ATOM     68  C   UNL A   1      48.604  32.501  26.976  1.00  0.00     0.059 A 
ATOM     69  C   UNL A   1      46.239  32.545  26.526  1.00  0.00     0.059 A 
ATOM     70  F   UNL A   1      44.953  30.672  26.686  1.00  0.00    -0.206 F 
ATOM     71  C   UNL A   1      47.439  33.209  26.695  1.00  0.00     0.060 A 
BRANCH  71  72
ATOM     72  S   UNL A   1      47.484  35.005  26.610  1.00  0.00     0.124 S 
ATOM     73  O   UNL A   1      48.245  35.218  25.385  1.00  0.00    -0.237 OA
ATOM     74  O   UNL A   1      46.065  35.339  26.552  1.00  0.00    -0.237 OA
ATOM     75  O   UNL A   1      48.160  35.381  27.848  1.00  0.00    -0.744 OA
ENDBRANCH  71  72
ENDBRANCH  50  64
BRANCH  51  76
ATOM     76  C   UNL A   1      39.148  28.695  29.165  1.00  0.00     0.058 A 
ATOM     77  C   UNL A   1      38.237  28.860  30.225  1.00  0.00     0.135 A 
ATOM     78  C   UNL A   1      38.795  29.297  27.941  1.00  0.00     0.135 A 
ATOM     79  F   UNL A   1      38.501  28.332  31.429  1.00  0.00    -0.206 F 
ATOM     80  C   UNL A   1      37.075  29.627  30.096  1.00  0.00     0.059 A 
ATOM     81  C   UNL A   1      37.637  30.058  27.786  1.00  0.00     0.059 A 
ATOM     82  F   UNL A   1      39.617  29.240  26.882  1.00  0.00    -0.206 F 
ATOM     83  C   UNL A   1      36.795  30.243  28.876  1.00  0.00     0.060 A 
BRANCH  83  84
ATOM     84  S   UNL A   1      35.397  31.385  28.760  1.00  0.00     0.124 S 
ATOM     85  O   UNL A   1      35.203  31.765  30.154  1.00  0.00    -0.237 OA
ATOM     86  O   UNL A   1      35.920  32.425  27.881  1.00  0.00    -0.237 OA
ATOM     87  O   UNL A   1      34.336  30.563  28.185  1.00  0.00    -0.744 OA
ENDBRANCH  83  84
ENDBRANCH  51  76
BRANCH  63  88
ATOM     88  C   UNL A   1      44.353  27.419  32.523  1.00  0.00     0.058 A 
ATOM     89  C   UNL A   1      44.200  26.038  32.312  1.00  0.00     0.135 A 
ATOM     90  C   UNL A   1      44.379  27.872  33.849  1.00  0.00     0.135 A 
ATOM     91  F   UNL A   1      44.247  25.521  31.076  1.00  0.00    -0.206 F 
ATOM     92  C   UNL A   1      44.041  25.152  33.378  1.00  0.00     0.059 A 
ATOM     93  C   UNL A   1      44.253  27.004  34.927  1.00  0.00     0.059 A 
ATOM     94  F   UNL A   1      44.571  29.176  34.112  1.00  0.00    -0.206 F 
ATOM     95  C   UNL A   1      44.069  25.645  34.684  1.00  0.00     0.060 A 
BRANCH  95  96
ATOM     96  S   UNL A   1      43.933  24.493  36.067  1.00  0.00     0.124 S 
ATOM     97  O   UNL A   1      45.325  24.333  36.472  1.00  0.00    -0.237 OA
ATOM     98  O   UNL A   1      43.078  25.218  37.002  1.00  0.00    -0.237 OA
ATOM     99  O   UNL A   1      43.318  23.310  35.467  1.00  0.00    -0.744 OA
ENDBRANCH  95  96
ENDBRANCH  63  88
ENDBRANCH  37  38
ENDBRANCH  30  32
ENDBRANCH  29  30
ENDBRANCH  28  29
ENDBRANCH  27  28
ENDBRANCH  26  27
ENDBRANCH   1  26
TORSDOF 24
ENDMDL
MODEL 2
REMARK VINA RESULT:     -10.1      1.551      2.058
REMARK SMILES CCCc1c(C(=O)OCCOCCOCCOC(=O)c2ccc(-c3c4nc(c(-c5c(F)cc(S(=O)(=O)[O-])cc5F)c5ccc([nH]5)c(-c5c(F)cc(S(=O)(=O)[O-])cc5F)c5nc(c(-c6c(F)cc(S(=O)(=O)[O-])cc6F)c6ccc3[nH]6)C=C5)C=C4)cc2)nnn1-c1ccccc1[N+](=O)[O-]
REMARK SMILES IDX 13 1 12 2 11 3 10 4 9 5 8 6 6 7 7 8 5 9 4 10 88 11 86 12
REMARK SMILES IDX 87 13 3 14 2 15 1 16 89 17 90 18 94 19 91 20 93 21 92 22
REMARK SMILES IDX 95 23 96 24 97 25 14 26 15 27 16 28 17 29 18 30 19 31 20 32
REMARK SMILES IDX 21 33 85 34 22 35 84 36 23 37 24 38 25 39 78 40 26 41 83 42
REMARK SMILES IDX 77 43 79 44 27 45 82 46 76 47 75 48 28 50 62 51 41 52 61 53
REMARK SMILES IDX 42 54 45 55 60 56 80 57 43 58 44 59 59 61 81 62 46 63 29 64
REMARK SMILES IDX 30 65 39 66 31 67 32 68 38 69 40 70 33 71 34 72 35 73 36 74
REMARK SMILES IDX 37 75 63 76 64 77 73 78 65 79 66 80 72 81 74 82 67 83 68 84
REMARK SMILES IDX 69 85 70 86 71 87 47 88 48 89 57 90 49 91 50 92 56 93 58 94
REMARK SMILES IDX 51 95 52 96 53 97 54 98 55 99
REMARK H PARENT 79 49 45 60
REMARK Flexibility Score: inf
ROOT
ATOM      1  C   UNL A   1      40.338  20.759  26.889  1.00  0.00     0.188 C 
ENDROOT
BRANCH   1   2
ATOM      2  C   UNL A   1      39.569  21.610  25.857  1.00  0.00     0.188 C 
BRANCH   2   3
ATOM      3  O   UNL A   1      38.154  21.648  25.863  1.00  0.00    -0.376 OA
BRANCH   3   4
ATOM      4  C   UNL A   1      37.450  22.616  25.105  1.00  0.00     0.202 C 
BRANCH   4   5
ATOM      5  C   UNL A   1      36.065  22.358  24.473  1.00  0.00     0.261 C 
BRANCH   5   6
ATOM      6  O   UNL A   1      35.023  21.932  25.362  1.00  0.00    -0.458 OA
BRANCH   6   7
ATOM      7  C   UNL A   1      33.974  21.283  24.770  1.00  0.00     0.360 C 
ATOM      8  O   UNL A   1      33.823  20.075  24.794  1.00  0.00    -0.244 OA
BRANCH   7   9
ATOM      9  C   UNL A   1      32.964  22.188  24.223  1.00  0.00     0.194 A 
ATOM     10  C   UNL A   1      32.356  23.335  24.729  1.00  0.00     0.080 A 
ATOM     11  N   UNL A   1      31.599  23.770  23.653  1.00  0.00    -0.210 N 
ATOM     12  N   UNL A   1      32.378  21.877  23.014  1.00  0.00    -0.122 NA
ATOM     13  N   UNL A   1      31.470  22.795  22.738  1.00  0.00    -0.061 NA
BRANCH  10  14
ATOM     14  C   UNL A   1      32.360  23.986  26.077  1.00  0.00     0.059 C 
BRANCH  14  15
ATOM     15  C   UNL A   1      32.963  25.390  26.109  1.00  0.00     0.003 C 
ATOM     16  C   UNL A   1      34.409  25.432  25.629  1.00  0.00     0.004 C 
ENDBRANCH  14  15
ENDBRANCH  10  14
BRANCH  11  17
ATOM     17  C   UNL A   1      31.161  25.063  23.332  1.00  0.00     0.144 A 
ATOM     18  C   UNL A   1      29.991  25.533  23.941  1.00  0.00     0.036 A 
ATOM     19  C   UNL A   1      31.829  25.858  22.385  1.00  0.00     0.294 A 
ATOM     20  C   UNL A   1      29.536  26.824  23.658  1.00  0.00     0.003 A 
ATOM     21  C   UNL A   1      31.364  27.154  22.108  1.00  0.00     0.088 A 
ATOM     22  C   UNL A   1      30.226  27.635  22.755  1.00  0.00     0.007 A 
BRANCH  19  23
ATOM     23  N   UNL A   1      33.012  25.402  21.650  1.00  0.00     0.065 N 
ATOM     24  O   UNL A   1      32.921  25.352  20.414  1.00  0.00    -0.258 OA
ATOM     25  O   UNL A   1      34.017  25.080  22.288  1.00  0.00    -0.258 OA
ENDBRANCH  19  23
ENDBRANCH  11  17
ENDBRANCH   7   9
ENDBRANCH   6   7
ENDBRANCH   5   6
ENDBRANCH   4   5
ENDBRANCH   3   4
ENDBRANCH   2   3
ENDBRANCH   1   2
BRANCH   1  26
ATOM     26  O   UNL A   1      41.579  21.250  27.348  1.00  0.00    -0.376 OA
BRANCH  26  27
ATOM     27  C   UNL A   1      42.828  20.647  27.046  1.00  0.00     0.202 C 
BRANCH  27  28
ATOM     28  C   UNL A   1      43.120  19.730  25.861  1.00  0.00     0.261 C 
BRANCH  28  29
ATOM     29  O   UNL A   1      43.502  20.368  24.668  1.00  0.00    -0.460 OA
BRANCH  29  30
ATOM     30  C   UNL A   1      44.841  20.470  24.532  1.00  0.00     0.338 C 
ATOM     31  O   UNL A   1      45.639  19.558  24.430  1.00  0.00    -0.246 OA
BRANCH  30  32
ATOM     32  C   UNL A   1      45.201  21.884  24.624  1.00  0.00     0.060 A 
ATOM     33  C   UNL A   1      46.131  22.207  25.611  1.00  0.00     0.016 A 
ATOM     34  C   UNL A   1      44.323  22.822  24.063  1.00  0.00     0.016 A 
ATOM     35  C   UNL A   1      45.976  23.408  26.252  1.00  0.00     0.010 A 
ATOM     36  C   UNL A   1      44.148  24.005  24.725  1.00  0.00     0.010 A 
ATOM     37  C   UNL A   1      44.909  24.228  25.869  1.00  0.00    -0.014 A 
BRANCH  37  38
ATOM     38  C   UNL A   1      44.651  25.402  26.664  1.00  0.00     0.031 A 
ATOM     39  C   UNL A   1      45.735  26.389  26.528  1.00  0.00     0.074 A 
ATOM     40  C   UNL A   1      43.503  25.565  27.345  1.00  0.00     0.049 A 
ATOM     41  N   UNL A   1      46.650  26.674  27.391  1.00  0.00    -0.248 NA
ATOM     42  C   UNL A   1      45.979  26.941  25.184  1.00  0.00     0.031 C 
ATOM     43  C   UNL A   1      42.296  24.734  27.271  1.00  0.00     0.029 A 
ATOM     44  N   UNL A   1      43.131  26.574  28.176  1.00  0.00    -0.354 N 
ATOM     45  C   UNL A   1      47.409  27.664  26.781  1.00  0.00     0.074 A 
ATOM     46  C   UNL A   1      47.136  27.575  25.375  1.00  0.00     0.031 C 
ATOM     47  C   UNL A   1      41.265  25.397  27.842  1.00  0.00     0.029 A 
ATOM     48  C   UNL A   1      41.767  26.625  28.434  1.00  0.00     0.049 A 
ATOM     49  H   UNL A   1      43.773  27.215  28.561  1.00  0.00     0.167 HD
ATOM     50  C   UNL A   1      47.893  28.700  27.518  1.00  0.00     0.037 A 
ATOM     51  C   UNL A   1      41.105  27.641  29.041  1.00  0.00     0.037 A 
ATOM     52  C   UNL A   1      47.839  28.388  28.926  1.00  0.00     0.049 A 
ATOM     53  C   UNL A   1      42.105  28.421  29.813  1.00  0.00     0.074 A 
ATOM     54  C   UNL A   1      48.514  27.552  29.787  1.00  0.00     0.029 A 
ATOM     55  N   UNL A   1      46.663  28.747  29.538  1.00  0.00    -0.354 N 
ATOM     56  N   UNL A   1      42.740  27.949  30.852  1.00  0.00    -0.248 NA
ATOM     57  C   UNL A   1      42.696  29.617  29.219  1.00  0.00     0.031 C 
ATOM     58  C   UNL A   1      47.615  27.273  30.857  1.00  0.00     0.029 A 
ATOM     59  C   UNL A   1      46.425  27.966  30.637  1.00  0.00     0.049 A 
ATOM     60  H   UNL A   1      46.071  29.469  29.228  1.00  0.00     0.167 HD
ATOM     61  C   UNL A   1      44.000  28.514  30.777  1.00  0.00     0.074 A 
ATOM     62  C   UNL A   1      43.862  29.647  29.873  1.00  0.00     0.031 C 
ATOM     63  C   UNL A   1      45.096  27.819  31.195  1.00  0.00     0.037 A 
BRANCH  50  64
ATOM     64  C   UNL A   1      47.921  30.139  27.038  1.00  0.00     0.058 A 
ATOM     65  C   UNL A   1      49.121  30.867  27.177  1.00  0.00     0.135 A 
ATOM     66  C   UNL A   1      46.776  30.917  26.744  1.00  0.00     0.135 A 
ATOM     67  F   UNL A   1      50.276  30.236  27.446  1.00  0.00    -0.206 F 
ATOM     68  C   UNL A   1      49.162  32.262  27.124  1.00  0.00     0.059 A 
ATOM     69  C   UNL A   1      46.804  32.300  26.636  1.00  0.00     0.059 A 
ATOM     70  F   UNL A   1      45.548  30.400  26.644  1.00  0.00    -0.206 F 
ATOM     71  C   UNL A   1      47.990  32.969  26.873  1.00  0.00     0.060 A 
BRANCH  71  72
ATOM     72  S   UNL A   1      48.006  34.767  26.915  1.00  0.00     0.124 S 
ATOM     73  O   UNL A   1      46.893  35.044  27.816  1.00  0.00    -0.237 OA
ATOM     74  O   UNL A   1      49.339  35.044  27.437  1.00  0.00    -0.237 OA
ATOM     75  O   UNL A   1      47.796  35.136  25.518  1.00  0.00    -0.744 OA
ENDBRANCH  71  72
ENDBRANCH  50  64
BRANCH  51  76
ATOM     76  C   UNL A   1      39.727  28.135  28.800  1.00  0.00     0.058 A 
ATOM     77  C   UNL A   1      38.737  28.043  29.794  1.00  0.00     0.135 A 
ATOM     78  C   UNL A   1      39.432  28.967  27.702  1.00  0.00     0.135 A 
ATOM     79  F   UNL A   1      38.941  27.285  30.882  1.00  0.00    -0.206 F 
ATOM     80  C   UNL A   1      37.548  28.777  29.733  1.00  0.00     0.059 A 
ATOM     81  C   UNL A   1      38.251  29.701  27.614  1.00  0.00     0.059 A 
ATOM     82  F   UNL A   1      40.329  29.162  26.723  1.00  0.00    -0.206 F 
ATOM     83  C   UNL A   1      37.324  29.624  28.647  1.00  0.00     0.060 A 
BRANCH  83  84
ATOM     84  S   UNL A   1      35.881  30.714  28.657  1.00  0.00     0.124 S 
ATOM     85  O   UNL A   1      34.809  29.797  28.285  1.00  0.00    -0.237 OA
ATOM     86  O   UNL A   1      35.864  31.191  30.035  1.00  0.00    -0.237 OA
ATOM     87  O   UNL A   1      36.213  31.724  27.655  1.00  0.00    -0.744 OA
ENDBRANCH  83  84
ENDBRANCH  51  76
BRANCH  63  88
ATOM     88  C   UNL A   1      44.872  26.726  32.198  1.00  0.00     0.058 A 
ATOM     89  C   UNL A   1      44.655  25.375  31.880  1.00  0.00     0.135 A 
ATOM     90  C   UNL A   1      44.960  27.065  33.556  1.00  0.00     0.135 A 
ATOM     91  F   UNL A   1      44.640  24.961  30.605  1.00  0.00    -0.206 F 
ATOM     92  C   UNL A   1      44.495  24.409  32.875  1.00  0.00     0.059 A 
ATOM     93  C   UNL A   1      44.834  26.116  34.562  1.00  0.00     0.059 A 
ATOM     94  F   UNL A   1      45.214  28.335  33.917  1.00  0.00    -0.206 F 
ATOM     95  C   UNL A   1      44.586  24.790  34.215  1.00  0.00     0.060 A 
BRANCH  95  96
ATOM     96  S   UNL A   1      44.448  23.533  35.503  1.00  0.00     0.124 S 
ATOM     97  O   UNL A   1      43.049  23.655  35.902  1.00  0.00    -0.237 OA
ATOM     98  O   UNL A   1      44.801  22.308  34.792  1.00  0.00    -0.237 OA
ATOM     99  O   UNL A   1      45.422  23.962  36.505  1.00  0.00    -0.744 OA
ENDBRANCH  95  96
ENDBRANCH  63  88
ENDBRANCH  37  38
ENDBRANCH  30  32
ENDBRANCH  29  30
ENDBRANCH  28  29
ENDBRANCH  27  28
ENDBRANCH  26  27
ENDBRANCH   1  26
TORSDOF 24
ENDMDL
MODEL 3
REMARK VINA RESULT:     -10.0      2.654      7.452
REMARK SMILES CCCc1c(C(=O)OCCOCCOCCOC(=O)c2ccc(-c3c4nc(c(-c5c(F)cc(S(=O)(=O)[O-])cc5F)c5ccc([nH]5)c(-c5c(F)cc(S(=O)(=O)[O-])cc5F)c5nc(c(-c6c(F)cc(S(=O)(=O)[O-])cc6F)c6ccc3[nH]6)C=C5)C=C4)cc2)nnn1-c1ccccc1[N+](=O)[O-]
REMARK SMILES IDX 13 1 12 2 11 3 10 4 9 5 8 6 6 7 7 8 5 9 4 10 88 11 86 12
REMARK SMILES IDX 87 13 3 14 2 15 1 16 89 17 90 18 94 19 91 20 93 21 92 22
REMARK SMILES IDX 95 23 96 24 97 25 14 26 15 27 16 28 17 29 18 30 19 31 20 32
REMARK SMILES IDX 21 33 85 34 22 35 84 36 23 37 24 38 25 39 78 40 26 41 83 42
REMARK SMILES IDX 77 43 79 44 27 45 82 46 76 47 75 48 28 50 62 51 41 52 61 53
REMARK SMILES IDX 42 54 45 55 60 56 80 57 43 58 44 59 59 61 81 62 46 63 29 64
REMARK SMILES IDX 30 65 39 66 31 67 32 68 38 69 40 70 33 71 34 72 35 73 36 74
REMARK SMILES IDX 37 75 63 76 64 77 73 78 65 79 66 80 72 81 74 82 67 83 68 84
REMARK SMILES IDX 69 85 70 86 71 87 47 88 48 89 57 90 49 91 50 92 56 93 58 94
REMARK SMILES IDX 51 95 52 96 53 97 54 98 55 99
REMARK H PARENT 79 49 45 60
REMARK Flexibility Score: inf
ROOT
ATOM      1  C   UNL A   1      35.610  20.307  24.988  1.00  0.00     0.188 C 
ENDROOT
BRANCH   1   2
ATOM      2  C   UNL A   1      34.103  19.985  24.905  1.00  0.00     0.188 C 
BRANCH   2   3
ATOM      3  O   UNL A   1      33.197  20.528  25.848  1.00  0.00    -0.376 OA
BRANCH   3   4
ATOM      4  C   UNL A   1      33.661  21.310  26.936  1.00  0.00     0.202 C 
BRANCH   4   5
ATOM      5  C   UNL A   1      33.356  22.814  27.092  1.00  0.00     0.261 C 
BRANCH   5   6
ATOM      6  O   UNL A   1      32.037  23.159  27.539  1.00  0.00    -0.458 OA
BRANCH   6   7
ATOM      7  C   UNL A   1      31.105  23.327  26.551  1.00  0.00     0.360 C 
ATOM      8  O   UNL A   1      30.287  22.482  26.240  1.00  0.00    -0.244 OA
BRANCH   7   9
ATOM      9  C   UNL A   1      31.087  24.679  25.993  1.00  0.00     0.194 A 
ATOM     10  C   UNL A   1      31.163  25.159  24.687  1.00  0.00     0.080 A 
ATOM     11  N   UNL A   1      30.957  26.519  24.857  1.00  0.00    -0.210 N 
ATOM     12  N   UNL A   1      31.084  25.754  26.857  1.00  0.00    -0.122 NA
ATOM     13  N   UNL A   1      31.117  26.866  26.145  1.00  0.00    -0.061 NA
BRANCH  10  14
ATOM     14  C   UNL A   1      31.468  24.509  23.373  1.00  0.00     0.059 C 
BRANCH  14  15
ATOM     15  C   UNL A   1      32.914  24.040  23.211  1.00  0.00     0.003 C 
ATOM     16  C   UNL A   1      33.081  22.975  22.134  1.00  0.00     0.004 C 
ENDBRANCH  14  15
ENDBRANCH  10  14
BRANCH  11  17
ATOM     17  C   UNL A   1      30.441  27.464  23.959  1.00  0.00     0.144 A 
ATOM     18  C   UNL A   1      29.055  27.491  23.754  1.00  0.00     0.036 A 
ATOM     19  C   UNL A   1      31.276  28.329  23.232  1.00  0.00     0.294 A 
ATOM     20  C   UNL A   1      28.505  28.432  22.881  1.00  0.00     0.003 A 
ATOM     21  C   UNL A   1      30.713  29.272  22.357  1.00  0.00     0.088 A 
ATOM     22  C   UNL A   1      29.328  29.327  22.194  1.00  0.00     0.007 A 
BRANCH  19  23
ATOM     23  N   UNL A   1      32.737  28.305  23.335  1.00  0.00     0.065 N 
ATOM     24  O   UNL A   1      33.342  27.541  22.568  1.00  0.00    -0.258 OA
ATOM     25  O   UNL A   1      33.283  29.020  24.179  1.00  0.00    -0.258 OA
ENDBRANCH  19  23
ENDBRANCH  11  17
ENDBRANCH   7   9
ENDBRANCH   6   7
ENDBRANCH   5   6
ENDBRANCH   4   5
ENDBRANCH   3   4
ENDBRANCH   2   3
ENDBRANCH   1   2
BRANCH   1  26
ATOM     26  O   UNL A   1      36.025  21.601  24.608  1.00  0.00    -0.376 OA
BRANCH  26  27
ATOM     27  C   UNL A   1      37.073  22.315  25.245  1.00  0.00     0.202 C 
BRANCH  27  28
ATOM     28  C   UNL A   1      38.300  21.701  25.916  1.00  0.00     0.261 C 
BRANCH  28  29
ATOM     29  O   UNL A   1      39.234  21.099  25.056  1.00  0.00    -0.460 OA
BRANCH  29  30
ATOM     30  C   UNL A   1      39.997  20.172  25.675  1.00  0.00     0.338 C 
ATOM     31  O   UNL A   1      39.802  18.973  25.720  1.00  0.00    -0.246 OA
BRANCH  30  32
ATOM     32  C   UNL A   1      41.073  20.867  26.380  1.00  0.00     0.060 A 
ATOM     33  C   UNL A   1      41.023  20.801  27.771  1.00  0.00     0.016 A 
ATOM     34  C   UNL A   1      41.778  21.860  25.686  1.00  0.00     0.016 A 
ATOM     35  C   UNL A   1      41.433  21.908  28.468  1.00  0.00     0.010 A 
ATOM     36  C   UNL A   1      42.155  22.977  26.379  1.00  0.00     0.010 A 
ATOM     37  C   UNL A   1      41.880  23.018  27.743  1.00  0.00    -0.014 A 
BRANCH  37  38
ATOM     38  C   UNL A   1      42.141  24.232  28.474  1.00  0.00     0.031 A 
ATOM     39  C   UNL A   1      41.098  25.240  28.224  1.00  0.00     0.074 A 
ATOM     40  C   UNL A   1      43.167  24.340  29.336  1.00  0.00     0.049 A 
ATOM     41  N   UNL A   1      41.191  26.303  27.499  1.00  0.00    -0.248 NA
ATOM     42  C   UNL A   1      39.721  24.900  28.622  1.00  0.00     0.031 C 
ATOM     43  C   UNL A   1      44.046  23.267  29.816  1.00  0.00     0.029 A 
ATOM     44  N   UNL A   1      43.579  25.419  30.053  1.00  0.00    -0.354 N 
ATOM     45  C   UNL A   1      39.944  26.906  27.601  1.00  0.00     0.074 A 
ATOM     46  C   UNL A   1      39.036  25.886  28.044  1.00  0.00     0.031 C 
ATOM     47  C   UNL A   1      44.726  23.702  30.900  1.00  0.00     0.029 A 
ATOM     48  C   UNL A   1      44.433  25.110  31.104  1.00  0.00     0.049 A 
ATOM     49  H   UNL A   1      43.296  26.339  29.845  1.00  0.00     0.167 HD
ATOM     50  C   UNL A   1      39.849  28.261  27.679  1.00  0.00     0.037 A 
ATOM     51  C   UNL A   1      44.814  25.951  32.098  1.00  0.00     0.037 A 
ATOM     52  C   UNL A   1      41.083  28.879  27.259  1.00  0.00     0.049 A 
ATOM     53  C   UNL A   1      44.594  27.337  31.613  1.00  0.00     0.074 A 
ATOM     54  C   UNL A   1      41.749  29.064  26.067  1.00  0.00     0.029 A 
ATOM     55  N   UNL A   1      41.990  29.072  28.272  1.00  0.00    -0.354 N 
ATOM     56  N   UNL A   1      45.268  27.871  30.631  1.00  0.00    -0.248 NA
ATOM     57  C   UNL A   1      43.359  28.032  31.965  1.00  0.00     0.031 C 
ATOM     58  C   UNL A   1      43.130  29.189  26.399  1.00  0.00     0.029 A 
ATOM     59  C   UNL A   1      43.269  29.106  27.784  1.00  0.00     0.049 A 
ATOM     60  H   UNL A   1      41.753  29.174  29.221  1.00  0.00     0.167 HD
ATOM     61  C   UNL A   1      44.357  28.685  29.984  1.00  0.00     0.074 A 
ATOM     62  C   UNL A   1      43.271  28.880  30.935  1.00  0.00     0.031 C 
ATOM     63  C   UNL A   1      44.416  28.854  28.632  1.00  0.00     0.037 A 
BRANCH  50  64
ATOM     64  C   UNL A   1      38.883  28.990  28.593  1.00  0.00     0.058 A 
ATOM     65  C   UNL A   1      38.039  29.970  28.029  1.00  0.00     0.135 A 
ATOM     66  C   UNL A   1      38.956  29.000  30.006  1.00  0.00     0.135 A 
ATOM     67  F   UNL A   1      37.881  30.052  26.698  1.00  0.00    -0.206 F 
ATOM     68  C   UNL A   1      37.397  30.940  28.801  1.00  0.00     0.059 A 
ATOM     69  C   UNL A   1      38.286  29.924  30.795  1.00  0.00     0.059 A 
ATOM     70  F   UNL A   1      39.754  28.185  30.702  1.00  0.00    -0.206 F 
ATOM     71  C   UNL A   1      37.546  30.918  30.184  1.00  0.00     0.060 A 
BRANCH  71  72
ATOM     72  S   UNL A   1      36.820  32.228  31.181  1.00  0.00     0.124 S 
ATOM     73  O   UNL A   1      35.742  32.688  30.314  1.00  0.00    -0.237 OA
ATOM     74  O   UNL A   1      36.416  31.504  32.381  1.00  0.00    -0.237 OA
ATOM     75  O   UNL A   1      37.927  33.162  31.363  1.00  0.00    -0.744 OA
ENDBRANCH  71  72
ENDBRANCH  50  64
BRANCH  51  76
ATOM     76  C   UNL A   1      45.112  25.645  33.518  1.00  0.00     0.058 A 
ATOM     77  C   UNL A   1      46.422  25.732  34.023  1.00  0.00     0.135 A 
ATOM     78  C   UNL A   1      44.082  25.545  34.475  1.00  0.00     0.135 A 
ATOM     79  F   UNL A   1      47.462  25.845  33.183  1.00  0.00    -0.206 F 
ATOM     80  C   UNL A   1      46.692  25.776  35.394  1.00  0.00     0.059 A 
ATOM     81  C   UNL A   1      44.326  25.577  35.847  1.00  0.00     0.059 A 
ATOM     82  F   UNL A   1      42.794  25.506  34.100  1.00  0.00    -0.206 F 
ATOM     83  C   UNL A   1      45.632  25.722  36.300  1.00  0.00     0.060 A 
BRANCH  83  84
ATOM     84  S   UNL A   1      45.960  25.968  38.062  1.00  0.00     0.124 S 
ATOM     85  O   UNL A   1      45.891  27.420  38.180  1.00  0.00    -0.237 OA
ATOM     86  O   UNL A   1      44.871  25.225  38.685  1.00  0.00    -0.237 OA
ATOM     87  O   UNL A   1      47.288  25.390  38.243  1.00  0.00    -0.744 OA
ENDBRANCH  83  84
ENDBRANCH  51  76
BRANCH  63  88
ATOM     88  C   UNL A   1      45.741  28.615  27.971  1.00  0.00     0.058 A 
ATOM     89  C   UNL A   1      46.189  27.372  27.492  1.00  0.00     0.135 A 
ATOM     90  C   UNL A   1      46.563  29.728  27.744  1.00  0.00     0.135 A 
ATOM     91  F   UNL A   1      45.422  26.276  27.598  1.00  0.00    -0.206 F 
ATOM     92  C   UNL A   1      47.421  27.239  26.851  1.00  0.00     0.059 A 
ATOM     93  C   UNL A   1      47.779  29.625  27.081  1.00  0.00     0.059 A 
ATOM     94  F   UNL A   1      46.162  30.950  28.137  1.00  0.00    -0.206 F 
ATOM     95  C   UNL A   1      48.210  28.373  26.648  1.00  0.00     0.060 A 
BRANCH  95  96
ATOM     96  S   UNL A   1      49.772  28.216  25.758  1.00  0.00     0.124 S 
ATOM     97  O   UNL A   1      49.323  27.998  24.387  1.00  0.00    -0.237 OA
ATOM     98  O   UNL A   1      50.417  29.499  26.019  1.00  0.00    -0.237 OA
ATOM     99  O   UNL A   1      50.414  27.067  26.394  1.00  0.00    -0.744 OA
ENDBRANCH  95  96
ENDBRANCH  63  88
ENDBRANCH  37  38
ENDBRANCH  30  32
ENDBRANCH  29  30
ENDBRANCH  28  29
ENDBRANCH  27  28
ENDBRANCH  26  27
ENDBRANCH   1  26
TORSDOF 24
ENDMDL
