MODEL 1
REMARK VINA RESULT:     -10.1      0.000      0.000
REMARK SMILES C[N@H+]1CCO[C@@H](CNS(=O)(=O)N2CCC(C(=O)OCCOCCOCCOC(=O)c3ccc(-c4c5nc(c(-c6c(F)cc(S(=O)(=O)[O-])cc6F)c6ccc([nH]6)c(-c6c(F)cc(S(=O)(=O)[O-])cc6F)c6nc(c(-c7c(F)cc(S(=O)(=O)[O-])cc7F)c7ccc4[nH]7)C=C6)C=C5)cc3)CC2)C1
REMARK SMILES IDX 22 1 21 2 20 3 19 4 18 5 16 6 17 7 15 8 12 9 13 10 97 11
REMARK SMILES IDX 14 12 96 13 9 14 10 15 11 16 8 17 7 19 6 20 1 21 2 22 3 23
REMARK SMILES IDX 98 24 4 26 5 27 23 28 24 29 25 30 26 31 27 32 28 33 29 34
REMARK SMILES IDX 30 35 31 36 95 37 32 38 94 39 33 40 34 41 35 42 88 43 36 44
REMARK SMILES IDX 93 45 87 46 89 47 37 48 92 49 86 50 85 51 38 53 72 54 51 55
REMARK SMILES IDX 71 56 52 57 55 58 70 59 90 60 53 61 54 62 69 64 91 65 56 66
REMARK SMILES IDX 39 67 40 68 49 69 41 70 42 71 48 72 50 73 43 74 44 75 45 76
REMARK SMILES IDX 46 77 47 78 73 79 74 80 83 81 75 82 76 83 82 84 84 85 77 86
REMARK SMILES IDX 78 87 79 88 80 89 81 90 57 91 58 92 67 93 59 94 60 95 66 96
REMARK SMILES IDX 68 97 61 98 62 99 63 100 64 101 65 102
REMARK H PARENT 8 18 2 25 89 52 55 63
REMARK Flexibility Score: inf
ROOT
ATOM      1  C   UNL A   1      40.001  22.573  26.892  1.00  0.00     0.188 C 
ENDROOT
BRANCH   1   2
ATOM      2  O   UNL A   1      39.164  21.664  26.194  1.00  0.00    -0.376 OA
BRANCH   2   3
ATOM      3  C   UNL A   1      37.858  22.095  25.836  1.00  0.00     0.202 C 
BRANCH   3   4
ATOM      4  C   UNL A   1      36.894  21.074  25.210  1.00  0.00     0.261 C 
BRANCH   4   5
ATOM      5  O   UNL A   1      35.517  21.144  25.648  1.00  0.00    -0.463 OA
BRANCH   5   6
ATOM      6  C   UNL A   1      34.636  20.401  24.929  1.00  0.00     0.309 C 
ATOM      7  O   UNL A   1      34.816  19.225  24.625  1.00  0.00    -0.252 OA
BRANCH   6   8
ATOM      8  C   UNL A   1      33.377  21.139  24.473  1.00  0.00     0.102 C 
ATOM      9  N   UNL A   1      31.661  23.415  25.075  1.00  0.00    -0.189 NA
ATOM     10  C   UNL A   1      32.635  23.500  23.971  1.00  0.00     0.104 C 
ATOM     11  C   UNL A   1      31.047  22.075  25.132  1.00  0.00     0.104 C 
ATOM     12  C   UNL A   1      33.811  22.594  24.262  1.00  0.00     0.032 C 
ATOM     13  C   UNL A   1      32.102  20.984  25.320  1.00  0.00     0.032 C 
BRANCH   9  14
ATOM     14  S   UNL A   1      32.107  24.114  26.534  1.00  0.00     0.279 S 
ATOM     15  O   UNL A   1      33.485  24.528  26.476  1.00  0.00    -0.195 OA
ATOM     16  O   UNL A   1      31.608  23.335  27.641  1.00  0.00    -0.195 OA
BRANCH  14  17
ATOM     17  N   UNL A   1      31.169  25.504  26.470  1.00  0.00    -0.199 NA
ATOM     18  H   UNL A   1      30.393  25.334  25.831  1.00  0.00     0.142 HD
BRANCH  17  19
ATOM     19  C   UNL A   1      31.886  26.719  26.010  1.00  0.00     0.138 C 
BRANCH  19  20
ATOM     20  C   UNL A   1      31.369  27.238  24.657  1.00  0.00     0.188 C 
ATOM     21  C   UNL A   1      33.118  29.805  25.639  1.00  0.00     0.332 C 
ATOM     22  N   UNL A   1      32.383  29.591  24.396  1.00  0.00    -0.333 N 
ATOM     23  C   UNL A   1      33.227  29.003  23.340  1.00  0.00     0.290 C 
ATOM     24  C   UNL A   1      31.171  28.769  24.549  1.00  0.00     0.295 C 
ATOM     25  H   UNL A   1      32.089  30.528  24.119  1.00  0.00     0.348 HD
ATOM     26  C   UNL A   1      33.445  27.487  23.481  1.00  0.00     0.222 C 
ATOM     27  O   UNL A   1      32.205  26.770  23.576  1.00  0.00    -0.365 OA
ENDBRANCH  19  20
ENDBRANCH  17  19
ENDBRANCH  14  17
ENDBRANCH   9  14
ENDBRANCH   6   8
ENDBRANCH   5   6
ENDBRANCH   4   5
ENDBRANCH   3   4
ENDBRANCH   2   3
ENDBRANCH   1   2
BRANCH   1  28
ATOM     28  C   UNL A   1      41.234  22.028  27.626  1.00  0.00     0.188 C 
BRANCH  28  29
ATOM     29  O   UNL A   1      42.449  22.679  27.328  1.00  0.00    -0.376 OA
BRANCH  29  30
ATOM     30  C   UNL A   1      42.982  22.468  26.030  1.00  0.00     0.202 C 
BRANCH  30  31
ATOM     31  C   UNL A   1      43.050  23.745  25.173  1.00  0.00     0.261 C 
BRANCH  31  32
ATOM     32  O   UNL A   1      43.197  24.995  25.884  1.00  0.00    -0.460 OA
BRANCH  32  33
ATOM     33  C   UNL A   1      42.125  25.828  25.912  1.00  0.00     0.338 C 
ATOM     34  O   UNL A   1      41.229  25.871  25.085  1.00  0.00    -0.246 OA
BRANCH  33  35
ATOM     35  C   UNL A   1      42.052  26.462  27.264  1.00  0.00     0.060 A 
ATOM     36  C   UNL A   1      40.990  26.106  28.114  1.00  0.00     0.016 A 
ATOM     37  C   UNL A   1      43.033  27.343  27.720  1.00  0.00     0.016 A 
ATOM     38  C   UNL A   1      40.878  26.673  29.391  1.00  0.00     0.010 A 
ATOM     39  C   UNL A   1      42.909  27.925  28.991  1.00  0.00     0.010 A 
ATOM     40  C   UNL A   1      41.809  27.626  29.820  1.00  0.00    -0.014 A 
BRANCH  40  41
ATOM     41  C   UNL A   1      41.524  28.470  31.017  1.00  0.00     0.031 A 
ATOM     42  C   UNL A   1      40.375  29.447  30.937  1.00  0.00     0.074 A 
ATOM     43  C   UNL A   1      42.239  28.384  32.156  1.00  0.00     0.049 A 
ATOM     44  N   UNL A   1      39.971  30.333  31.810  1.00  0.00    -0.248 NA
ATOM     45  C   UNL A   1      39.580  29.417  29.699  1.00  0.00     0.031 C 
ATOM     46  C   UNL A   1      43.346  27.461  32.395  1.00  0.00     0.029 A 
ATOM     47  N   UNL A   1      42.142  29.101  33.327  1.00  0.00    -0.354 N 
ATOM     48  C   UNL A   1      38.886  30.978  31.221  1.00  0.00     0.074 A 
ATOM     49  C   UNL A   1      38.715  30.399  29.907  1.00  0.00     0.031 C 
ATOM     50  C   UNL A   1      43.838  27.681  33.628  1.00  0.00     0.029 A 
ATOM     51  C   UNL A   1      43.105  28.782  34.256  1.00  0.00     0.049 A 
ATOM     52  H   UNL A   1      41.446  29.780  33.484  1.00  0.00     0.167 HD
ATOM     53  C   UNL A   1      38.099  31.957  31.727  1.00  0.00     0.037 A 
ATOM     54  C   UNL A   1      43.381  29.328  35.459  1.00  0.00     0.037 A 
ATOM     55  C   UNL A   1      38.264  32.536  33.035  1.00  0.00     0.049 A 
ATOM     56  C   UNL A   1      42.532  30.465  35.979  1.00  0.00     0.074 A 
ATOM     57  C   UNL A   1      37.499  33.517  33.642  1.00  0.00     0.029 A 
ATOM     58  N   UNL A   1      39.265  32.198  33.934  1.00  0.00    -0.354 N 
ATOM     59  N   UNL A   1      41.496  31.047  35.422  1.00  0.00    -0.248 NA
ATOM     60  C   UNL A   1      42.887  31.018  37.296  1.00  0.00     0.031 C 
ATOM     61  C   UNL A   1      38.073  33.816  34.882  1.00  0.00     0.029 A 
ATOM     62  C   UNL A   1      39.153  32.972  35.079  1.00  0.00     0.049 A 
ATOM     63  H   UNL A   1      39.952  31.510  33.782  1.00  0.00     0.167 HD
ATOM     64  C   UNL A   1      41.059  32.007  36.332  1.00  0.00     0.074 A 
ATOM     65  C   UNL A   1      41.934  31.921  37.481  1.00  0.00     0.031 C 
ATOM     66  C   UNL A   1      40.022  32.877  36.226  1.00  0.00     0.037 A 
BRANCH  53  67
ATOM     67  C   UNL A   1      37.001  32.493  30.848  1.00  0.00     0.058 A 
ATOM     68  C   UNL A   1      37.191  33.609  30.018  1.00  0.00     0.135 A 
ATOM     69  C   UNL A   1      35.749  31.856  30.810  1.00  0.00     0.135 A 
ATOM     70  F   UNL A   1      38.359  34.270  30.028  1.00  0.00    -0.206 F 
ATOM     71  C   UNL A   1      36.171  34.091  29.202  1.00  0.00     0.059 A 
ATOM     72  C   UNL A   1      34.726  32.300  29.978  1.00  0.00     0.059 A 
ATOM     73  F   UNL A   1      35.511  30.787  31.586  1.00  0.00    -0.206 F 
ATOM     74  C   UNL A   1      34.943  33.427  29.187  1.00  0.00     0.060 A 
BRANCH  74  75
ATOM     75  S   UNL A   1      33.635  34.059  28.116  1.00  0.00     0.124 S 
ATOM     76  O   UNL A   1      33.055  32.820  27.603  1.00  0.00    -0.237 OA
ATOM     77  O   UNL A   1      32.803  34.808  29.051  1.00  0.00    -0.237 OA
ATOM     78  O   UNL A   1      34.355  34.865  27.137  1.00  0.00    -0.744 OA
ENDBRANCH  74  75
ENDBRANCH  53  67
BRANCH  54  79
ATOM     79  C   UNL A   1      44.529  28.823  36.265  1.00  0.00     0.058 A 
ATOM     80  C   UNL A   1      45.801  29.409  36.172  1.00  0.00     0.135 A 
ATOM     81  C   UNL A   1      44.382  27.728  37.133  1.00  0.00     0.135 A 
ATOM     82  F   UNL A   1      46.003  30.443  35.341  1.00  0.00    -0.206 F 
ATOM     83  C   UNL A   1      46.885  28.925  36.900  1.00  0.00     0.059 A 
ATOM     84  C   UNL A   1      45.442  27.247  37.895  1.00  0.00     0.059 A 
ATOM     85  F   UNL A   1      43.187  27.129  37.262  1.00  0.00    -0.206 F 
ATOM     86  C   UNL A   1      46.693  27.847  37.765  1.00  0.00     0.060 A 
BRANCH  86  87
ATOM     87  S   UNL A   1      48.093  27.268  38.748  1.00  0.00     0.124 S 
ATOM     88  O   UNL A   1      49.213  27.920  38.080  1.00  0.00    -0.237 OA
ATOM     89  O   UNL A   1      47.761  27.772  40.077  1.00  0.00    -0.237 OA
ATOM     90  O   UNL A   1      48.029  25.816  38.602  1.00  0.00    -0.744 OA
ENDBRANCH  86  87
ENDBRANCH  54  79
BRANCH  66  91
ATOM     91  C   UNL A   1      39.735  33.779  37.400  1.00  0.00     0.058 A 
ATOM     92  C   UNL A   1      38.897  33.387  38.456  1.00  0.00     0.135 A 
ATOM     93  C   UNL A   1      40.351  35.039  37.492  1.00  0.00     0.135 A 
ATOM     94  F   UNL A   1      38.279  32.195  38.423  1.00  0.00    -0.206 F 
ATOM     95  C   UNL A   1      38.654  34.222  39.544  1.00  0.00     0.059 A 
ATOM     96  C   UNL A   1      40.150  35.877  38.586  1.00  0.00     0.059 A 
ATOM     97  F   UNL A   1      41.175  35.462  36.521  1.00  0.00    -0.206 F 
ATOM     98  C   UNL A   1      39.287  35.466  39.600  1.00  0.00     0.060 A 
BRANCH  98  99
ATOM     99  S   UNL A   1      38.981  36.532  41.026  1.00  0.00     0.124 S 
ATOM    100  O   UNL A   1      38.395  37.709  40.392  1.00  0.00    -0.237 OA
ATOM    101  O   UNL A   1      38.069  35.724  41.829  1.00  0.00    -0.237 OA
ATOM    102  O   UNL A   1      40.310  36.725  41.599  1.00  0.00    -0.744 OA
ENDBRANCH  98  99
ENDBRANCH  66  91
ENDBRANCH  40  41
ENDBRANCH  33  35
ENDBRANCH  32  33
ENDBRANCH  31  32
ENDBRANCH  30  31
ENDBRANCH  29  30
ENDBRANCH  28  29
ENDBRANCH   1  28
TORSDOF 24
ENDMDL
MODEL 2
REMARK VINA RESULT:     -10.0      6.245     11.929
REMARK SMILES C[N@H+]1CCO[C@@H](CNS(=O)(=O)N2CCC(C(=O)OCCOCCOCCOC(=O)c3ccc(-c4c5nc(c(-c6c(F)cc(S(=O)(=O)[O-])cc6F)c6ccc([nH]6)c(-c6c(F)cc(S(=O)(=O)[O-])cc6F)c6nc(c(-c7c(F)cc(S(=O)(=O)[O-])cc7F)c7ccc4[nH]7)C=C6)C=C5)cc3)CC2)C1
REMARK SMILES IDX 22 1 21 2 20 3 19 4 18 5 16 6 17 7 15 8 12 9 13 10 97 11
REMARK SMILES IDX 14 12 96 13 9 14 10 15 11 16 8 17 7 19 6 20 1 21 2 22 3 23
REMARK SMILES IDX 98 24 4 26 5 27 23 28 24 29 25 30 26 31 27 32 28 33 29 34
REMARK SMILES IDX 30 35 31 36 95 37 32 38 94 39 33 40 34 41 35 42 88 43 36 44
REMARK SMILES IDX 93 45 87 46 89 47 37 48 92 49 86 50 85 51 38 53 72 54 51 55
REMARK SMILES IDX 71 56 52 57 55 58 70 59 90 60 53 61 54 62 69 64 91 65 56 66
REMARK SMILES IDX 39 67 40 68 49 69 41 70 42 71 48 72 50 73 43 74 44 75 45 76
REMARK SMILES IDX 46 77 47 78 73 79 74 80 83 81 75 82 76 83 82 84 84 85 77 86
REMARK SMILES IDX 78 87 79 88 80 89 81 90 57 91 58 92 67 93 59 94 60 95 66 96
REMARK SMILES IDX 68 97 61 98 62 99 63 100 64 101 65 102
REMARK H PARENT 8 18 2 25 89 52 55 63
REMARK Flexibility Score: inf
ROOT
ATOM      1  C   UNL A   1      32.429  29.011  27.270  1.00  0.00     0.188 C 
ENDROOT
BRANCH   1   2
ATOM      2  O   UNL A   1      32.853  27.999  26.370  1.00  0.00    -0.376 OA
BRANCH   2   3
ATOM      3  C   UNL A   1      33.408  28.399  25.124  1.00  0.00     0.202 C 
BRANCH   3   4
ATOM      4  C   UNL A   1      33.034  27.602  23.864  1.00  0.00     0.261 C 
BRANCH   4   5
ATOM      5  O   UNL A   1      32.971  26.164  24.011  1.00  0.00    -0.463 OA
BRANCH   5   6
ATOM      6  C   UNL A   1      31.734  25.652  24.241  1.00  0.00     0.309 C 
ATOM      7  O   UNL A   1      30.713  26.047  23.686  1.00  0.00    -0.252 OA
BRANCH   6   8
ATOM      8  C   UNL A   1      31.671  24.542  25.290  1.00  0.00     0.102 C 
ATOM      9  N   UNL A   1      32.969  22.087  26.170  1.00  0.00    -0.189 NA
ATOM     10  C   UNL A   1      33.216  23.349  26.892  1.00  0.00     0.104 C 
ATOM     11  C   UNL A   1      31.559  21.989  25.749  1.00  0.00     0.104 C 
ATOM     12  C   UNL A   1      33.058  24.515  25.942  1.00  0.00     0.032 C 
ATOM     13  C   UNL A   1      31.162  23.159  24.847  1.00  0.00     0.032 C 
BRANCH   9  14
ATOM     14  S   UNL A   1      34.133  21.610  25.059  1.00  0.00     0.279 S 
ATOM     15  O   UNL A   1      35.251  21.018  25.747  1.00  0.00    -0.195 OA
ATOM     16  O   UNL A   1      34.327  22.634  24.061  1.00  0.00    -0.195 OA
BRANCH  14  17
ATOM     17  N   UNL A   1      33.298  20.364  24.305  1.00  0.00    -0.199 NA
ATOM     18  H   UNL A   1      32.399  20.257  24.773  1.00  0.00     0.142 HD
BRANCH  17  19
ATOM     19  C   UNL A   1      33.987  19.050  24.327  1.00  0.00     0.138 C 
BRANCH  19  20
ATOM     20  C   UNL A   1      33.111  17.911  23.778  1.00  0.00     0.188 C 
ATOM     21  C   UNL A   1      35.396  16.193  25.340  1.00  0.00     0.332 C 
ATOM     22  N   UNL A   1      34.207  15.740  24.624  1.00  0.00    -0.333 N 
ATOM     23  C   UNL A   1      33.036  15.609  25.510  1.00  0.00     0.290 C 
ATOM     24  C   UNL A   1      33.842  16.581  23.473  1.00  0.00     0.295 C 
ATOM     25  H   UNL A   1      34.470  14.821  24.266  1.00  0.00     0.348 HD
ATOM     26  C   UNL A   1      32.341  16.944  25.834  1.00  0.00     0.222 C 
ATOM     27  O   UNL A   1      31.983  17.668  24.647  1.00  0.00    -0.365 OA
ENDBRANCH  19  20
ENDBRANCH  17  19
ENDBRANCH  14  17
ENDBRANCH   9  14
ENDBRANCH   6   8
ENDBRANCH   5   6
ENDBRANCH   4   5
ENDBRANCH   3   4
ENDBRANCH   2   3
ENDBRANCH   1   2
BRANCH   1  28
ATOM     28  C   UNL A   1      32.101  30.403  26.715  1.00  0.00     0.188 C 
BRANCH  28  29
ATOM     29  O   UNL A   1      32.863  31.461  27.255  1.00  0.00    -0.376 OA
BRANCH  29  30
ATOM     30  C   UNL A   1      34.246  31.215  27.446  1.00  0.00     0.202 C 
BRANCH  30  31
ATOM     31  C   UNL A   1      34.883  32.079  28.551  1.00  0.00     0.261 C 
BRANCH  31  32
ATOM     32  O   UNL A   1      35.572  31.374  29.607  1.00  0.00    -0.460 OA
BRANCH  32  33
ATOM     33  C   UNL A   1      36.657  31.979  30.158  1.00  0.00     0.338 C 
ATOM     34  O   UNL A   1      36.634  32.872  30.988  1.00  0.00    -0.246 OA
BRANCH  33  35
ATOM     35  C   UNL A   1      37.870  31.172  29.825  1.00  0.00     0.060 A 
ATOM     36  C   UNL A   1      38.844  30.984  30.822  1.00  0.00     0.016 A 
ATOM     37  C   UNL A   1      38.031  30.558  28.582  1.00  0.00     0.016 A 
ATOM     38  C   UNL A   1      39.999  30.236  30.558  1.00  0.00     0.010 A 
ATOM     39  C   UNL A   1      39.197  29.826  28.313  1.00  0.00     0.010 A 
ATOM     40  C   UNL A   1      40.209  29.693  29.285  1.00  0.00    -0.014 A 
BRANCH  40  41
ATOM     41  C   UNL A   1      41.558  29.190  28.895  1.00  0.00     0.031 A 
ATOM     42  C   UNL A   1      42.699  30.178  28.854  1.00  0.00     0.074 A 
ATOM     43  C   UNL A   1      41.793  27.897  28.593  1.00  0.00     0.049 A 
ATOM     44  N   UNL A   1      43.941  30.004  28.483  1.00  0.00    -0.248 NA
ATOM     45  C   UNL A   1      42.388  31.549  29.289  1.00  0.00     0.031 C 
ATOM     46  C   UNL A   1      40.804  26.823  28.629  1.00  0.00     0.029 A 
ATOM     47  N   UNL A   1      42.950  27.273  28.182  1.00  0.00    -0.354 N 
ATOM     48  C   UNL A   1      44.556  31.245  28.623  1.00  0.00     0.074 A 
ATOM     49  C   UNL A   1      43.542  32.168  29.087  1.00  0.00     0.031 C 
ATOM     50  C   UNL A   1      41.389  25.677  28.237  1.00  0.00     0.029 A 
ATOM     51  C   UNL A   1      42.787  25.939  27.890  1.00  0.00     0.049 A 
ATOM     52  H   UNL A   1      43.813  27.740  28.104  1.00  0.00     0.167 HD
ATOM     53  C   UNL A   1      45.846  31.589  28.395  1.00  0.00     0.037 A 
ATOM     54  C   UNL A   1      43.655  25.039  27.378  1.00  0.00     0.037 A 
ATOM     55  C   UNL A   1      46.859  30.675  27.936  1.00  0.00     0.049 A 
ATOM     56  C   UNL A   1      45.073  25.458  27.067  1.00  0.00     0.074 A 
ATOM     57  C   UNL A   1      48.200  30.928  27.699  1.00  0.00     0.029 A 
ATOM     58  N   UNL A   1      46.647  29.339  27.633  1.00  0.00    -0.354 N 
ATOM     59  N   UNL A   1      45.645  26.628  27.228  1.00  0.00    -0.248 NA
ATOM     60  C   UNL A   1      45.967  24.430  26.509  1.00  0.00     0.031 C 
ATOM     61  C   UNL A   1      48.784  29.762  27.195  1.00  0.00     0.029 A 
ATOM     62  C   UNL A   1      47.825  28.762  27.184  1.00  0.00     0.049 A 
ATOM     63  H   UNL A   1      45.787  28.868  27.723  1.00  0.00     0.167 HD
ATOM     64  C   UNL A   1      46.969  26.467  26.824  1.00  0.00     0.074 A 
ATOM     65  C   UNL A   1      47.117  25.085  26.421  1.00  0.00     0.031 C 
ATOM     66  C   UNL A   1      47.971  27.382  26.793  1.00  0.00     0.037 A 
BRANCH  53  67
ATOM     67  C   UNL A   1      46.233  33.028  28.607  1.00  0.00     0.058 A 
ATOM     68  C   UNL A   1      46.717  33.494  29.840  1.00  0.00     0.135 A 
ATOM     69  C   UNL A   1      46.151  33.947  27.548  1.00  0.00     0.135 A 
ATOM     70  F   UNL A   1      46.797  32.665  30.893  1.00  0.00    -0.206 F 
ATOM     71  C   UNL A   1      47.081  34.825  30.022  1.00  0.00     0.059 A 
ATOM     72  C   UNL A   1      46.540  35.275  27.698  1.00  0.00     0.059 A 
ATOM     73  F   UNL A   1      45.692  33.557  26.349  1.00  0.00    -0.206 F 
ATOM     74  C   UNL A   1      46.992  35.707  28.944  1.00  0.00     0.060 A 
BRANCH  74  75
ATOM     75  S   UNL A   1      47.477  37.427  29.195  1.00  0.00     0.124 S 
ATOM     76  O   UNL A   1      46.238  38.129  28.871  1.00  0.00    -0.237 OA
ATOM     77  O   UNL A   1      47.862  37.439  30.602  1.00  0.00    -0.237 OA
ATOM     78  O   UNL A   1      48.570  37.615  28.247  1.00  0.00    -0.744 OA
ENDBRANCH  74  75
ENDBRANCH  53  67
BRANCH  54  79
ATOM     79  C   UNL A   1      43.210  23.642  27.105  1.00  0.00     0.058 A 
ATOM     80  C   UNL A   1      42.923  23.208  25.802  1.00  0.00     0.135 A 
ATOM     81  C   UNL A   1      43.045  22.715  28.148  1.00  0.00     0.135 A 
ATOM     82  F   UNL A   1      43.042  24.059  24.771  1.00  0.00    -0.206 F 
ATOM     83  C   UNL A   1      42.480  21.914  25.542  1.00  0.00     0.059 A 
ATOM     84  C   UNL A   1      42.634  21.408  27.911  1.00  0.00     0.059 A 
ATOM     85  F   UNL A   1      43.306  23.076  29.415  1.00  0.00    -0.206 F 
ATOM     86  C   UNL A   1      42.346  21.018  26.604  1.00  0.00     0.060 A 
BRANCH  86  87
ATOM     87  S   UNL A   1      41.828  19.325  26.246  1.00  0.00     0.124 S 
ATOM     88  O   UNL A   1      40.386  19.481  26.101  1.00  0.00    -0.237 OA
ATOM     89  O   UNL A   1      42.565  19.034  25.020  1.00  0.00    -0.237 OA
ATOM     90  O   UNL A   1      42.268  18.583  27.424  1.00  0.00    -0.744 OA
ENDBRANCH  86  87
ENDBRANCH  54  79
BRANCH  66  91
ATOM     91  C   UNL A   1      49.338  26.916  26.358  1.00  0.00     0.058 A 
ATOM     92  C   UNL A   1      50.227  26.282  27.240  1.00  0.00     0.135 A 
ATOM     93  C   UNL A   1      49.744  27.065  25.020  1.00  0.00     0.135 A 
ATOM     94  F   UNL A   1      49.896  26.114  28.530  1.00  0.00    -0.206 F 
ATOM     95  C   UNL A   1      51.480  25.841  26.821  1.00  0.00     0.059 A 
ATOM     96  C   UNL A   1      50.978  26.601  24.571  1.00  0.00     0.059 A 
ATOM     97  F   UNL A   1      48.930  27.650  24.127  1.00  0.00    -0.206 F 
ATOM     98  C   UNL A   1      51.845  26.004  25.483  1.00  0.00     0.060 A 
BRANCH  98  99
ATOM     99  S   UNL A   1      53.465  25.409  24.946  1.00  0.00     0.124 S 
ATOM    100  O   UNL A   1      53.417  24.011  25.364  1.00  0.00    -0.237 OA
ATOM    101  O   UNL A   1      53.421  25.642  23.507  1.00  0.00    -0.237 OA
ATOM    102  O   UNL A   1      54.400  26.253  25.685  1.00  0.00    -0.744 OA
ENDBRANCH  98  99
ENDBRANCH  66  91
ENDBRANCH  40  41
ENDBRANCH  33  35
ENDBRANCH  32  33
ENDBRANCH  31  32
ENDBRANCH  30  31
ENDBRANCH  29  30
ENDBRANCH  28  29
ENDBRANCH   1  28
TORSDOF 24
ENDMDL
MODEL 3
REMARK VINA RESULT:      -9.8      1.403      3.758
REMARK SMILES C[N@H+]1CCO[C@@H](CNS(=O)(=O)N2CCC(C(=O)OCCOCCOCCOC(=O)c3ccc(-c4c5nc(c(-c6c(F)cc(S(=O)(=O)[O-])cc6F)c6ccc([nH]6)c(-c6c(F)cc(S(=O)(=O)[O-])cc6F)c6nc(c(-c7c(F)cc(S(=O)(=O)[O-])cc7F)c7ccc4[nH]7)C=C6)C=C5)cc3)CC2)C1
REMARK SMILES IDX 22 1 21 2 20 3 19 4 18 5 16 6 17 7 15 8 12 9 13 10 97 11
REMARK SMILES IDX 14 12 96 13 9 14 10 15 11 16 8 17 7 19 6 20 1 21 2 22 3 23
REMARK SMILES IDX 98 24 4 26 5 27 23 28 24 29 25 30 26 31 27 32 28 33 29 34
REMARK SMILES IDX 30 35 31 36 95 37 32 38 94 39 33 40 34 41 35 42 88 43 36 44
REMARK SMILES IDX 93 45 87 46 89 47 37 48 92 49 86 50 85 51 38 53 72 54 51 55
REMARK SMILES IDX 71 56 52 57 55 58 70 59 90 60 53 61 54 62 69 64 91 65 56 66
REMARK SMILES IDX 39 67 40 68 49 69 41 70 42 71 48 72 50 73 43 74 44 75 45 76
REMARK SMILES IDX 46 77 47 78 73 79 74 80 83 81 75 82 76 83 82 84 84 85 77 86
REMARK SMILES IDX 78 87 79 88 80 89 81 90 57 91 58 92 67 93 59 94 60 95 66 96
REMARK SMILES IDX 68 97 61 98 62 99 63 100 64 101 65 102
REMARK H PARENT 8 18 2 25 89 52 55 63
REMARK Flexibility Score: inf
ROOT
ATOM      1  C   UNL A   1      37.460  21.511  25.428  1.00  0.00     0.188 C 
ENDROOT
BRANCH   1   2
ATOM      2  O   UNL A   1      37.083  21.735  24.079  1.00  0.00    -0.376 OA
BRANCH   2   3
ATOM      3  C   UNL A   1      36.772  23.063  23.680  1.00  0.00     0.202 C 
BRANCH   3   4
ATOM      4  C   UNL A   1      35.410  23.331  23.019  1.00  0.00     0.261 C 
BRANCH   4   5
ATOM      5  O   UNL A   1      34.821  24.628  23.270  1.00  0.00    -0.463 OA
BRANCH   5   6
ATOM      6  C   UNL A   1      33.584  24.822  22.744  1.00  0.00     0.309 C 
ATOM      7  O   UNL A   1      33.373  25.090  21.565  1.00  0.00    -0.252 OA
BRANCH   6   8
ATOM      8  C   UNL A   1      32.427  24.717  23.739  1.00  0.00     0.102 C 
ATOM      9  N   UNL A   1      31.643  23.551  26.291  1.00  0.00    -0.189 NA
ATOM     10  C   UNL A   1      32.022  24.975  26.218  1.00  0.00     0.104 C 
ATOM     11  C   UNL A   1      30.867  23.152  25.102  1.00  0.00     0.104 C 
ATOM     12  C   UNL A   1      33.000  25.181  25.083  1.00  0.00     0.032 C 
ATOM     13  C   UNL A   1      31.658  23.387  23.813  1.00  0.00     0.032 C 
BRANCH   9  14
ATOM     14  S   UNL A   1      32.818  22.482  26.831  1.00  0.00     0.279 S 
ATOM     15  O   UNL A   1      32.743  22.357  28.264  1.00  0.00    -0.195 OA
ATOM     16  O   UNL A   1      34.074  22.734  26.168  1.00  0.00    -0.195 OA
BRANCH  14  17
ATOM     17  N   UNL A   1      32.214  21.058  26.178  1.00  0.00    -0.199 NA
ATOM     18  H   UNL A   1      31.876  20.476  26.944  1.00  0.00     0.142 HD
BRANCH  17  19
ATOM     19  C   UNL A   1      33.194  20.266  25.396  1.00  0.00     0.138 C 
BRANCH  19  20
ATOM     20  C   UNL A   1      32.528  19.186  24.528  1.00  0.00     0.188 C 
ATOM     21  C   UNL A   1      35.604  18.114  24.535  1.00  0.00     0.332 C 
ATOM     22  N   UNL A   1      34.409  17.531  23.933  1.00  0.00    -0.333 N 
ATOM     23  C   UNL A   1      33.731  16.585  24.838  1.00  0.00     0.290 C 
ATOM     24  C   UNL A   1      33.430  18.522  23.458  1.00  0.00     0.295 C 
ATOM     25  H   UNL A   1      34.764  17.031  23.117  1.00  0.00     0.348 HD
ATOM     26  C   UNL A   1      32.866  17.260  25.918  1.00  0.00     0.222 C 
ATOM     27  O   UNL A   1      31.912  18.172  25.353  1.00  0.00    -0.365 OA
ENDBRANCH  19  20
ENDBRANCH  17  19
ENDBRANCH  14  17
ENDBRANCH   9  14
ENDBRANCH   6   8
ENDBRANCH   5   6
ENDBRANCH   4   5
ENDBRANCH   3   4
ENDBRANCH   2   3
ENDBRANCH   1   2
BRANCH   1  28
ATOM     28  C   UNL A   1      38.860  21.943  25.885  1.00  0.00     0.188 C 
BRANCH  28  29
ATOM     29  O   UNL A   1      39.688  20.902  26.356  1.00  0.00    -0.376 OA
BRANCH  29  30
ATOM     30  C   UNL A   1      40.971  21.276  26.830  1.00  0.00     0.202 C 
BRANCH  30  31
ATOM     31  C   UNL A   1      41.472  22.620  26.268  1.00  0.00     0.261 C 
BRANCH  31  32
ATOM     32  O   UNL A   1      42.290  23.425  27.147  1.00  0.00    -0.460 OA
BRANCH  32  33
ATOM     33  C   UNL A   1      42.656  24.657  26.707  1.00  0.00     0.338 C 
ATOM     34  O   UNL A   1      43.041  24.930  25.582  1.00  0.00    -0.246 OA
BRANCH  33  35
ATOM     35  C   UNL A   1      42.220  25.670  27.715  1.00  0.00     0.060 A 
ATOM     36  C   UNL A   1      42.994  26.833  27.873  1.00  0.00     0.016 A 
ATOM     37  C   UNL A   1      41.046  25.519  28.454  1.00  0.00     0.016 A 
ATOM     38  C   UNL A   1      42.627  27.813  28.806  1.00  0.00     0.010 A 
ATOM     39  C   UNL A   1      40.690  26.491  29.402  1.00  0.00     0.010 A 
ATOM     40  C   UNL A   1      41.499  27.625  29.614  1.00  0.00    -0.014 A 
BRANCH  40  41
ATOM     41  C   UNL A   1      41.287  28.479  30.819  1.00  0.00     0.031 A 
ATOM     42  C   UNL A   1      40.171  29.495  30.779  1.00  0.00     0.074 A 
ATOM     43  C   UNL A   1      42.040  28.369  31.931  1.00  0.00     0.049 A 
ATOM     44  N   UNL A   1      39.830  30.396  31.665  1.00  0.00    -0.248 NA
ATOM     45  C   UNL A   1      39.331  29.493  29.571  1.00  0.00     0.031 C 
ATOM     46  C   UNL A   1      43.123  27.408  32.132  1.00  0.00     0.029 A 
ATOM     47  N   UNL A   1      42.010  29.090  33.104  1.00  0.00    -0.354 N 
ATOM     48  C   UNL A   1      38.748  31.077  31.115  1.00  0.00     0.074 A 
ATOM     49  C   UNL A   1      38.508  30.503  29.808  1.00  0.00     0.031 C 
ATOM     50  C   UNL A   1      43.667  27.611  33.346  1.00  0.00     0.029 A 
ATOM     51  C   UNL A   1      42.995  28.737  33.998  1.00  0.00     0.049 A 
ATOM     52  H   UNL A   1      41.345  29.792  33.285  1.00  0.00     0.167 HD
ATOM     53  C   UNL A   1      38.014  32.083  31.647  1.00  0.00     0.037 A 
ATOM     54  C   UNL A   1      43.334  29.275  35.189  1.00  0.00     0.037 A 
ATOM     55  C   UNL A   1      38.246  32.657  32.947  1.00  0.00     0.049 A 
ATOM     56  C   UNL A   1      42.544  30.441  35.737  1.00  0.00     0.074 A 
ATOM     57  C   UNL A   1      37.539  33.664  33.580  1.00  0.00     0.029 A 
ATOM     58  N   UNL A   1      39.267  32.285  33.810  1.00  0.00    -0.354 N 
ATOM     59  N   UNL A   1      41.510  31.058  35.217  1.00  0.00    -0.248 NA
ATOM     60  C   UNL A   1      42.966  30.982  37.040  1.00  0.00     0.031 C 
ATOM     61  C   UNL A   1      38.168  33.944  34.798  1.00  0.00     0.029 A 
ATOM     62  C   UNL A   1      39.224  33.063  34.956  1.00  0.00     0.049 A 
ATOM     63  H   UNL A   1      39.924  31.574  33.634  1.00  0.00     0.167 HD
ATOM     64  C   UNL A   1      41.139  32.033  36.141  1.00  0.00     0.074 A 
ATOM     65  C   UNL A   1      42.052  31.918  37.258  1.00  0.00     0.031 C 
ATOM     66  C   UNL A   1      40.130  32.939  36.071  1.00  0.00     0.037 A 
BRANCH  53  67
ATOM     67  C   UNL A   1      36.904  32.657  30.808  1.00  0.00     0.058 A 
ATOM     68  C   UNL A   1      35.581  32.195  30.907  1.00  0.00     0.135 A 
ATOM     69  C   UNL A   1      37.162  33.710  29.915  1.00  0.00     0.135 A 
ATOM     70  F   UNL A   1      35.279  31.178  31.729  1.00  0.00    -0.206 F 
ATOM     71  C   UNL A   1      34.560  32.740  30.134  1.00  0.00     0.059 A 
ATOM     72  C   UNL A   1      36.152  34.291  29.155  1.00  0.00     0.059 A 
ATOM     73  F   UNL A   1      38.409  34.188  29.776  1.00  0.00    -0.206 F 
ATOM     74  C   UNL A   1      34.856  33.790  29.262  1.00  0.00     0.060 A 
BRANCH  74  75
ATOM     75  S   UNL A   1      33.519  34.490  28.273  1.00  0.00     0.124 S 
ATOM     76  O   UNL A   1      32.706  35.137  29.299  1.00  0.00    -0.237 OA
ATOM     77  O   UNL A   1      34.235  35.388  27.374  1.00  0.00    -0.237 OA
ATOM     78  O   UNL A   1      32.914  33.323  27.640  1.00  0.00    -0.744 OA
ENDBRANCH  74  75
ENDBRANCH  53  67
BRANCH  54  79
ATOM     79  C   UNL A   1      44.492  28.730  35.954  1.00  0.00     0.058 A 
ATOM     80  C   UNL A   1      44.327  27.710  36.902  1.00  0.00     0.135 A 
ATOM     81  C   UNL A   1      45.790  29.234  35.763  1.00  0.00     0.135 A 
ATOM     82  F   UNL A   1      43.106  27.208  37.140  1.00  0.00    -0.206 F 
ATOM     83  C   UNL A   1      45.399  27.215  37.640  1.00  0.00     0.059 A 
ATOM     84  C   UNL A   1      46.882  28.735  36.465  1.00  0.00     0.059 A 
ATOM     85  F   UNL A   1      46.006  30.211  34.868  1.00  0.00    -0.206 F 
ATOM     86  C   UNL A   1      46.675  27.730  37.408  1.00  0.00     0.060 A 
BRANCH  86  87
ATOM     87  S   UNL A   1      48.067  27.037  38.329  1.00  0.00     0.124 S 
ATOM     88  O   UNL A   1      47.904  25.610  38.083  1.00  0.00    -0.237 OA
ATOM     89  O   UNL A   1      49.209  27.671  37.678  1.00  0.00    -0.237 OA
ATOM     90  O   UNL A   1      47.814  27.474  39.700  1.00  0.00    -0.744 OA
ENDBRANCH  86  87
ENDBRANCH  54  79
BRANCH  66  91
ATOM     91  C   UNL A   1      39.918  33.851  37.253  1.00  0.00     0.058 A 
ATOM     92  C   UNL A   1      40.624  35.054  37.405  1.00  0.00     0.135 A 
ATOM     93  C   UNL A   1      38.952  33.537  38.225  1.00  0.00     0.135 A 
ATOM     94  F   UNL A   1      41.560  35.407  36.509  1.00  0.00    -0.206 F 
ATOM     95  C   UNL A   1      40.405  35.897  38.492  1.00  0.00     0.059 A 
ATOM     96  C   UNL A   1      38.692  34.380  39.302  1.00  0.00     0.059 A 
ATOM     97  F   UNL A   1      38.234  32.407  38.125  1.00  0.00    -0.206 F 
ATOM     98  C   UNL A   1      39.435  35.551  39.435  1.00  0.00     0.060 A 
BRANCH  98  99
ATOM     99  S   UNL A   1      39.146  36.663  40.830  1.00  0.00     0.124 S 
ATOM    100  O   UNL A   1      38.326  37.701  40.213  1.00  0.00    -0.237 OA
ATOM    101  O   UNL A   1      38.460  35.795  41.782  1.00  0.00    -0.237 OA
ATOM    102  O   UNL A   1      40.490  37.076  41.221  1.00  0.00    -0.744 OA
ENDBRANCH  98  99
ENDBRANCH  66  91
ENDBRANCH  40  41
ENDBRANCH  33  35
ENDBRANCH  32  33
ENDBRANCH  31  32
ENDBRANCH  30  31
ENDBRANCH  29  30
ENDBRANCH  28  29
ENDBRANCH   1  28
TORSDOF 24
ENDMDL
