MODEL 1
REMARK VINA RESULT:     -10.7      0.000      0.000
REMARK SMILES O=C(CNc1nc(-c2ccccc2)c(-c2ccccc2)s1)OCCOCCOCCOC(=O)c1ccc(-c2c3nc(c(-c4c(F)cc(S(=O)(=O)[O-])cc4F)c4ccc([nH]4)c(-c4c(F)cc(S(=O)(=O)[O-])cc4F)c4nc(c(-c5c(F)cc(S(=O)(=O)[O-])cc5F)c5ccc2[nH]5)C=C4)C=C3)cc1
REMARK SMILES IDX 26 1 25 2 24 3 23 4 22 5 2 6 1 7 3 8 4 9 5 11 6 12 21 13
REMARK SMILES IDX 7 14 14 15 8 16 9 17 13 18 10 19 12 20 11 21 15 22 16 23
REMARK SMILES IDX 20 24 17 25 19 26 18 27 27 28 28 29 29 30 30 31 31 32 32 33
REMARK SMILES IDX 33 34 34 35 35 36 99 37 36 38 98 39 37 40 38 41 39 42 92 43
REMARK SMILES IDX 40 44 97 45 91 46 93 47 41 48 96 49 90 50 89 51 42 53 76 54
REMARK SMILES IDX 55 55 75 56 56 57 59 58 74 59 94 60 57 61 58 62 73 64 95 65
REMARK SMILES IDX 60 66 43 67 44 68 53 69 45 70 46 71 52 72 54 73 47 74 48 75
REMARK SMILES IDX 49 76 50 77 51 78 77 79 78 80 87 81 79 82 80 83 86 84 88 85
REMARK SMILES IDX 81 86 82 87 83 88 84 89 85 90 61 91 62 92 71 93 63 94 64 95
REMARK SMILES IDX 70 96 72 97 65 98 66 99 67 100 68 101 69 102
REMARK H PARENT 4 10 93 52 59 63
REMARK Flexibility Score: inf
ROOT
ATOM      1  C   UNL A   1      37.193  23.100  25.547  1.00  0.00     0.188 C 
ENDROOT
BRANCH   1   2
ATOM      2  O   UNL A   1      37.223  22.309  24.372  1.00  0.00    -0.376 OA
BRANCH   2   3
ATOM      3  C   UNL A   1      36.620  22.878  23.225  1.00  0.00     0.202 C 
BRANCH   3   4
ATOM      4  C   UNL A   1      35.315  23.567  23.608  1.00  0.00     0.261 C 
BRANCH   4   5
ATOM      5  O   UNL A   1      34.448  23.936  22.510  1.00  0.00    -0.462 OA
BRANCH   5   6
ATOM      6  C   UNL A   1      33.433  23.231  21.962  1.00  0.00     0.325 C 
ATOM      7  O   UNL A   1      33.238  23.316  20.749  1.00  0.00    -0.250 OA
BRANCH   6   8
ATOM      8  C   UNL A   1      32.536  22.366  22.840  1.00  0.00     0.238 C 
BRANCH   8   9
ATOM      9  N   UNL A   1      31.212  22.939  22.983  1.00  0.00    -0.351 N 
ATOM     10  H   UNL A   1      30.434  22.401  22.714  1.00  0.00     0.163 HD
BRANCH   9  11
ATOM     11  C   UNL A   1      31.003  24.177  23.466  1.00  0.00     0.184 A 
ATOM     12  N   UNL A   1      30.264  25.114  22.921  1.00  0.00    -0.220 NA
ATOM     13  S   UNL A   1      31.869  24.655  24.872  1.00  0.00    -0.096 S 
ATOM     14  C   UNL A   1      30.407  26.307  23.621  1.00  0.00     0.091 A 
ATOM     15  C   UNL A   1      31.322  26.265  24.661  1.00  0.00     0.064 A 
BRANCH  14  16
ATOM     16  C   UNL A   1      29.627  27.492  23.287  1.00  0.00     0.002 A 
ATOM     17  C   UNL A   1      28.246  27.547  23.522  1.00  0.00     0.010 A 
ATOM     18  C   UNL A   1      30.250  28.566  22.639  1.00  0.00     0.010 A 
ATOM     19  C   UNL A   1      27.494  28.636  23.071  1.00  0.00     0.001 A 
ATOM     20  C   UNL A   1      29.496  29.653  22.187  1.00  0.00     0.001 A 
ATOM     21  C   UNL A   1      28.117  29.681  22.393  1.00  0.00     0.000 A 
ENDBRANCH  14  16
BRANCH  15  22
ATOM     22  C   UNL A   1      31.803  27.288  25.579  1.00  0.00    -0.006 A 
ATOM     23  C   UNL A   1      32.945  28.037  25.262  1.00  0.00     0.009 A 
ATOM     24  C   UNL A   1      31.134  27.530  26.782  1.00  0.00     0.009 A 
ATOM     25  C   UNL A   1      33.421  29.003  26.149  1.00  0.00     0.001 A 
ATOM     26  C   UNL A   1      31.613  28.493  27.669  1.00  0.00     0.001 A 
ATOM     27  C   UNL A   1      32.759  29.225  27.354  1.00  0.00     0.000 A 
ENDBRANCH  15  22
ENDBRANCH   9  11
ENDBRANCH   8   9
ENDBRANCH   6   8
ENDBRANCH   5   6
ENDBRANCH   4   5
ENDBRANCH   3   4
ENDBRANCH   2   3
ENDBRANCH   1   2
BRANCH   1  28
ATOM     28  C   UNL A   1      38.474  22.922  26.377  1.00  0.00     0.188 C 
BRANCH  28  29
ATOM     29  O   UNL A   1      39.374  21.872  26.035  1.00  0.00    -0.376 OA
BRANCH  29  30
ATOM     30  C   UNL A   1      40.460  21.585  26.912  1.00  0.00     0.202 C 
BRANCH  30  31
ATOM     31  C   UNL A   1      41.788  22.309  26.674  1.00  0.00     0.261 C 
BRANCH  31  32
ATOM     32  O   UNL A   1      41.660  23.698  26.315  1.00  0.00    -0.460 OA
BRANCH  32  33
ATOM     33  C   UNL A   1      42.639  24.500  26.803  1.00  0.00     0.338 C 
ATOM     34  O   UNL A   1      43.838  24.395  26.611  1.00  0.00    -0.246 OA
BRANCH  33  35
ATOM     35  C   UNL A   1      42.076  25.634  27.556  1.00  0.00     0.060 A 
ATOM     36  C   UNL A   1      42.759  26.856  27.532  1.00  0.00     0.016 A 
ATOM     37  C   UNL A   1      41.006  25.437  28.432  1.00  0.00     0.016 A 
ATOM     38  C   UNL A   1      42.403  27.873  28.419  1.00  0.00     0.010 A 
ATOM     39  C   UNL A   1      40.659  26.455  29.330  1.00  0.00     0.010 A 
ATOM     40  C   UNL A   1      41.381  27.662  29.355  1.00  0.00    -0.014 A 
BRANCH  40  41
ATOM     41  C   UNL A   1      41.176  28.633  30.461  1.00  0.00     0.031 A 
ATOM     42  C   UNL A   1      42.051  28.544  31.685  1.00  0.00     0.074 A 
ATOM     43  C   UNL A   1      40.233  29.588  30.380  1.00  0.00     0.049 A 
ATOM     44  N   UNL A   1      42.011  29.250  32.786  1.00  0.00    -0.248 NA
ATOM     45  C   UNL A   1      43.111  27.523  31.662  1.00  0.00     0.031 C 
ATOM     46  C   UNL A   1      39.347  29.806  29.238  1.00  0.00     0.029 A 
ATOM     47  N   UNL A   1      39.857  30.548  31.287  1.00  0.00    -0.354 N 
ATOM     48  C   UNL A   1      43.033  28.757  33.589  1.00  0.00     0.074 A 
ATOM     49  C   UNL A   1      43.663  27.678  32.857  1.00  0.00     0.031 C 
ATOM     50  C   UNL A   1      38.517  30.825  29.520  1.00  0.00     0.029 A 
ATOM     51  C   UNL A   1      38.793  31.312  30.871  1.00  0.00     0.049 A 
ATOM     52  H   UNL A   1      40.306  30.677  32.153  1.00  0.00     0.167 HD
ATOM     53  C   UNL A   1      43.418  29.169  34.821  1.00  0.00     0.037 A 
ATOM     54  C   UNL A   1      38.104  32.275  31.516  1.00  0.00     0.037 A 
ATOM     55  C   UNL A   1      42.792  30.238  35.553  1.00  0.00     0.049 A 
ATOM     56  C   UNL A   1      38.506  32.671  32.913  1.00  0.00     0.074 A 
ATOM     57  C   UNL A   1      43.122  30.736  36.803  1.00  0.00     0.029 A 
ATOM     58  N   UNL A   1      41.702  30.972  35.108  1.00  0.00    -0.354 N 
ATOM     59  N   UNL A   1      39.487  32.210  33.653  1.00  0.00    -0.248 NA
ATOM     60  C   UNL A   1      37.705  33.718  33.566  1.00  0.00     0.031 C 
ATOM     61  C   UNL A   1      42.205  31.741  37.130  1.00  0.00     0.029 A 
ATOM     62  C   UNL A   1      41.332  31.901  36.067  1.00  0.00     0.049 A 
ATOM     63  H   UNL A   1      41.257  30.850  34.238  1.00  0.00     0.167 HD
ATOM     64  C   UNL A   1      39.437  32.929  34.844  1.00  0.00     0.074 A 
ATOM     65  C   UNL A   1      38.335  33.859  34.725  1.00  0.00     0.031 C 
ATOM     66  C   UNL A   1      40.236  32.828  35.935  1.00  0.00     0.037 A 
BRANCH  53  67
ATOM     67  C   UNL A   1      44.561  28.438  35.470  1.00  0.00     0.058 A 
ATOM     68  C   UNL A   1      44.354  27.283  36.239  1.00  0.00     0.135 A 
ATOM     69  C   UNL A   1      45.881  28.883  35.295  1.00  0.00     0.135 A 
ATOM     70  F   UNL A   1      43.111  26.825  36.451  1.00  0.00    -0.206 F 
ATOM     71  C   UNL A   1      45.416  26.608  36.834  1.00  0.00     0.059 A 
ATOM     72  C   UNL A   1      46.960  28.210  35.860  1.00  0.00     0.059 A 
ATOM     73  F   UNL A   1      46.132  29.983  34.567  1.00  0.00    -0.206 F 
ATOM     74  C   UNL A   1      46.715  27.081  36.641  1.00  0.00     0.060 A 
BRANCH  74  75
ATOM     75  S   UNL A   1      48.083  26.197  37.421  1.00  0.00     0.124 S 
ATOM     76  O   UNL A   1      47.403  25.522  38.522  1.00  0.00    -0.237 OA
ATOM     77  O   UNL A   1      48.553  25.334  36.343  1.00  0.00    -0.237 OA
ATOM     78  O   UNL A   1      48.999  27.265  37.809  1.00  0.00    -0.744 OA
ENDBRANCH  74  75
ENDBRANCH  53  67
BRANCH  54  79
ATOM     79  C   UNL A   1      36.945  32.927  30.853  1.00  0.00     0.058 A 
ATOM     80  C   UNL A   1      37.128  33.849  29.812  1.00  0.00     0.135 A 
ATOM     81  C   UNL A   1      35.630  32.644  31.253  1.00  0.00     0.135 A 
ATOM     82  F   UNL A   1      38.367  34.163  29.405  1.00  0.00    -0.206 F 
ATOM     83  C   UNL A   1      36.050  34.478  29.197  1.00  0.00     0.059 A 
ATOM     84  C   UNL A   1      34.534  33.243  30.639  1.00  0.00     0.059 A 
ATOM     85  F   UNL A   1      35.401  31.764  32.240  1.00  0.00    -0.206 F 
ATOM     86  C   UNL A   1      34.755  34.166  29.617  1.00  0.00     0.060 A 
BRANCH  86  87
ATOM     87  S   UNL A   1      33.358  34.949  28.783  1.00  0.00     0.124 S 
ATOM     88  O   UNL A   1      33.044  33.969  27.750  1.00  0.00    -0.237 OA
ATOM     89  O   UNL A   1      32.384  35.073  29.864  1.00  0.00    -0.237 OA
ATOM     90  O   UNL A   1      33.917  36.212  28.307  1.00  0.00    -0.744 OA
ENDBRANCH  86  87
ENDBRANCH  54  79
BRANCH  66  91
ATOM     91  C   UNL A   1      39.976  33.769  37.080  1.00  0.00     0.058 A 
ATOM     92  C   UNL A   1      40.540  35.054  37.123  1.00  0.00     0.135 A 
ATOM     93  C   UNL A   1      39.103  33.403  38.118  1.00  0.00     0.135 A 
ATOM     94  F   UNL A   1      41.385  35.453  36.159  1.00  0.00    -0.206 F 
ATOM     95  C   UNL A   1      40.263  35.935  38.164  1.00  0.00     0.059 A 
ATOM     96  C   UNL A   1      38.793  34.276  39.156  1.00  0.00     0.059 A 
ATOM     97  F   UNL A   1      38.528  32.190  38.120  1.00  0.00    -0.206 F 
ATOM     98  C   UNL A   1      39.386  35.538  39.176  1.00  0.00     0.060 A 
BRANCH  98  99
ATOM     99  S   UNL A   1      39.004  36.704  40.501  1.00  0.00     0.124 S 
ATOM    100  O   UNL A   1      40.313  36.887  41.118  1.00  0.00    -0.237 OA
ATOM    101  O   UNL A   1      38.482  37.853  39.768  1.00  0.00    -0.237 OA
ATOM    102  O   UNL A   1      38.022  35.987  41.310  1.00  0.00    -0.744 OA
ENDBRANCH  98  99
ENDBRANCH  66  91
ENDBRANCH  40  41
ENDBRANCH  33  35
ENDBRANCH  32  33
ENDBRANCH  31  32
ENDBRANCH  30  31
ENDBRANCH  29  30
ENDBRANCH  28  29
ENDBRANCH   1  28
TORSDOF 24
ENDMDL
MODEL 2
REMARK VINA RESULT:     -10.6      1.033      2.525
REMARK SMILES O=C(CNc1nc(-c2ccccc2)c(-c2ccccc2)s1)OCCOCCOCCOC(=O)c1ccc(-c2c3nc(c(-c4c(F)cc(S(=O)(=O)[O-])cc4F)c4ccc([nH]4)c(-c4c(F)cc(S(=O)(=O)[O-])cc4F)c4nc(c(-c5c(F)cc(S(=O)(=O)[O-])cc5F)c5ccc2[nH]5)C=C4)C=C3)cc1
REMARK SMILES IDX 26 1 25 2 24 3 23 4 22 5 2 6 1 7 3 8 4 9 5 11 6 12 21 13
REMARK SMILES IDX 7 14 14 15 8 16 9 17 13 18 10 19 12 20 11 21 15 22 16 23
REMARK SMILES IDX 20 24 17 25 19 26 18 27 27 28 28 29 29 30 30 31 31 32 32 33
REMARK SMILES IDX 33 34 34 35 35 36 99 37 36 38 98 39 37 40 38 41 39 42 92 43
REMARK SMILES IDX 40 44 97 45 91 46 93 47 41 48 96 49 90 50 89 51 42 53 76 54
REMARK SMILES IDX 55 55 75 56 56 57 59 58 74 59 94 60 57 61 58 62 73 64 95 65
REMARK SMILES IDX 60 66 43 67 44 68 53 69 45 70 46 71 52 72 54 73 47 74 48 75
REMARK SMILES IDX 49 76 50 77 51 78 77 79 78 80 87 81 79 82 80 83 86 84 88 85
REMARK SMILES IDX 81 86 82 87 83 88 84 89 85 90 61 91 62 92 71 93 63 94 64 95
REMARK SMILES IDX 70 96 72 97 65 98 66 99 67 100 68 101 69 102
REMARK H PARENT 4 10 93 52 59 63
REMARK Flexibility Score: inf
ROOT
ATOM      1  C   UNL A   1      37.465  23.264  25.811  1.00  0.00     0.188 C 
ENDROOT
BRANCH   1   2
ATOM      2  O   UNL A   1      37.258  22.269  24.824  1.00  0.00    -0.376 OA
BRANCH   2   3
ATOM      3  C   UNL A   1      35.990  22.270  24.196  1.00  0.00     0.202 C 
BRANCH   3   4
ATOM      4  C   UNL A   1      34.917  21.824  25.185  1.00  0.00     0.261 C 
BRANCH   4   5
ATOM      5  O   UNL A   1      34.089  20.715  24.762  1.00  0.00    -0.462 OA
BRANCH   5   6
ATOM      6  C   UNL A   1      32.837  20.397  25.161  1.00  0.00     0.325 C 
ATOM      7  O   UNL A   1      32.516  19.210  25.220  1.00  0.00    -0.250 OA
BRANCH   6   8
ATOM      8  C   UNL A   1      31.839  21.496  25.510  1.00  0.00     0.238 C 
BRANCH   8   9
ATOM      9  N   UNL A   1      31.504  22.301  24.353  1.00  0.00    -0.351 N 
ATOM     10  H   UNL A   1      31.265  21.845  23.514  1.00  0.00     0.163 HD
BRANCH   9  11
ATOM     11  C   UNL A   1      31.505  23.646  24.376  1.00  0.00     0.184 A 
ATOM     12  N   UNL A   1      32.029  24.411  25.305  1.00  0.00    -0.220 NA
ATOM     13  S   UNL A   1      30.639  24.479  23.147  1.00  0.00    -0.096 S 
ATOM     14  C   UNL A   1      31.703  25.743  25.072  1.00  0.00     0.091 A 
ATOM     15  C   UNL A   1      30.867  25.955  23.987  1.00  0.00     0.064 A 
BRANCH  14  16
ATOM     16  C   UNL A   1      32.232  26.819  25.899  1.00  0.00     0.002 A 
ATOM     17  C   UNL A   1      31.422  27.495  26.823  1.00  0.00     0.010 A 
ATOM     18  C   UNL A   1      33.552  27.249  25.709  1.00  0.00     0.010 A 
ATOM     19  C   UNL A   1      31.909  28.613  27.507  1.00  0.00     0.001 A 
ATOM     20  C   UNL A   1      34.036  28.368  26.392  1.00  0.00     0.001 A 
ATOM     21  C   UNL A   1      33.211  29.056  27.282  1.00  0.00     0.000 A 
ENDBRANCH  14  16
BRANCH  15  22
ATOM     22  C   UNL A   1      30.253  27.162  23.451  1.00  0.00    -0.006 A 
ATOM     23  C   UNL A   1      28.869  27.358  23.565  1.00  0.00     0.009 A 
ATOM     24  C   UNL A   1      31.035  28.131  22.816  1.00  0.00     0.009 A 
ATOM     25  C   UNL A   1      28.275  28.503  23.034  1.00  0.00     0.001 A 
ATOM     26  C   UNL A   1      30.439  29.272  22.282  1.00  0.00     0.001 A 
ATOM     27  C   UNL A   1      29.059  29.455  22.387  1.00  0.00     0.000 A 
ENDBRANCH  15  22
ENDBRANCH   9  11
ENDBRANCH   8   9
ENDBRANCH   6   8
ENDBRANCH   5   6
ENDBRANCH   4   5
ENDBRANCH   3   4
ENDBRANCH   2   3
ENDBRANCH   1   2
BRANCH   1  28
ATOM     28  C   UNL A   1      38.859  23.145  26.445  1.00  0.00     0.188 C 
BRANCH  28  29
ATOM     29  O   UNL A   1      39.674  22.026  26.109  1.00  0.00    -0.376 OA
BRANCH  29  30
ATOM     30  C   UNL A   1      40.858  21.786  26.865  1.00  0.00     0.202 C 
BRANCH  30  31
ATOM     31  C   UNL A   1      42.151  22.469  26.414  1.00  0.00     0.261 C 
BRANCH  31  32
ATOM     32  O   UNL A   1      42.037  23.888  26.194  1.00  0.00    -0.460 OA
BRANCH  32  33
ATOM     33  C   UNL A   1      42.987  24.632  26.813  1.00  0.00     0.338 C 
ATOM     34  O   UNL A   1      44.197  24.498  26.729  1.00  0.00    -0.246 OA
BRANCH  33  35
ATOM     35  C   UNL A   1      42.387  25.746  27.568  1.00  0.00     0.060 A 
ATOM     36  C   UNL A   1      43.086  26.958  27.637  1.00  0.00     0.016 A 
ATOM     37  C   UNL A   1      41.257  25.533  28.359  1.00  0.00     0.016 A 
ATOM     38  C   UNL A   1      42.681  27.947  28.535  1.00  0.00     0.010 A 
ATOM     39  C   UNL A   1      40.860  26.522  29.268  1.00  0.00     0.010 A 
ATOM     40  C   UNL A   1      41.594  27.716  29.389  1.00  0.00    -0.014 A 
BRANCH  40  41
ATOM     41  C   UNL A   1      41.324  28.648  30.515  1.00  0.00     0.031 A 
ATOM     42  C   UNL A   1      42.158  28.547  31.766  1.00  0.00     0.074 A 
ATOM     43  C   UNL A   1      40.359  29.581  30.428  1.00  0.00     0.049 A 
ATOM     44  N   UNL A   1      42.060  29.218  32.885  1.00  0.00    -0.248 NA
ATOM     45  C   UNL A   1      43.245  27.555  31.752  1.00  0.00     0.031 C 
ATOM     46  C   UNL A   1      39.508  29.809  29.262  1.00  0.00     0.029 A 
ATOM     47  N   UNL A   1      39.925  30.503  31.348  1.00  0.00    -0.354 N 
ATOM     48  C   UNL A   1      43.067  28.729  33.709  1.00  0.00     0.074 A 
ATOM     49  C   UNL A   1      43.751  27.689  32.970  1.00  0.00     0.031 C 
ATOM     50  C   UNL A   1      38.641  30.797  29.543  1.00  0.00     0.029 A 
ATOM     51  C   UNL A   1      38.856  31.251  30.916  1.00  0.00     0.049 A 
ATOM     52  H   UNL A   1      40.340  30.618  32.232  1.00  0.00     0.167 HD
ATOM     53  C   UNL A   1      43.398  29.114  34.966  1.00  0.00     0.037 A 
ATOM     54  C   UNL A   1      38.119  32.176  31.563  1.00  0.00     0.037 A 
ATOM     55  C   UNL A   1      42.717  30.145  35.705  1.00  0.00     0.049 A 
ATOM     56  C   UNL A   1      38.461  32.541  32.985  1.00  0.00     0.074 A 
ATOM     57  C   UNL A   1      42.990  30.614  36.979  1.00  0.00     0.029 A 
ATOM     58  N   UNL A   1      41.624  30.862  35.243  1.00  0.00    -0.354 N 
ATOM     59  N   UNL A   1      39.428  32.085  33.746  1.00  0.00    -0.248 NA
ATOM     60  C   UNL A   1      37.610  33.548  33.639  1.00  0.00     0.031 C 
ATOM     61  C   UNL A   1      42.034  31.584  37.303  1.00  0.00     0.029 A 
ATOM     62  C   UNL A   1      41.196  31.753  36.214  1.00  0.00     0.049 A 
ATOM     63  H   UNL A   1      41.213  30.754  34.355  1.00  0.00     0.167 HD
ATOM     64  C   UNL A   1      39.317  32.766  34.954  1.00  0.00     0.074 A 
ATOM     65  C   UNL A   1      38.195  33.671  34.823  1.00  0.00     0.031 C 
ATOM     66  C   UNL A   1      40.080  32.655  36.070  1.00  0.00     0.037 A 
BRANCH  53  67
ATOM     67  C   UNL A   1      44.536  28.395  35.634  1.00  0.00     0.058 A 
ATOM     68  C   UNL A   1      45.863  28.832  35.500  1.00  0.00     0.135 A 
ATOM     69  C   UNL A   1      44.293  27.273  36.441  1.00  0.00     0.135 A 
ATOM     70  F   UNL A   1      46.152  29.890  34.728  1.00  0.00    -0.206 F 
ATOM     71  C   UNL A   1      46.913  28.165  36.124  1.00  0.00     0.059 A 
ATOM     72  C   UNL A   1      45.325  26.604  37.094  1.00  0.00     0.059 A 
ATOM     73  F   UNL A   1      43.041  26.814  36.602  1.00  0.00    -0.206 F 
ATOM     74  C   UNL A   1      46.634  27.050  36.916  1.00  0.00     0.060 A 
BRANCH  74  75
ATOM     75  S   UNL A   1      48.006  26.192  37.718  1.00  0.00     0.124 S 
ATOM     76  O   UNL A   1      47.449  24.854  37.893  1.00  0.00    -0.237 OA
ATOM     77  O   UNL A   1      49.071  26.310  36.728  1.00  0.00    -0.237 OA
ATOM     78  O   UNL A   1      48.210  26.953  38.947  1.00  0.00    -0.744 OA
ENDBRANCH  74  75
ENDBRANCH  53  67
BRANCH  54  79
ATOM     79  C   UNL A   1      36.966  32.817  30.878  1.00  0.00     0.058 A 
ATOM     80  C   UNL A   1      37.150  33.904  30.012  1.00  0.00     0.135 A 
ATOM     81  C   UNL A   1      35.656  32.356  31.082  1.00  0.00     0.135 A 
ATOM     82  F   UNL A   1      38.382  34.390  29.796  1.00  0.00    -0.206 F 
ATOM     83  C   UNL A   1      36.075  34.522  29.380  1.00  0.00     0.059 A 
ATOM     84  C   UNL A   1      34.567  32.943  30.445  1.00  0.00     0.059 A 
ATOM     85  F   UNL A   1      35.428  31.315  31.897  1.00  0.00    -0.206 F 
ATOM     86  C   UNL A   1      34.786  34.032  29.602  1.00  0.00     0.060 A 
BRANCH  86  87
ATOM     87  S   UNL A   1      33.401  34.807  28.741  1.00  0.00     0.124 S 
ATOM     88  O   UNL A   1      34.021  36.017  28.214  1.00  0.00    -0.237 OA
ATOM     89  O   UNL A   1      33.042  33.790  27.756  1.00  0.00    -0.237 OA
ATOM     90  O   UNL A   1      32.420  35.012  29.803  1.00  0.00    -0.744 OA
ENDBRANCH  86  87
ENDBRANCH  54  79
BRANCH  66  91
ATOM     91  C   UNL A   1      39.754  33.554  37.231  1.00  0.00     0.058 A 
ATOM     92  C   UNL A   1      38.858  33.164  38.238  1.00  0.00     0.135 A 
ATOM     93  C   UNL A   1      40.392  34.797  37.369  1.00  0.00     0.135 A 
ATOM     94  F   UNL A   1      38.217  31.987  38.153  1.00  0.00    -0.206 F 
ATOM     95  C   UNL A   1      38.592  33.982  39.332  1.00  0.00     0.059 A 
ATOM     96  C   UNL A   1      40.160  35.622  38.466  1.00  0.00     0.059 A 
ATOM     97  F   UNL A   1      41.267  35.214  36.440  1.00  0.00    -0.206 F 
ATOM     98  C   UNL A   1      39.249  35.210  39.438  1.00  0.00     0.060 A 
BRANCH  98  99
ATOM     99  S   UNL A   1      38.925  36.246  40.881  1.00  0.00     0.124 S 
ATOM    100  O   UNL A   1      37.826  35.529  41.517  1.00  0.00    -0.237 OA
ATOM    101  O   UNL A   1      40.201  36.209  41.588  1.00  0.00    -0.237 OA
ATOM    102  O   UNL A   1      38.577  37.539  40.298  1.00  0.00    -0.744 OA
ENDBRANCH  98  99
ENDBRANCH  66  91
ENDBRANCH  40  41
ENDBRANCH  33  35
ENDBRANCH  32  33
ENDBRANCH  31  32
ENDBRANCH  30  31
ENDBRANCH  29  30
ENDBRANCH  28  29
ENDBRANCH   1  28
TORSDOF 24
ENDMDL
MODEL 3
REMARK VINA RESULT:     -10.5      0.539      7.909
REMARK SMILES O=C(CNc1nc(-c2ccccc2)c(-c2ccccc2)s1)OCCOCCOCCOC(=O)c1ccc(-c2c3nc(c(-c4c(F)cc(S(=O)(=O)[O-])cc4F)c4ccc([nH]4)c(-c4c(F)cc(S(=O)(=O)[O-])cc4F)c4nc(c(-c5c(F)cc(S(=O)(=O)[O-])cc5F)c5ccc2[nH]5)C=C4)C=C3)cc1
REMARK SMILES IDX 26 1 25 2 24 3 23 4 22 5 2 6 1 7 3 8 4 9 5 11 6 12 21 13
REMARK SMILES IDX 7 14 14 15 8 16 9 17 13 18 10 19 12 20 11 21 15 22 16 23
REMARK SMILES IDX 20 24 17 25 19 26 18 27 27 28 28 29 29 30 30 31 31 32 32 33
REMARK SMILES IDX 33 34 34 35 35 36 99 37 36 38 98 39 37 40 38 41 39 42 92 43
REMARK SMILES IDX 40 44 97 45 91 46 93 47 41 48 96 49 90 50 89 51 42 53 76 54
REMARK SMILES IDX 55 55 75 56 56 57 59 58 74 59 94 60 57 61 58 62 73 64 95 65
REMARK SMILES IDX 60 66 43 67 44 68 53 69 45 70 46 71 52 72 54 73 47 74 48 75
REMARK SMILES IDX 49 76 50 77 51 78 77 79 78 80 87 81 79 82 80 83 86 84 88 85
REMARK SMILES IDX 81 86 82 87 83 88 84 89 85 90 61 91 62 92 71 93 63 94 64 95
REMARK SMILES IDX 70 96 72 97 65 98 66 99 67 100 68 101 69 102
REMARK H PARENT 4 10 93 52 59 63
REMARK Flexibility Score: inf
ROOT
ATOM      1  C   UNL A   1      37.359  22.687  25.762  1.00  0.00     0.188 C 
ENDROOT
BRANCH   1   2
ATOM      2  O   UNL A   1      37.351  21.916  24.574  1.00  0.00    -0.376 OA
BRANCH   2   3
ATOM      3  C   UNL A   1      36.737  22.515  23.449  1.00  0.00     0.202 C 
BRANCH   3   4
ATOM      4  C   UNL A   1      35.518  23.321  23.886  1.00  0.00     0.261 C 
BRANCH   4   5
ATOM      5  O   UNL A   1      34.648  23.779  22.825  1.00  0.00    -0.462 OA
BRANCH   5   6
ATOM      6  C   UNL A   1      33.530  23.193  22.338  1.00  0.00     0.325 C 
ATOM      7  O   UNL A   1      33.234  23.370  21.156  1.00  0.00    -0.250 OA
BRANCH   6   8
ATOM      8  C   UNL A   1      32.647  22.346  23.248  1.00  0.00     0.238 C 
BRANCH   8   9
ATOM      9  N   UNL A   1      31.369  22.984  23.498  1.00  0.00    -0.351 N 
ATOM     10  H   UNL A   1      30.550  22.446  23.413  1.00  0.00     0.163 HD
BRANCH   9  11
ATOM     11  C   UNL A   1      31.257  24.280  23.840  1.00  0.00     0.184 A 
ATOM     12  N   UNL A   1      30.622  25.212  23.170  1.00  0.00    -0.220 NA
ATOM     13  S   UNL A   1      32.119  24.831  25.221  1.00  0.00    -0.096 S 
ATOM     14  C   UNL A   1      30.850  26.457  23.746  1.00  0.00     0.091 A 
ATOM     15  C   UNL A   1      31.725  26.449  24.821  1.00  0.00     0.064 A 
BRANCH  14  16
ATOM     16  C   UNL A   1      30.190  27.662  23.259  1.00  0.00     0.002 A 
ATOM     17  C   UNL A   1      28.799  27.820  23.350  1.00  0.00     0.010 A 
ATOM     18  C   UNL A   1      30.945  28.646  22.608  1.00  0.00     0.010 A 
ATOM     19  C   UNL A   1      28.171  28.918  22.755  1.00  0.00     0.001 A 
ATOM     20  C   UNL A   1      30.315  29.742  22.013  1.00  0.00     0.001 A 
ATOM     21  C   UNL A   1      28.928  29.871  22.076  1.00  0.00     0.000 A 
ENDBRANCH  14  16
BRANCH  15  22
ATOM     22  C   UNL A   1      32.267  27.521  25.645  1.00  0.00    -0.006 A 
ATOM     23  C   UNL A   1      33.651  27.740  25.694  1.00  0.00     0.009 A 
ATOM     24  C   UNL A   1      31.414  28.336  26.395  1.00  0.00     0.009 A 
ATOM     25  C   UNL A   1      34.175  28.752  26.498  1.00  0.00     0.001 A 
ATOM     26  C   UNL A   1      31.940  29.344  27.202  1.00  0.00     0.001 A 
ATOM     27  C   UNL A   1      33.320  29.548  27.257  1.00  0.00     0.000 A 
ENDBRANCH  15  22
ENDBRANCH   9  11
ENDBRANCH   8   9
ENDBRANCH   6   8
ENDBRANCH   5   6
ENDBRANCH   4   5
ENDBRANCH   3   4
ENDBRANCH   2   3
ENDBRANCH   1   2
BRANCH   1  28
ATOM     28  C   UNL A   1      38.731  22.644  26.451  1.00  0.00     0.188 C 
BRANCH  28  29
ATOM     29  O   UNL A   1      39.746  21.804  25.909  1.00  0.00    -0.376 OA
BRANCH  29  30
ATOM     30  C   UNL A   1      40.984  21.684  26.605  1.00  0.00     0.202 C 
BRANCH  30  31
ATOM     31  C   UNL A   1      42.144  22.583  26.170  1.00  0.00     0.261 C 
BRANCH  31  32
ATOM     32  O   UNL A   1      41.828  23.987  26.111  1.00  0.00    -0.460 OA
BRANCH  32  33
ATOM     33  C   UNL A   1      42.777  24.801  26.636  1.00  0.00     0.338 C 
ATOM     34  O   UNL A   1      43.973  24.785  26.397  1.00  0.00    -0.246 OA
BRANCH  33  35
ATOM     35  C   UNL A   1      42.179  25.833  27.501  1.00  0.00     0.060 A 
ATOM     36  C   UNL A   1      42.842  27.059  27.633  1.00  0.00     0.016 A 
ATOM     37  C   UNL A   1      41.094  25.521  28.323  1.00  0.00     0.016 A 
ATOM     38  C   UNL A   1      42.449  27.962  28.623  1.00  0.00     0.010 A 
ATOM     39  C   UNL A   1      40.711  26.423  29.324  1.00  0.00     0.010 A 
ATOM     40  C   UNL A   1      41.411  27.629  29.504  1.00  0.00    -0.014 A 
BRANCH  40  41
ATOM     41  C   UNL A   1      41.166  28.462  30.710  1.00  0.00     0.031 A 
ATOM     42  C   UNL A   1      40.059  29.483  30.683  1.00  0.00     0.074 A 
ATOM     43  C   UNL A   1      41.909  28.310  31.821  1.00  0.00     0.049 A 
ATOM     44  N   UNL A   1      39.707  30.351  31.598  1.00  0.00    -0.248 NA
ATOM     45  C   UNL A   1      39.241  29.533  29.460  1.00  0.00     0.031 C 
ATOM     46  C   UNL A   1      42.984  27.334  31.991  1.00  0.00     0.029 A 
ATOM     47  N   UNL A   1      41.877  28.988  33.014  1.00  0.00    -0.354 N 
ATOM     48  C   UNL A   1      38.633  31.051  31.062  1.00  0.00     0.074 A 
ATOM     49  C   UNL A   1      38.404  30.524  29.733  1.00  0.00     0.031 C 
ATOM     50  C   UNL A   1      43.522  27.489  33.214  1.00  0.00     0.029 A 
ATOM     51  C   UNL A   1      42.850  28.591  33.900  1.00  0.00     0.049 A 
ATOM     52  H   UNL A   1      41.220  29.692  33.217  1.00  0.00     0.167 HD
ATOM     53  C   UNL A   1      37.898  32.041  31.626  1.00  0.00     0.037 A 
ATOM     54  C   UNL A   1      43.177  29.078  35.114  1.00  0.00     0.037 A 
ATOM     55  C   UNL A   1      38.126  32.571  32.944  1.00  0.00     0.049 A 
ATOM     56  C   UNL A   1      42.390  30.225  35.695  1.00  0.00     0.074 A 
ATOM     57  C   UNL A   1      37.424  33.564  33.606  1.00  0.00     0.029 A 
ATOM     58  N   UNL A   1      39.136  32.159  33.801  1.00  0.00    -0.354 N 
ATOM     59  N   UNL A   1      41.365  30.865  35.186  1.00  0.00    -0.248 NA
ATOM     60  C   UNL A   1      42.807  30.718  37.017  1.00  0.00     0.031 C 
ATOM     61  C   UNL A   1      38.037  33.782  34.846  1.00  0.00     0.029 A 
ATOM     62  C   UNL A   1      39.091  32.893  34.975  1.00  0.00     0.049 A 
ATOM     63  H   UNL A   1      39.788  31.449  33.604  1.00  0.00     0.167 HD
ATOM     64  C   UNL A   1      40.998  31.816  36.134  1.00  0.00     0.074 A 
ATOM     65  C   UNL A   1      41.906  31.663  37.251  1.00  0.00     0.031 C 
ATOM     66  C   UNL A   1      39.997  32.729  36.085  1.00  0.00     0.037 A 
BRANCH  53  67
ATOM     67  C   UNL A   1      36.790  32.636  30.803  1.00  0.00     0.058 A 
ATOM     68  C   UNL A   1      37.046  33.570  29.788  1.00  0.00     0.135 A 
ATOM     69  C   UNL A   1      35.458  32.243  31.013  1.00  0.00     0.135 A 
ATOM     70  F   UNL A   1      38.298  33.991  29.556  1.00  0.00    -0.206 F 
ATOM     71  C   UNL A   1      36.017  34.114  29.026  1.00  0.00     0.059 A 
ATOM     72  C   UNL A   1      34.415  32.756  30.247  1.00  0.00     0.059 A 
ATOM     73  F   UNL A   1      35.160  31.352  31.972  1.00  0.00    -0.206 F 
ATOM     74  C   UNL A   1      34.704  33.703  29.265  1.00  0.00     0.060 A 
BRANCH  74  75
ATOM     75  S   UNL A   1      33.377  34.419  28.271  1.00  0.00     0.124 S 
ATOM     76  O   UNL A   1      32.536  35.022  29.301  1.00  0.00    -0.237 OA
ATOM     77  O   UNL A   1      34.097  35.355  27.415  1.00  0.00    -0.237 OA
ATOM     78  O   UNL A   1      32.803  33.264  27.589  1.00  0.00    -0.744 OA
ENDBRANCH  74  75
ENDBRANCH  53  67
BRANCH  54  79
ATOM     79  C   UNL A   1      44.319  28.493  35.864  1.00  0.00     0.058 A 
ATOM     80  C   UNL A   1      45.634  28.924  35.635  1.00  0.00     0.135 A 
ATOM     81  C   UNL A   1      44.117  27.486  36.821  1.00  0.00     0.135 A 
ATOM     82  F   UNL A   1      45.879  29.874  34.720  1.00  0.00    -0.206 F 
ATOM     83  C   UNL A   1      46.712  28.370  36.320  1.00  0.00     0.059 A 
ATOM     84  C   UNL A   1      45.175  26.932  37.534  1.00  0.00     0.059 A 
ATOM     85  F   UNL A   1      42.877  27.044  37.080  1.00  0.00    -0.206 F 
ATOM     86  C   UNL A   1      46.471  27.375  37.269  1.00  0.00     0.060 A 
BRANCH  86  87
ATOM     87  S   UNL A   1      47.869  26.694  38.188  1.00  0.00     0.124 S 
ATOM     88  O   UNL A   1      48.691  27.880  38.395  1.00  0.00    -0.237 OA
ATOM     89  O   UNL A   1      47.219  26.151  39.379  1.00  0.00    -0.237 OA
ATOM     90  O   UNL A   1      48.417  25.696  37.274  1.00  0.00    -0.744 OA
ENDBRANCH  86  87
ENDBRANCH  54  79
BRANCH  66  91
ATOM     91  C   UNL A   1      39.801  33.616  37.284  1.00  0.00     0.058 A 
ATOM     92  C   UNL A   1      40.491  34.831  37.423  1.00  0.00     0.135 A 
ATOM     93  C   UNL A   1      38.868  33.276  38.277  1.00  0.00     0.135 A 
ATOM     94  F   UNL A   1      41.398  35.202  36.505  1.00  0.00    -0.206 F 
ATOM     95  C   UNL A   1      40.276  35.668  38.514  1.00  0.00     0.059 A 
ATOM     96  C   UNL A   1      38.619  34.108  39.363  1.00  0.00     0.059 A 
ATOM     97  F   UNL A   1      38.174  32.131  38.187  1.00  0.00    -0.206 F 
ATOM     98  C   UNL A   1      39.336  35.299  39.479  1.00  0.00     0.060 A 
BRANCH  98  99
ATOM     99  S   UNL A   1      39.037  36.411  40.870  1.00  0.00     0.124 S 
ATOM    100  O   UNL A   1      40.361  36.483  41.478  1.00  0.00    -0.237 OA
ATOM    101  O   UNL A   1      38.577  37.627  40.207  1.00  0.00    -0.237 OA
ATOM    102  O   UNL A   1      38.023  35.711  41.652  1.00  0.00    -0.744 OA
ENDBRANCH  98  99
ENDBRANCH  66  91
ENDBRANCH  40  41
ENDBRANCH  33  35
ENDBRANCH  32  33
ENDBRANCH  31  32
ENDBRANCH  30  31
ENDBRANCH  29  30
ENDBRANCH  28  29
ENDBRANCH   1  28
TORSDOF 24
ENDMDL
