MODEL 1
REMARK VINA RESULT:     -13.0      0.000      0.000
REMARK SMILES Cc1ccccc1[C@@H]1[NH2+][C@@H](C(=O)OCCOCCOCCOC(=O)c2ccc(-c3c4nc(c(-c5c(F)cc(S(=O)(=O)[O-])cc5F)c5ccc([nH]5)c(-c5c(F)cc(S(=O)(=O)[O-])cc5F)c5nc(c(-c6c(F)cc(S(=O)(=O)[O-])cc6F)c6ccc3[nH]6)C=C5)C=C4)cc2)CC2=c3ccccc3=N[C@H]21
REMARK SMILES IDX 18 1 17 2 16 3 15 4 14 5 13 6 11 7 12 8 10 9 8 10 9 11
REMARK SMILES IDX 100 12 92 15 99 16 91 17 93 18 98 19 94 20 97 21 95 22 96 23
REMARK SMILES IDX 7 24 1 25 2 26 3 27 4 28 6 29 5 30 19 31 20 32 21 33 22 34
REMARK SMILES IDX 23 35 24 36 25 37 26 38 90 39 27 40 89 41 28 42 29 43 30 44
REMARK SMILES IDX 83 45 31 46 88 47 82 48 84 49 32 50 87 51 81 52 80 53 33 55
REMARK SMILES IDX 67 56 46 57 66 58 47 59 50 60 65 61 85 62 48 63 49 64 64 66
REMARK SMILES IDX 86 67 51 68 34 69 35 70 44 71 36 72 37 73 43 74 45 75 38 76
REMARK SMILES IDX 39 77 40 78 41 79 42 80 68 81 69 82 78 83 70 84 71 85 77 86
REMARK SMILES IDX 79 87 72 88 73 89 74 90 75 91 76 92 52 93 53 94 62 95 54 96
REMARK SMILES IDX 55 97 61 98 63 99 56 100 57 101 58 102 59 103 60 104
REMARK H PARENT 9 13 9 14 84 54 50 65
REMARK Flexibility Score: inf
ROOT
ATOM      1  C   UNL A   1      36.042  22.699  24.064  1.00  0.00     0.188 C 
ENDROOT
BRANCH   1   2
ATOM      2  C   UNL A   1      35.825  23.658  25.253  1.00  0.00     0.188 C 
BRANCH   2   3
ATOM      3  O   UNL A   1      34.589  23.811  25.997  1.00  0.00    -0.376 OA
BRANCH   3   4
ATOM      4  C   UNL A   1      33.888  22.787  26.747  1.00  0.00     0.202 C 
BRANCH   4   5
ATOM      5  C   UNL A   1      32.175  22.588  26.819  1.00  0.00     0.261 C 
BRANCH   5   6
ATOM      6  O   UNL A   1      30.978  23.562  26.214  1.00  0.00    -0.459 OA
BRANCH   6   7
ATOM      7  C   UNL A   1      30.692  24.960  26.147  1.00  0.00     0.365 C 
ATOM      8  O   UNL A   1      29.683  25.580  26.499  1.00  0.00    -0.245 OA
BRANCH   7   9
ATOM      9  C   UNL A   1      31.739  25.922  25.603  1.00  0.00     0.298 C 
ATOM     10  C   UNL A   1      31.843  28.528  26.003  1.00  0.00     0.243 C 
ATOM     11  N   UNL A   1      31.793  27.137  26.538  1.00  0.00    -0.326 N 
ATOM     12  C   UNL A   1      31.710  28.678  24.455  1.00  0.00     0.196 C 
ATOM     13  H   UNL A   1      30.962  27.084  27.126  1.00  0.00     0.347 HD
ATOM     14  H   UNL A   1      32.709  27.036  26.976  1.00  0.00     0.347 HD
ATOM     15  C   UNL A   1      30.796  27.582  23.997  1.00  0.00    -0.024 C 
ATOM     16  N   UNL A   1      31.001  29.940  24.068  1.00  0.00    -0.270 NA
ATOM     17  C   UNL A   1      31.307  26.198  24.168  1.00  0.00     0.111 C 
ATOM     18  C   UNL A   1      29.599  28.060  23.685  1.00  0.00     0.002 A 
ATOM     19  C   UNL A   1      29.839  29.512  23.672  1.00  0.00     0.066 A 
ATOM     20  C   UNL A   1      28.303  27.510  23.464  1.00  0.00     0.010 A 
ATOM     21  C   UNL A   1      28.728  30.348  23.165  1.00  0.00     0.028 A 
ATOM     22  C   UNL A   1      27.305  28.343  23.126  1.00  0.00     0.001 A 
ATOM     23  C   UNL A   1      27.546  29.761  22.906  1.00  0.00     0.002 A 
BRANCH  10  24
ATOM     24  C   UNL A   1      33.029  29.330  26.566  1.00  0.00     0.015 A 
ATOM     25  C   UNL A   1      31.693  31.502  26.871  1.00  0.00     0.045 C 
ATOM     26  C   UNL A   1      32.931  30.668  27.003  1.00  0.00    -0.042 A 
ATOM     27  C   UNL A   1      34.033  31.284  27.627  1.00  0.00     0.004 A 
ATOM     28  C   UNL A   1      35.246  30.621  27.778  1.00  0.00     0.000 A 
ATOM     29  C   UNL A   1      34.286  28.691  26.696  1.00  0.00     0.010 A 
ATOM     30  C   UNL A   1      35.381  29.329  27.291  1.00  0.00     0.001 A 
ENDBRANCH  10  24
ENDBRANCH   7   9
ENDBRANCH   6   7
ENDBRANCH   5   6
ENDBRANCH   4   5
ENDBRANCH   3   4
ENDBRANCH   2   3
ENDBRANCH   1   2
BRANCH   1  31
ATOM     31  O   UNL A   1      37.167  21.859  24.246  1.00  0.00    -0.376 OA
BRANCH  31  32
ATOM     32  C   UNL A   1      37.905  22.034  25.450  1.00  0.00     0.202 C 
BRANCH  32  33
ATOM     33  C   UNL A   1      38.779  20.834  25.912  1.00  0.00     0.261 C 
BRANCH  33  34
ATOM     34  O   UNL A   1      40.189  20.960  25.565  1.00  0.00    -0.460 OA
BRANCH  34  35
ATOM     35  C   UNL A   1      41.105  21.349  26.552  1.00  0.00     0.338 C 
ATOM     36  O   UNL A   1      41.854  20.579  27.053  1.00  0.00    -0.246 OA
BRANCH  35  37
ATOM     37  C   UNL A   1      41.136  22.866  26.688  1.00  0.00     0.060 A 
ATOM     38  C   UNL A   1      41.530  23.890  25.812  1.00  0.00     0.016 A 
ATOM     39  C   UNL A   1      40.754  23.324  27.890  1.00  0.00     0.016 A 
ATOM     40  C   UNL A   1      41.593  25.330  26.217  1.00  0.00     0.010 A 
ATOM     41  C   UNL A   1      41.037  24.639  28.244  1.00  0.00     0.010 A 
ATOM     42  C   UNL A   1      41.328  25.774  27.514  1.00  0.00    -0.014 A 
BRANCH  42  43
ATOM     43  C   UNL A   1      41.427  27.168  28.314  1.00  0.00     0.031 A 
ATOM     44  C   UNL A   1      40.367  28.430  28.709  1.00  0.00     0.074 A 
ATOM     45  C   UNL A   1      42.586  27.259  29.005  1.00  0.00     0.049 A 
ATOM     46  N   UNL A   1      40.777  29.558  29.271  1.00  0.00    -0.248 NA
ATOM     47  C   UNL A   1      38.880  28.622  28.542  1.00  0.00     0.031 C 
ATOM     48  C   UNL A   1      42.889  28.083  30.173  1.00  0.00     0.029 A 
ATOM     49  N   UNL A   1      43.811  26.676  28.681  1.00  0.00    -0.354 N 
ATOM     50  C   UNL A   1      39.679  30.334  29.682  1.00  0.00     0.074 A 
ATOM     51  C   UNL A   1      38.574  29.828  28.987  1.00  0.00     0.031 C 
ATOM     52  C   UNL A   1      44.217  28.186  30.300  1.00  0.00     0.029 A 
ATOM     53  C   UNL A   1      44.806  27.548  29.142  1.00  0.00     0.049 A 
ATOM     54  H   UNL A   1      43.950  25.818  28.218  1.00  0.00     0.167 HD
ATOM     55  C   UNL A   1      39.722  31.263  30.681  1.00  0.00     0.037 A 
ATOM     56  C   UNL A   1      45.679  28.118  28.266  1.00  0.00     0.037 A 
ATOM     57  C   UNL A   1      41.103  31.590  30.938  1.00  0.00     0.049 A 
ATOM     58  C   UNL A   1      45.665  29.626  28.289  1.00  0.00     0.074 A 
ATOM     59  C   UNL A   1      41.993  31.333  31.958  1.00  0.00     0.029 A 
ATOM     60  N   UNL A   1      41.834  32.095  29.876  1.00  0.00    -0.354 N 
ATOM     61  N   UNL A   1      44.784  30.337  28.936  1.00  0.00    -0.248 NA
ATOM     62  C   UNL A   1      46.641  30.464  27.605  1.00  0.00     0.031 C 
ATOM     63  C   UNL A   1      43.294  31.634  31.467  1.00  0.00     0.029 A 
ATOM     64  C   UNL A   1      43.176  32.113  30.172  1.00  0.00     0.049 A 
ATOM     65  H   UNL A   1      41.446  32.399  29.024  1.00  0.00     0.167 HD
ATOM     66  C   UNL A   1      44.988  31.674  28.707  1.00  0.00     0.074 A 
ATOM     67  C   UNL A   1      46.199  31.698  27.911  1.00  0.00     0.031 C 
ATOM     68  C   UNL A   1      44.108  32.616  29.171  1.00  0.00     0.037 A 
BRANCH  55  69
ATOM     69  C   UNL A   1      38.533  31.819  31.509  1.00  0.00     0.058 A 
ATOM     70  C   UNL A   1      37.680  32.803  30.951  1.00  0.00     0.135 A 
ATOM     71  C   UNL A   1      38.229  31.540  32.869  1.00  0.00     0.135 A 
ATOM     72  F   UNL A   1      37.831  33.207  29.681  1.00  0.00    -0.206 F 
ATOM     73  C   UNL A   1      36.657  33.457  31.667  1.00  0.00     0.059 A 
ATOM     74  C   UNL A   1      37.182  32.140  33.587  1.00  0.00     0.059 A 
ATOM     75  F   UNL A   1      38.962  30.722  33.630  1.00  0.00    -0.206 F 
ATOM     76  C   UNL A   1      36.415  33.121  32.990  1.00  0.00     0.060 A 
BRANCH  76  77
ATOM     77  S   UNL A   1      35.155  34.004  33.938  1.00  0.00     0.124 S 
ATOM     78  O   UNL A   1      33.924  33.384  33.459  1.00  0.00    -0.237 OA
ATOM     79  O   UNL A   1      35.527  33.701  35.315  1.00  0.00    -0.237 OA
ATOM     80  O   UNL A   1      35.339  35.397  33.537  1.00  0.00    -0.744 OA
ENDBRANCH  76  77
ENDBRANCH  55  69
BRANCH  56  81
ATOM     81  C   UNL A   1      46.022  27.192  27.144  1.00  0.00     0.058 A 
ATOM     82  C   UNL A   1      46.834  26.088  27.482  1.00  0.00     0.135 A 
ATOM     83  C   UNL A   1      45.217  27.065  26.000  1.00  0.00     0.135 A 
ATOM     84  F   UNL A   1      47.619  26.146  28.570  1.00  0.00    -0.206 F 
ATOM     85  C   UNL A   1      46.726  24.864  26.831  1.00  0.00     0.059 A 
ATOM     86  C   UNL A   1      45.119  25.848  25.308  1.00  0.00     0.059 A 
ATOM     87  F   UNL A   1      44.402  28.067  25.634  1.00  0.00    -0.206 F 
ATOM     88  C   UNL A   1      45.819  24.737  25.784  1.00  0.00     0.060 A 
BRANCH  88  89
ATOM     89  S   UNL A   1      45.460  23.058  25.204  1.00  0.00     0.124 S 
ATOM     90  O   UNL A   1      44.614  22.538  26.273  1.00  0.00    -0.237 OA
ATOM     91  O   UNL A   1      44.776  23.326  23.940  1.00  0.00    -0.237 OA
ATOM     92  O   UNL A   1      46.779  22.449  25.097  1.00  0.00    -0.744 OA
ENDBRANCH  88  89
ENDBRANCH  56  81
BRANCH  68  93
ATOM     93  C   UNL A   1      43.996  34.083  28.761  1.00  0.00     0.058 A 
ATOM     94  C   UNL A   1      44.156  35.177  29.627  1.00  0.00     0.135 A 
ATOM     95  C   UNL A   1      43.851  34.439  27.389  1.00  0.00     0.135 A 
ATOM     96  F   UNL A   1      44.420  35.016  30.928  1.00  0.00    -0.206 F 
ATOM     97  C   UNL A   1      44.100  36.505  29.189  1.00  0.00     0.059 A 
ATOM     98  C   UNL A   1      43.868  35.752  26.923  1.00  0.00     0.059 A 
ATOM     99  F   UNL A   1      43.699  33.516  26.427  1.00  0.00    -0.206 F 
ATOM    100  C   UNL A   1      43.955  36.785  27.837  1.00  0.00     0.060 A 
BRANCH 100 101
ATOM    101  S   UNL A   1      43.912  38.494  27.275  1.00  0.00     0.124 S 
ATOM    102  O   UNL A   1      45.146  38.574  26.501  1.00  0.00    -0.237 OA
ATOM    103  O   UNL A   1      42.676  38.548  26.500  1.00  0.00    -0.237 OA
ATOM    104  O   UNL A   1      43.894  39.258  28.519  1.00  0.00    -0.744 OA
ENDBRANCH 100 101
ENDBRANCH  68  93
ENDBRANCH  42  43
ENDBRANCH  35  37
ENDBRANCH  34  35
ENDBRANCH  33  34
ENDBRANCH  32  33
ENDBRANCH  31  32
ENDBRANCH   1  31
TORSDOF 21
ENDMDL
MODEL 2
REMARK VINA RESULT:     -11.2      5.575     10.174
REMARK SMILES Cc1ccccc1[C@@H]1[NH2+][C@@H](C(=O)OCCOCCOCCOC(=O)c2ccc(-c3c4nc(c(-c5c(F)cc(S(=O)(=O)[O-])cc5F)c5ccc([nH]5)c(-c5c(F)cc(S(=O)(=O)[O-])cc5F)c5nc(c(-c6c(F)cc(S(=O)(=O)[O-])cc6F)c6ccc3[nH]6)C=C5)C=C4)cc2)CC2=c3ccccc3=N[C@H]21
REMARK SMILES IDX 18 1 17 2 16 3 15 4 14 5 13 6 11 7 12 8 10 9 8 10 9 11
REMARK SMILES IDX 100 12 92 15 99 16 91 17 93 18 98 19 94 20 97 21 95 22 96 23
REMARK SMILES IDX 7 24 1 25 2 26 3 27 4 28 6 29 5 30 19 31 20 32 21 33 22 34
REMARK SMILES IDX 23 35 24 36 25 37 26 38 90 39 27 40 89 41 28 42 29 43 30 44
REMARK SMILES IDX 83 45 31 46 88 47 82 48 84 49 32 50 87 51 81 52 80 53 33 55
REMARK SMILES IDX 67 56 46 57 66 58 47 59 50 60 65 61 85 62 48 63 49 64 64 66
REMARK SMILES IDX 86 67 51 68 34 69 35 70 44 71 36 72 37 73 43 74 45 75 38 76
REMARK SMILES IDX 39 77 40 78 41 79 42 80 68 81 69 82 78 83 70 84 71 85 77 86
REMARK SMILES IDX 79 87 72 88 73 89 74 90 75 91 76 92 52 93 53 94 62 95 54 96
REMARK SMILES IDX 55 97 61 98 63 99 56 100 57 101 58 102 59 103 60 104
REMARK H PARENT 9 13 9 14 84 54 50 65
REMARK Flexibility Score: inf
ROOT
ATOM      1  C   UNL A   1      43.267  22.400  26.042  1.00  0.00     0.188 C 
ENDROOT
BRANCH   1   2
ATOM      2  C   UNL A   1      42.456  21.149  26.437  1.00  0.00     0.188 C 
BRANCH   2   3
ATOM      3  O   UNL A   1      41.135  21.157  27.037  1.00  0.00    -0.376 OA
BRANCH   3   4
ATOM      4  C   UNL A   1      39.902  21.616  26.430  1.00  0.00     0.202 C 
BRANCH   4   5
ATOM      5  C   UNL A   1      39.268  23.218  26.527  1.00  0.00     0.261 C 
BRANCH   5   6
ATOM      6  O   UNL A   1      37.691  23.728  26.478  1.00  0.00    -0.459 OA
BRANCH   6   7
ATOM      7  C   UNL A   1      36.533  23.492  25.675  1.00  0.00     0.365 C 
ATOM      8  O   UNL A   1      36.167  24.043  24.631  1.00  0.00    -0.245 OA
BRANCH   7   9
ATOM      9  C   UNL A   1      35.555  22.392  26.063  1.00  0.00     0.298 C 
ATOM     10  C   UNL A   1      33.423  21.630  24.709  1.00  0.00     0.243 C 
ATOM     11  N   UNL A   1      34.892  21.877  24.780  1.00  0.00    -0.326 N 
ATOM     12  C   UNL A   1      32.591  22.043  25.963  1.00  0.00     0.196 C 
ATOM     13  H   UNL A   1      35.104  22.560  24.052  1.00  0.00     0.347 HD
ATOM     14  H   UNL A   1      35.278  20.937  24.695  1.00  0.00     0.347 HD
ATOM     15  C   UNL A   1      33.262  23.252  26.541  1.00  0.00    -0.024 C 
ATOM     16  N   UNL A   1      31.217  22.517  25.601  1.00  0.00    -0.270 NA
ATOM     17  C   UNL A   1      34.627  23.038  27.086  1.00  0.00     0.111 C 
ATOM     18  C   UNL A   1      32.564  24.350  26.287  1.00  0.00     0.002 A 
ATOM     19  C   UNL A   1      31.292  23.801  25.789  1.00  0.00     0.066 A 
ATOM     20  C   UNL A   1      32.810  25.754  26.333  1.00  0.00     0.010 A 
ATOM     21  C   UNL A   1      30.200  24.778  25.587  1.00  0.00     0.028 A 
ATOM     22  C   UNL A   1      31.807  26.588  26.016  1.00  0.00     0.001 A 
ATOM     23  C   UNL A   1      30.474  26.089  25.713  1.00  0.00     0.002 A 
BRANCH  10  24
ATOM     24  C   UNL A   1      33.091  20.206  24.232  1.00  0.00     0.015 A 
ATOM     25  C   UNL A   1      31.884  20.969  22.098  1.00  0.00     0.045 C 
ATOM     26  C   UNL A   1      32.433  19.921  23.016  1.00  0.00    -0.042 A 
ATOM     27  C   UNL A   1      32.286  18.585  22.596  1.00  0.00     0.004 A 
ATOM     28  C   UNL A   1      32.728  17.524  23.379  1.00  0.00     0.000 A 
ATOM     29  C   UNL A   1      33.496  19.107  25.029  1.00  0.00     0.010 A 
ATOM     30  C   UNL A   1      33.313  17.784  24.609  1.00  0.00     0.001 A 
ENDBRANCH  10  24
ENDBRANCH   7   9
ENDBRANCH   6   7
ENDBRANCH   5   6
ENDBRANCH   4   5
ENDBRANCH   3   4
ENDBRANCH   2   3
ENDBRANCH   1   2
BRANCH   1  31
ATOM     31  O   UNL A   1      42.728  23.589  26.591  1.00  0.00    -0.376 OA
BRANCH  31  32
ATOM     32  C   UNL A   1      43.198  24.814  26.043  1.00  0.00     0.202 C 
BRANCH  32  33
ATOM     33  C   UNL A   1      42.775  26.115  26.781  1.00  0.00     0.261 C 
BRANCH  33  34
ATOM     34  O   UNL A   1      41.846  25.897  27.882  1.00  0.00    -0.460 OA
BRANCH  34  35
ATOM     35  C   UNL A   1      40.666  26.651  27.943  1.00  0.00     0.338 C 
ATOM     36  O   UNL A   1      39.880  26.660  27.055  1.00  0.00    -0.246 OA
BRANCH  35  37
ATOM     37  C   UNL A   1      40.466  27.225  29.339  1.00  0.00     0.060 A 
ATOM     38  C   UNL A   1      39.351  27.285  30.190  1.00  0.00     0.016 A 
ATOM     39  C   UNL A   1      41.549  27.830  29.852  1.00  0.00     0.016 A 
ATOM     40  C   UNL A   1      39.357  28.025  31.491  1.00  0.00     0.010 A 
ATOM     41  C   UNL A   1      41.410  28.659  30.961  1.00  0.00     0.010 A 
ATOM     42  C   UNL A   1      40.448  28.769  31.945  1.00  0.00    -0.014 A 
BRANCH  42  43
ATOM     43  C   UNL A   1      40.753  29.764  33.174  1.00  0.00     0.031 A 
ATOM     44  C   UNL A   1      41.580  29.667  34.650  1.00  0.00     0.074 A 
ATOM     45  C   UNL A   1      40.442  31.043  32.863  1.00  0.00     0.049 A 
ATOM     46  N   UNL A   1      41.540  30.633  35.557  1.00  0.00    -0.248 NA
ATOM     47  C   UNL A   1      42.451  28.608  35.281  1.00  0.00     0.031 C 
ATOM     48  C   UNL A   1      40.952  32.276  33.457  1.00  0.00     0.029 A 
ATOM     49  N   UNL A   1      39.455  31.481  31.980  1.00  0.00    -0.354 N 
ATOM     50  C   UNL A   1      42.475  30.392  36.579  1.00  0.00     0.074 A 
ATOM     51  C   UNL A   1      42.806  29.036  36.479  1.00  0.00     0.031 C 
ATOM     52  C   UNL A   1      40.119  33.280  33.158  1.00  0.00     0.029 A 
ATOM     53  C   UNL A   1      38.979  32.700  32.481  1.00  0.00     0.049 A 
ATOM     54  H   UNL A   1      39.151  31.023  31.162  1.00  0.00     0.167 HD
ATOM     55  C   UNL A   1      43.027  31.362  37.364  1.00  0.00     0.037 A 
ATOM     56  C   UNL A   1      37.674  32.829  32.846  1.00  0.00     0.037 A 
ATOM     57  C   UNL A   1      42.219  32.552  37.251  1.00  0.00     0.049 A 
ATOM     58  C   UNL A   1      37.484  33.240  34.285  1.00  0.00     0.074 A 
ATOM     59  C   UNL A   1      42.377  33.786  36.658  1.00  0.00     0.029 A 
ATOM     60  N   UNL A   1      40.887  32.440  37.612  1.00  0.00    -0.354 N 
ATOM     61  N   UNL A   1      38.448  33.290  35.163  1.00  0.00    -0.248 NA
ATOM     62  C   UNL A   1      36.207  33.642  34.860  1.00  0.00     0.031 C 
ATOM     63  C   UNL A   1      41.093  34.396  36.610  1.00  0.00     0.029 A 
ATOM     64  C   UNL A   1      40.178  33.547  37.214  1.00  0.00     0.049 A 
ATOM     65  H   UNL A   1      40.500  31.671  38.090  1.00  0.00     0.167 HD
ATOM     66  C   UNL A   1      37.954  33.626  36.397  1.00  0.00     0.074 A 
ATOM     67  C   UNL A   1      36.552  33.890  36.137  1.00  0.00     0.031 C 
ATOM     68  C   UNL A   1      38.752  33.611  37.510  1.00  0.00     0.037 A 
BRANCH  55  69
ATOM     69  C   UNL A   1      44.353  31.291  38.167  1.00  0.00     0.058 A 
ATOM     70  C   UNL A   1      45.576  31.047  37.493  1.00  0.00     0.135 A 
ATOM     71  C   UNL A   1      44.506  31.332  39.579  1.00  0.00     0.135 A 
ATOM     72  F   UNL A   1      45.622  30.957  36.156  1.00  0.00    -0.206 F 
ATOM     73  C   UNL A   1      46.807  30.840  38.147  1.00  0.00     0.059 A 
ATOM     74  C   UNL A   1      45.730  31.181  40.249  1.00  0.00     0.059 A 
ATOM     75  F   UNL A   1      43.477  31.448  40.422  1.00  0.00    -0.206 F 
ATOM     76  C   UNL A   1      46.877  30.906  39.530  1.00  0.00     0.060 A 
BRANCH  76  77
ATOM     77  S   UNL A   1      48.435  30.570  40.381  1.00  0.00     0.124 S 
ATOM     78  O   UNL A   1      49.346  31.504  39.727  1.00  0.00    -0.237 OA
ATOM     79  O   UNL A   1      48.106  30.868  41.770  1.00  0.00    -0.237 OA
ATOM     80  O   UNL A   1      48.686  29.160  40.092  1.00  0.00    -0.744 OA
ENDBRANCH  76  77
ENDBRANCH  55  69
BRANCH  56  81
ATOM     81  C   UNL A   1      36.769  32.032  31.964  1.00  0.00     0.058 A 
ATOM     82  C   UNL A   1      36.372  32.659  30.763  1.00  0.00     0.135 A 
ATOM     83  C   UNL A   1      36.734  30.628  31.992  1.00  0.00     0.135 A 
ATOM     84  F   UNL A   1      36.392  33.999  30.671  1.00  0.00    -0.206 F 
ATOM     85  C   UNL A   1      36.122  31.938  29.600  1.00  0.00     0.059 A 
ATOM     86  C   UNL A   1      36.452  29.882  30.837  1.00  0.00     0.059 A 
ATOM     87  F   UNL A   1      37.123  29.966  33.093  1.00  0.00    -0.206 F 
ATOM     88  C   UNL A   1      36.227  30.552  29.633  1.00  0.00     0.060 A 
BRANCH  88  89
ATOM     89  S   UNL A   1      36.242  29.688  28.040  1.00  0.00     0.124 S 
ATOM     90  O   UNL A   1      36.513  30.774  27.104  1.00  0.00    -0.237 OA
ATOM     91  O   UNL A   1      37.338  28.739  28.231  1.00  0.00    -0.237 OA
ATOM     92  O   UNL A   1      34.907  29.109  27.957  1.00  0.00    -0.744 OA
ENDBRANCH  88  89
ENDBRANCH  56  81
BRANCH  68  93
ATOM     93  C   UNL A   1      38.326  33.645  38.976  1.00  0.00     0.058 A 
ATOM     94  C   UNL A   1      37.620  32.626  39.635  1.00  0.00     0.135 A 
ATOM     95  C   UNL A   1      38.760  34.702  39.828  1.00  0.00     0.135 A 
ATOM     96  F   UNL A   1      37.243  31.507  39.007  1.00  0.00    -0.206 F 
ATOM     97  C   UNL A   1      37.304  32.681  40.997  1.00  0.00     0.059 A 
ATOM     98  C   UNL A   1      38.520  34.740  41.200  1.00  0.00     0.059 A 
ATOM     99  F   UNL A   1      39.456  35.750  39.363  1.00  0.00    -0.206 F 
ATOM    100  C   UNL A   1      37.756  33.741  41.773  1.00  0.00     0.060 A 
BRANCH 100 101
ATOM    101  S   UNL A   1      37.370  33.794  43.530  1.00  0.00     0.124 S 
ATOM    102  O   UNL A   1      36.534  32.608  43.677  1.00  0.00    -0.237 OA
ATOM    103  O   UNL A   1      38.689  33.718  44.152  1.00  0.00    -0.237 OA
ATOM    104  O   UNL A   1      36.685  35.074  43.687  1.00  0.00    -0.744 OA
ENDBRANCH 100 101
ENDBRANCH  68  93
ENDBRANCH  42  43
ENDBRANCH  35  37
ENDBRANCH  34  35
ENDBRANCH  33  34
ENDBRANCH  32  33
ENDBRANCH  31  32
ENDBRANCH   1  31
TORSDOF 21
ENDMDL
MODEL 3
REMARK VINA RESULT:     -10.9      6.870     16.401
REMARK SMILES Cc1ccccc1[C@@H]1[NH2+][C@@H](C(=O)OCCOCCOCCOC(=O)c2ccc(-c3c4nc(c(-c5c(F)cc(S(=O)(=O)[O-])cc5F)c5ccc([nH]5)c(-c5c(F)cc(S(=O)(=O)[O-])cc5F)c5nc(c(-c6c(F)cc(S(=O)(=O)[O-])cc6F)c6ccc3[nH]6)C=C5)C=C4)cc2)CC2=c3ccccc3=N[C@H]21
REMARK SMILES IDX 18 1 17 2 16 3 15 4 14 5 13 6 11 7 12 8 10 9 8 10 9 11
REMARK SMILES IDX 100 12 92 15 99 16 91 17 93 18 98 19 94 20 97 21 95 22 96 23
REMARK SMILES IDX 7 24 1 25 2 26 3 27 4 28 6 29 5 30 19 31 20 32 21 33 22 34
REMARK SMILES IDX 23 35 24 36 25 37 26 38 90 39 27 40 89 41 28 42 29 43 30 44
REMARK SMILES IDX 83 45 31 46 88 47 82 48 84 49 32 50 87 51 81 52 80 53 33 55
REMARK SMILES IDX 67 56 46 57 66 58 47 59 50 60 65 61 85 62 48 63 49 64 64 66
REMARK SMILES IDX 86 67 51 68 34 69 35 70 44 71 36 72 37 73 43 74 45 75 38 76
REMARK SMILES IDX 39 77 40 78 41 79 42 80 68 81 69 82 78 83 70 84 71 85 77 86
REMARK SMILES IDX 79 87 72 88 73 89 74 90 75 91 76 92 52 93 53 94 62 95 54 96
REMARK SMILES IDX 55 97 61 98 63 99 56 100 57 101 58 102 59 103 60 104
REMARK H PARENT 9 13 9 14 84 54 50 65
REMARK Flexibility Score: inf
ROOT
ATOM      1  C   UNL A   1      44.508  42.797  25.564  1.00  0.00     0.188 C 
ENDROOT
BRANCH   1   2
ATOM      2  C   UNL A   1      43.542  43.054  24.389  1.00  0.00     0.188 C 
BRANCH   2   3
ATOM      3  O   UNL A   1      42.267  42.393  24.188  1.00  0.00    -0.376 OA
BRANCH   3   4
ATOM      4  C   UNL A   1      41.352  42.577  23.079  1.00  0.00     0.202 C 
BRANCH   4   5
ATOM      5  C   UNL A   1      41.761  42.458  21.407  1.00  0.00     0.261 C 
BRANCH   5   6
ATOM      6  O   UNL A   1      43.256  42.368  20.695  1.00  0.00    -0.459 OA
BRANCH   6   7
ATOM      7  C   UNL A   1      44.564  42.894  20.924  1.00  0.00     0.365 C 
ATOM      8  O   UNL A   1      45.660  42.323  20.912  1.00  0.00    -0.245 OA
BRANCH   7   9
ATOM      9  C   UNL A   1      44.745  44.379  21.203  1.00  0.00     0.298 C 
ATOM     10  C   UNL A   1      45.543  46.219  19.489  1.00  0.00     0.243 C 
ATOM     11  N   UNL A   1      44.600  45.129  19.874  1.00  0.00    -0.326 N 
ATOM     12  C   UNL A   1      46.748  46.460  20.450  1.00  0.00     0.196 C 
ATOM     13  H   UNL A   1      44.657  44.425  19.138  1.00  0.00     0.347 HD
ATOM     14  H   UNL A   1      43.721  45.632  20.000  1.00  0.00     0.347 HD
ATOM     15  C   UNL A   1      47.119  45.123  21.015  1.00  0.00    -0.024 C 
ATOM     16  N   UNL A   1      47.976  46.908  19.717  1.00  0.00    -0.270 NA
ATOM     17  C   UNL A   1      46.102  44.484  21.889  1.00  0.00     0.111 C 
ATOM     18  C   UNL A   1      48.238  44.669  20.468  1.00  0.00     0.002 A 
ATOM     19  C   UNL A   1      48.739  45.856  19.756  1.00  0.00     0.066 A 
ATOM     20  C   UNL A   1      48.906  43.412  20.396  1.00  0.00     0.010 A 
ATOM     21  C   UNL A   1      50.097  45.742  19.181  1.00  0.00     0.028 A 
ATOM     22  C   UNL A   1      50.082  43.350  19.750  1.00  0.00     0.001 A 
ATOM     23  C   UNL A   1      50.710  44.544  19.205  1.00  0.00     0.002 A 
BRANCH  10  24
ATOM     24  C   UNL A   1      44.814  47.524  19.129  1.00  0.00     0.015 A 
ATOM     25  C   UNL A   1      43.853  46.632  16.920  1.00  0.00     0.045 C 
ATOM     26  C   UNL A   1      44.009  47.680  17.980  1.00  0.00    -0.042 A 
ATOM     27  C   UNL A   1      43.273  48.866  17.795  1.00  0.00     0.004 A 
ATOM     28  C   UNL A   1      43.360  49.922  18.696  1.00  0.00     0.000 A 
ATOM     29  C   UNL A   1      44.916  48.629  20.009  1.00  0.00     0.010 A 
ATOM     30  C   UNL A   1      44.201  49.813  19.793  1.00  0.00     0.001 A 
ENDBRANCH  10  24
ENDBRANCH   7   9
ENDBRANCH   6   7
ENDBRANCH   5   6
ENDBRANCH   4   5
ENDBRANCH   3   4
ENDBRANCH   2   3
ENDBRANCH   1   2
BRANCH   1  31
ATOM     31  O   UNL A   1      45.530  41.875  25.231  1.00  0.00    -0.376 OA
BRANCH  31  32
ATOM     32  C   UNL A   1      45.400  40.560  25.757  1.00  0.00     0.202 C 
BRANCH  32  33
ATOM     33  C   UNL A   1      44.090  40.247  26.532  1.00  0.00     0.261 C 
BRANCH  33  34
ATOM     34  O   UNL A   1      43.712  38.839  26.514  1.00  0.00    -0.460 OA
BRANCH  34  35
ATOM     35  C   UNL A   1      42.395  38.479  26.828  1.00  0.00     0.338 C 
ATOM     36  O   UNL A   1      41.465  39.124  26.474  1.00  0.00    -0.246 OA
BRANCH  35  37
ATOM     37  C   UNL A   1      42.352  37.090  27.453  1.00  0.00     0.060 A 
ATOM     38  C   UNL A   1      41.934  36.629  28.712  1.00  0.00     0.016 A 
ATOM     39  C   UNL A   1      42.846  36.114  26.675  1.00  0.00     0.016 A 
ATOM     40  C   UNL A   1      42.106  35.210  29.157  1.00  0.00     0.010 A 
ATOM     41  C   UNL A   1      43.154  34.880  27.237  1.00  0.00     0.010 A 
ATOM     42  C   UNL A   1      42.750  34.237  28.389  1.00  0.00    -0.014 A 
BRANCH  42  43
ATOM     43  C   UNL A   1      43.221  32.711  28.594  1.00  0.00     0.031 A 
ATOM     44  C   UNL A   1      44.222  31.619  27.769  1.00  0.00     0.074 A 
ATOM     45  C   UNL A   1      42.896  32.254  29.824  1.00  0.00     0.049 A 
ATOM     46  N   UNL A   1      44.311  30.339  28.103  1.00  0.00    -0.248 NA
ATOM     47  C   UNL A   1      45.145  31.754  26.583  1.00  0.00     0.031 C 
ATOM     48  C   UNL A   1      43.497  31.156  30.577  1.00  0.00     0.029 A 
ATOM     49  N   UNL A   1      41.816  32.648  30.613  1.00  0.00    -0.354 N 
ATOM     50  C   UNL A   1      45.360  29.717  27.403  1.00  0.00     0.074 A 
ATOM     51  C   UNL A   1      45.653  30.562  26.326  1.00  0.00     0.031 C 
ATOM     52  C   UNL A   1      42.652  30.777  31.543  1.00  0.00     0.029 A 
ATOM     53  C   UNL A   1      41.427  31.524  31.354  1.00  0.00     0.049 A 
ATOM     54  H   UNL A   1      41.406  33.544  30.645  1.00  0.00     0.167 HD
ATOM     55  C   UNL A   1      46.021  28.605  27.835  1.00  0.00     0.037 A 
ATOM     56  C   UNL A   1      40.179  31.001  31.202  1.00  0.00     0.037 A 
ATOM     57  C   UNL A   1      45.227  27.973  28.859  1.00  0.00     0.049 A 
ATOM     58  C   UNL A   1      40.175  29.555  30.775  1.00  0.00     0.074 A 
ATOM     59  C   UNL A   1      45.332  27.830  30.226  1.00  0.00     0.029 A 
ATOM     60  N   UNL A   1      43.947  27.578  28.505  1.00  0.00    -0.354 N 
ATOM     61  N   UNL A   1      41.241  28.901  30.401  1.00  0.00    -0.248 NA
ATOM     62  C   UNL A   1      38.987  28.713  30.745  1.00  0.00     0.031 C 
ATOM     63  C   UNL A   1      44.062  27.399  30.702  1.00  0.00     0.029 A 
ATOM     64  C   UNL A   1      43.215  27.242  29.617  1.00  0.00     0.049 A 
ATOM     65  H   UNL A   1      43.609  27.544  27.581  1.00  0.00     0.167 HD
ATOM     66  C   UNL A   1      40.908  27.632  30.004  1.00  0.00     0.074 A 
ATOM     67  C   UNL A   1      39.490  27.549  30.294  1.00  0.00     0.031 C 
ATOM     68  C   UNL A   1      41.837  26.798  29.441  1.00  0.00     0.037 A 
BRANCH  55  69
ATOM     69  C   UNL A   1      47.435  28.120  27.416  1.00  0.00     0.058 A 
ATOM     70  C   UNL A   1      47.621  27.474  26.168  1.00  0.00     0.135 A 
ATOM     71  C   UNL A   1      48.618  28.140  28.202  1.00  0.00     0.135 A 
ATOM     72  F   UNL A   1      46.607  27.344  25.300  1.00  0.00    -0.206 F 
ATOM     73  C   UNL A   1      48.835  26.889  25.758  1.00  0.00     0.059 A 
ATOM     74  C   UNL A   1      49.853  27.611  27.792  1.00  0.00     0.059 A 
ATOM     75  F   UNL A   1      48.657  28.606  29.454  1.00  0.00    -0.206 F 
ATOM     76  C   UNL A   1      49.951  26.959  26.579  1.00  0.00     0.060 A 
BRANCH  76  77
ATOM     77  S   UNL A   1      51.491  26.149  26.094  1.00  0.00     0.124 S 
ATOM     78  O   UNL A   1      51.351  26.075  24.642  1.00  0.00    -0.237 OA
ATOM     79  O   UNL A   1      52.503  27.076  26.589  1.00  0.00    -0.237 OA
ATOM     80  O   UNL A   1      51.435  24.863  26.785  1.00  0.00    -0.744 OA
ENDBRANCH  76  77
ENDBRANCH  55  69
BRANCH  56  81
ATOM     81  C   UNL A   1      39.159  32.063  30.951  1.00  0.00     0.058 A 
ATOM     82  C   UNL A   1      38.460  31.969  29.729  1.00  0.00     0.135 A 
ATOM     83  C   UNL A   1      38.530  32.765  31.993  1.00  0.00     0.135 A 
ATOM     84  F   UNL A   1      39.006  31.304  28.697  1.00  0.00    -0.206 F 
ATOM     85  C   UNL A   1      37.141  32.391  29.596  1.00  0.00     0.059 A 
ATOM     86  C   UNL A   1      37.211  33.228  31.868  1.00  0.00     0.059 A 
ATOM     87  F   UNL A   1      39.126  32.872  33.190  1.00  0.00    -0.206 F 
ATOM     88  C   UNL A   1      36.505  32.963  30.693  1.00  0.00     0.060 A 
BRANCH  88  89
ATOM     89  S   UNL A   1      34.708  33.171  30.587  1.00  0.00     0.124 S 
ATOM     90  O   UNL A   1      34.252  32.540  31.821  1.00  0.00    -0.237 OA
ATOM     91  O   UNL A   1      34.584  34.628  30.546  1.00  0.00    -0.237 OA
ATOM     92  O   UNL A   1      34.358  32.469  29.359  1.00  0.00    -0.744 OA
ENDBRANCH  88  89
ENDBRANCH  56  81
BRANCH  68  93
ATOM     93  C   UNL A   1      41.596  25.502  28.669  1.00  0.00     0.058 A 
ATOM     94  C   UNL A   1      42.296  24.301  28.870  1.00  0.00     0.135 A 
ATOM     95  C   UNL A   1      40.507  25.399  27.757  1.00  0.00     0.135 A 
ATOM     96  F   UNL A   1      43.270  24.194  29.780  1.00  0.00    -0.206 F 
ATOM     97  C   UNL A   1      41.996  23.124  28.175  1.00  0.00     0.059 A 
ATOM     98  C   UNL A   1      40.144  24.218  27.111  1.00  0.00     0.059 A 
ATOM     99  F   UNL A   1      39.727  26.450  27.459  1.00  0.00    -0.206 F 
ATOM    100  C   UNL A   1      40.920  23.090  27.297  1.00  0.00     0.060 A 
BRANCH 100 101
ATOM    101  S   UNL A   1      40.522  21.566  26.427  1.00  0.00     0.124 S 
ATOM    102  O   UNL A   1      41.659  21.446  25.521  1.00  0.00    -0.237 OA
ATOM    103  O   UNL A   1      40.467  20.584  27.505  1.00  0.00    -0.237 OA
ATOM    104  O   UNL A   1      39.239  21.864  25.795  1.00  0.00    -0.744 OA
ENDBRANCH 100 101
ENDBRANCH  68  93
ENDBRANCH  42  43
ENDBRANCH  35  37
ENDBRANCH  34  35
ENDBRANCH  33  34
ENDBRANCH  32  33
ENDBRANCH  31  32
ENDBRANCH   1  31
TORSDOF 21
ENDMDL
