MODEL 1
REMARK VINA RESULT:     -10.5      0.000      0.000
REMARK SMILES O=C(CC[C@H]1CCCC[N@H+]1C[C@@H]1COc2ccccc21)OCCOCCOCCOC(=O)c1ccc(-c2c3nc(c(-c4c(F)cc(S(=O)(=O)[O-])cc4F)c4ccc([nH]4)c(-c4c(F)cc(S(=O)(=O)[O-])cc4F)c4nc(c(-c5c(F)cc(S(=O)(=O)[O-])cc5F)c5ccc2[nH]5)C=C4)C=C3)cc1
REMARK SMILES IDX 25 1 24 2 23 3 22 4 21 5 2 6 1 7 3 8 4 9 5 10 6 11 10 12
REMARK SMILES IDX 7 13 9 14 8 16 11 17 12 18 13 19 20 20 14 21 15 22 19 23
REMARK SMILES IDX 16 24 18 25 17 26 26 27 27 28 28 29 29 30 30 31 31 32 32 33
REMARK SMILES IDX 33 34 34 35 98 36 35 37 97 38 36 39 37 40 38 41 91 42 39 43
REMARK SMILES IDX 96 44 90 45 92 46 40 47 95 48 89 49 88 50 41 52 75 53 54 54
REMARK SMILES IDX 74 55 55 56 58 57 73 58 93 59 56 60 57 61 72 63 94 64 59 65
REMARK SMILES IDX 42 66 43 67 52 68 44 69 45 70 51 71 53 72 46 73 47 74 48 75
REMARK SMILES IDX 49 76 50 77 76 78 77 79 86 80 78 81 79 82 85 83 87 84 80 85
REMARK SMILES IDX 81 86 82 87 83 88 84 89 60 90 61 91 70 92 62 93 63 94 69 95
REMARK SMILES IDX 71 96 64 97 65 98 66 99 67 100 68 101
REMARK H PARENT 10 15 92 51 58 62
REMARK Flexibility Score: inf
ROOT
ATOM      1  C   UNL A   1      40.482  20.932  26.506  1.00  0.00     0.188 C 
ENDROOT
BRANCH   1   2
ATOM      2  O   UNL A   1      40.059  22.154  27.118  1.00  0.00    -0.376 OA
BRANCH   2   3
ATOM      3  C   UNL A   1      39.003  22.864  26.480  1.00  0.00     0.202 C 
BRANCH   3   4
ATOM      4  C   UNL A   1      38.075  21.996  25.633  1.00  0.00     0.261 C 
BRANCH   4   5
ATOM      5  O   UNL A   1      36.713  22.428  25.701  1.00  0.00    -0.463 OA
BRANCH   5   6
ATOM      6  C   UNL A   1      36.238  23.052  24.589  1.00  0.00     0.306 C 
ATOM      7  O   UNL A   1      36.664  22.770  23.475  1.00  0.00    -0.252 OA
BRANCH   6   8
ATOM      8  C   UNL A   1      35.309  24.220  24.855  1.00  0.00     0.129 C 
BRANCH   8   9
ATOM      9  C   UNL A   1      33.827  23.876  24.870  1.00  0.00     0.077 C 
BRANCH   9  10
ATOM     10  C   UNL A   1      33.119  23.665  26.219  1.00  0.00     0.184 C 
ATOM     11  C   UNL A   1      32.235  24.862  26.661  1.00  0.00     0.065 C 
ATOM     12  N   UNL A   1      32.385  22.385  26.311  1.00  0.00    -0.332 N 
ATOM     13  C   UNL A   1      30.823  24.858  26.109  1.00  0.00     0.012 C 
ATOM     14  C   UNL A   1      30.979  22.416  25.913  1.00  0.00     0.262 C 
ATOM     15  H   UNL A   1      32.366  22.305  27.328  1.00  0.00     0.348 HD
ATOM     16  C   UNL A   1      30.173  23.555  26.518  1.00  0.00     0.062 C 
BRANCH  12  17
ATOM     17  C   UNL A   1      33.091  21.139  25.928  1.00  0.00     0.274 C 
BRANCH  17  18
ATOM     18  C   UNL A   1      33.565  20.703  24.488  1.00  0.00     0.116 C 
ATOM     19  C   UNL A   1      32.506  20.855  23.379  1.00  0.00     0.244 C 
ATOM     20  C   UNL A   1      33.904  19.277  24.235  1.00  0.00     0.006 A 
ATOM     21  O   UNL A   1      31.905  19.567  23.115  1.00  0.00    -0.492 OA
ATOM     22  C   UNL A   1      32.874  18.683  23.519  1.00  0.00     0.123 A 
ATOM     23  C   UNL A   1      34.992  18.524  24.651  1.00  0.00     0.008 A 
ATOM     24  C   UNL A   1      32.814  17.322  23.305  1.00  0.00     0.047 A 
ATOM     25  C   UNL A   1      34.955  17.141  24.440  1.00  0.00     0.001 A 
ATOM     26  C   UNL A   1      33.863  16.541  23.791  1.00  0.00     0.004 A 
ENDBRANCH  17  18
ENDBRANCH  12  17
ENDBRANCH   9  10
ENDBRANCH   8   9
ENDBRANCH   6   8
ENDBRANCH   5   6
ENDBRANCH   4   5
ENDBRANCH   3   4
ENDBRANCH   2   3
ENDBRANCH   1   2
BRANCH   1  27
ATOM     27  C   UNL A   1      41.985  20.782  26.249  1.00  0.00     0.188 C 
BRANCH  27  28
ATOM     28  O   UNL A   1      42.592  21.649  25.299  1.00  0.00    -0.376 OA
BRANCH  28  29
ATOM     29  C   UNL A   1      43.760  22.355  25.686  1.00  0.00     0.202 C 
BRANCH  29  30
ATOM     30  C   UNL A   1      43.429  23.770  26.179  1.00  0.00     0.261 C 
BRANCH  30  31
ATOM     31  O   UNL A   1      42.135  24.245  25.765  1.00  0.00    -0.460 OA
BRANCH  31  32
ATOM     32  C   UNL A   1      41.992  25.595  25.828  1.00  0.00     0.338 C 
ATOM     33  O   UNL A   1      41.822  26.366  24.901  1.00  0.00    -0.246 OA
BRANCH  32  34
ATOM     34  C   UNL A   1      42.063  26.065  27.223  1.00  0.00     0.060 A 
ATOM     35  C   UNL A   1      40.995  25.779  28.082  1.00  0.00     0.016 A 
ATOM     36  C   UNL A   1      43.063  26.961  27.607  1.00  0.00     0.016 A 
ATOM     37  C   UNL A   1      40.877  26.460  29.296  1.00  0.00     0.010 A 
ATOM     38  C   UNL A   1      42.940  27.647  28.819  1.00  0.00     0.010 A 
ATOM     39  C   UNL A   1      41.813  27.447  29.636  1.00  0.00    -0.014 A 
BRANCH  39  40
ATOM     40  C   UNL A   1      41.482  28.438  30.694  1.00  0.00     0.031 A 
ATOM     41  C   UNL A   1      42.328  28.463  31.943  1.00  0.00     0.074 A 
ATOM     42  C   UNL A   1      40.476  29.318  30.550  1.00  0.00     0.049 A 
ATOM     43  N   UNL A   1      42.221  29.217  33.007  1.00  0.00    -0.248 NA
ATOM     44  C   UNL A   1      43.444  27.504  31.996  1.00  0.00     0.031 C 
ATOM     45  C   UNL A   1      39.610  29.430  29.379  1.00  0.00     0.029 A 
ATOM     46  N   UNL A   1      40.014  30.286  31.407  1.00  0.00    -0.354 N 
ATOM     47  C   UNL A   1      43.246  28.818  33.859  1.00  0.00     0.074 A 
ATOM     48  C   UNL A   1      43.944  27.735  33.200  1.00  0.00     0.031 C 
ATOM     49  C   UNL A   1      38.718  30.414  29.591  1.00  0.00     0.029 A 
ATOM     50  C   UNL A   1      38.934  30.982  30.923  1.00  0.00     0.049 A 
ATOM     51  H   UNL A   1      40.420  30.465  32.286  1.00  0.00     0.167 HD
ATOM     52  C   UNL A   1      43.585  29.311  35.075  1.00  0.00     0.037 A 
ATOM     53  C   UNL A   1      38.198  31.958  31.494  1.00  0.00     0.037 A 
ATOM     54  C   UNL A   1      42.898  30.392  35.731  1.00  0.00     0.049 A 
ATOM     55  C   UNL A   1      38.557  32.457  32.870  1.00  0.00     0.074 A 
ATOM     56  C   UNL A   1      43.176  30.973  36.955  1.00  0.00     0.029 A 
ATOM     57  N   UNL A   1      41.790  31.050  35.219  1.00  0.00    -0.354 N 
ATOM     58  N   UNL A   1      39.537  32.082  33.657  1.00  0.00    -0.248 NA
ATOM     59  C   UNL A   1      37.708  33.517  33.436  1.00  0.00     0.031 C 
ATOM     60  C   UNL A   1      42.210  31.956  37.203  1.00  0.00     0.029 A 
ATOM     61  C   UNL A   1      41.359  32.018  36.111  1.00  0.00     0.049 A 
ATOM     62  H   UNL A   1      41.370  30.858  34.349  1.00  0.00     0.167 HD
ATOM     63  C   UNL A   1      39.446  32.883  34.792  1.00  0.00     0.074 A 
ATOM     64  C   UNL A   1      38.312  33.762  34.591  1.00  0.00     0.031 C 
ATOM     65  C   UNL A   1      40.235  32.895  35.896  1.00  0.00     0.037 A 
BRANCH  52  66
ATOM     66  C   UNL A   1      44.736  28.654  35.783  1.00  0.00     0.058 A 
ATOM     67  C   UNL A   1      46.064  29.062  35.579  1.00  0.00     0.135 A 
ATOM     68  C   UNL A   1      44.508  27.590  36.672  1.00  0.00     0.135 A 
ATOM     69  F   UNL A   1      46.339  30.063  34.727  1.00  0.00    -0.206 F 
ATOM     70  C   UNL A   1      47.128  28.411  36.194  1.00  0.00     0.059 A 
ATOM     71  C   UNL A   1      45.556  26.942  37.319  1.00  0.00     0.059 A 
ATOM     72  F   UNL A   1      43.259  27.160  36.905  1.00  0.00    -0.206 F 
ATOM     73  C   UNL A   1      46.864  27.346  37.056  1.00  0.00     0.060 A 
BRANCH  73  74
ATOM     74  S   UNL A   1      48.253  26.484  37.825  1.00  0.00     0.124 S 
ATOM     75  O   UNL A   1      49.280  26.615  36.796  1.00  0.00    -0.237 OA
ATOM     76  O   UNL A   1      48.472  27.263  39.040  1.00  0.00    -0.237 OA
ATOM     77  O   UNL A   1      47.741  25.135  38.034  1.00  0.00    -0.744 OA
ENDBRANCH  73  74
ENDBRANCH  52  66
BRANCH  53  78
ATOM     78  C   UNL A   1      37.052  32.543  30.750  1.00  0.00     0.058 A 
ATOM     79  C   UNL A   1      37.248  33.552  29.796  1.00  0.00     0.135 A 
ATOM     80  C   UNL A   1      35.739  32.095  30.969  1.00  0.00     0.135 A 
ATOM     81  F   UNL A   1      38.484  34.021  29.563  1.00  0.00    -0.206 F 
ATOM     82  C   UNL A   1      36.185  34.102  29.088  1.00  0.00     0.059 A 
ATOM     83  C   UNL A   1      34.662  32.614  30.256  1.00  0.00     0.059 A 
ATOM     84  F   UNL A   1      35.499  31.128  31.866  1.00  0.00    -0.206 F 
ATOM     85  C   UNL A   1      34.895  33.623  29.321  1.00  0.00     0.060 A 
BRANCH  85  86
ATOM     86  S   UNL A   1      33.531  34.306  28.355  1.00  0.00     0.124 S 
ATOM     87  O   UNL A   1      32.631  34.772  29.403  1.00  0.00    -0.237 OA
ATOM     88  O   UNL A   1      34.197  35.345  27.575  1.00  0.00    -0.237 OA
ATOM     89  O   UNL A   1      33.058  33.160  27.583  1.00  0.00    -0.744 OA
ENDBRANCH  85  86
ENDBRANCH  53  78
BRANCH  65  90
ATOM     90  C   UNL A   1      39.935  33.919  36.958  1.00  0.00     0.058 A 
ATOM     91  C   UNL A   1      39.153  33.616  38.082  1.00  0.00     0.135 A 
ATOM     92  C   UNL A   1      40.486  35.209  36.874  1.00  0.00     0.135 A 
ATOM     93  F   UNL A   1      38.599  32.399  38.211  1.00  0.00    -0.206 F 
ATOM     94  C   UNL A   1      38.905  34.561  39.073  1.00  0.00     0.059 A 
ATOM     95  C   UNL A   1      40.273  36.163  37.865  1.00  0.00     0.059 A 
ATOM     96  F   UNL A   1      41.254  35.549  35.826  1.00  0.00    -0.206 F 
ATOM     97  C   UNL A   1      39.470  35.833  38.956  1.00  0.00     0.060 A 
BRANCH  97  98
ATOM     98  S   UNL A   1      39.166  37.045  40.260  1.00  0.00     0.124 S 
ATOM     99  O   UNL A   1      40.521  37.324  40.724  1.00  0.00    -0.237 OA
ATOM    100  O   UNL A   1      38.510  38.129  39.535  1.00  0.00    -0.237 OA
ATOM    101  O   UNL A   1      38.314  36.325  41.200  1.00  0.00    -0.744 OA
ENDBRANCH  97  98
ENDBRANCH  65  90
ENDBRANCH  39  40
ENDBRANCH  32  34
ENDBRANCH  31  32
ENDBRANCH  30  31
ENDBRANCH  29  30
ENDBRANCH  28  29
ENDBRANCH  27  28
ENDBRANCH   1  27
TORSDOF 24
ENDMDL
MODEL 2
REMARK VINA RESULT:     -10.4      1.842      3.451
REMARK SMILES O=C(CC[C@H]1CCCC[N@H+]1C[C@@H]1COc2ccccc21)OCCOCCOCCOC(=O)c1ccc(-c2c3nc(c(-c4c(F)cc(S(=O)(=O)[O-])cc4F)c4ccc([nH]4)c(-c4c(F)cc(S(=O)(=O)[O-])cc4F)c4nc(c(-c5c(F)cc(S(=O)(=O)[O-])cc5F)c5ccc2[nH]5)C=C4)C=C3)cc1
REMARK SMILES IDX 25 1 24 2 23 3 22 4 21 5 2 6 1 7 3 8 4 9 5 10 6 11 10 12
REMARK SMILES IDX 7 13 9 14 8 16 11 17 12 18 13 19 20 20 14 21 15 22 19 23
REMARK SMILES IDX 16 24 18 25 17 26 26 27 27 28 28 29 29 30 30 31 31 32 32 33
REMARK SMILES IDX 33 34 34 35 98 36 35 37 97 38 36 39 37 40 38 41 91 42 39 43
REMARK SMILES IDX 96 44 90 45 92 46 40 47 95 48 89 49 88 50 41 52 75 53 54 54
REMARK SMILES IDX 74 55 55 56 58 57 73 58 93 59 56 60 57 61 72 63 94 64 59 65
REMARK SMILES IDX 42 66 43 67 52 68 44 69 45 70 51 71 53 72 46 73 47 74 48 75
REMARK SMILES IDX 49 76 50 77 76 78 77 79 86 80 78 81 79 82 85 83 87 84 80 85
REMARK SMILES IDX 81 86 82 87 83 88 84 89 60 90 61 91 70 92 62 93 63 94 69 95
REMARK SMILES IDX 71 96 64 97 65 98 66 99 67 100 68 101
REMARK H PARENT 10 15 92 51 58 62
REMARK Flexibility Score: inf
ROOT
ATOM      1  C   UNL A   1      41.636  19.996  27.089  1.00  0.00     0.188 C 
ENDROOT
BRANCH   1   2
ATOM      2  O   UNL A   1      40.364  20.525  26.704  1.00  0.00    -0.376 OA
BRANCH   2   3
ATOM      3  C   UNL A   1      40.265  21.940  26.574  1.00  0.00     0.202 C 
BRANCH   3   4
ATOM      4  C   UNL A   1      38.844  22.461  26.366  1.00  0.00     0.261 C 
BRANCH   4   5
ATOM      5  O   UNL A   1      38.146  21.747  25.342  1.00  0.00    -0.463 OA
BRANCH   5   6
ATOM      6  C   UNL A   1      37.231  22.469  24.640  1.00  0.00     0.306 C 
ATOM      7  O   UNL A   1      36.811  22.075  23.558  1.00  0.00    -0.252 OA
BRANCH   6   8
ATOM      8  C   UNL A   1      36.935  23.847  25.198  1.00  0.00     0.129 C 
BRANCH   8   9
ATOM      9  C   UNL A   1      35.616  23.968  25.948  1.00  0.00     0.077 C 
BRANCH   9  10
ATOM     10  C   UNL A   1      34.489  22.965  25.651  1.00  0.00     0.184 C 
ATOM     11  C   UNL A   1      34.288  21.895  26.757  1.00  0.00     0.065 C 
ATOM     12  N   UNL A   1      33.209  23.604  25.275  1.00  0.00    -0.332 N 
ATOM     13  C   UNL A   1      33.386  22.315  27.902  1.00  0.00     0.012 C 
ATOM     14  C   UNL A   1      32.277  23.876  26.367  1.00  0.00     0.262 C 
ATOM     15  H   UNL A   1      32.799  22.815  24.773  1.00  0.00     0.348 HD
ATOM     16  C   UNL A   1      32.050  22.708  27.314  1.00  0.00     0.062 C 
BRANCH  12  17
ATOM     17  C   UNL A   1      33.226  24.649  24.223  1.00  0.00     0.274 C 
BRANCH  17  18
ATOM     18  C   UNL A   1      32.253  24.790  22.990  1.00  0.00     0.116 C 
ATOM     19  C   UNL A   1      32.893  25.389  21.722  1.00  0.00     0.244 C 
ATOM     20  C   UNL A   1      31.097  25.722  23.079  1.00  0.00     0.006 A 
ATOM     21  O   UNL A   1      32.541  26.789  21.627  1.00  0.00    -0.492 OA
ATOM     22  C   UNL A   1      31.374  26.865  22.343  1.00  0.00     0.123 A 
ATOM     23  C   UNL A   1      29.916  25.621  23.800  1.00  0.00     0.008 A 
ATOM     24  C   UNL A   1      30.573  27.988  22.396  1.00  0.00     0.047 A 
ATOM     25  C   UNL A   1      29.086  26.747  23.863  1.00  0.00     0.001 A 
ATOM     26  C   UNL A   1      29.424  27.929  23.184  1.00  0.00     0.004 A 
ENDBRANCH  17  18
ENDBRANCH  12  17
ENDBRANCH   9  10
ENDBRANCH   8   9
ENDBRANCH   6   8
ENDBRANCH   5   6
ENDBRANCH   4   5
ENDBRANCH   3   4
ENDBRANCH   2   3
ENDBRANCH   1   2
BRANCH   1  27
ATOM     27  C   UNL A   1      42.465  19.338  25.982  1.00  0.00     0.188 C 
BRANCH  27  28
ATOM     28  O   UNL A   1      43.226  20.181  25.125  1.00  0.00    -0.376 OA
BRANCH  28  29
ATOM     29  C   UNL A   1      43.942  21.258  25.707  1.00  0.00     0.202 C 
BRANCH  29  30
ATOM     30  C   UNL A   1      43.531  22.605  25.099  1.00  0.00     0.261 C 
BRANCH  30  31
ATOM     31  O   UNL A   1      43.163  23.598  26.074  1.00  0.00    -0.460 OA
BRANCH  31  32
ATOM     32  C   UNL A   1      43.294  24.879  25.640  1.00  0.00     0.338 C 
ATOM     33  O   UNL A   1      43.980  25.283  24.719  1.00  0.00    -0.246 OA
BRANCH  32  34
ATOM     34  C   UNL A   1      42.464  25.792  26.446  1.00  0.00     0.060 A 
ATOM     35  C   UNL A   1      42.666  27.171  26.317  1.00  0.00     0.016 A 
ATOM     36  C   UNL A   1      41.660  25.284  27.469  1.00  0.00     0.016 A 
ATOM     37  C   UNL A   1      42.136  28.045  27.270  1.00  0.00     0.010 A 
ATOM     38  C   UNL A   1      41.135  26.159  28.426  1.00  0.00     0.010 A 
ATOM     39  C   UNL A   1      41.426  27.534  28.366  1.00  0.00    -0.014 A 
BRANCH  39  40
ATOM     40  C   UNL A   1      41.218  28.386  29.566  1.00  0.00     0.031 A 
ATOM     41  C   UNL A   1      42.155  28.218  30.736  1.00  0.00     0.074 A 
ATOM     42  C   UNL A   1      40.241  29.308  29.618  1.00  0.00     0.049 A 
ATOM     43  N   UNL A   1      42.160  28.828  31.894  1.00  0.00    -0.248 NA
ATOM     44  C   UNL A   1      43.231  27.226  30.576  1.00  0.00     0.031 C 
ATOM     45  C   UNL A   1      39.296  29.602  28.544  1.00  0.00     0.029 A 
ATOM     46  N   UNL A   1      39.886  30.168  30.628  1.00  0.00    -0.354 N 
ATOM     47  C   UNL A   1      43.228  28.287  32.603  1.00  0.00     0.074 A 
ATOM     48  C   UNL A   1      43.829  27.279  31.756  1.00  0.00     0.031 C 
ATOM     49  C   UNL A   1      38.464  30.576  28.953  1.00  0.00     0.029 A 
ATOM     50  C   UNL A   1      38.802  30.956  30.326  1.00  0.00     0.049 A 
ATOM     51  H   UNL A   1      40.364  30.216  31.488  1.00  0.00     0.167 HD
ATOM     52  C   UNL A   1      43.678  28.603  33.842  1.00  0.00     0.037 A 
ATOM     53  C   UNL A   1      38.153  31.871  31.075  1.00  0.00     0.037 A 
ATOM     54  C   UNL A   1      43.087  29.609  34.685  1.00  0.00     0.049 A 
ATOM     55  C   UNL A   1      38.634  32.171  32.472  1.00  0.00     0.074 A 
ATOM     56  C   UNL A   1      43.480  30.013  35.948  1.00  0.00     0.029 A 
ATOM     57  N   UNL A   1      41.972  30.363  34.353  1.00  0.00    -0.354 N 
ATOM     58  N   UNL A   1      39.654  31.664  33.123  1.00  0.00    -0.248 NA
ATOM     59  C   UNL A   1      37.875  33.172  33.236  1.00  0.00     0.031 C 
ATOM     60  C   UNL A   1      42.578  30.985  36.398  1.00  0.00     0.029 A 
ATOM     61  C   UNL A   1      41.650  31.218  35.394  1.00  0.00     0.049 A 
ATOM     62  H   UNL A   1      41.481  30.302  33.502  1.00  0.00     0.167 HD
ATOM     63  C   UNL A   1      39.682  32.310  34.356  1.00  0.00     0.074 A 
ATOM     64  C   UNL A   1      38.574  33.243  34.361  1.00  0.00     0.031 C 
ATOM     65  C   UNL A   1      40.551  32.151  35.386  1.00  0.00     0.037 A 
BRANCH  52  66
ATOM     66  C   UNL A   1      44.850  27.822  34.365  1.00  0.00     0.058 A 
ATOM     67  C   UNL A   1      44.690  26.577  34.994  1.00  0.00     0.135 A 
ATOM     68  C   UNL A   1      46.153  28.333  34.245  1.00  0.00     0.135 A 
ATOM     69  F   UNL A   1      43.465  26.051  35.150  1.00  0.00    -0.206 F 
ATOM     70  C   UNL A   1      45.774  25.887  35.527  1.00  0.00     0.059 A 
ATOM     71  C   UNL A   1      47.255  27.646  34.746  1.00  0.00     0.059 A 
ATOM     72  F   UNL A   1      46.363  29.517  33.651  1.00  0.00    -0.206 F 
ATOM     73  C   UNL A   1      47.052  26.434  35.405  1.00  0.00     0.060 A 
BRANCH  73  74
ATOM     74  S   UNL A   1      48.450  25.548  36.129  1.00  0.00     0.124 S 
ATOM     75  O   UNL A   1      48.725  26.359  37.312  1.00  0.00    -0.237 OA
ATOM     76  O   UNL A   1      47.887  24.226  36.383  1.00  0.00    -0.237 OA
ATOM     77  O   UNL A   1      49.465  25.603  35.081  1.00  0.00    -0.744 OA
ENDBRANCH  73  74
ENDBRANCH  52  66
BRANCH  53  78
ATOM     78  C   UNL A   1      36.979  32.585  30.508  1.00  0.00     0.058 A 
ATOM     79  C   UNL A   1      35.671  32.164  30.791  1.00  0.00     0.135 A 
ATOM     80  C   UNL A   1      37.141  33.710  29.684  1.00  0.00     0.135 A 
ATOM     81  F   UNL A   1      35.468  31.085  31.563  1.00  0.00    -0.206 F 
ATOM     82  C   UNL A   1      34.564  32.827  30.273  1.00  0.00     0.059 A 
ATOM     83  C   UNL A   1      36.048  34.404  29.173  1.00  0.00     0.059 A 
ATOM     84  F   UNL A   1      38.371  34.156  29.388  1.00  0.00    -0.206 F 
ATOM     85  C   UNL A   1      34.763  33.951  29.468  1.00  0.00     0.060 A 
BRANCH  85  86
ATOM     86  S   UNL A   1      33.316  34.837  28.848  1.00  0.00     0.124 S 
ATOM     87  O   UNL A   1      32.793  33.897  27.865  1.00  0.00    -0.237 OA
ATOM     88  O   UNL A   1      32.519  35.007  30.059  1.00  0.00    -0.237 OA
ATOM     89  O   UNL A   1      33.884  36.068  28.304  1.00  0.00    -0.744 OA
ENDBRANCH  85  86
ENDBRANCH  53  78
BRANCH  65  90
ATOM     90  C   UNL A   1      40.374  33.034  36.592  1.00  0.00     0.058 A 
ATOM     91  C   UNL A   1      41.166  34.174  36.799  1.00  0.00     0.135 A 
ATOM     92  C   UNL A   1      39.360  32.764  37.526  1.00  0.00     0.135 A 
ATOM     93  F   UNL A   1      42.152  34.477  35.939  1.00  0.00    -0.206 F 
ATOM     94  C   UNL A   1      40.977  35.001  37.903  1.00  0.00     0.059 A 
ATOM     95  C   UNL A   1      39.136  33.591  38.623  1.00  0.00     0.059 A 
ATOM     96  F   UNL A   1      38.564  31.694  37.368  1.00  0.00    -0.206 F 
ATOM     97  C   UNL A   1      39.958  34.701  38.810  1.00  0.00     0.060 A 
BRANCH  97  98
ATOM     98  S   UNL A   1      39.701  35.795  40.224  1.00  0.00     0.124 S 
ATOM     99  O   UNL A   1      39.034  34.904  41.168  1.00  0.00    -0.237 OA
ATOM    100  O   UNL A   1      41.065  36.182  40.574  1.00  0.00    -0.237 OA
ATOM    101  O   UNL A   1      38.874  36.866  39.677  1.00  0.00    -0.744 OA
ENDBRANCH  97  98
ENDBRANCH  65  90
ENDBRANCH  39  40
ENDBRANCH  32  34
ENDBRANCH  31  32
ENDBRANCH  30  31
ENDBRANCH  29  30
ENDBRANCH  28  29
ENDBRANCH  27  28
ENDBRANCH   1  27
TORSDOF 24
ENDMDL
MODEL 3
REMARK VINA RESULT:     -10.1      1.857      8.935
REMARK SMILES O=C(CC[C@H]1CCCC[N@H+]1C[C@@H]1COc2ccccc21)OCCOCCOCCOC(=O)c1ccc(-c2c3nc(c(-c4c(F)cc(S(=O)(=O)[O-])cc4F)c4ccc([nH]4)c(-c4c(F)cc(S(=O)(=O)[O-])cc4F)c4nc(c(-c5c(F)cc(S(=O)(=O)[O-])cc5F)c5ccc2[nH]5)C=C4)C=C3)cc1
REMARK SMILES IDX 25 1 24 2 23 3 22 4 21 5 2 6 1 7 3 8 4 9 5 10 6 11 10 12
REMARK SMILES IDX 7 13 9 14 8 16 11 17 12 18 13 19 20 20 14 21 15 22 19 23
REMARK SMILES IDX 16 24 18 25 17 26 26 27 27 28 28 29 29 30 30 31 31 32 32 33
REMARK SMILES IDX 33 34 34 35 98 36 35 37 97 38 36 39 37 40 38 41 91 42 39 43
REMARK SMILES IDX 96 44 90 45 92 46 40 47 95 48 89 49 88 50 41 52 75 53 54 54
REMARK SMILES IDX 74 55 55 56 58 57 73 58 93 59 56 60 57 61 72 63 94 64 59 65
REMARK SMILES IDX 42 66 43 67 52 68 44 69 45 70 51 71 53 72 46 73 47 74 48 75
REMARK SMILES IDX 49 76 50 77 76 78 77 79 86 80 78 81 79 82 85 83 87 84 80 85
REMARK SMILES IDX 81 86 82 87 83 88 84 89 60 90 61 91 70 92 62 93 63 94 69 95
REMARK SMILES IDX 71 96 64 97 65 98 66 99 67 100 68 101
REMARK H PARENT 10 15 92 51 58 62
REMARK Flexibility Score: inf
ROOT
ATOM      1  C   UNL A   1      37.769  21.531  25.140  1.00  0.00     0.188 C 
ENDROOT
BRANCH   1   2
ATOM      2  O   UNL A   1      36.475  21.190  24.634  1.00  0.00    -0.376 OA
BRANCH   2   3
ATOM      3  C   UNL A   1      35.415  21.098  25.580  1.00  0.00     0.202 C 
BRANCH   3   4
ATOM      4  C   UNL A   1      34.015  21.140  24.970  1.00  0.00     0.261 C 
BRANCH   4   5
ATOM      5  O   UNL A   1      33.933  22.027  23.852  1.00  0.00    -0.463 OA
BRANCH   5   6
ATOM      6  C   UNL A   1      32.678  22.279  23.390  1.00  0.00     0.306 C 
ATOM      7  O   UNL A   1      32.281  21.789  22.340  1.00  0.00    -0.252 OA
BRANCH   6   8
ATOM      8  C   UNL A   1      31.911  23.336  24.160  1.00  0.00     0.129 C 
BRANCH   8   9
ATOM      9  C   UNL A   1      32.681  24.620  24.433  1.00  0.00     0.077 C 
BRANCH   9  10
ATOM     10  C   UNL A   1      32.987  25.574  23.267  1.00  0.00     0.184 C 
ATOM     11  C   UNL A   1      32.007  25.441  22.070  1.00  0.00     0.065 C 
ATOM     12  N   UNL A   1      33.152  26.984  23.680  1.00  0.00    -0.332 N 
ATOM     13  C   UNL A   1      30.735  26.260  22.186  1.00  0.00     0.012 C 
ATOM     14  C   UNL A   1      31.948  27.811  23.652  1.00  0.00     0.262 C 
ATOM     15  H   UNL A   1      33.704  27.301  22.883  1.00  0.00     0.348 HD
ATOM     16  C   UNL A   1      31.135  27.706  22.371  1.00  0.00     0.062 C 
BRANCH  12  17
ATOM     17  C   UNL A   1      34.062  27.285  24.811  1.00  0.00     0.274 C 
BRANCH  17  18
ATOM     18  C   UNL A   1      33.675  27.540  26.318  1.00  0.00     0.116 C 
ATOM     19  C   UNL A   1      32.163  27.646  26.593  1.00  0.00     0.244 C 
ATOM     20  C   UNL A   1      34.078  28.818  26.965  1.00  0.00     0.006 A 
ATOM     21  O   UNL A   1      31.795  29.041  26.698  1.00  0.00    -0.492 OA
ATOM     22  C   UNL A   1      32.968  29.645  27.071  1.00  0.00     0.123 A 
ATOM     23  C   UNL A   1      35.326  29.264  27.372  1.00  0.00     0.008 A 
ATOM     24  C   UNL A   1      33.069  30.967  27.451  1.00  0.00     0.047 A 
ATOM     25  C   UNL A   1      35.450  30.602  27.767  1.00  0.00     0.001 A 
ATOM     26  C   UNL A   1      34.333  31.453  27.785  1.00  0.00     0.004 A 
ENDBRANCH  17  18
ENDBRANCH  12  17
ENDBRANCH   9  10
ENDBRANCH   8   9
ENDBRANCH   6   8
ENDBRANCH   5   6
ENDBRANCH   4   5
ENDBRANCH   3   4
ENDBRANCH   2   3
ENDBRANCH   1   2
BRANCH   1  27
ATOM     27  C   UNL A   1      37.884  22.872  25.872  1.00  0.00     0.188 C 
BRANCH  27  28
ATOM     28  O   UNL A   1      38.999  23.072  26.733  1.00  0.00    -0.376 OA
BRANCH  28  29
ATOM     29  C   UNL A   1      40.093  22.175  26.631  1.00  0.00     0.202 C 
BRANCH  29  30
ATOM     30  C   UNL A   1      41.432  22.921  26.554  1.00  0.00     0.261 C 
BRANCH  30  31
ATOM     31  O   UNL A   1      41.307  24.311  26.203  1.00  0.00    -0.460 OA
BRANCH  31  32
ATOM     32  C   UNL A   1      42.256  25.112  26.753  1.00  0.00     0.338 C 
ATOM     33  O   UNL A   1      43.465  24.998  26.662  1.00  0.00    -0.246 OA
BRANCH  32  34
ATOM     34  C   UNL A   1      41.637  26.209  27.519  1.00  0.00     0.060 A 
ATOM     35  C   UNL A   1      42.284  27.450  27.554  1.00  0.00     0.016 A 
ATOM     36  C   UNL A   1      40.557  25.947  28.364  1.00  0.00     0.016 A 
ATOM     37  C   UNL A   1      41.909  28.404  28.502  1.00  0.00     0.010 A 
ATOM     38  C   UNL A   1      40.186  26.900  29.318  1.00  0.00     0.010 A 
ATOM     39  C   UNL A   1      40.904  28.104  29.433  1.00  0.00    -0.014 A 
BRANCH  39  40
ATOM     40  C   UNL A   1      40.781  28.922  30.669  1.00  0.00     0.031 A 
ATOM     41  C   UNL A   1      39.708  29.981  30.724  1.00  0.00     0.074 A 
ATOM     42  C   UNL A   1      41.578  28.720  31.733  1.00  0.00     0.049 A 
ATOM     43  N   UNL A   1      39.423  30.829  31.679  1.00  0.00    -0.248 NA
ATOM     44  C   UNL A   1      38.844  30.100  29.538  1.00  0.00     0.031 C 
ATOM     45  C   UNL A   1      42.622  27.704  31.827  1.00  0.00     0.029 A 
ATOM     46  N   UNL A   1      41.626  29.371  32.941  1.00  0.00    -0.354 N 
ATOM     47  C   UNL A   1      38.356  31.587  31.207  1.00  0.00     0.074 A 
ATOM     48  C   UNL A   1      38.066  31.119  29.869  1.00  0.00     0.031 C 
ATOM     49  C   UNL A   1      43.213  27.799  33.032  1.00  0.00     0.029 A 
ATOM     50  C   UNL A   1      42.605  28.900  33.782  1.00  0.00     0.049 A 
ATOM     51  H   UNL A   1      41.017  30.106  33.182  1.00  0.00     0.167 HD
ATOM     52  C   UNL A   1      37.671  32.577  31.830  1.00  0.00     0.037 A 
ATOM     53  C   UNL A   1      42.973  29.316  35.011  1.00  0.00     0.037 A 
ATOM     54  C   UNL A   1      37.953  33.042  33.162  1.00  0.00     0.049 A 
ATOM     55  C   UNL A   1      42.235  30.456  35.667  1.00  0.00     0.074 A 
ATOM     56  C   UNL A   1      37.305  34.027  33.886  1.00  0.00     0.029 A 
ATOM     57  N   UNL A   1      38.972  32.558  33.969  1.00  0.00    -0.354 N 
ATOM     58  N   UNL A   1      41.218  31.152  35.216  1.00  0.00    -0.248 NA
ATOM     59  C   UNL A   1      42.693  30.864  37.003  1.00  0.00     0.031 C 
ATOM     60  C   UNL A   1      37.958  34.168  35.116  1.00  0.00     0.029 A 
ATOM     61  C   UNL A   1      38.984  33.237  35.176  1.00  0.00     0.049 A 
ATOM     62  H   UNL A   1      39.595  31.837  33.722  1.00  0.00     0.167 HD
ATOM     63  C   UNL A   1      40.892  32.053  36.226  1.00  0.00     0.074 A 
ATOM     64  C   UNL A   1      41.822  31.816  37.310  1.00  0.00     0.031 C 
ATOM     65  C   UNL A   1      39.908  32.987  36.254  1.00  0.00     0.037 A 
BRANCH  52  66
ATOM     66  C   UNL A   1      36.571  33.242  31.052  1.00  0.00     0.058 A 
ATOM     67  C   UNL A   1      36.838  34.098  29.972  1.00  0.00     0.135 A 
ATOM     68  C   UNL A   1      35.226  33.028  31.401  1.00  0.00     0.135 A 
ATOM     69  F   UNL A   1      38.106  34.350  29.607  1.00  0.00    -0.206 F 
ATOM     70  C   UNL A   1      35.816  34.754  29.294  1.00  0.00     0.059 A 
ATOM     71  C   UNL A   1      34.187  33.653  30.719  1.00  0.00     0.059 A 
ATOM     72  F   UNL A   1      34.915  32.219  32.424  1.00  0.00    -0.206 F 
ATOM     73  C   UNL A   1      34.494  34.532  29.681  1.00  0.00     0.060 A 
BRANCH  73  74
ATOM     74  S   UNL A   1      33.175  35.414  28.817  1.00  0.00     0.124 S 
ATOM     75  O   UNL A   1      32.534  34.327  28.083  1.00  0.00    -0.237 OA
ATOM     76  O   UNL A   1      32.400  35.977  29.919  1.00  0.00    -0.237 OA
ATOM     77  O   UNL A   1      33.895  36.385  28.001  1.00  0.00    -0.744 OA
ENDBRANCH  73  74
ENDBRANCH  52  66
BRANCH  53  78
ATOM     78  C   UNL A   1      44.092  28.635  35.712  1.00  0.00     0.058 A 
ATOM     79  C   UNL A   1      45.427  28.970  35.438  1.00  0.00     0.135 A 
ATOM     80  C   UNL A   1      43.851  27.647  36.680  1.00  0.00     0.135 A 
ATOM     81  F   UNL A   1      45.706  29.899  34.510  1.00  0.00    -0.206 F 
ATOM     82  C   UNL A   1      46.483  28.346  36.092  1.00  0.00     0.059 A 
ATOM     83  C   UNL A   1      44.891  27.026  37.364  1.00  0.00     0.059 A 
ATOM     84  F   UNL A   1      42.592  27.296  36.984  1.00  0.00    -0.206 F 
ATOM     85  C   UNL A   1      46.205  27.378  37.058  1.00  0.00     0.060 A 
BRANCH  85  86
ATOM     86  S   UNL A   1      47.585  26.616  37.941  1.00  0.00     0.124 S 
ATOM     87  O   UNL A   1      47.392  25.205  37.628  1.00  0.00    -0.237 OA
ATOM     88  O   UNL A   1      48.739  27.257  37.319  1.00  0.00    -0.237 OA
ATOM     89  O   UNL A   1      47.343  26.991  39.332  1.00  0.00    -0.744 OA
ENDBRANCH  85  86
ENDBRANCH  53  78
BRANCH  65  90
ATOM     90  C   UNL A   1      39.747  33.795  37.514  1.00  0.00     0.058 A 
ATOM     91  C   UNL A   1      40.419  35.012  37.706  1.00  0.00     0.135 A 
ATOM     92  C   UNL A   1      38.865  33.369  38.521  1.00  0.00     0.135 A 
ATOM     93  F   UNL A   1      41.277  35.464  36.777  1.00  0.00    -0.206 F 
ATOM     94  C   UNL A   1      40.242  35.766  38.863  1.00  0.00     0.059 A 
ATOM     95  C   UNL A   1      38.653  34.120  39.675  1.00  0.00     0.059 A 
ATOM     96  F   UNL A   1      38.186  32.219  38.383  1.00  0.00    -0.206 F 
ATOM     97  C   UNL A   1      39.357  35.311  39.842  1.00  0.00     0.060 A 
BRANCH  97  98
ATOM     98  S   UNL A   1      39.112  36.310  41.327  1.00  0.00     0.124 S 
ATOM     99  O   UNL A   1      40.394  36.150  42.004  1.00  0.00    -0.237 OA
ATOM    100  O   UNL A   1      38.849  37.635  40.774  1.00  0.00    -0.237 OA
ATOM    101  O   UNL A   1      37.972  35.674  41.979  1.00  0.00    -0.744 OA
ENDBRANCH  97  98
ENDBRANCH  65  90
ENDBRANCH  39  40
ENDBRANCH  32  34
ENDBRANCH  31  32
ENDBRANCH  30  31
ENDBRANCH  29  30
ENDBRANCH  28  29
ENDBRANCH  27  28
ENDBRANCH   1  27
TORSDOF 24
ENDMDL
