MODEL 1
REMARK VINA RESULT:     -10.1      0.000      0.000
REMARK SMILES CNC(=O)[C@H](C)S(=O)(=O)c1cc(C(=O)OCCOCCOCCOC(=O)c2ccc(-c3c4nc(c(-c5c(F)cc(S(=O)(=O)[O-])cc5F)c5ccc([nH]5)c(-c5c(F)cc(S(=O)(=O)[O-])cc5F)c5nc(c(-c6c(F)cc(S(=O)(=O)[O-])cc6F)c6ccc3[nH]6)C=C5)C=C4)cc2)c(C)cc1C
REMARK SMILES IDX 19 1 18 2 17 3 16 4 15 5 13 6 14 7 12 8 10 9 11 10 96 11
REMARK SMILES IDX 95 12 97 13 93 14 94 15 7 16 8 17 9 18 5 19 6 20 3 21 1 22
REMARK SMILES IDX 2 23 4 25 20 26 21 27 22 28 23 29 24 30 25 31 26 32 27 33
REMARK SMILES IDX 28 34 92 35 29 36 91 37 30 38 31 39 32 40 85 41 33 42 90 43
REMARK SMILES IDX 84 44 86 45 34 46 89 47 83 48 82 49 35 51 69 52 48 53 68 54
REMARK SMILES IDX 49 55 52 56 67 57 87 58 50 59 51 60 66 62 88 63 53 64 36 65
REMARK SMILES IDX 37 66 46 67 38 68 39 69 45 70 47 71 40 72 41 73 42 74 43 75
REMARK SMILES IDX 44 76 70 77 71 78 80 79 72 80 73 81 79 82 81 83 74 84 75 85
REMARK SMILES IDX 76 86 77 87 78 88 54 89 55 90 64 91 56 92 57 93 63 94 65 95
REMARK SMILES IDX 58 96 59 97 60 98 61 99 62 100
REMARK H PARENT 2 24 86 50 52 61
REMARK Flexibility Score: inf
ROOT
ATOM      1  C   UNL A   1      35.300  31.581  28.011  1.00  0.00     0.188 C 
ENDROOT
BRANCH   1   2
ATOM      2  O   UNL A   1      34.308  30.945  27.223  1.00  0.00    -0.376 OA
BRANCH   2   3
ATOM      3  C   UNL A   1      33.811  29.680  27.644  1.00  0.00     0.202 C 
BRANCH   3   4
ATOM      4  C   UNL A   1      34.026  28.494  26.709  1.00  0.00     0.261 C 
BRANCH   4   5
ATOM      5  O   UNL A   1      32.817  28.190  25.994  1.00  0.00    -0.460 OA
BRANCH   5   6
ATOM      6  C   UNL A   1      32.297  26.967  26.237  1.00  0.00     0.338 C 
ATOM      7  O   UNL A   1      31.318  26.725  26.925  1.00  0.00    -0.246 OA
BRANCH   6   8
ATOM      8  C   UNL A   1      32.971  25.934  25.411  1.00  0.00     0.064 A 
ATOM      9  C   UNL A   1      33.975  23.696  25.431  1.00  0.00     0.071 A 
ATOM     10  C   UNL A   1      33.306  24.744  26.085  1.00  0.00     0.036 A 
ATOM     11  C   UNL A   1      34.479  23.909  24.138  1.00  0.00    -0.032 A 
ATOM     12  C   UNL A   1      34.093  25.085  23.460  1.00  0.00     0.009 A 
ATOM     13  C   UNL A   1      35.381  22.964  23.391  1.00  0.00     0.046 C 
ATOM     14  C   UNL A   1      33.301  26.084  24.057  1.00  0.00    -0.036 A 
ATOM     15  C   UNL A   1      32.956  27.290  23.228  1.00  0.00     0.045 C 
BRANCH   9  16
ATOM     16  S   UNL A   1      34.204  22.178  26.368  1.00  0.00     0.190 S 
ATOM     17  O   UNL A   1      33.576  22.451  27.648  1.00  0.00    -0.223 OA
ATOM     18  O   UNL A   1      35.611  21.832  26.328  1.00  0.00    -0.223 OA
BRANCH  16  19
ATOM     19  C   UNL A   1      33.306  20.868  25.591  1.00  0.00     0.199 C 
ATOM     20  C   UNL A   1      32.222  21.263  24.607  1.00  0.00     0.036 C 
BRANCH  19  21
ATOM     21  C   UNL A   1      34.175  19.714  25.157  1.00  0.00     0.238 C 
ATOM     22  C   UNL A   1      32.656  17.714  25.673  1.00  0.00     0.142 C 
ATOM     23  N   UNL A   1      33.861  18.402  25.300  1.00  0.00    -0.358 N 
ATOM     24  H   UNL A   1      34.614  17.796  25.110  1.00  0.00     0.163 HD
ATOM     25  O   UNL A   1      35.305  19.928  24.708  1.00  0.00    -0.274 OA
ENDBRANCH  19  21
ENDBRANCH  16  19
ENDBRANCH   9  16
ENDBRANCH   6   8
ENDBRANCH   5   6
ENDBRANCH   4   5
ENDBRANCH   3   4
ENDBRANCH   2   3
ENDBRANCH   1   2
BRANCH   1  26
ATOM     26  C   UNL A   1      35.436  33.119  27.979  1.00  0.00     0.188 C 
BRANCH  26  27
ATOM     27  O   UNL A   1      34.814  33.927  28.963  1.00  0.00    -0.376 OA
BRANCH  27  28
ATOM     28  C   UNL A   1      34.495  33.361  30.229  1.00  0.00     0.202 C 
BRANCH  28  29
ATOM     29  C   UNL A   1      35.582  33.237  31.296  1.00  0.00     0.261 C 
BRANCH  29  30
ATOM     30  O   UNL A   1      36.041  31.889  31.487  1.00  0.00    -0.460 OA
BRANCH  30  31
ATOM     31  C   UNL A   1      37.265  31.803  32.060  1.00  0.00     0.338 C 
ATOM     32  O   UNL A   1      37.604  32.244  33.145  1.00  0.00    -0.246 OA
BRANCH  31  33
ATOM     33  C   UNL A   1      38.157  30.947  31.265  1.00  0.00     0.060 A 
ATOM     34  C   UNL A   1      39.085  30.168  31.959  1.00  0.00     0.016 A 
ATOM     35  C   UNL A   1      38.236  31.078  29.879  1.00  0.00     0.016 A 
ATOM     36  C   UNL A   1      40.132  29.556  31.281  1.00  0.00     0.010 A 
ATOM     37  C   UNL A   1      39.292  30.462  29.195  1.00  0.00     0.010 A 
ATOM     38  C   UNL A   1      40.270  29.737  29.900  1.00  0.00    -0.014 A 
BRANCH  38  39
ATOM     39  C   UNL A   1      41.558  29.346  29.275  1.00  0.00     0.031 A 
ATOM     40  C   UNL A   1      42.697  30.330  29.294  1.00  0.00     0.074 A 
ATOM     41  C   UNL A   1      41.754  28.094  28.822  1.00  0.00     0.049 A 
ATOM     42  N   UNL A   1      43.907  30.210  28.813  1.00  0.00    -0.248 NA
ATOM     43  C   UNL A   1      42.435  31.624  29.946  1.00  0.00     0.031 C 
ATOM     44  C   UNL A   1      40.751  27.031  28.825  1.00  0.00     0.029 A 
ATOM     45  N   UNL A   1      42.875  27.498  28.304  1.00  0.00    -0.354 N 
ATOM     46  C   UNL A   1      44.539  31.420  29.074  1.00  0.00     0.074 A 
ATOM     47  C   UNL A   1      43.579  32.263  29.753  1.00  0.00     0.031 C 
ATOM     48  C   UNL A   1      41.314  25.899  28.371  1.00  0.00     0.029 A 
ATOM     49  C   UNL A   1      42.700  26.170  27.993  1.00  0.00     0.049 A 
ATOM     50  H   UNL A   1      43.724  27.975  28.167  1.00  0.00     0.167 HD
ATOM     51  C   UNL A   1      45.803  31.797  28.765  1.00  0.00     0.037 A 
ATOM     52  C   UNL A   1      43.557  25.282  27.447  1.00  0.00     0.037 A 
ATOM     53  C   UNL A   1      46.760  30.948  28.107  1.00  0.00     0.049 A 
ATOM     54  C   UNL A   1      44.952  25.733  27.092  1.00  0.00     0.074 A 
ATOM     55  C   UNL A   1      48.048  31.248  27.705  1.00  0.00     0.029 A 
ATOM     56  N   UNL A   1      46.535  29.620  27.769  1.00  0.00    -0.354 N 
ATOM     57  N   UNL A   1      45.511  26.907  27.271  1.00  0.00    -0.248 NA
ATOM     58  C   UNL A   1      45.825  24.743  26.446  1.00  0.00     0.031 C 
ATOM     59  C   UNL A   1      48.591  30.113  27.092  1.00  0.00     0.029 A 
ATOM     60  C   UNL A   1      47.657  29.091  27.155  1.00  0.00     0.049 A 
ATOM     61  H   UNL A   1      45.700  29.129  27.940  1.00  0.00     0.167 HD
ATOM     62  C   UNL A   1      46.805  26.791  26.770  1.00  0.00     0.074 A 
ATOM     63  C   UNL A   1      46.951  25.429  26.303  1.00  0.00     0.031 C 
ATOM     64  C   UNL A   1      47.783  27.730  26.698  1.00  0.00     0.037 A 
BRANCH  51  65
ATOM     65  C   UNL A   1      46.189  33.215  29.080  1.00  0.00     0.058 A 
ATOM     66  C   UNL A   1      46.799  33.574  30.292  1.00  0.00     0.135 A 
ATOM     67  C   UNL A   1      45.921  34.236  28.154  1.00  0.00     0.135 A 
ATOM     68  F   UNL A   1      47.052  32.641  31.223  1.00  0.00    -0.206 F 
ATOM     69  C   UNL A   1      47.098  34.901  30.590  1.00  0.00     0.059 A 
ATOM     70  C   UNL A   1      46.234  35.565  28.419  1.00  0.00     0.059 A 
ATOM     71  F   UNL A   1      45.332  33.949  26.982  1.00  0.00    -0.206 F 
ATOM     72  C   UNL A   1      46.804  35.890  29.649  1.00  0.00     0.060 A 
BRANCH  72  73
ATOM     73  S   UNL A   1      47.167  37.611  30.057  1.00  0.00     0.124 S 
ATOM     74  O   UNL A   1      47.826  38.066  28.837  1.00  0.00    -0.237 OA
ATOM     75  O   UNL A   1      45.839  38.163  30.303  1.00  0.00    -0.237 OA
ATOM     76  O   UNL A   1      48.026  37.507  31.233  1.00  0.00    -0.744 OA
ENDBRANCH  72  73
ENDBRANCH  51  65
BRANCH  52  77
ATOM     77  C   UNL A   1      43.115  23.889  27.172  1.00  0.00     0.058 A 
ATOM     78  C   UNL A   1      42.689  23.496  25.894  1.00  0.00     0.135 A 
ATOM     79  C   UNL A   1      43.099  22.920  28.188  1.00  0.00     0.135 A 
ATOM     80  F   UNL A   1      42.669  24.387  24.890  1.00  0.00    -0.206 F 
ATOM     81  C   UNL A   1      42.251  22.199  25.635  1.00  0.00     0.059 A 
ATOM     82  C   UNL A   1      42.693  21.612  27.949  1.00  0.00     0.059 A 
ATOM     83  F   UNL A   1      43.504  23.239  29.427  1.00  0.00    -0.206 F 
ATOM     84  C   UNL A   1      42.257  21.263  26.671  1.00  0.00     0.060 A 
BRANCH  84  85
ATOM     85  S   UNL A   1      41.730  19.571  26.327  1.00  0.00     0.124 S 
ATOM     86  O   UNL A   1      42.116  18.887  27.556  1.00  0.00    -0.237 OA
ATOM     87  O   UNL A   1      40.296  19.730  26.107  1.00  0.00    -0.237 OA
ATOM     88  O   UNL A   1      42.501  19.218  25.139  1.00  0.00    -0.744 OA
ENDBRANCH  84  85
ENDBRANCH  52  77
BRANCH  64  89
ATOM     89  C   UNL A   1      49.103  27.306  26.113  1.00  0.00     0.058 A 
ATOM     90  C   UNL A   1      49.343  27.344  24.731  1.00  0.00     0.135 A 
ATOM     91  C   UNL A   1      50.151  26.892  26.951  1.00  0.00     0.135 A 
ATOM     92  F   UNL A   1      48.374  27.731  23.887  1.00  0.00    -0.206 F 
ATOM     93  C   UNL A   1      50.568  26.954  24.196  1.00  0.00     0.059 A 
ATOM     94  C   UNL A   1      51.391  26.523  26.440  1.00  0.00     0.059 A 
ATOM     95  F   UNL A   1      49.978  26.853  28.282  1.00  0.00    -0.206 F 
ATOM     96  C   UNL A   1      51.584  26.541  25.059  1.00  0.00     0.060 A 
BRANCH  96  97
ATOM     97  S   UNL A   1      53.173  26.049  24.358  1.00  0.00     0.124 S 
ATOM     98  O   UNL A   1      54.077  27.017  24.969  1.00  0.00    -0.237 OA
ATOM     99  O   UNL A   1      53.311  24.671  24.823  1.00  0.00    -0.237 OA
ATOM    100  O   UNL A   1      52.972  26.198  22.920  1.00  0.00    -0.744 OA
ENDBRANCH  96  97
ENDBRANCH  64  89
ENDBRANCH  38  39
ENDBRANCH  31  33
ENDBRANCH  30  31
ENDBRANCH  29  30
ENDBRANCH  28  29
ENDBRANCH  27  28
ENDBRANCH  26  27
ENDBRANCH   1  26
TORSDOF 23
ENDMDL
MODEL 2
REMARK VINA RESULT:     -10.0      0.849      8.068
REMARK SMILES CNC(=O)[C@H](C)S(=O)(=O)c1cc(C(=O)OCCOCCOCCOC(=O)c2ccc(-c3c4nc(c(-c5c(F)cc(S(=O)(=O)[O-])cc5F)c5ccc([nH]5)c(-c5c(F)cc(S(=O)(=O)[O-])cc5F)c5nc(c(-c6c(F)cc(S(=O)(=O)[O-])cc6F)c6ccc3[nH]6)C=C5)C=C4)cc2)c(C)cc1C
REMARK SMILES IDX 19 1 18 2 17 3 16 4 15 5 13 6 14 7 12 8 10 9 11 10 96 11
REMARK SMILES IDX 95 12 97 13 93 14 94 15 7 16 8 17 9 18 5 19 6 20 3 21 1 22
REMARK SMILES IDX 2 23 4 25 20 26 21 27 22 28 23 29 24 30 25 31 26 32 27 33
REMARK SMILES IDX 28 34 92 35 29 36 91 37 30 38 31 39 32 40 85 41 33 42 90 43
REMARK SMILES IDX 84 44 86 45 34 46 89 47 83 48 82 49 35 51 69 52 48 53 68 54
REMARK SMILES IDX 49 55 52 56 67 57 87 58 50 59 51 60 66 62 88 63 53 64 36 65
REMARK SMILES IDX 37 66 46 67 38 68 39 69 45 70 47 71 40 72 41 73 42 74 43 75
REMARK SMILES IDX 44 76 70 77 71 78 80 79 72 80 73 81 79 82 81 83 74 84 75 85
REMARK SMILES IDX 76 86 77 87 78 88 54 89 55 90 64 91 56 92 57 93 63 94 65 95
REMARK SMILES IDX 58 96 59 97 60 98 61 99 62 100
REMARK H PARENT 2 24 86 50 52 61
REMARK Flexibility Score: inf
ROOT
ATOM      1  C   UNL A   1      32.442  30.956  26.750  1.00  0.00     0.188 C 
ENDROOT
BRANCH   1   2
ATOM      2  O   UNL A   1      31.599  29.860  27.059  1.00  0.00    -0.376 OA
BRANCH   2   3
ATOM      3  C   UNL A   1      32.184  28.684  27.608  1.00  0.00     0.202 C 
BRANCH   3   4
ATOM      4  C   UNL A   1      32.581  27.578  26.635  1.00  0.00     0.261 C 
BRANCH   4   5
ATOM      5  O   UNL A   1      31.813  26.389  26.883  1.00  0.00    -0.460 OA
BRANCH   5   6
ATOM      6  C   UNL A   1      31.307  25.791  25.782  1.00  0.00     0.338 C 
ATOM      7  O   UNL A   1      30.187  25.954  25.325  1.00  0.00    -0.246 OA
BRANCH   6   8
ATOM      8  C   UNL A   1      32.357  25.018  25.072  1.00  0.00     0.064 A 
ATOM      9  C   UNL A   1      33.789  23.029  25.167  1.00  0.00     0.071 A 
ATOM     10  C   UNL A   1      32.779  23.839  25.714  1.00  0.00     0.036 A 
ATOM     11  C   UNL A   1      34.513  23.496  24.059  1.00  0.00    -0.032 A 
ATOM     12  C   UNL A   1      34.046  24.652  23.399  1.00  0.00     0.009 A 
ATOM     13  C   UNL A   1      35.742  22.843  23.488  1.00  0.00     0.046 C 
ATOM     14  C   UNL A   1      32.944  25.398  23.857  1.00  0.00    -0.036 A 
ATOM     15  C   UNL A   1      32.542  26.611  23.063  1.00  0.00     0.045 C 
BRANCH   9  16
ATOM     16  S   UNL A   1      34.122  21.477  26.012  1.00  0.00     0.190 S 
ATOM     17  O   UNL A   1      33.455  21.618  27.294  1.00  0.00    -0.223 OA
ATOM     18  O   UNL A   1      35.553  21.245  25.980  1.00  0.00    -0.223 OA
BRANCH  16  19
ATOM     19  C   UNL A   1      33.343  20.153  25.137  1.00  0.00     0.199 C 
ATOM     20  C   UNL A   1      32.483  20.526  23.945  1.00  0.00     0.036 C 
BRANCH  19  21
ATOM     21  C   UNL A   1      34.237  18.955  24.932  1.00  0.00     0.238 C 
ATOM     22  C   UNL A   1      32.661  17.034  25.560  1.00  0.00     0.142 C 
ATOM     23  N   UNL A   1      33.900  17.671  25.211  1.00  0.00    -0.358 N 
ATOM     24  H   UNL A   1      34.661  17.048  25.167  1.00  0.00     0.163 HD
ATOM     25  O   UNL A   1      35.404  19.113  24.561  1.00  0.00    -0.274 OA
ENDBRANCH  19  21
ENDBRANCH  16  19
ENDBRANCH   9  16
ENDBRANCH   6   8
ENDBRANCH   5   6
ENDBRANCH   4   5
ENDBRANCH   3   4
ENDBRANCH   2   3
ENDBRANCH   1   2
BRANCH   1  26
ATOM     26  C   UNL A   1      33.701  31.221  27.604  1.00  0.00     0.188 C 
BRANCH  26  27
ATOM     27  O   UNL A   1      33.933  32.492  28.186  1.00  0.00    -0.376 OA
BRANCH  27  28
ATOM     28  C   UNL A   1      35.201  32.768  28.772  1.00  0.00     0.202 C 
BRANCH  28  29
ATOM     29  C   UNL A   1      35.422  32.491  30.259  1.00  0.00     0.261 C 
BRANCH  29  30
ATOM     30  O   UNL A   1      35.935  31.174  30.521  1.00  0.00    -0.460 OA
BRANCH  30  31
ATOM     31  C   UNL A   1      37.056  31.164  31.279  1.00  0.00     0.338 C 
ATOM     32  O   UNL A   1      37.195  31.632  32.397  1.00  0.00    -0.246 OA
BRANCH  31  33
ATOM     33  C   UNL A   1      38.110  30.358  30.647  1.00  0.00     0.060 A 
ATOM     34  C   UNL A   1      39.051  29.760  31.487  1.00  0.00     0.016 A 
ATOM     35  C   UNL A   1      38.303  30.378  29.266  1.00  0.00     0.016 A 
ATOM     36  C   UNL A   1      40.220  29.224  30.960  1.00  0.00     0.010 A 
ATOM     37  C   UNL A   1      39.482  29.839  28.734  1.00  0.00     0.010 A 
ATOM     38  C   UNL A   1      40.465  29.301  29.584  1.00  0.00    -0.014 A 
BRANCH  38  39
ATOM     39  C   UNL A   1      41.842  29.017  29.108  1.00  0.00     0.031 A 
ATOM     40  C   UNL A   1      42.142  27.659  28.534  1.00  0.00     0.074 A 
ATOM     41  C   UNL A   1      42.769  29.991  29.059  1.00  0.00     0.049 A 
ATOM     42  N   UNL A   1      43.264  27.187  28.059  1.00  0.00    -0.248 NA
ATOM     43  C   UNL A   1      41.022  26.703  28.490  1.00  0.00     0.031 C 
ATOM     44  C   UNL A   1      42.571  31.367  29.511  1.00  0.00     0.029 A 
ATOM     45  N   UNL A   1      44.052  29.979  28.575  1.00  0.00    -0.354 N 
ATOM     46  C   UNL A   1      42.997  25.874  27.690  1.00  0.00     0.074 A 
ATOM     47  C   UNL A   1      41.606  25.621  27.999  1.00  0.00     0.031 C 
ATOM     48  C   UNL A   1      43.679  32.078  29.243  1.00  0.00     0.029 A 
ATOM     49  C   UNL A   1      44.685  31.197  28.654  1.00  0.00     0.049 A 
ATOM     50  H   UNL A   1      44.480  29.173  28.206  1.00  0.00     0.167 HD
ATOM     51  C   UNL A   1      43.838  24.958  27.152  1.00  0.00     0.037 A 
ATOM     52  C   UNL A   1      45.939  31.552  28.307  1.00  0.00     0.037 A 
ATOM     53  C   UNL A   1      45.215  25.221  26.828  1.00  0.00     0.049 A 
ATOM     54  C   UNL A   1      46.863  30.509  27.731  1.00  0.00     0.074 A 
ATOM     55  C   UNL A   1      46.165  24.351  26.326  1.00  0.00     0.029 A 
ATOM     56  N   UNL A   1      45.834  26.457  26.961  1.00  0.00    -0.354 N 
ATOM     57  N   UNL A   1      46.621  29.247  27.463  1.00  0.00    -0.248 NA
ATOM     58  C   UNL A   1      48.237  30.935  27.426  1.00  0.00     0.031 C 
ATOM     59  C   UNL A   1      47.369  25.051  26.187  1.00  0.00     0.029 A 
ATOM     60  C   UNL A   1      47.156  26.369  26.558  1.00  0.00     0.049 A 
ATOM     61  H   UNL A   1      45.398  27.274  27.291  1.00  0.00     0.167 HD
ATOM     62  C   UNL A   1      47.807  28.733  26.947  1.00  0.00     0.074 A 
ATOM     63  C   UNL A   1      48.757  29.825  26.920  1.00  0.00     0.031 C 
ATOM     64  C   UNL A   1      48.087  27.470  26.537  1.00  0.00     0.037 A 
BRANCH  51  65
ATOM     65  C   UNL A   1      43.298  23.571  26.948  1.00  0.00     0.058 A 
ATOM     66  C   UNL A   1      43.070  22.691  28.016  1.00  0.00     0.135 A 
ATOM     67  C   UNL A   1      43.024  23.110  25.649  1.00  0.00     0.135 A 
ATOM     68  F   UNL A   1      43.342  23.071  29.275  1.00  0.00    -0.206 F 
ATOM     69  C   UNL A   1      42.623  21.389  27.803  1.00  0.00     0.059 A 
ATOM     70  C   UNL A   1      42.552  21.823  25.414  1.00  0.00     0.059 A 
ATOM     71  F   UNL A   1      43.230  23.910  24.590  1.00  0.00    -0.206 F 
ATOM     72  C   UNL A   1      42.374  20.963  26.497  1.00  0.00     0.060 A 
BRANCH  72  73
ATOM     73  S   UNL A   1      41.825  19.265  26.228  1.00  0.00     0.124 S 
ATOM     74  O   UNL A   1      42.698  18.847  25.135  1.00  0.00    -0.237 OA
ATOM     75  O   UNL A   1      42.084  18.640  27.521  1.00  0.00    -0.237 OA
ATOM     76  O   UNL A   1      40.414  19.416  25.881  1.00  0.00    -0.744 OA
ENDBRANCH  72  73
ENDBRANCH  51  65
BRANCH  52  77
ATOM     77  C   UNL A   1      46.408  32.947  28.525  1.00  0.00     0.058 A 
ATOM     78  C   UNL A   1      46.309  33.917  27.516  1.00  0.00     0.135 A 
ATOM     79  C   UNL A   1      46.976  33.337  29.748  1.00  0.00     0.135 A 
ATOM     80  F   UNL A   1      45.789  33.593  26.322  1.00  0.00    -0.206 F 
ATOM     81  C   UNL A   1      46.768  35.218  27.705  1.00  0.00     0.059 A 
ATOM     82  C   UNL A   1      47.416  34.637  29.971  1.00  0.00     0.059 A 
ATOM     83  F   UNL A   1      47.087  32.452  30.751  1.00  0.00    -0.206 F 
ATOM     84  C   UNL A   1      47.321  35.569  28.938  1.00  0.00     0.060 A 
BRANCH  84  85
ATOM     85  S   UNL A   1      47.877  37.267  29.199  1.00  0.00     0.124 S 
ATOM     86  O   UNL A   1      48.593  37.535  27.957  1.00  0.00    -0.237 OA
ATOM     87  O   UNL A   1      46.619  37.983  29.380  1.00  0.00    -0.237 OA
ATOM     88  O   UNL A   1      48.707  37.165  30.396  1.00  0.00    -0.744 OA
ENDBRANCH  84  85
ENDBRANCH  52  77
BRANCH  64  89
ATOM     89  C   UNL A   1      49.469  27.208  26.004  1.00  0.00     0.058 A 
ATOM     90  C   UNL A   1      50.528  26.841  26.849  1.00  0.00     0.135 A 
ATOM     91  C   UNL A   1      49.726  27.292  24.627  1.00  0.00     0.135 A 
ATOM     92  F   UNL A   1      50.335  26.749  28.174  1.00  0.00    -0.206 F 
ATOM     93  C   UNL A   1      51.804  26.597  26.350  1.00  0.00     0.059 A 
ATOM     94  C   UNL A   1      50.988  27.027  24.103  1.00  0.00     0.059 A 
ATOM     95  F   UNL A   1      48.744  27.623  23.773  1.00  0.00    -0.206 F 
ATOM     96  C   UNL A   1      52.025  26.697  24.975  1.00  0.00     0.060 A 
BRANCH  96  97
ATOM     97  S   UNL A   1      53.680  26.367  24.334  1.00  0.00     0.124 S 
ATOM     98  O   UNL A   1      53.504  26.636  22.912  1.00  0.00    -0.237 OA
ATOM     99  O   UNL A   1      54.500  27.330  25.065  1.00  0.00    -0.237 OA
ATOM    100  O   UNL A   1      53.909  24.969  24.687  1.00  0.00    -0.744 OA
ENDBRANCH  96  97
ENDBRANCH  64  89
ENDBRANCH  38  39
ENDBRANCH  31  33
ENDBRANCH  30  31
ENDBRANCH  29  30
ENDBRANCH  28  29
ENDBRANCH  27  28
ENDBRANCH  26  27
ENDBRANCH   1  26
TORSDOF 23
ENDMDL
MODEL 3
REMARK VINA RESULT:     -10.0      3.047      9.585
REMARK SMILES CNC(=O)[C@H](C)S(=O)(=O)c1cc(C(=O)OCCOCCOCCOC(=O)c2ccc(-c3c4nc(c(-c5c(F)cc(S(=O)(=O)[O-])cc5F)c5ccc([nH]5)c(-c5c(F)cc(S(=O)(=O)[O-])cc5F)c5nc(c(-c6c(F)cc(S(=O)(=O)[O-])cc6F)c6ccc3[nH]6)C=C5)C=C4)cc2)c(C)cc1C
REMARK SMILES IDX 19 1 18 2 17 3 16 4 15 5 13 6 14 7 12 8 10 9 11 10 96 11
REMARK SMILES IDX 95 12 97 13 93 14 94 15 7 16 8 17 9 18 5 19 6 20 3 21 1 22
REMARK SMILES IDX 2 23 4 25 20 26 21 27 22 28 23 29 24 30 25 31 26 32 27 33
REMARK SMILES IDX 28 34 92 35 29 36 91 37 30 38 31 39 32 40 85 41 33 42 90 43
REMARK SMILES IDX 84 44 86 45 34 46 89 47 83 48 82 49 35 51 69 52 48 53 68 54
REMARK SMILES IDX 49 55 52 56 67 57 87 58 50 59 51 60 66 62 88 63 53 64 36 65
REMARK SMILES IDX 37 66 46 67 38 68 39 69 45 70 47 71 40 72 41 73 42 74 43 75
REMARK SMILES IDX 44 76 70 77 71 78 80 79 72 80 73 81 79 82 81 83 74 84 75 85
REMARK SMILES IDX 76 86 77 87 78 88 54 89 55 90 64 91 56 92 57 93 63 94 65 95
REMARK SMILES IDX 58 96 59 97 60 98 61 99 62 100
REMARK H PARENT 2 24 86 50 52 61
REMARK Flexibility Score: inf
ROOT
ATOM      1  C   UNL A   1      33.302  22.029  27.648  1.00  0.00     0.188 C 
ENDROOT
BRANCH   1   2
ATOM      2  O   UNL A   1      32.244  22.928  27.932  1.00  0.00    -0.376 OA
BRANCH   2   3
ATOM      3  C   UNL A   1      31.545  23.524  26.845  1.00  0.00     0.202 C 
BRANCH   3   4
ATOM      4  C   UNL A   1      30.963  22.591  25.788  1.00  0.00     0.261 C 
BRANCH   4   5
ATOM      5  O   UNL A   1      30.603  23.327  24.608  1.00  0.00    -0.460 OA
BRANCH   5   6
ATOM      6  C   UNL A   1      31.478  23.235  23.583  1.00  0.00     0.338 C 
ATOM      7  O   UNL A   1      31.565  22.309  22.792  1.00  0.00    -0.246 OA
BRANCH   6   8
ATOM      8  C   UNL A   1      32.235  24.501  23.420  1.00  0.00     0.064 A 
ATOM      9  C   UNL A   1      32.061  26.947  23.375  1.00  0.00     0.071 A 
ATOM     10  C   UNL A   1      31.476  25.680  23.539  1.00  0.00     0.036 A 
ATOM     11  C   UNL A   1      33.382  27.034  22.907  1.00  0.00    -0.032 A 
ATOM     12  C   UNL A   1      34.143  25.847  22.840  1.00  0.00     0.009 A 
ATOM     13  C   UNL A   1      34.075  28.304  22.494  1.00  0.00     0.046 C 
ATOM     14  C   UNL A   1      33.606  24.581  23.139  1.00  0.00    -0.036 A 
ATOM     15  C   UNL A   1      34.521  23.392  23.033  1.00  0.00     0.045 C 
BRANCH   9  16
ATOM     16  S   UNL A   1      31.010  28.369  23.704  1.00  0.00     0.190 S 
ATOM     17  O   UNL A   1      29.745  27.789  24.120  1.00  0.00    -0.223 OA
ATOM     18  O   UNL A   1      31.043  29.233  22.541  1.00  0.00    -0.223 OA
BRANCH  16  19
ATOM     19  C   UNL A   1      31.665  29.279  25.070  1.00  0.00     0.199 C 
ATOM     20  C   UNL A   1      31.027  30.620  25.376  1.00  0.00     0.036 C 
BRANCH  19  21
ATOM     21  C   UNL A   1      31.970  28.426  26.276  1.00  0.00     0.238 C 
ATOM     22  C   UNL A   1      34.447  28.957  26.662  1.00  0.00     0.142 C 
ATOM     23  N   UNL A   1      33.193  28.280  26.843  1.00  0.00    -0.358 N 
ATOM     24  H   UNL A   1      33.230  27.562  27.515  1.00  0.00     0.163 HD
ATOM     25  O   UNL A   1      31.084  27.720  26.771  1.00  0.00    -0.274 OA
ENDBRANCH  19  21
ENDBRANCH  16  19
ENDBRANCH   9  16
ENDBRANCH   6   8
ENDBRANCH   5   6
ENDBRANCH   4   5
ENDBRANCH   3   4
ENDBRANCH   2   3
ENDBRANCH   1   2
BRANCH   1  26
ATOM     26  C   UNL A   1      34.437  22.457  26.692  1.00  0.00     0.188 C 
BRANCH  26  27
ATOM     27  O   UNL A   1      35.662  21.746  26.648  1.00  0.00    -0.376 OA
BRANCH  27  28
ATOM     28  C   UNL A   1      36.156  21.285  25.395  1.00  0.00     0.202 C 
BRANCH  28  29
ATOM     29  C   UNL A   1      37.604  21.575  25.003  1.00  0.00     0.261 C 
BRANCH  29  30
ATOM     30  O   UNL A   1      38.139  22.752  25.631  1.00  0.00    -0.460 OA
BRANCH  30  31
ATOM     31  C   UNL A   1      39.289  22.536  26.311  1.00  0.00     0.338 C 
ATOM     32  O   UNL A   1      40.064  21.605  26.172  1.00  0.00    -0.246 OA
BRANCH  31  33
ATOM     33  C   UNL A   1      39.606  23.677  27.182  1.00  0.00     0.060 A 
ATOM     34  C   UNL A   1      38.893  24.858  26.975  1.00  0.00     0.016 A 
ATOM     35  C   UNL A   1      40.722  23.659  28.017  1.00  0.00     0.016 A 
ATOM     36  C   UNL A   1      39.319  26.045  27.558  1.00  0.00     0.010 A 
ATOM     37  C   UNL A   1      41.154  24.855  28.604  1.00  0.00     0.010 A 
ATOM     38  C   UNL A   1      40.480  26.061  28.340  1.00  0.00    -0.014 A 
BRANCH  38  39
ATOM     39  C   UNL A   1      41.076  27.380  28.670  1.00  0.00     0.031 A 
ATOM     40  C   UNL A   1      42.523  27.622  28.334  1.00  0.00     0.074 A 
ATOM     41  C   UNL A   1      40.312  28.387  29.131  1.00  0.00     0.049 A 
ATOM     42  N   UNL A   1      43.253  28.689  28.527  1.00  0.00    -0.248 NA
ATOM     43  C   UNL A   1      43.243  26.510  27.691  1.00  0.00     0.031 C 
ATOM     44  C   UNL A   1      38.882  28.295  29.419  1.00  0.00     0.029 A 
ATOM     45  N   UNL A   1      40.627  29.692  29.407  1.00  0.00    -0.354 N 
ATOM     46  C   UNL A   1      44.523  28.369  28.062  1.00  0.00     0.074 A 
ATOM     47  C   UNL A   1      44.466  27.006  27.579  1.00  0.00     0.031 C 
ATOM     48  C   UNL A   1      38.432  29.505  29.790  1.00  0.00     0.029 A 
ATOM     49  C   UNL A   1      39.553  30.444  29.822  1.00  0.00     0.049 A 
ATOM     50  H   UNL A   1      41.536  30.057  29.317  1.00  0.00     0.167 HD
ATOM     51  C   UNL A   1      45.638  29.137  28.049  1.00  0.00     0.037 A 
ATOM     52  C   UNL A   1      39.488  31.737  30.201  1.00  0.00     0.037 A 
ATOM     53  C   UNL A   1      45.685  30.498  28.512  1.00  0.00     0.049 A 
ATOM     54  C   UNL A   1      40.748  32.566  30.199  1.00  0.00     0.074 A 
ATOM     55  C   UNL A   1      46.773  31.348  28.588  1.00  0.00     0.029 A 
ATOM     56  N   UNL A   1      44.585  31.215  28.965  1.00  0.00    -0.354 N 
ATOM     57  N   UNL A   1      41.961  32.224  29.832  1.00  0.00    -0.248 NA
ATOM     58  C   UNL A   1      40.632  33.950  30.677  1.00  0.00     0.031 C 
ATOM     59  C   UNL A   1      46.339  32.568  29.119  1.00  0.00     0.029 A 
ATOM     60  C   UNL A   1      44.971  32.494  29.330  1.00  0.00     0.049 A 
ATOM     61  H   UNL A   1      43.667  30.865  29.018  1.00  0.00     0.167 HD
ATOM     62  C   UNL A   1      42.749  33.355  30.025  1.00  0.00     0.074 A 
ATOM     63  C   UNL A   1      41.872  34.395  30.518  1.00  0.00     0.031 C 
ATOM     64  C   UNL A   1      44.081  33.517  29.818  1.00  0.00     0.037 A 
BRANCH  51  65
ATOM     65  C   UNL A   1      46.909  28.489  27.576  1.00  0.00     0.058 A 
ATOM     66  C   UNL A   1      47.749  27.769  28.439  1.00  0.00     0.135 A 
ATOM     67  C   UNL A   1      47.301  28.613  26.233  1.00  0.00     0.135 A 
ATOM     68  F   UNL A   1      47.435  27.643  29.739  1.00  0.00    -0.206 F 
ATOM     69  C   UNL A   1      48.951  27.223  27.996  1.00  0.00     0.059 A 
ATOM     70  C   UNL A   1      48.485  28.054  25.762  1.00  0.00     0.059 A 
ATOM     71  F   UNL A   1      46.538  29.297  25.366  1.00  0.00    -0.206 F 
ATOM     72  C   UNL A   1      49.313  27.378  26.656  1.00  0.00     0.060 A 
BRANCH  72  73
ATOM     73  S   UNL A   1      50.888  26.695  26.098  1.00  0.00     0.124 S 
ATOM     74  O   UNL A   1      50.453  25.792  25.037  1.00  0.00    -0.237 OA
ATOM     75  O   UNL A   1      51.611  27.884  25.661  1.00  0.00    -0.237 OA
ATOM     76  O   UNL A   1      51.420  26.048  27.295  1.00  0.00    -0.744 OA
ENDBRANCH  72  73
ENDBRANCH  51  65
BRANCH  52  77
ATOM     77  C   UNL A   1      38.194  32.321  30.647  1.00  0.00     0.058 A 
ATOM     78  C   UNL A   1      37.405  33.096  29.783  1.00  0.00     0.135 A 
ATOM     79  C   UNL A   1      37.723  32.125  31.955  1.00  0.00     0.135 A 
ATOM     80  F   UNL A   1      37.817  33.328  28.526  1.00  0.00    -0.206 F 
ATOM     81  C   UNL A   1      36.205  33.665  30.201  1.00  0.00     0.059 A 
ATOM     82  C   UNL A   1      36.515  32.659  32.388  1.00  0.00     0.059 A 
ATOM     83  F   UNL A   1      38.433  31.384  32.820  1.00  0.00    -0.206 F 
ATOM     84  C   UNL A   1      35.768  33.440  31.508  1.00  0.00     0.060 A 
BRANCH  84  85
ATOM     85  S   UNL A   1      34.192  34.143  32.038  1.00  0.00     0.124 S 
ATOM     86  O   UNL A   1      33.667  33.081  32.888  1.00  0.00    -0.237 OA
ATOM     87  O   UNL A   1      34.609  35.363  32.722  1.00  0.00    -0.237 OA
ATOM     88  O   UNL A   1      33.481  34.353  30.780  1.00  0.00    -0.744 OA
ENDBRANCH  84  85
ENDBRANCH  52  77
BRANCH  64  89
ATOM     89  C   UNL A   1      44.663  34.874  30.103  1.00  0.00     0.058 A 
ATOM     90  C   UNL A   1      45.138  35.220  31.377  1.00  0.00     0.135 A 
ATOM     91  C   UNL A   1      44.778  35.827  29.077  1.00  0.00     0.135 A 
ATOM     92  F   UNL A   1      45.049  34.346  32.392  1.00  0.00    -0.206 F 
ATOM     93  C   UNL A   1      45.678  36.477  31.634  1.00  0.00     0.059 A 
ATOM     94  C   UNL A   1      45.339  37.080  29.306  1.00  0.00     0.059 A 
ATOM     95  F   UNL A   1      44.354  35.540  27.836  1.00  0.00    -0.206 F 
ATOM     96  C   UNL A   1      45.770  37.402  30.593  1.00  0.00     0.060 A 
BRANCH  96  97
ATOM     97  S   UNL A   1      46.484  39.025  30.931  1.00  0.00     0.124 S 
ATOM     98  O   UNL A   1      47.910  38.718  30.961  1.00  0.00    -0.237 OA
ATOM     99  O   UNL A   1      46.029  39.814  29.790  1.00  0.00    -0.237 OA
ATOM    100  O   UNL A   1      45.894  39.396  32.214  1.00  0.00    -0.744 OA
ENDBRANCH  96  97
ENDBRANCH  64  89
ENDBRANCH  38  39
ENDBRANCH  31  33
ENDBRANCH  30  31
ENDBRANCH  29  30
ENDBRANCH  28  29
ENDBRANCH  27  28
ENDBRANCH  26  27
ENDBRANCH   1  26
TORSDOF 23
ENDMDL
