MODEL 1
REMARK VINA RESULT:     -12.0      0.000      0.000
REMARK SMILES Cc1cc(C(=O)OCCOCCOCCOC(=O)c2ccc(-c3c4nc(c(-c5c(F)cc(S(=O)(=O)[O-])cc5F)c5ccc([nH]5)c(-c5c(F)cc(S(=O)(=O)[O-])cc5F)c5nc(c(-c6c(F)cc(S(=O)(=O)[O-])cc6F)c6ccc3[nH]6)C=C5)C=C4)cc2)ccc1NC(=O)N1C[C@@H](C)[C@H](C)C1
REMARK SMILES IDX 12 1 11 2 10 3 9 4 8 5 7 6 5 7 6 8 4 9 1 10 2 11 3 12 87 13
REMARK SMILES IDX 86 14 85 15 88 16 89 17 90 19 91 20 92 21 97 22 93 23 95 24
REMARK SMILES IDX 94 25 96 26 13 27 14 28 15 29 16 30 17 31 18 32 19 33 20 34
REMARK SMILES IDX 84 35 21 36 83 37 22 38 23 39 24 40 77 41 25 42 82 43 76 44
REMARK SMILES IDX 78 45 26 46 81 47 75 48 74 49 27 51 61 52 40 53 60 54 41 55
REMARK SMILES IDX 44 56 59 57 79 58 42 59 43 60 58 62 80 63 45 64 28 65 29 66
REMARK SMILES IDX 38 67 30 68 31 69 37 70 39 71 32 72 33 73 34 74 35 75 36 76
REMARK SMILES IDX 62 77 63 78 72 79 64 80 65 81 71 82 73 83 66 84 67 85 68 86
REMARK SMILES IDX 69 87 70 88 46 89 47 90 56 91 48 92 49 93 55 94 57 95 50 96
REMARK SMILES IDX 51 97 52 98 53 99 54 100
REMARK H PARENT 88 18 78 50 44 61
REMARK Flexibility Score: inf
ROOT
ATOM      1  C   UNL A   1      34.308  34.336  31.558  1.00  0.00     0.188 C 
ENDROOT
BRANCH   1   2
ATOM      2  C   UNL A   1      34.493  34.510  30.047  1.00  0.00     0.188 C 
BRANCH   2   3
ATOM      3  O   UNL A   1      34.987  33.460  29.176  1.00  0.00    -0.376 OA
BRANCH   3   4
ATOM      4  C   UNL A   1      34.164  32.470  28.541  1.00  0.00     0.202 C 
BRANCH   4   5
ATOM      5  C   UNL A   1      34.685  30.970  27.906  1.00  0.00     0.261 C 
BRANCH   5   6
ATOM      6  O   UNL A   1      33.756  29.675  27.318  1.00  0.00    -0.460 OA
BRANCH   6   7
ATOM      7  C   UNL A   1      32.514  29.315  26.731  1.00  0.00     0.338 C 
ATOM      8  O   UNL A   1      31.559  28.754  27.267  1.00  0.00    -0.246 OA
BRANCH   7   9
ATOM      9  C   UNL A   1      32.226  29.429  25.252  1.00  0.00     0.060 A 
ATOM     10  C   UNL A   1      29.458  28.461  22.681  1.00  0.00     0.046 C 
ATOM     11  C   UNL A   1      30.812  28.627  23.330  1.00  0.00    -0.027 A 
ATOM     12  C   UNL A   1      30.948  29.121  24.656  1.00  0.00     0.021 A 
ATOM     13  C   UNL A   1      31.999  28.248  22.711  1.00  0.00     0.045 A 
ATOM     14  C   UNL A   1      33.233  28.703  23.220  1.00  0.00     0.027 A 
ATOM     15  C   UNL A   1      33.353  29.301  24.470  1.00  0.00     0.018 A 
BRANCH  13  16
ATOM     16  N   UNL A   1      32.009  27.267  21.693  1.00  0.00    -0.308 N 
ATOM     17  C   UNL A   1      32.688  26.071  21.775  1.00  0.00     0.321 C 
ATOM     18  H   UNL A   1      31.497  27.451  20.872  1.00  0.00     0.171 HD
ATOM     19  O   UNL A   1      33.154  25.541  20.768  1.00  0.00    -0.248 OA
ATOM     20  N   UNL A   1      32.818  25.522  23.032  1.00  0.00    -0.324 N 
ATOM     21  C   UNL A   1      34.051  24.927  23.493  1.00  0.00     0.125 C 
ATOM     22  C   UNL A   1      31.720  25.286  23.968  1.00  0.00     0.125 C 
ATOM     23  C   UNL A   1      33.691  24.166  24.768  1.00  0.00     0.010 C 
ATOM     24  C   UNL A   1      32.403  24.854  25.265  1.00  0.00     0.010 C 
ATOM     25  C   UNL A   1      34.807  24.199  25.802  1.00  0.00     0.010 C 
ATOM     26  C   UNL A   1      31.544  23.935  26.125  1.00  0.00     0.010 C 
ENDBRANCH  13  16
ENDBRANCH   7   9
ENDBRANCH   6   7
ENDBRANCH   5   6
ENDBRANCH   4   5
ENDBRANCH   3   4
ENDBRANCH   2   3
ENDBRANCH   1   2
BRANCH   1  27
ATOM     27  O   UNL A   1      35.564  34.255  32.208  1.00  0.00    -0.376 OA
BRANCH  27  28
ATOM     28  C   UNL A   1      35.705  33.241  33.187  1.00  0.00     0.202 C 
BRANCH  28  29
ATOM     29  C   UNL A   1      36.813  32.208  32.885  1.00  0.00     0.261 C 
BRANCH  29  30
ATOM     30  O   UNL A   1      36.924  31.885  31.473  1.00  0.00    -0.460 OA
BRANCH  30  31
ATOM     31  C   UNL A   1      36.933  30.541  31.087  1.00  0.00     0.338 C 
ATOM     32  O   UNL A   1      36.100  29.772  31.444  1.00  0.00    -0.246 OA
BRANCH  31  33
ATOM     33  C   UNL A   1      37.984  30.309  30.014  1.00  0.00     0.060 A 
ATOM     34  C   UNL A   1      37.865  29.952  28.663  1.00  0.00     0.016 A 
ATOM     35  C   UNL A   1      39.250  30.321  30.457  1.00  0.00     0.016 A 
ATOM     36  C   UNL A   1      39.025  29.496  27.849  1.00  0.00     0.010 A 
ATOM     37  C   UNL A   1      40.193  29.615  29.710  1.00  0.00     0.010 A 
ATOM     38  C   UNL A   1      40.310  29.297  28.369  1.00  0.00    -0.014 A 
BRANCH  38  39
ATOM     39  C   UNL A   1      41.631  28.602  27.734  1.00  0.00     0.031 A 
ATOM     40  C   UNL A   1      42.086  27.059  27.325  1.00  0.00     0.074 A 
ATOM     41  C   UNL A   1      42.636  29.469  27.473  1.00  0.00     0.049 A 
ATOM     42  N   UNL A   1      43.241  26.487  27.648  1.00  0.00    -0.248 NA
ATOM     43  C   UNL A   1      41.382  26.077  26.469  1.00  0.00     0.031 C 
ATOM     44  C   UNL A   1      43.894  29.218  26.771  1.00  0.00     0.029 A 
ATOM     45  N   UNL A   1      42.757  30.786  27.927  1.00  0.00    -0.354 N 
ATOM     46  C   UNL A   1      43.326  25.203  27.043  1.00  0.00     0.074 A 
ATOM     47  C   UNL A   1      42.093  24.966  26.425  1.00  0.00     0.031 C 
ATOM     48  C   UNL A   1      44.757  30.196  27.085  1.00  0.00     0.029 A 
ATOM     49  C   UNL A   1      44.123  31.045  28.077  1.00  0.00     0.049 A 
ATOM     50  H   UNL A   1      42.019  31.413  28.107  1.00  0.00     0.167 HD
ATOM     51  C   UNL A   1      44.414  24.396  26.871  1.00  0.00     0.037 A 
ATOM     52  C   UNL A   1      44.620  31.376  29.300  1.00  0.00     0.037 A 
ATOM     53  C   UNL A   1      45.590  25.164  27.133  1.00  0.00     0.049 A 
ATOM     54  C   UNL A   1      45.615  30.360  29.807  1.00  0.00     0.074 A 
ATOM     55  C   UNL A   1      46.325  25.992  26.304  1.00  0.00     0.029 A 
ATOM     56  N   UNL A   1      45.864  25.527  28.433  1.00  0.00    -0.354 N 
ATOM     57  N   UNL A   1      45.800  29.182  29.270  1.00  0.00    -0.248 NA
ATOM     58  C   UNL A   1      46.494  30.588  30.950  1.00  0.00     0.031 C 
ATOM     59  C   UNL A   1      46.937  26.968  27.127  1.00  0.00     0.029 A 
ATOM     60  C   UNL A   1      46.649  26.660  28.445  1.00  0.00     0.049 A 
ATOM     61  H   UNL A   1      45.546  25.049  29.233  1.00  0.00     0.167 HD
ATOM     62  C   UNL A   1      46.737  28.490  29.988  1.00  0.00     0.074 A 
ATOM     63  C   UNL A   1      47.168  29.426  31.008  1.00  0.00     0.031 C 
ATOM     64  C   UNL A   1      47.082  27.200  29.715  1.00  0.00     0.037 A 
BRANCH  51  65
ATOM     65  C   UNL A   1      44.336  23.073  26.087  1.00  0.00     0.058 A 
ATOM     66  C   UNL A   1      43.631  21.952  26.563  1.00  0.00     0.135 A 
ATOM     67  C   UNL A   1      45.039  22.846  24.874  1.00  0.00     0.135 A 
ATOM     68  F   UNL A   1      42.838  22.045  27.640  1.00  0.00    -0.206 F 
ATOM     69  C   UNL A   1      43.739  20.677  25.978  1.00  0.00     0.059 A 
ATOM     70  C   UNL A   1      45.213  21.573  24.306  1.00  0.00     0.059 A 
ATOM     71  F   UNL A   1      45.632  23.868  24.233  1.00  0.00    -0.206 F 
ATOM     72  C   UNL A   1      44.572  20.483  24.880  1.00  0.00     0.060 A 
BRANCH  72  73
ATOM     73  S   UNL A   1      44.860  18.802  24.266  1.00  0.00     0.124 S 
ATOM     74  O   UNL A   1      46.144  18.458  24.869  1.00  0.00    -0.237 OA
ATOM     75  O   UNL A   1      43.704  18.082  24.788  1.00  0.00    -0.237 OA
ATOM     76  O   UNL A   1      44.893  18.968  22.814  1.00  0.00    -0.744 OA
ENDBRANCH  72  73
ENDBRANCH  51  65
BRANCH  52  77
ATOM     77  C   UNL A   1      43.706  32.262  30.090  1.00  0.00     0.058 A 
ATOM     78  C   UNL A   1      43.040  31.671  31.187  1.00  0.00     0.135 A 
ATOM     79  C   UNL A   1      43.753  33.663  30.066  1.00  0.00     0.135 A 
ATOM     80  F   UNL A   1      42.936  30.335  31.264  1.00  0.00    -0.206 F 
ATOM     81  C   UNL A   1      42.596  32.410  32.280  1.00  0.00     0.059 A 
ATOM     82  C   UNL A   1      43.289  34.432  31.149  1.00  0.00     0.059 A 
ATOM     83  F   UNL A   1      44.391  34.301  29.072  1.00  0.00    -0.206 F 
ATOM     84  C   UNL A   1      42.778  33.787  32.279  1.00  0.00     0.060 A 
BRANCH  84  85
ATOM     85  S   UNL A   1      42.504  34.661  33.844  1.00  0.00     0.124 S 
ATOM     86  O   UNL A   1      41.086  34.988  33.769  1.00  0.00    -0.237 OA
ATOM     87  O   UNL A   1      42.862  33.627  34.816  1.00  0.00    -0.237 OA
ATOM     88  O   UNL A   1      43.418  35.794  33.756  1.00  0.00    -0.744 OA
ENDBRANCH  84  85
ENDBRANCH  52  77
BRANCH  64  89
ATOM     89  C   UNL A   1      47.901  26.307  30.606  1.00  0.00     0.058 A 
ATOM     90  C   UNL A   1      49.226  25.945  30.321  1.00  0.00     0.135 A 
ATOM     91  C   UNL A   1      47.417  25.937  31.886  1.00  0.00     0.135 A 
ATOM     92  F   UNL A   1      49.827  26.344  29.190  1.00  0.00    -0.206 F 
ATOM     93  C   UNL A   1      49.994  25.195  31.207  1.00  0.00     0.059 A 
ATOM     94  C   UNL A   1      48.190  25.248  32.811  1.00  0.00     0.059 A 
ATOM     95  F   UNL A   1      46.174  26.252  32.283  1.00  0.00    -0.206 F 
ATOM     96  C   UNL A   1      49.468  24.849  32.447  1.00  0.00     0.060 A 
BRANCH  96  97
ATOM     97  S   UNL A   1      50.445  23.891  33.615  1.00  0.00     0.124 S 
ATOM     98  O   UNL A   1      51.705  24.629  33.606  1.00  0.00    -0.237 OA
ATOM     99  O   UNL A   1      49.671  23.984  34.850  1.00  0.00    -0.237 OA
ATOM    100  O   UNL A   1      50.480  22.568  33.002  1.00  0.00    -0.744 OA
ENDBRANCH  96  97
ENDBRANCH  64  89
ENDBRANCH  38  39
ENDBRANCH  31  33
ENDBRANCH  30  31
ENDBRANCH  29  30
ENDBRANCH  28  29
ENDBRANCH  27  28
ENDBRANCH   1  27
TORSDOF 21
ENDMDL
MODEL 2
REMARK VINA RESULT:     -11.8      3.185      4.328
REMARK SMILES Cc1cc(C(=O)OCCOCCOCCOC(=O)c2ccc(-c3c4nc(c(-c5c(F)cc(S(=O)(=O)[O-])cc5F)c5ccc([nH]5)c(-c5c(F)cc(S(=O)(=O)[O-])cc5F)c5nc(c(-c6c(F)cc(S(=O)(=O)[O-])cc6F)c6ccc3[nH]6)C=C5)C=C4)cc2)ccc1NC(=O)N1C[C@@H](C)[C@H](C)C1
REMARK SMILES IDX 12 1 11 2 10 3 9 4 8 5 7 6 5 7 6 8 4 9 1 10 2 11 3 12 87 13
REMARK SMILES IDX 86 14 85 15 88 16 89 17 90 19 91 20 92 21 97 22 93 23 95 24
REMARK SMILES IDX 94 25 96 26 13 27 14 28 15 29 16 30 17 31 18 32 19 33 20 34
REMARK SMILES IDX 84 35 21 36 83 37 22 38 23 39 24 40 77 41 25 42 82 43 76 44
REMARK SMILES IDX 78 45 26 46 81 47 75 48 74 49 27 51 61 52 40 53 60 54 41 55
REMARK SMILES IDX 44 56 59 57 79 58 42 59 43 60 58 62 80 63 45 64 28 65 29 66
REMARK SMILES IDX 38 67 30 68 31 69 37 70 39 71 32 72 33 73 34 74 35 75 36 76
REMARK SMILES IDX 62 77 63 78 72 79 64 80 65 81 71 82 73 83 66 84 67 85 68 86
REMARK SMILES IDX 69 87 70 88 46 89 47 90 56 91 48 92 49 93 55 94 57 95 50 96
REMARK SMILES IDX 51 97 52 98 53 99 54 100
REMARK H PARENT 88 18 78 50 44 61
REMARK Flexibility Score: inf
ROOT
ATOM      1  C   UNL A   1      34.634  34.213  29.955  1.00  0.00     0.188 C 
ENDROOT
BRANCH   1   2
ATOM      2  C   UNL A   1      33.720  33.938  28.756  1.00  0.00     0.188 C 
BRANCH   2   3
ATOM      3  O   UNL A   1      33.943  32.859  27.813  1.00  0.00    -0.376 OA
BRANCH   3   4
ATOM      4  C   UNL A   1      35.091  31.998  27.812  1.00  0.00     0.202 C 
BRANCH   4   5
ATOM      5  C   UNL A   1      35.080  30.288  27.762  1.00  0.00     0.261 C 
BRANCH   5   6
ATOM      6  O   UNL A   1      33.761  29.230  27.590  1.00  0.00    -0.460 OA
BRANCH   6   7
ATOM      7  C   UNL A   1      32.519  29.027  26.932  1.00  0.00     0.338 C 
ATOM      8  O   UNL A   1      31.491  28.532  27.393  1.00  0.00    -0.246 OA
BRANCH   7   9
ATOM      9  C   UNL A   1      32.312  29.253  25.453  1.00  0.00     0.060 A 
ATOM     10  C   UNL A   1      29.619  28.633  22.701  1.00  0.00     0.046 C 
ATOM     11  C   UNL A   1      30.948  28.669  23.419  1.00  0.00    -0.027 A 
ATOM     12  C   UNL A   1      31.049  29.068  24.780  1.00  0.00     0.021 A 
ATOM     13  C   UNL A   1      32.138  28.252  22.831  1.00  0.00     0.045 A 
ATOM     14  C   UNL A   1      33.371  28.591  23.424  1.00  0.00     0.027 A 
ATOM     15  C   UNL A   1      33.466  29.101  24.715  1.00  0.00     0.018 A 
BRANCH  13  16
ATOM     16  N   UNL A   1      32.136  27.339  21.752  1.00  0.00    -0.308 N 
ATOM     17  C   UNL A   1      32.759  26.110  21.774  1.00  0.00     0.321 C 
ATOM     18  H   UNL A   1      31.658  27.598  20.931  1.00  0.00     0.171 HD
ATOM     19  O   UNL A   1      33.232  25.625  20.748  1.00  0.00    -0.248 OA
ATOM     20  N   UNL A   1      32.826  25.476  22.996  1.00  0.00    -0.324 N 
ATOM     21  C   UNL A   1      34.017  24.798  23.452  1.00  0.00     0.125 C 
ATOM     22  C   UNL A   1      31.690  25.231  23.883  1.00  0.00     0.125 C 
ATOM     23  C   UNL A   1      33.584  23.973  24.664  1.00  0.00     0.010 C 
ATOM     24  C   UNL A   1      32.313  24.687  25.168  1.00  0.00     0.010 C 
ATOM     25  C   UNL A   1      34.668  23.889  25.729  1.00  0.00     0.010 C 
ATOM     26  C   UNL A   1      31.388  23.755  25.942  1.00  0.00     0.010 C 
ENDBRANCH  13  16
ENDBRANCH   7   9
ENDBRANCH   6   7
ENDBRANCH   5   6
ENDBRANCH   4   5
ENDBRANCH   3   4
ENDBRANCH   2   3
ENDBRANCH   1   2
BRANCH   1  27
ATOM     27  O   UNL A   1      34.027  35.134  30.844  1.00  0.00    -0.376 OA
BRANCH  27  28
ATOM     28  C   UNL A   1      33.794  34.678  32.165  1.00  0.00     0.202 C 
BRANCH  28  29
ATOM     29  C   UNL A   1      35.031  34.734  33.089  1.00  0.00     0.261 C 
BRANCH  29  30
ATOM     30  O   UNL A   1      35.987  33.671  32.829  1.00  0.00    -0.460 OA
BRANCH  30  31
ATOM     31  C   UNL A   1      37.352  33.946  32.953  1.00  0.00     0.338 C 
ATOM     32  O   UNL A   1      37.755  34.972  33.399  1.00  0.00    -0.246 OA
BRANCH  31  33
ATOM     33  C   UNL A   1      38.169  32.699  32.660  1.00  0.00     0.060 A 
ATOM     34  C   UNL A   1      38.391  31.538  33.415  1.00  0.00     0.016 A 
ATOM     35  C   UNL A   1      38.912  32.764  31.545  1.00  0.00     0.016 A 
ATOM     36  C   UNL A   1      39.452  30.551  33.075  1.00  0.00     0.010 A 
ATOM     37  C   UNL A   1      40.044  31.952  31.485  1.00  0.00     0.010 A 
ATOM     38  C   UNL A   1      40.375  30.727  32.037  1.00  0.00    -0.014 A 
BRANCH  38  39
ATOM     39  C   UNL A   1      41.723  29.914  31.648  1.00  0.00     0.031 A 
ATOM     40  C   UNL A   1      42.106  28.657  30.635  1.00  0.00     0.074 A 
ATOM     41  C   UNL A   1      42.829  30.336  32.305  1.00  0.00     0.049 A 
ATOM     42  N   UNL A   1      42.838  27.598  30.966  1.00  0.00    -0.248 NA
ATOM     43  C   UNL A   1      41.815  28.502  29.192  1.00  0.00     0.031 C 
ATOM     44  C   UNL A   1      44.219  29.938  32.094  1.00  0.00     0.029 A 
ATOM     45  N   UNL A   1      42.879  31.165  33.430  1.00  0.00    -0.354 N 
ATOM     46  C   UNL A   1      43.044  26.780  29.822  1.00  0.00     0.074 A 
ATOM     47  C   UNL A   1      42.286  27.338  28.786  1.00  0.00     0.031 C 
ATOM     48  C   UNL A   1      44.923  30.260  33.190  1.00  0.00     0.029 A 
ATOM     49  C   UNL A   1      43.993  30.774  34.179  1.00  0.00     0.049 A 
ATOM     50  H   UNL A   1      42.248  31.888  33.653  1.00  0.00     0.167 HD
ATOM     51  C   UNL A   1      43.943  25.770  29.629  1.00  0.00     0.037 A 
ATOM     52  C   UNL A   1      43.830  30.323  35.453  1.00  0.00     0.037 A 
ATOM     53  C   UNL A   1      44.909  25.819  30.681  1.00  0.00     0.049 A 
ATOM     54  C   UNL A   1      44.271  28.887  35.612  1.00  0.00     0.074 A 
ATOM     55  C   UNL A   1      46.071  26.559  30.796  1.00  0.00     0.029 A 
ATOM     56  N   UNL A   1      44.521  25.448  31.949  1.00  0.00    -0.354 N 
ATOM     57  N   UNL A   1      44.541  28.087  34.614  1.00  0.00    -0.248 NA
ATOM     58  C   UNL A   1      44.459  28.237  36.905  1.00  0.00     0.031 C 
ATOM     59  C   UNL A   1      46.300  26.759  32.179  1.00  0.00     0.029 A 
ATOM     60  C   UNL A   1      45.336  26.056  32.881  1.00  0.00     0.049 A 
ATOM     61  H   UNL A   1      43.775  24.842  32.159  1.00  0.00     0.167 HD
ATOM     62  C   UNL A   1      44.869  26.848  35.093  1.00  0.00     0.074 A 
ATOM     63  C   UNL A   1      44.838  27.002  36.534  1.00  0.00     0.031 C 
ATOM     64  C   UNL A   1      45.123  25.780  34.284  1.00  0.00     0.037 A 
BRANCH  51  65
ATOM     65  C   UNL A   1      44.097  25.060  28.271  1.00  0.00     0.058 A 
ATOM     66  C   UNL A   1      43.455  23.843  27.976  1.00  0.00     0.135 A 
ATOM     67  C   UNL A   1      44.964  25.525  27.246  1.00  0.00     0.135 A 
ATOM     68  F   UNL A   1      42.530  23.335  28.801  1.00  0.00    -0.206 F 
ATOM     69  C   UNL A   1      43.764  23.074  26.839  1.00  0.00     0.059 A 
ATOM     70  C   UNL A   1      45.336  24.748  26.135  1.00  0.00     0.059 A 
ATOM     71  F   UNL A   1      45.526  26.743  27.334  1.00  0.00    -0.206 F 
ATOM     72  C   UNL A   1      44.742  23.507  25.948  1.00  0.00     0.060 A 
BRANCH  72  73
ATOM     73  S   UNL A   1      45.273  22.412  24.605  1.00  0.00     0.124 S 
ATOM     74  O   UNL A   1      45.769  23.354  23.605  1.00  0.00    -0.237 OA
ATOM     75  O   UNL A   1      46.287  21.593  25.258  1.00  0.00    -0.237 OA
ATOM     76  O   UNL A   1      44.047  21.712  24.228  1.00  0.00    -0.744 OA
ENDBRANCH  72  73
ENDBRANCH  51  65
BRANCH  52  77
ATOM     77  C   UNL A   1      42.773  31.065  36.212  1.00  0.00     0.058 A 
ATOM     78  C   UNL A   1      43.101  32.368  36.649  1.00  0.00     0.135 A 
ATOM     79  C   UNL A   1      41.410  30.737  36.187  1.00  0.00     0.135 A 
ATOM     80  F   UNL A   1      44.388  32.744  36.720  1.00  0.00    -0.206 F 
ATOM     81  C   UNL A   1      42.137  33.343  36.886  1.00  0.00     0.059 A 
ATOM     82  C   UNL A   1      40.418  31.700  36.447  1.00  0.00     0.059 A 
ATOM     83  F   UNL A   1      41.014  29.528  35.759  1.00  0.00    -0.206 F 
ATOM     84  C   UNL A   1      40.796  33.016  36.725  1.00  0.00     0.060 A 
BRANCH  84  85
ATOM     85  S   UNL A   1      39.605  34.384  36.706  1.00  0.00     0.124 S 
ATOM     86  O   UNL A   1      40.143  35.244  35.658  1.00  0.00    -0.237 OA
ATOM     87  O   UNL A   1      38.367  33.681  36.371  1.00  0.00    -0.237 OA
ATOM     88  O   UNL A   1      39.688  34.915  38.061  1.00  0.00    -0.744 OA
ENDBRANCH  84  85
ENDBRANCH  52  77
BRANCH  64  89
ATOM     89  C   UNL A   1      45.235  24.349  34.735  1.00  0.00     0.058 A 
ATOM     90  C   UNL A   1      44.147  23.465  34.757  1.00  0.00     0.135 A 
ATOM     91  C   UNL A   1      46.507  23.777  34.986  1.00  0.00     0.135 A 
ATOM     92  F   UNL A   1      42.914  23.871  34.419  1.00  0.00    -0.206 F 
ATOM     93  C   UNL A   1      44.294  22.120  35.088  1.00  0.00     0.059 A 
ATOM     94  C   UNL A   1      46.684  22.425  35.251  1.00  0.00     0.059 A 
ATOM     95  F   UNL A   1      47.626  24.519  34.964  1.00  0.00    -0.206 F 
ATOM     96  C   UNL A   1      45.565  21.611  35.336  1.00  0.00     0.060 A 
BRANCH  96  97
ATOM     97  S   UNL A   1      45.782  19.875  35.753  1.00  0.00     0.124 S 
ATOM     98  O   UNL A   1      45.795  19.930  37.212  1.00  0.00    -0.237 OA
ATOM     99  O   UNL A   1      44.608  19.241  35.159  1.00  0.00    -0.237 OA
ATOM    100  O   UNL A   1      47.054  19.544  35.119  1.00  0.00    -0.744 OA
ENDBRANCH  96  97
ENDBRANCH  64  89
ENDBRANCH  38  39
ENDBRANCH  31  33
ENDBRANCH  30  31
ENDBRANCH  29  30
ENDBRANCH  28  29
ENDBRANCH  27  28
ENDBRANCH   1  27
TORSDOF 21
ENDMDL
MODEL 3
REMARK VINA RESULT:     -10.6      7.898     16.641
REMARK SMILES Cc1cc(C(=O)OCCOCCOCCOC(=O)c2ccc(-c3c4nc(c(-c5c(F)cc(S(=O)(=O)[O-])cc5F)c5ccc([nH]5)c(-c5c(F)cc(S(=O)(=O)[O-])cc5F)c5nc(c(-c6c(F)cc(S(=O)(=O)[O-])cc6F)c6ccc3[nH]6)C=C5)C=C4)cc2)ccc1NC(=O)N1C[C@@H](C)[C@H](C)C1
REMARK SMILES IDX 12 1 11 2 10 3 9 4 8 5 7 6 5 7 6 8 4 9 1 10 2 11 3 12 87 13
REMARK SMILES IDX 86 14 85 15 88 16 89 17 90 19 91 20 92 21 97 22 93 23 95 24
REMARK SMILES IDX 94 25 96 26 13 27 14 28 15 29 16 30 17 31 18 32 19 33 20 34
REMARK SMILES IDX 84 35 21 36 83 37 22 38 23 39 24 40 77 41 25 42 82 43 76 44
REMARK SMILES IDX 78 45 26 46 81 47 75 48 74 49 27 51 61 52 40 53 60 54 41 55
REMARK SMILES IDX 44 56 59 57 79 58 42 59 43 60 58 62 80 63 45 64 28 65 29 66
REMARK SMILES IDX 38 67 30 68 31 69 37 70 39 71 32 72 33 73 34 74 35 75 36 76
REMARK SMILES IDX 62 77 63 78 72 79 64 80 65 81 71 82 73 83 66 84 67 85 68 86
REMARK SMILES IDX 69 87 70 88 46 89 47 90 56 91 48 92 49 93 55 94 57 95 50 96
REMARK SMILES IDX 51 97 52 98 53 99 54 100
REMARK H PARENT 88 18 78 50 44 61
REMARK Flexibility Score: inf
ROOT
ATOM      1  C   UNL A   1      49.590  19.970  36.871  1.00  0.00     0.188 C 
ENDROOT
BRANCH   1   2
ATOM      2  C   UNL A   1      50.785  20.314  37.766  1.00  0.00     0.188 C 
BRANCH   2   3
ATOM      3  O   UNL A   1      50.793  20.110  39.202  1.00  0.00    -0.376 OA
BRANCH   3   4
ATOM      4  C   UNL A   1      50.444  18.881  39.855  1.00  0.00     0.202 C 
BRANCH   4   5
ATOM      5  C   UNL A   1      48.882  18.412  40.373  1.00  0.00     0.261 C 
BRANCH   5   6
ATOM      6  O   UNL A   1      47.561  17.881  39.446  1.00  0.00    -0.460 OA
BRANCH   6   7
ATOM      7  C   UNL A   1      46.151  17.712  39.432  1.00  0.00     0.338 C 
ATOM      8  O   UNL A   1      45.305  18.461  38.945  1.00  0.00    -0.246 OA
BRANCH   7   9
ATOM      9  C   UNL A   1      45.434  16.615  40.185  1.00  0.00     0.060 A 
ATOM     10  C   UNL A   1      42.021  14.730  40.151  1.00  0.00     0.046 C 
ATOM     11  C   UNL A   1      43.229  15.491  40.644  1.00  0.00    -0.027 A 
ATOM     12  C   UNL A   1      44.199  16.013  39.745  1.00  0.00     0.021 A 
ATOM     13  C   UNL A   1      43.438  15.793  41.986  1.00  0.00     0.045 A 
ATOM     14  C   UNL A   1      44.709  16.224  42.419  1.00  0.00     0.027 A 
ATOM     15  C   UNL A   1      45.708  16.619  41.536  1.00  0.00     0.018 A 
BRANCH  13  16
ATOM     16  N   UNL A   1      42.357  15.856  42.895  1.00  0.00    -0.308 N 
ATOM     17  C   UNL A   1      41.750  14.754  43.457  1.00  0.00     0.321 C 
ATOM     18  H   UNL A   1      42.016  16.746  43.143  1.00  0.00     0.171 HD
ATOM     19  O   UNL A   1      40.553  14.768  43.736  1.00  0.00    -0.248 OA
ATOM     20  N   UNL A   1      42.551  13.653  43.671  1.00  0.00    -0.324 N 
ATOM     21  C   UNL A   1      42.111  12.308  43.380  1.00  0.00     0.125 C 
ATOM     22  C   UNL A   1      43.828  13.664  44.383  1.00  0.00     0.125 C 
ATOM     23  C   UNL A   1      43.132  11.387  44.048  1.00  0.00     0.010 C 
ATOM     24  C   UNL A   1      44.397  12.260  44.178  1.00  0.00     0.010 C 
ATOM     25  C   UNL A   1      43.379  10.115  43.249  1.00  0.00     0.010 C 
ATOM     26  C   UNL A   1      45.308  11.804  45.311  1.00  0.00     0.010 C 
ENDBRANCH  13  16
ENDBRANCH   7   9
ENDBRANCH   6   7
ENDBRANCH   5   6
ENDBRANCH   4   5
ENDBRANCH   3   4
ENDBRANCH   2   3
ENDBRANCH   1   2
BRANCH   1  27
ATOM     27  O   UNL A   1      49.971  19.975  35.507  1.00  0.00    -0.376 OA
BRANCH  27  28
ATOM     28  C   UNL A   1      49.162  20.736  34.628  1.00  0.00     0.202 C 
BRANCH  28  29
ATOM     29  C   UNL A   1      47.652  20.422  34.713  1.00  0.00     0.261 C 
BRANCH  29  30
ATOM     30  O   UNL A   1      46.820  21.613  34.704  1.00  0.00    -0.460 OA
BRANCH  30  31
ATOM     31  C   UNL A   1      45.432  21.466  34.636  1.00  0.00     0.338 C 
ATOM     32  O   UNL A   1      44.864  20.551  35.139  1.00  0.00    -0.246 OA
BRANCH  31  33
ATOM     33  C   UNL A   1      44.797  22.719  34.053  1.00  0.00     0.060 A 
ATOM     34  C   UNL A   1      44.739  23.202  32.739  1.00  0.00     0.016 A 
ATOM     35  C   UNL A   1      44.317  23.580  34.963  1.00  0.00     0.016 A 
ATOM     36  C   UNL A   1      44.316  24.591  32.413  1.00  0.00     0.010 A 
ATOM     37  C   UNL A   1      44.225  24.918  34.587  1.00  0.00     0.010 A 
ATOM     38  C   UNL A   1      44.025  25.563  33.378  1.00  0.00    -0.014 A 
BRANCH  38  39
ATOM     39  C   UNL A   1      43.777  27.161  33.256  1.00  0.00     0.031 A 
ATOM     40  C   UNL A   1      43.000  28.318  34.155  1.00  0.00     0.074 A 
ATOM     41  C   UNL A   1      44.317  27.717  32.147  1.00  0.00     0.049 A 
ATOM     42  N   UNL A   1      42.155  29.226  33.676  1.00  0.00    -0.248 NA
ATOM     43  C   UNL A   1      43.151  28.638  35.593  1.00  0.00     0.031 C 
ATOM     44  C   UNL A   1      44.416  29.133  31.796  1.00  0.00     0.029 A 
ATOM     45  N   UNL A   1      44.799  27.052  31.015  1.00  0.00    -0.354 N 
ATOM     46  C   UNL A   1      41.764  30.114  34.716  1.00  0.00     0.074 A 
ATOM     47  C   UNL A   1      42.326  29.621  35.899  1.00  0.00     0.031 C 
ATOM     48  C   UNL A   1      44.631  29.228  30.475  1.00  0.00     0.029 A 
ATOM     49  C   UNL A   1      44.570  27.888  29.919  1.00  0.00     0.049 A 
ATOM     50  H   UNL A   1      45.219  26.161  30.994  1.00  0.00     0.167 HD
ATOM     51  C   UNL A   1      41.151  31.332  34.631  1.00  0.00     0.037 A 
ATOM     52  C   UNL A   1      43.773  27.468  28.898  1.00  0.00     0.037 A 
ATOM     53  C   UNL A   1      41.204  31.769  33.271  1.00  0.00     0.049 A 
ATOM     54  C   UNL A   1      42.542  28.328  28.742  1.00  0.00     0.074 A 
ATOM     55  C   UNL A   1      42.196  32.447  32.586  1.00  0.00     0.029 A 
ATOM     56  N   UNL A   1      40.417  31.128  32.341  1.00  0.00    -0.354 N 
ATOM     57  N   UNL A   1      42.148  29.213  29.621  1.00  0.00    -0.248 NA
ATOM     58  C   UNL A   1      41.660  28.276  27.580  1.00  0.00     0.031 C 
ATOM     59  C   UNL A   1      42.084  32.079  31.223  1.00  0.00     0.029 A 
ATOM     60  C   UNL A   1      40.971  31.269  31.086  1.00  0.00     0.049 A 
ATOM     61  H   UNL A   1      39.585  30.641  32.542  1.00  0.00     0.167 HD
ATOM     62  C   UNL A   1      40.980  29.789  29.202  1.00  0.00     0.074 A 
ATOM     63  C   UNL A   1      40.734  29.196  27.903  1.00  0.00     0.031 C 
ATOM     64  C   UNL A   1      40.286  30.694  29.950  1.00  0.00     0.037 A 
BRANCH  51  65
ATOM     65  C   UNL A   1      40.901  32.210  35.870  1.00  0.00     0.058 A 
ATOM     66  C   UNL A   1      39.663  32.239  36.541  1.00  0.00     0.135 A 
ATOM     67  C   UNL A   1      41.861  33.124  36.381  1.00  0.00     0.135 A 
ATOM     68  F   UNL A   1      38.698  31.361  36.238  1.00  0.00    -0.206 F 
ATOM     69  C   UNL A   1      39.350  33.195  37.523  1.00  0.00     0.059 A 
ATOM     70  C   UNL A   1      41.553  34.128  37.314  1.00  0.00     0.059 A 
ATOM     71  F   UNL A   1      43.127  33.099  35.931  1.00  0.00    -0.206 F 
ATOM     72  C   UNL A   1      40.281  34.170  37.870  1.00  0.00     0.060 A 
BRANCH  72  73
ATOM     73  S   UNL A   1      39.793  35.515  38.983  1.00  0.00     0.124 S 
ATOM     74  O   UNL A   1      39.498  36.603  38.055  1.00  0.00    -0.237 OA
ATOM     75  O   UNL A   1      38.642  34.942  39.670  1.00  0.00    -0.237 OA
ATOM     76  O   UNL A   1      40.979  35.723  39.810  1.00  0.00    -0.744 OA
ENDBRANCH  72  73
ENDBRANCH  51  65
BRANCH  52  77
ATOM     77  C   UNL A   1      43.945  26.015  28.575  1.00  0.00     0.058 A 
ATOM     78  C   UNL A   1      42.790  25.204  28.664  1.00  0.00     0.135 A 
ATOM     79  C   UNL A   1      45.023  25.492  27.848  1.00  0.00     0.135 A 
ATOM     80  F   UNL A   1      41.727  25.631  29.362  1.00  0.00    -0.206 F 
ATOM     81  C   UNL A   1      42.647  24.025  27.939  1.00  0.00     0.059 A 
ATOM     82  C   UNL A   1      44.910  24.289  27.127  1.00  0.00     0.059 A 
ATOM     83  F   UNL A   1      46.146  26.212  27.694  1.00  0.00    -0.206 F 
ATOM     84  C   UNL A   1      43.691  23.604  27.125  1.00  0.00     0.060 A 
BRANCH  84  85
ATOM     85  S   UNL A   1      43.340  22.268  25.949  1.00  0.00     0.124 S 
ATOM     86  O   UNL A   1      44.680  21.843  25.560  1.00  0.00    -0.237 OA
ATOM     87  O   UNL A   1      42.602  21.330  26.795  1.00  0.00    -0.237 OA
ATOM     88  O   UNL A   1      42.564  22.935  24.911  1.00  0.00    -0.744 OA
ENDBRANCH  84  85
ENDBRANCH  52  77
BRANCH  64  89
ATOM     89  C   UNL A   1      38.885  31.167  29.671  1.00  0.00     0.058 A 
ATOM     90  C   UNL A   1      38.566  32.508  29.417  1.00  0.00     0.135 A 
ATOM     91  C   UNL A   1      37.842  30.229  29.469  1.00  0.00     0.135 A 
ATOM     92  F   UNL A   1      39.503  33.467  29.460  1.00  0.00    -0.206 F 
ATOM     93  C   UNL A   1      37.278  32.908  29.068  1.00  0.00     0.059 A 
ATOM     94  C   UNL A   1      36.569  30.600  29.055  1.00  0.00     0.059 A 
ATOM     95  F   UNL A   1      38.037  28.914  29.653  1.00  0.00    -0.206 F 
ATOM     96  C   UNL A   1      36.287  31.948  28.893  1.00  0.00     0.060 A 
BRANCH  96  97
ATOM     97  S   UNL A   1      34.619  32.437  28.430  1.00  0.00     0.124 S 
ATOM     98  O   UNL A   1      34.888  33.562  27.538  1.00  0.00    -0.237 OA
ATOM     99  O   UNL A   1      34.088  31.239  27.786  1.00  0.00    -0.237 OA
ATOM    100  O   UNL A   1      34.011  32.775  29.712  1.00  0.00    -0.744 OA
ENDBRANCH  96  97
ENDBRANCH  64  89
ENDBRANCH  38  39
ENDBRANCH  31  33
ENDBRANCH  30  31
ENDBRANCH  29  30
ENDBRANCH  28  29
ENDBRANCH  27  28
ENDBRANCH   1  27
TORSDOF 21
ENDMDL
