MODEL 1
REMARK VINA RESULT:      -9.9      0.000      0.000
REMARK SMILES Cc1cc(F)ccc1CCNC(=O)NC[C@@](C)(O)C(=O)OCCOCCOCCOC(=O)c1ccc(-c2c3nc(c(-c4c(F)cc(S(=O)(=O)[O-])cc4F)c4ccc([nH]4)c(-c4c(F)cc(S(=O)(=O)[O-])cc4F)c4nc(c(-c5c(F)cc(S(=O)(=O)[O-])cc5F)c5ccc2[nH]5)C=C4)C=C3)cc1
REMARK SMILES IDX 25 1 24 2 23 3 22 4 21 5 19 6 20 7 16 8 17 9 15 10 14 11
REMARK SMILES IDX 11 12 12 13 13 15 10 17 9 18 8 19 1 20 2 21 3 22 4 23 7 24
REMARK SMILES IDX 5 25 6 26 18 27 26 29 27 30 28 31 29 32 30 33 31 34 32 35
REMARK SMILES IDX 33 36 34 37 98 38 35 39 97 40 36 41 37 42 38 43 91 44 39 45
REMARK SMILES IDX 96 46 90 47 92 48 40 49 95 50 89 51 88 52 41 54 75 55 54 56
REMARK SMILES IDX 74 57 55 58 58 59 73 60 93 61 56 62 57 63 72 65 94 66 59 67
REMARK SMILES IDX 42 68 43 69 52 70 44 71 45 72 51 73 53 74 46 75 47 76 48 77
REMARK SMILES IDX 49 78 50 79 76 80 77 81 86 82 78 83 79 84 85 85 87 86 80 87
REMARK SMILES IDX 81 88 82 89 83 90 84 91 60 92 61 93 70 94 62 95 63 96 69 97
REMARK SMILES IDX 71 98 64 99 65 100 66 101 67 102 68 103
REMARK H PARENT 11 14 14 16 18 28 92 53 58 64
REMARK Flexibility Score: inf
ROOT
ATOM      1  C   UNL A   1      32.803  29.711  25.547  1.00  0.00     0.188 C 
ENDROOT
BRANCH   1   2
ATOM      2  O   UNL A   1      33.367  28.402  25.569  1.00  0.00    -0.376 OA
BRANCH   2   3
ATOM      3  C   UNL A   1      32.900  27.576  26.641  1.00  0.00     0.202 C 
BRANCH   3   4
ATOM      4  C   UNL A   1      32.947  26.091  26.279  1.00  0.00     0.261 C 
BRANCH   4   5
ATOM      5  O   UNL A   1      32.120  25.785  25.146  1.00  0.00    -0.461 OA
BRANCH   5   6
ATOM      6  C   UNL A   1      30.773  25.873  25.302  1.00  0.00     0.339 C 
ATOM      7  O   UNL A   1      30.201  25.664  26.363  1.00  0.00    -0.249 OA
BRANCH   6   8
ATOM      8  C   UNL A   1      30.074  26.287  23.977  1.00  0.00     0.176 C 
ATOM      9  C   UNL A   1      30.180  27.808  23.844  1.00  0.00     0.057 C 
BRANCH   8  10
ATOM     10  C   UNL A   1      30.690  25.462  22.789  1.00  0.00     0.164 C 
BRANCH  10  11
ATOM     11  N   UNL A   1      31.802  26.080  22.091  1.00  0.00    -0.335 N 
ATOM     12  N   UNL A   1      33.903  25.020  22.578  1.00  0.00    -0.338 N 
ATOM     13  C   UNL A   1      33.132  26.001  22.103  1.00  0.00     0.314 C 
ATOM     14  H   UNL A   1      34.764  25.381  22.894  1.00  0.00     0.165 HD
ATOM     15  O   UNL A   1      33.719  26.977  21.622  1.00  0.00    -0.249 OA
ATOM     16  H   UNL A   1      31.488  26.735  21.427  1.00  0.00     0.165 HD
BRANCH  12  17
ATOM     17  C   UNL A   1      33.855  23.554  22.774  1.00  0.00     0.122 C 
BRANCH  17  18
ATOM     18  C   UNL A   1      34.469  23.134  24.144  1.00  0.00     0.057 C 
BRANCH  18  19
ATOM     19  C   UNL A   1      34.584  21.725  24.769  1.00  0.00    -0.043 A 
ATOM     20  C   UNL A   1      32.091  20.816  25.056  1.00  0.00     0.045 C 
ATOM     21  C   UNL A   1      33.581  20.702  24.858  1.00  0.00    -0.045 A 
ATOM     22  C   UNL A   1      33.966  19.346  24.754  1.00  0.00     0.043 A 
ATOM     23  C   UNL A   1      35.292  18.981  24.756  1.00  0.00     0.123 A 
ATOM     24  C   UNL A   1      35.923  21.298  24.886  1.00  0.00     0.007 A 
ATOM     25  F   UNL A   1      35.623  17.689  24.642  1.00  0.00    -0.207 F 
ATOM     26  C   UNL A   1      36.270  19.944  24.894  1.00  0.00     0.039 A 
ENDBRANCH  18  19
ENDBRANCH  17  18
ENDBRANCH  12  17
ENDBRANCH  10  11
ENDBRANCH   8  10
BRANCH   8  27
ATOM     27  O   UNL A   1      28.651  26.052  23.997  1.00  0.00    -0.377 OA
ATOM     28  H   UNL A   1      28.234  26.535  23.267  1.00  0.00     0.212 HD
ENDBRANCH   8  27
ENDBRANCH   6   8
ENDBRANCH   5   6
ENDBRANCH   4   5
ENDBRANCH   3   4
ENDBRANCH   2   3
ENDBRANCH   1   2
BRANCH   1  29
ATOM     29  C   UNL A   1      33.095  30.548  26.801  1.00  0.00     0.188 C 
BRANCH  29  30
ATOM     30  O   UNL A   1      34.420  30.755  27.262  1.00  0.00    -0.376 OA
BRANCH  30  31
ATOM     31  C   UNL A   1      34.668  31.833  28.135  1.00  0.00     0.202 C 
BRANCH  31  32
ATOM     32  C   UNL A   1      35.931  32.660  27.871  1.00  0.00     0.261 C 
BRANCH  32  33
ATOM     33  O   UNL A   1      36.764  32.921  29.018  1.00  0.00    -0.460 OA
BRANCH  33  34
ATOM     34  C   UNL A   1      36.805  32.047  30.063  1.00  0.00     0.338 C 
ATOM     35  O   UNL A   1      35.896  31.810  30.842  1.00  0.00    -0.246 OA
BRANCH  34  36
ATOM     36  C   UNL A   1      38.157  31.370  30.068  1.00  0.00     0.060 A 
ATOM     37  C   UNL A   1      39.082  31.430  31.130  1.00  0.00     0.016 A 
ATOM     38  C   UNL A   1      38.535  30.630  28.966  1.00  0.00     0.016 A 
ATOM     39  C   UNL A   1      40.370  30.777  31.066  1.00  0.00     0.010 A 
ATOM     40  C   UNL A   1      39.785  30.004  28.947  1.00  0.00     0.010 A 
ATOM     41  C   UNL A   1      40.757  30.037  29.945  1.00  0.00    -0.014 A 
BRANCH  41  42
ATOM     42  C   UNL A   1      42.136  29.480  29.553  1.00  0.00     0.031 A 
ATOM     43  C   UNL A   1      43.195  30.460  29.063  1.00  0.00     0.074 A 
ATOM     44  C   UNL A   1      42.430  28.172  29.300  1.00  0.00     0.049 A 
ATOM     45  N   UNL A   1      44.394  30.216  28.584  1.00  0.00    -0.248 NA
ATOM     46  C   UNL A   1      42.850  31.888  29.099  1.00  0.00     0.031 C 
ATOM     47  C   UNL A   1      41.593  27.010  29.588  1.00  0.00     0.029 A 
ATOM     48  N   UNL A   1      43.511  27.609  28.617  1.00  0.00    -0.354 N 
ATOM     49  C   UNL A   1      44.981  31.452  28.354  1.00  0.00     0.074 A 
ATOM     50  C   UNL A   1      43.956  32.444  28.620  1.00  0.00     0.031 C 
ATOM     51  C   UNL A   1      42.102  25.923  28.964  1.00  0.00     0.029 A 
ATOM     52  C   UNL A   1      43.344  26.277  28.271  1.00  0.00     0.049 A 
ATOM     53  H   UNL A   1      44.325  28.118  28.398  1.00  0.00     0.167 HD
ATOM     54  C   UNL A   1      46.265  31.754  28.027  1.00  0.00     0.037 A 
ATOM     55  C   UNL A   1      44.076  25.430  27.501  1.00  0.00     0.037 A 
ATOM     56  C   UNL A   1      47.311  30.813  27.714  1.00  0.00     0.049 A 
ATOM     57  C   UNL A   1      45.458  25.794  26.989  1.00  0.00     0.074 A 
ATOM     58  C   UNL A   1      48.672  31.053  27.582  1.00  0.00     0.029 A 
ATOM     59  N   UNL A   1      47.122  29.478  27.416  1.00  0.00    -0.354 N 
ATOM     60  N   UNL A   1      46.102  26.928  27.084  1.00  0.00    -0.248 NA
ATOM     61  C   UNL A   1      46.251  24.724  26.346  1.00  0.00     0.031 C 
ATOM     62  C   UNL A   1      49.296  29.876  27.147  1.00  0.00     0.029 A 
ATOM     63  C   UNL A   1      48.332  28.890  27.062  1.00  0.00     0.049 A 
ATOM     64  H   UNL A   1      46.257  29.010  27.448  1.00  0.00     0.167 HD
ATOM     65  C   UNL A   1      47.401  26.671  26.638  1.00  0.00     0.074 A 
ATOM     66  C   UNL A   1      47.438  25.298  26.198  1.00  0.00     0.031 C 
ATOM     67  C   UNL A   1      48.466  27.509  26.667  1.00  0.00     0.037 A 
BRANCH  54  68
ATOM     68  C   UNL A   1      46.653  33.203  28.096  1.00  0.00     0.058 A 
ATOM     69  C   UNL A   1      46.528  34.021  26.960  1.00  0.00     0.135 A 
ATOM     70  C   UNL A   1      47.068  33.798  29.297  1.00  0.00     0.135 A 
ATOM     71  F   UNL A   1      46.121  33.500  25.791  1.00  0.00    -0.206 F 
ATOM     72  C   UNL A   1      46.850  35.369  26.999  1.00  0.00     0.059 A 
ATOM     73  C   UNL A   1      47.367  35.155  29.365  1.00  0.00     0.059 A 
ATOM     74  F   UNL A   1      47.181  33.063  30.413  1.00  0.00    -0.206 F 
ATOM     75  C   UNL A   1      47.276  35.926  28.205  1.00  0.00     0.060 A 
BRANCH  75  76
ATOM     76  S   UNL A   1      47.711  37.675  28.228  1.00  0.00     0.124 S 
ATOM     77  O   UNL A   1      47.978  37.922  26.815  1.00  0.00    -0.237 OA
ATOM     78  O   UNL A   1      46.501  38.294  28.760  1.00  0.00    -0.237 OA
ATOM     79  O   UNL A   1      48.875  37.723  29.106  1.00  0.00    -0.744 OA
ENDBRANCH  75  76
ENDBRANCH  54  68
BRANCH  55  80
ATOM     80  C   UNL A   1      43.581  24.057  27.160  1.00  0.00     0.058 A 
ATOM     81  C   UNL A   1      42.902  23.793  25.964  1.00  0.00     0.135 A 
ATOM     82  C   UNL A   1      43.627  23.028  28.112  1.00  0.00     0.135 A 
ATOM     83  F   UNL A   1      42.759  24.765  25.051  1.00  0.00    -0.206 F 
ATOM     84  C   UNL A   1      42.295  22.560  25.723  1.00  0.00     0.059 A 
ATOM     85  C   UNL A   1      43.048  21.781  27.891  1.00  0.00     0.059 A 
ATOM     86  F   UNL A   1      44.182  23.255  29.306  1.00  0.00    -0.206 F 
ATOM     87  C   UNL A   1      42.375  21.558  26.693  1.00  0.00     0.060 A 
BRANCH  87  88
ATOM     88  S   UNL A   1      41.593  19.960  26.369  1.00  0.00     0.124 S 
ATOM     89  O   UNL A   1      42.341  19.495  25.206  1.00  0.00    -0.237 OA
ATOM     90  O   UNL A   1      41.838  19.240  27.614  1.00  0.00    -0.237 OA
ATOM     91  O   UNL A   1      40.198  20.312  26.120  1.00  0.00    -0.744 OA
ENDBRANCH  87  88
ENDBRANCH  55  80
BRANCH  67  92
ATOM     92  C   UNL A   1      49.847  26.969  26.366  1.00  0.00     0.058 A 
ATOM     93  C   UNL A   1      50.730  26.507  27.354  1.00  0.00     0.135 A 
ATOM     94  C   UNL A   1      50.268  26.855  25.028  1.00  0.00     0.135 A 
ATOM     95  F   UNL A   1      50.398  26.593  28.651  1.00  0.00    -0.206 F 
ATOM     96  C   UNL A   1      51.976  25.959  27.029  1.00  0.00     0.059 A 
ATOM     97  C   UNL A   1      51.495  26.293  24.679  1.00  0.00     0.059 A 
ATOM     98  F   UNL A   1      49.472  27.277  24.032  1.00  0.00    -0.206 F 
ATOM     99  C   UNL A   1      52.348  25.852  25.686  1.00  0.00     0.060 A 
BRANCH  99 100
ATOM    100  S   UNL A   1      53.936  25.090  25.270  1.00  0.00     0.124 S 
ATOM    101  O   UNL A   1      53.514  23.822  24.684  1.00  0.00    -0.237 OA
ATOM    102  O   UNL A   1      54.514  26.057  24.341  1.00  0.00    -0.237 OA
ATOM    103  O   UNL A   1      54.614  24.990  26.559  1.00  0.00    -0.744 OA
ENDBRANCH  99 100
ENDBRANCH  67  92
ENDBRANCH  41  42
ENDBRANCH  34  36
ENDBRANCH  33  34
ENDBRANCH  32  33
ENDBRANCH  31  32
ENDBRANCH  30  31
ENDBRANCH  29  30
ENDBRANCH   1  29
TORSDOF 26
ENDMDL
MODEL 2
REMARK VINA RESULT:      -9.7      4.932      6.376
REMARK SMILES Cc1cc(F)ccc1CCNC(=O)NC[C@@](C)(O)C(=O)OCCOCCOCCOC(=O)c1ccc(-c2c3nc(c(-c4c(F)cc(S(=O)(=O)[O-])cc4F)c4ccc([nH]4)c(-c4c(F)cc(S(=O)(=O)[O-])cc4F)c4nc(c(-c5c(F)cc(S(=O)(=O)[O-])cc5F)c5ccc2[nH]5)C=C4)C=C3)cc1
REMARK SMILES IDX 25 1 24 2 23 3 22 4 21 5 19 6 20 7 16 8 17 9 15 10 14 11
REMARK SMILES IDX 11 12 12 13 13 15 10 17 9 18 8 19 1 20 2 21 3 22 4 23 7 24
REMARK SMILES IDX 5 25 6 26 18 27 26 29 27 30 28 31 29 32 30 33 31 34 32 35
REMARK SMILES IDX 33 36 34 37 98 38 35 39 97 40 36 41 37 42 38 43 91 44 39 45
REMARK SMILES IDX 96 46 90 47 92 48 40 49 95 50 89 51 88 52 41 54 75 55 54 56
REMARK SMILES IDX 74 57 55 58 58 59 73 60 93 61 56 62 57 63 72 65 94 66 59 67
REMARK SMILES IDX 42 68 43 69 52 70 44 71 45 72 51 73 53 74 46 75 47 76 48 77
REMARK SMILES IDX 49 78 50 79 76 80 77 81 86 82 78 83 79 84 85 85 87 86 80 87
REMARK SMILES IDX 81 88 82 89 83 90 84 91 60 92 61 93 70 94 62 95 63 96 69 97
REMARK SMILES IDX 71 98 64 99 65 100 66 101 67 102 68 103
REMARK H PARENT 11 14 14 16 18 28 92 53 58 64
REMARK Flexibility Score: inf
ROOT
ATOM      1  C   UNL A   1      31.475  28.032  25.586  1.00  0.00     0.188 C 
ENDROOT
BRANCH   1   2
ATOM      2  O   UNL A   1      30.664  27.468  24.558  1.00  0.00    -0.376 OA
BRANCH   2   3
ATOM      3  C   UNL A   1      30.338  28.374  23.500  1.00  0.00     0.202 C 
BRANCH   3   4
ATOM      4  C   UNL A   1      30.835  27.869  22.144  1.00  0.00     0.261 C 
BRANCH   4   5
ATOM      5  O   UNL A   1      31.143  26.468  22.169  1.00  0.00    -0.461 OA
BRANCH   5   6
ATOM      6  C   UNL A   1      32.451  26.106  22.110  1.00  0.00     0.339 C 
ATOM      7  O   UNL A   1      33.333  26.827  21.664  1.00  0.00    -0.249 OA
BRANCH   6   8
ATOM      8  C   UNL A   1      32.673  24.682  22.695  1.00  0.00     0.176 C 
ATOM      9  C   UNL A   1      34.048  24.660  23.368  1.00  0.00     0.057 C 
BRANCH   8  10
ATOM     10  C   UNL A   1      31.461  24.311  23.624  1.00  0.00     0.164 C 
BRANCH  10  11
ATOM     11  N   UNL A   1      31.717  24.345  25.053  1.00  0.00    -0.335 N 
ATOM     12  N   UNL A   1      31.599  22.167  26.063  1.00  0.00    -0.338 N 
ATOM     13  C   UNL A   1      31.638  23.502  26.082  1.00  0.00     0.314 C 
ATOM     14  H   UNL A   1      31.088  21.828  26.835  1.00  0.00     0.165 HD
ATOM     15  O   UNL A   1      31.580  24.037  27.194  1.00  0.00    -0.249 OA
ATOM     16  H   UNL A   1      32.036  25.230  25.338  1.00  0.00     0.165 HD
BRANCH  12  17
ATOM     17  C   UNL A   1      32.089  21.044  25.234  1.00  0.00     0.122 C 
BRANCH  17  18
ATOM     18  C   UNL A   1      33.483  21.354  24.608  1.00  0.00     0.057 C 
BRANCH  18  19
ATOM     19  C   UNL A   1      34.889  21.168  25.222  1.00  0.00    -0.043 A 
ATOM     20  C   UNL A   1      35.648  18.676  24.643  1.00  0.00     0.045 C 
ATOM     21  C   UNL A   1      35.851  20.136  24.958  1.00  0.00    -0.045 A 
ATOM     22  C   UNL A   1      37.228  20.453  24.978  1.00  0.00     0.043 A 
ATOM     23  C   UNL A   1      37.670  21.678  25.423  1.00  0.00     0.123 A 
ATOM     24  C   UNL A   1      35.392  22.363  25.780  1.00  0.00     0.007 A 
ATOM     25  F   UNL A   1      38.980  21.951  25.415  1.00  0.00    -0.207 F 
ATOM     26  C   UNL A   1      36.764  22.607  25.891  1.00  0.00     0.039 A 
ENDBRANCH  18  19
ENDBRANCH  17  18
ENDBRANCH  12  17
ENDBRANCH  10  11
ENDBRANCH   8  10
BRANCH   8  27
ATOM     27  O   UNL A   1      32.785  23.669  21.675  1.00  0.00    -0.377 OA
ATOM     28  H   UNL A   1      31.925  23.234  21.557  1.00  0.00     0.212 HD
ENDBRANCH   8  27
ENDBRANCH   6   8
ENDBRANCH   5   6
ENDBRANCH   4   5
ENDBRANCH   3   4
ENDBRANCH   2   3
ENDBRANCH   1   2
BRANCH   1  29
ATOM     29  C   UNL A   1      31.940  29.469  25.308  1.00  0.00     0.188 C 
BRANCH  29  30
ATOM     30  O   UNL A   1      31.189  30.589  25.746  1.00  0.00    -0.376 OA
BRANCH  30  31
ATOM     31  C   UNL A   1      31.811  31.528  26.591  1.00  0.00     0.202 C 
BRANCH  31  32
ATOM     32  C   UNL A   1      33.180  31.144  27.164  1.00  0.00     0.261 C 
BRANCH  32  33
ATOM     33  O   UNL A   1      33.751  32.072  28.108  1.00  0.00    -0.460 OA
BRANCH  33  34
ATOM     34  C   UNL A   1      34.998  32.588  27.910  1.00  0.00     0.338 C 
ATOM     35  O   UNL A   1      35.257  33.707  27.500  1.00  0.00    -0.246 OA
BRANCH  34  36
ATOM     36  C   UNL A   1      36.017  31.556  28.336  1.00  0.00     0.060 A 
ATOM     37  C   UNL A   1      35.766  30.172  28.434  1.00  0.00     0.016 A 
ATOM     38  C   UNL A   1      37.293  31.972  28.654  1.00  0.00     0.016 A 
ATOM     39  C   UNL A   1      36.778  29.236  28.868  1.00  0.00     0.010 A 
ATOM     40  C   UNL A   1      38.247  31.034  29.058  1.00  0.00     0.010 A 
ATOM     41  C   UNL A   1      38.068  29.660  29.201  1.00  0.00    -0.014 A 
BRANCH  41  42
ATOM     42  C   UNL A   1      39.206  28.907  29.910  1.00  0.00     0.031 A 
ATOM     43  C   UNL A   1      39.929  29.609  31.053  1.00  0.00     0.074 A 
ATOM     44  C   UNL A   1      39.853  27.802  29.439  1.00  0.00     0.049 A 
ATOM     45  N   UNL A   1      40.982  29.215  31.735  1.00  0.00    -0.248 NA
ATOM     46  C   UNL A   1      39.413  30.922  31.463  1.00  0.00     0.031 C 
ATOM     47  C   UNL A   1      39.449  26.958  28.316  1.00  0.00     0.029 A 
ATOM     48  N   UNL A   1      41.088  27.259  29.801  1.00  0.00    -0.354 N 
ATOM     49  C   UNL A   1      41.196  30.178  32.711  1.00  0.00     0.074 A 
ATOM     50  C   UNL A   1      40.244  31.241  32.448  1.00  0.00     0.031 C 
ATOM     51  C   UNL A   1      40.465  26.127  27.991  1.00  0.00     0.029 A 
ATOM     52  C   UNL A   1      41.587  26.318  28.914  1.00  0.00     0.049 A 
ATOM     53  H   UNL A   1      41.565  27.524  30.620  1.00  0.00     0.167 HD
ATOM     54  C   UNL A   1      42.044  30.162  33.773  1.00  0.00     0.037 A 
ATOM     55  C   UNL A   1      42.784  25.681  28.830  1.00  0.00     0.037 A 
ATOM     56  C   UNL A   1      43.034  29.155  34.061  1.00  0.00     0.049 A 
ATOM     57  C   UNL A   1      43.822  25.763  29.935  1.00  0.00     0.074 A 
ATOM     58  C   UNL A   1      43.771  28.980  35.224  1.00  0.00     0.029 A 
ATOM     59  N   UNL A   1      43.484  28.199  33.170  1.00  0.00    -0.354 N 
ATOM     60  N   UNL A   1      43.814  26.486  31.024  1.00  0.00    -0.248 NA
ATOM     61  C   UNL A   1      44.992  24.862  29.839  1.00  0.00     0.031 C 
ATOM     62  C   UNL A   1      44.705  27.958  35.016  1.00  0.00     0.029 A 
ATOM     63  C   UNL A   1      44.512  27.458  33.742  1.00  0.00     0.049 A 
ATOM     64  H   UNL A   1      43.129  28.062  32.263  1.00  0.00     0.167 HD
ATOM     65  C   UNL A   1      44.892  26.036  31.792  1.00  0.00     0.074 A 
ATOM     66  C   UNL A   1      45.581  25.034  31.016  1.00  0.00     0.031 C 
ATOM     67  C   UNL A   1      45.214  26.401  33.057  1.00  0.00     0.037 A 
BRANCH  54  68
ATOM     68  C   UNL A   1      41.860  31.246  34.796  1.00  0.00     0.058 A 
ATOM     69  C   UNL A   1      42.647  32.409  34.739  1.00  0.00     0.135 A 
ATOM     70  C   UNL A   1      40.859  31.172  35.775  1.00  0.00     0.135 A 
ATOM     71  F   UNL A   1      43.609  32.531  33.810  1.00  0.00    -0.206 F 
ATOM     72  C   UNL A   1      42.483  33.440  35.651  1.00  0.00     0.059 A 
ATOM     73  C   UNL A   1      40.657  32.210  36.681  1.00  0.00     0.059 A 
ATOM     74  F   UNL A   1      40.068  30.092  35.856  1.00  0.00    -0.206 F 
ATOM     75  C   UNL A   1      41.489  33.329  36.623  1.00  0.00     0.060 A 
BRANCH  75  76
ATOM     76  S   UNL A   1      41.308  34.671  37.812  1.00  0.00     0.124 S 
ATOM     77  O   UNL A   1      41.322  35.836  36.933  1.00  0.00    -0.237 OA
ATOM     78  O   UNL A   1      40.024  34.367  38.437  1.00  0.00    -0.237 OA
ATOM     79  O   UNL A   1      42.474  34.520  38.675  1.00  0.00    -0.744 OA
ENDBRANCH  75  76
ENDBRANCH  54  68
BRANCH  55  80
ATOM     80  C   UNL A   1      43.125  24.808  27.661  1.00  0.00     0.058 A 
ATOM     81  C   UNL A   1      42.791  23.447  27.633  1.00  0.00     0.135 A 
ATOM     82  C   UNL A   1      43.949  25.286  26.632  1.00  0.00     0.135 A 
ATOM     83  F   UNL A   1      42.072  22.918  28.635  1.00  0.00    -0.206 F 
ATOM     84  C   UNL A   1      43.255  22.599  26.627  1.00  0.00     0.059 A 
ATOM     85  C   UNL A   1      44.409  24.468  25.603  1.00  0.00     0.059 A 
ATOM     86  F   UNL A   1      44.372  26.553  26.658  1.00  0.00    -0.206 F 
ATOM     87  C   UNL A   1      44.063  23.120  25.614  1.00  0.00     0.060 A 
BRANCH  87  88
ATOM     88  S   UNL A   1      44.652  22.016  24.308  1.00  0.00     0.124 S 
ATOM     89  O   UNL A   1      44.185  20.718  24.785  1.00  0.00    -0.237 OA
ATOM     90  O   UNL A   1      43.972  22.544  23.130  1.00  0.00    -0.237 OA
ATOM     91  O   UNL A   1      46.099  22.210  24.330  1.00  0.00    -0.744 OA
ENDBRANCH  87  88
ENDBRANCH  55  80
BRANCH  67  92
ATOM     92  C   UNL A   1      46.273  25.624  33.808  1.00  0.00     0.058 A 
ATOM     93  C   UNL A   1      46.027  24.402  34.454  1.00  0.00     0.135 A 
ATOM     94  C   UNL A   1      47.598  26.098  33.823  1.00  0.00     0.135 A 
ATOM     95  F   UNL A   1      44.785  23.895  34.488  1.00  0.00    -0.206 F 
ATOM     96  C   UNL A   1      47.047  23.686  35.088  1.00  0.00     0.059 A 
ATOM     97  C   UNL A   1      48.636  25.391  34.429  1.00  0.00     0.059 A 
ATOM     98  F   UNL A   1      47.905  27.260  33.224  1.00  0.00    -0.206 F 
ATOM     99  C   UNL A   1      48.352  24.187  35.065  1.00  0.00     0.060 A 
BRANCH  99 100
ATOM    100  S   UNL A   1      49.678  23.227  35.837  1.00  0.00     0.124 S 
ATOM    101  O   UNL A   1      50.422  24.262  36.546  1.00  0.00    -0.237 OA
ATOM    102  O   UNL A   1      48.940  22.288  36.676  1.00  0.00    -0.237 OA
ATOM    103  O   UNL A   1      50.370  22.626  34.699  1.00  0.00    -0.744 OA
ENDBRANCH  99 100
ENDBRANCH  67  92
ENDBRANCH  41  42
ENDBRANCH  34  36
ENDBRANCH  33  34
ENDBRANCH  32  33
ENDBRANCH  31  32
ENDBRANCH  30  31
ENDBRANCH  29  30
ENDBRANCH   1  29
TORSDOF 26
ENDMDL
MODEL 3
REMARK VINA RESULT:      -9.6      5.110      6.850
REMARK SMILES Cc1cc(F)ccc1CCNC(=O)NC[C@@](C)(O)C(=O)OCCOCCOCCOC(=O)c1ccc(-c2c3nc(c(-c4c(F)cc(S(=O)(=O)[O-])cc4F)c4ccc([nH]4)c(-c4c(F)cc(S(=O)(=O)[O-])cc4F)c4nc(c(-c5c(F)cc(S(=O)(=O)[O-])cc5F)c5ccc2[nH]5)C=C4)C=C3)cc1
REMARK SMILES IDX 25 1 24 2 23 3 22 4 21 5 19 6 20 7 16 8 17 9 15 10 14 11
REMARK SMILES IDX 11 12 12 13 13 15 10 17 9 18 8 19 1 20 2 21 3 22 4 23 7 24
REMARK SMILES IDX 5 25 6 26 18 27 26 29 27 30 28 31 29 32 30 33 31 34 32 35
REMARK SMILES IDX 33 36 34 37 98 38 35 39 97 40 36 41 37 42 38 43 91 44 39 45
REMARK SMILES IDX 96 46 90 47 92 48 40 49 95 50 89 51 88 52 41 54 75 55 54 56
REMARK SMILES IDX 74 57 55 58 58 59 73 60 93 61 56 62 57 63 72 65 94 66 59 67
REMARK SMILES IDX 42 68 43 69 52 70 44 71 45 72 51 73 53 74 46 75 47 76 48 77
REMARK SMILES IDX 49 78 50 79 76 80 77 81 86 82 78 83 79 84 85 85 87 86 80 87
REMARK SMILES IDX 81 88 82 89 83 90 84 91 60 92 61 93 70 94 62 95 63 96 69 97
REMARK SMILES IDX 71 98 64 99 65 100 66 101 67 102 68 103
REMARK H PARENT 11 14 14 16 18 28 92 53 58 64
REMARK Flexibility Score: inf
ROOT
ATOM      1  C   UNL A   1      31.195  28.098  25.345  1.00  0.00     0.188 C 
ENDROOT
BRANCH   1   2
ATOM      2  O   UNL A   1      30.440  27.504  24.292  1.00  0.00    -0.376 OA
BRANCH   2   3
ATOM      3  C   UNL A   1      30.430  28.259  23.075  1.00  0.00     0.202 C 
BRANCH   3   4
ATOM      4  C   UNL A   1      31.401  27.686  22.041  1.00  0.00     0.261 C 
BRANCH   4   5
ATOM      5  O   UNL A   1      31.307  26.257  21.946  1.00  0.00    -0.461 OA
BRANCH   5   6
ATOM      6  C   UNL A   1      32.462  25.555  21.802  1.00  0.00     0.339 C 
ATOM      7  O   UNL A   1      33.339  25.853  21.003  1.00  0.00    -0.249 OA
BRANCH   6   8
ATOM      8  C   UNL A   1      32.522  24.354  22.788  1.00  0.00     0.176 C 
ATOM      9  C   UNL A   1      33.576  23.373  22.269  1.00  0.00     0.057 C 
BRANCH   8  10
ATOM     10  C   UNL A   1      32.763  24.894  24.245  1.00  0.00     0.164 C 
BRANCH  10  11
ATOM     11  N   UNL A   1      33.778  24.206  25.022  1.00  0.00    -0.335 N 
ATOM     12  N   UNL A   1      32.909  22.291  26.185  1.00  0.00    -0.338 N 
ATOM     13  C   UNL A   1      33.823  23.230  25.927  1.00  0.00     0.314 C 
ATOM     14  H   UNL A   1      32.949  22.025  27.133  1.00  0.00     0.165 HD
ATOM     15  O   UNL A   1      34.844  23.208  26.624  1.00  0.00    -0.249 OA
ATOM     16  H   UNL A   1      34.676  24.556  24.827  1.00  0.00     0.165 HD
BRANCH  12  17
ATOM     17  C   UNL A   1      31.855  21.531  25.479  1.00  0.00     0.122 C 
BRANCH  17  18
ATOM     18  C   UNL A   1      32.455  20.575  24.403  1.00  0.00     0.057 C 
BRANCH  18  19
ATOM     19  C   UNL A   1      32.446  19.030  24.360  1.00  0.00    -0.043 A 
ATOM     20  C   UNL A   1      32.340  18.342  21.783  1.00  0.00     0.045 C 
ATOM     21  C   UNL A   1      32.686  18.165  23.240  1.00  0.00    -0.045 A 
ATOM     22  C   UNL A   1      33.346  16.932  23.447  1.00  0.00     0.043 A 
ATOM     23  C   UNL A   1      33.594  16.464  24.717  1.00  0.00     0.123 A 
ATOM     24  C   UNL A   1      32.614  18.457  25.638  1.00  0.00     0.007 A 
ATOM     25  F   UNL A   1      34.233  15.299  24.878  1.00  0.00    -0.207 F 
ATOM     26  C   UNL A   1      33.168  17.185  25.812  1.00  0.00     0.039 A 
ENDBRANCH  18  19
ENDBRANCH  17  18
ENDBRANCH  12  17
ENDBRANCH  10  11
ENDBRANCH   8  10
BRANCH   8  27
ATOM     27  O   UNL A   1      31.311  23.572  22.793  1.00  0.00    -0.377 OA
ATOM     28  H   UNL A   1      30.861  23.680  23.646  1.00  0.00     0.212 HD
ENDBRANCH   8  27
ENDBRANCH   6   8
ENDBRANCH   5   6
ENDBRANCH   4   5
ENDBRANCH   3   4
ENDBRANCH   2   3
ENDBRANCH   1   2
BRANCH   1  29
ATOM     29  C   UNL A   1      31.720  29.507  25.032  1.00  0.00     0.188 C 
BRANCH  29  30
ATOM     30  O   UNL A   1      31.053  30.668  25.499  1.00  0.00    -0.376 OA
BRANCH  30  31
ATOM     31  C   UNL A   1      31.631  31.395  26.559  1.00  0.00     0.202 C 
BRANCH  31  32
ATOM     32  C   UNL A   1      33.063  31.019  26.956  1.00  0.00     0.261 C 
BRANCH  32  33
ATOM     33  O   UNL A   1      33.654  31.812  28.004  1.00  0.00    -0.460 OA
BRANCH  33  34
ATOM     34  C   UNL A   1      34.857  32.427  27.819  1.00  0.00     0.338 C 
ATOM     35  O   UNL A   1      35.032  33.551  27.380  1.00  0.00    -0.246 OA
BRANCH  34  36
ATOM     36  C   UNL A   1      35.948  31.498  28.301  1.00  0.00     0.060 A 
ATOM     37  C   UNL A   1      35.930  30.096  28.158  1.00  0.00     0.016 A 
ATOM     38  C   UNL A   1      37.054  32.038  28.924  1.00  0.00     0.016 A 
ATOM     39  C   UNL A   1      36.997  29.258  28.659  1.00  0.00     0.010 A 
ATOM     40  C   UNL A   1      38.070  31.195  29.384  1.00  0.00     0.010 A 
ATOM     41  C   UNL A   1      38.112  29.804  29.301  1.00  0.00    -0.014 A 
BRANCH  41  42
ATOM     42  C   UNL A   1      39.219  29.119  30.119  1.00  0.00     0.031 A 
ATOM     43  C   UNL A   1      39.774  29.852  31.335  1.00  0.00     0.074 A 
ATOM     44  C   UNL A   1      39.983  28.064  29.710  1.00  0.00     0.049 A 
ATOM     45  N   UNL A   1      40.775  29.520  32.119  1.00  0.00    -0.248 NA
ATOM     46  C   UNL A   1      39.133  31.123  31.697  1.00  0.00     0.031 C 
ATOM     47  C   UNL A   1      39.752  27.210  28.548  1.00  0.00     0.029 A 
ATOM     48  N   UNL A   1      41.207  27.599  30.194  1.00  0.00    -0.354 N 
ATOM     49  C   UNL A   1      40.825  30.482  33.117  1.00  0.00     0.074 A 
ATOM     50  C   UNL A   1      39.836  31.484  32.764  1.00  0.00     0.031 C 
ATOM     51  C   UNL A   1      40.849  26.451  28.324  1.00  0.00     0.029 A 
ATOM     52  C   UNL A   1      41.856  26.704  29.358  1.00  0.00     0.049 A 
ATOM     53  H   UNL A   1      41.580  27.884  31.060  1.00  0.00     0.167 HD
ATOM     54  C   UNL A   1      41.558  30.508  34.260  1.00  0.00     0.037 A 
ATOM     55  C   UNL A   1      43.095  26.147  29.394  1.00  0.00     0.037 A 
ATOM     56  C   UNL A   1      42.578  29.564  34.642  1.00  0.00     0.049 A 
ATOM     57  C   UNL A   1      44.007  26.283  30.600  1.00  0.00     0.074 A 
ATOM     58  C   UNL A   1      43.203  29.423  35.875  1.00  0.00     0.029 A 
ATOM     59  N   UNL A   1      43.179  28.651  33.798  1.00  0.00    -0.354 N 
ATOM     60  N   UNL A   1      43.840  26.990  31.687  1.00  0.00    -0.248 NA
ATOM     61  C   UNL A   1      45.237  25.462  30.620  1.00  0.00     0.031 C 
ATOM     62  C   UNL A   1      44.219  28.466  35.758  1.00  0.00     0.029 A 
ATOM     63  C   UNL A   1      44.191  27.972  34.468  1.00  0.00     0.049 A 
ATOM     64  H   UNL A   1      42.928  28.503  32.858  1.00  0.00     0.167 HD
ATOM     65  C   UNL A   1      44.861  26.602  32.558  1.00  0.00     0.074 A 
ATOM     66  C   UNL A   1      45.690  25.657  31.852  1.00  0.00     0.031 C 
ATOM     67  C   UNL A   1      45.028  26.971  33.852  1.00  0.00     0.037 A 
BRANCH  54  68
ATOM     68  C   UNL A   1      41.200  31.565  35.266  1.00  0.00     0.058 A 
ATOM     69  C   UNL A   1      41.958  32.745  35.347  1.00  0.00     0.135 A 
ATOM     70  C   UNL A   1      40.068  31.448  36.085  1.00  0.00     0.135 A 
ATOM     71  F   UNL A   1      43.043  32.908  34.573  1.00  0.00    -0.206 F 
ATOM     72  C   UNL A   1      41.636  33.752  36.244  1.00  0.00     0.059 A 
ATOM     73  C   UNL A   1      39.710  32.460  36.971  1.00  0.00     0.059 A 
ATOM     74  F   UNL A   1      39.299  30.350  36.027  1.00  0.00    -0.206 F 
ATOM     75  C   UNL A   1      40.514  33.598  37.057  1.00  0.00     0.060 A 
BRANCH  75  76
ATOM     76  S   UNL A   1      40.126  34.909  38.232  1.00  0.00     0.124 S 
ATOM     77  O   UNL A   1      41.415  35.093  38.890  1.00  0.00    -0.237 OA
ATOM     78  O   UNL A   1      39.702  35.999  37.358  1.00  0.00    -0.237 OA
ATOM     79  O   UNL A   1      39.075  34.325  39.057  1.00  0.00    -0.744 OA
ENDBRANCH  75  76
ENDBRANCH  54  68
BRANCH  55  80
ATOM     80  C   UNL A   1      43.610  25.313  28.261  1.00  0.00     0.058 A 
ATOM     81  C   UNL A   1      44.149  25.891  27.104  1.00  0.00     0.135 A 
ATOM     82  C   UNL A   1      43.407  23.925  28.249  1.00  0.00     0.135 A 
ATOM     83  F   UNL A   1      44.291  27.223  27.030  1.00  0.00    -0.206 F 
ATOM     84  C   UNL A   1      44.470  25.124  25.983  1.00  0.00     0.059 A 
ATOM     85  C   UNL A   1      43.738  23.132  27.153  1.00  0.00     0.059 A 
ATOM     86  F   UNL A   1      42.814  23.335  29.290  1.00  0.00    -0.206 F 
ATOM     87  C   UNL A   1      44.263  23.743  26.018  1.00  0.00     0.060 A 
BRANCH  87  88
ATOM     88  S   UNL A   1      44.692  22.756  24.565  1.00  0.00     0.124 S 
ATOM     89  O   UNL A   1      45.216  21.540  25.177  1.00  0.00    -0.237 OA
ATOM     90  O   UNL A   1      43.404  22.627  23.891  1.00  0.00    -0.237 OA
ATOM     91  O   UNL A   1      45.675  23.585  23.873  1.00  0.00    -0.744 OA
ENDBRANCH  87  88
ENDBRANCH  55  80
BRANCH  67  92
ATOM     92  C   UNL A   1      46.053  26.255  34.704  1.00  0.00     0.058 A 
ATOM     93  C   UNL A   1      45.775  25.095  35.441  1.00  0.00     0.135 A 
ATOM     94  C   UNL A   1      47.381  26.723  34.725  1.00  0.00     0.135 A 
ATOM     95  F   UNL A   1      44.528  24.598  35.474  1.00  0.00    -0.206 F 
ATOM     96  C   UNL A   1      46.767  24.430  36.169  1.00  0.00     0.059 A 
ATOM     97  C   UNL A   1      48.391  26.065  35.425  1.00  0.00     0.059 A 
ATOM     98  F   UNL A   1      47.718  27.828  34.041  1.00  0.00    -0.206 F 
ATOM     99  C   UNL A   1      48.075  24.920  36.151  1.00  0.00     0.060 A 
BRANCH  99 100
ATOM    100  S   UNL A   1      49.366  24.023  37.047  1.00  0.00     0.124 S 
ATOM    101  O   UNL A   1      48.617  23.458  38.164  1.00  0.00    -0.237 OA
ATOM    102  O   UNL A   1      49.835  23.066  36.049  1.00  0.00    -0.237 OA
ATOM    103  O   UNL A   1      50.324  25.067  37.400  1.00  0.00    -0.744 OA
ENDBRANCH  99 100
ENDBRANCH  67  92
ENDBRANCH  41  42
ENDBRANCH  34  36
ENDBRANCH  33  34
ENDBRANCH  32  33
ENDBRANCH  31  32
ENDBRANCH  30  31
ENDBRANCH  29  30
ENDBRANCH   1  29
TORSDOF 26
ENDMDL
