MODEL 1
REMARK VINA RESULT:     -12.3      0.000      0.000
REMARK SMILES C[C@H](C(=O)Nc1ccc(C(F)(F)F)cc1)n1nc(C(=O)OCCOCCOCCOC(=O)c2ccc(-c3c4nc(c(-c5c(F)cc(S(=O)(=O)[O-])cc5F)c5ccc([nH]5)c(-c5c(F)cc(S(=O)(=O)[O-])cc5F)c5nc(c(-c6c(F)cc(S(=O)(=O)[O-])cc6F)c6ccc3[nH]6)C=C5)C=C4)cc2)c2ccccc2c1=O
REMARK SMILES IDX 25 1 24 2 23 3 22 4 21 5 19 6 20 7 18 8 16 9 17 10 105 11
REMARK SMILES IDX 104 12 106 13 99 14 103 15 100 16 102 17 101 18 2 19 1 20
REMARK SMILES IDX 3 21 4 22 5 23 6 25 7 26 15 27 8 28 14 29 9 30 10 31 11 32
REMARK SMILES IDX 12 33 13 34 26 35 27 36 28 37 29 38 30 39 31 40 32 41 33 42
REMARK SMILES IDX 34 43 98 44 35 45 97 46 36 47 37 48 38 49 91 50 39 51 96 52
REMARK SMILES IDX 90 53 92 54 40 55 95 56 89 57 88 58 41 60 75 61 54 62 74 63
REMARK SMILES IDX 55 64 58 65 73 66 93 67 56 68 57 69 72 71 94 72 59 73 42 74
REMARK SMILES IDX 43 75 52 76 44 77 45 78 51 79 53 80 46 81 47 82 48 83 49 84
REMARK SMILES IDX 50 85 76 86 77 87 86 88 78 89 79 90 85 91 87 92 80 93 81 94
REMARK SMILES IDX 82 95 83 96 84 97 60 98 61 99 70 100 62 101 63 102 69 103
REMARK SMILES IDX 71 104 64 105 65 106 66 107 67 108 68 109
REMARK H PARENT 5 24 92 59 58 70
REMARK Flexibility Score: inf
ROOT
ATOM      1  C   UNL A   1      41.017  19.989  26.248  1.00  0.00     0.188 C 
ENDROOT
BRANCH   1   2
ATOM      2  O   UNL A   1      40.027  20.819  26.846  1.00  0.00    -0.376 OA
BRANCH   2   3
ATOM      3  C   UNL A   1      39.678  21.983  26.112  1.00  0.00     0.202 C 
BRANCH   3   4
ATOM      4  C   UNL A   1      38.172  22.232  26.103  1.00  0.00     0.261 C 
BRANCH   4   5
ATOM      5  O   UNL A   1      37.491  21.727  24.954  1.00  0.00    -0.458 OA
BRANCH   5   6
ATOM      6  C   UNL A   1      36.986  20.483  25.036  1.00  0.00     0.359 C 
ATOM      7  O   UNL A   1      37.599  19.436  24.991  1.00  0.00    -0.244 OA
BRANCH   6   8
ATOM      8  C   UNL A   1      35.470  20.555  25.119  1.00  0.00     0.176 A 
ATOM      9  N   UNL A   1      33.689  21.988  25.312  1.00  0.00    -0.216 N 
ATOM     10  N   UNL A   1      35.007  21.706  25.488  1.00  0.00    -0.161 NA
ATOM     11  C   UNL A   1      32.783  21.119  24.711  1.00  0.00     0.275 A 
ATOM     12  C   UNL A   1      33.310  19.783  24.335  1.00  0.00     0.051 A 
ATOM     13  O   UNL A   1      31.619  21.412  24.449  1.00  0.00    -0.267 OA
ATOM     14  C   UNL A   1      34.624  19.452  24.655  1.00  0.00     0.022 A 
ATOM     15  C   UNL A   1      32.520  18.867  23.630  1.00  0.00     0.014 A 
ATOM     16  C   UNL A   1      35.096  18.152  24.446  1.00  0.00     0.011 A 
ATOM     17  C   UNL A   1      33.023  17.596  23.337  1.00  0.00     0.001 A 
ATOM     18  C   UNL A   1      34.290  17.224  23.787  1.00  0.00     0.001 A 
BRANCH   9  19
ATOM     19  C   UNL A   1      33.338  23.366  25.653  1.00  0.00     0.197 C 
ATOM     20  C   UNL A   1      34.565  24.266  25.767  1.00  0.00     0.044 C 
BRANCH  19  21
ATOM     21  C   UNL A   1      32.352  23.488  26.836  1.00  0.00     0.249 C 
ATOM     22  O   UNL A   1      32.471  22.774  27.842  1.00  0.00    -0.272 OA
ATOM     23  N   UNL A   1      31.448  24.523  26.927  1.00  0.00    -0.324 N 
ATOM     24  H   UNL A   1      30.881  24.512  27.732  1.00  0.00     0.170 HD
BRANCH  23  25
ATOM     25  C   UNL A   1      31.212  25.589  26.051  1.00  0.00     0.041 A 
ATOM     26  C   UNL A   1      31.796  26.832  26.290  1.00  0.00     0.027 A 
ATOM     27  C   UNL A   1      30.258  25.457  25.040  1.00  0.00     0.027 A 
ATOM     28  C   UNL A   1      31.474  27.925  25.473  1.00  0.00     0.015 A 
ATOM     29  C   UNL A   1      29.958  26.540  24.203  1.00  0.00     0.015 A 
ATOM     30  C   UNL A   1      30.565  27.787  24.408  1.00  0.00     0.056 A 
BRANCH  30  31
ATOM     31  C   UNL A   1      30.211  28.970  23.529  1.00  0.00     0.416 C 
ATOM     32  F   UNL A   1      31.098  29.128  22.508  1.00  0.00    -0.166 F 
ATOM     33  F   UNL A   1      28.987  28.841  22.938  1.00  0.00    -0.166 F 
ATOM     34  F   UNL A   1      30.189  30.158  24.187  1.00  0.00    -0.166 F 
ENDBRANCH  30  31
ENDBRANCH  23  25
ENDBRANCH  19  21
ENDBRANCH   9  19
ENDBRANCH   6   8
ENDBRANCH   5   6
ENDBRANCH   4   5
ENDBRANCH   3   4
ENDBRANCH   2   3
ENDBRANCH   1   2
BRANCH   1  35
ATOM     35  C   UNL A   1      42.440  20.589  26.264  1.00  0.00     0.188 C 
BRANCH  35  36
ATOM     36  O   UNL A   1      42.818  21.598  25.343  1.00  0.00    -0.376 OA
BRANCH  36  37
ATOM     37  C   UNL A   1      43.502  22.739  25.829  1.00  0.00     0.202 C 
BRANCH  37  38
ATOM     38  C   UNL A   1      43.223  24.088  25.151  1.00  0.00     0.261 C 
BRANCH  38  39
ATOM     39  O   UNL A   1      42.107  24.819  25.690  1.00  0.00    -0.460 OA
BRANCH  39  40
ATOM     40  C   UNL A   1      42.236  26.171  25.695  1.00  0.00     0.338 C 
ATOM     41  O   UNL A   1      42.189  26.911  24.725  1.00  0.00    -0.246 OA
BRANCH  40  42
ATOM     42  C   UNL A   1      42.221  26.675  27.091  1.00  0.00     0.060 A 
ATOM     43  C   UNL A   1      41.168  26.264  27.925  1.00  0.00     0.016 A 
ATOM     44  C   UNL A   1      43.199  27.542  27.582  1.00  0.00     0.016 A 
ATOM     45  C   UNL A   1      41.074  26.733  29.237  1.00  0.00     0.010 A 
ATOM     46  C   UNL A   1      43.079  28.049  28.886  1.00  0.00     0.010 A 
ATOM     47  C   UNL A   1      41.999  27.674  29.707  1.00  0.00    -0.014 A 
BRANCH  47  48
ATOM     48  C   UNL A   1      41.687  28.460  30.930  1.00  0.00     0.031 A 
ATOM     49  C   UNL A   1      40.531  29.426  30.863  1.00  0.00     0.074 A 
ATOM     50  C   UNL A   1      42.390  28.339  32.070  1.00  0.00     0.049 A 
ATOM     51  N   UNL A   1      40.106  30.280  31.758  1.00  0.00    -0.248 NA
ATOM     52  C   UNL A   1      39.752  29.424  29.613  1.00  0.00     0.031 C 
ATOM     53  C   UNL A   1      43.490  27.407  32.299  1.00  0.00     0.029 A 
ATOM     54  N   UNL A   1      42.278  29.025  33.256  1.00  0.00    -0.354 N 
ATOM     55  C   UNL A   1      39.016  30.919  31.179  1.00  0.00     0.074 A 
ATOM     56  C   UNL A   1      38.854  30.367  29.852  1.00  0.00     0.031 C 
ATOM     57  C   UNL A   1      43.965  27.591  33.545  1.00  0.00     0.029 A 
ATOM     58  C   UNL A   1      43.230  28.681  34.188  1.00  0.00     0.049 A 
ATOM     59  H   UNL A   1      41.582  29.701  33.425  1.00  0.00     0.167 HD
ATOM     60  C   UNL A   1      38.221  31.886  31.697  1.00  0.00     0.037 A 
ATOM     61  C   UNL A   1      43.493  29.206  35.404  1.00  0.00     0.037 A 
ATOM     62  C   UNL A   1      38.392  32.463  33.002  1.00  0.00     0.049 A 
ATOM     63  C   UNL A   1      42.661  30.357  35.921  1.00  0.00     0.074 A 
ATOM     64  C   UNL A   1      37.640  33.452  33.609  1.00  0.00     0.029 A 
ATOM     65  N   UNL A   1      39.395  32.117  33.894  1.00  0.00    -0.354 N 
ATOM     66  N   UNL A   1      41.625  30.944  35.370  1.00  0.00    -0.248 NA
ATOM     67  C   UNL A   1      43.041  30.922  37.225  1.00  0.00     0.031 C 
ATOM     68  C   UNL A   1      38.219  33.742  34.850  1.00  0.00     0.029 A 
ATOM     69  C   UNL A   1      39.298  32.893  35.038  1.00  0.00     0.049 A 
ATOM     70  H   UNL A   1      40.075  31.422  33.740  1.00  0.00     0.167 HD
ATOM     71  C   UNL A   1      41.212  31.921  36.273  1.00  0.00     0.074 A 
ATOM     72  C   UNL A   1      42.106  31.845  37.408  1.00  0.00     0.031 C 
ATOM     73  C   UNL A   1      40.183  32.801  36.172  1.00  0.00     0.037 A 
BRANCH  60  74
ATOM     74  C   UNL A   1      37.121  32.410  30.819  1.00  0.00     0.058 A 
ATOM     75  C   UNL A   1      37.343  33.442  29.894  1.00  0.00     0.135 A 
ATOM     76  C   UNL A   1      35.826  31.874  30.907  1.00  0.00     0.135 A 
ATOM     77  F   UNL A   1      38.558  34.005  29.786  1.00  0.00    -0.206 F 
ATOM     78  C   UNL A   1      36.311  33.948  29.110  1.00  0.00     0.059 A 
ATOM     79  C   UNL A   1      34.786  32.346  30.115  1.00  0.00     0.059 A 
ATOM     80  F   UNL A   1      35.560  30.891  31.781  1.00  0.00    -0.206 F 
ATOM     81  C   UNL A   1      35.034  33.396  29.232  1.00  0.00     0.060 A 
BRANCH  81  82
ATOM     82  S   UNL A   1      33.700  34.074  28.223  1.00  0.00     0.124 S 
ATOM     83  O   UNL A   1      34.444  34.914  27.288  1.00  0.00    -0.237 OA
ATOM     84  O   UNL A   1      33.099  32.873  27.653  1.00  0.00    -0.237 OA
ATOM     85  O   UNL A   1      32.873  34.789  29.189  1.00  0.00    -0.744 OA
ENDBRANCH  81  82
ENDBRANCH  60  74
BRANCH  61  86
ATOM     86  C   UNL A   1      44.614  28.673  36.227  1.00  0.00     0.058 A 
ATOM     87  C   UNL A   1      44.400  27.646  37.159  1.00  0.00     0.135 A 
ATOM     88  C   UNL A   1      45.910  29.203  36.126  1.00  0.00     0.135 A 
ATOM     89  F   UNL A   1      43.175  27.120  37.308  1.00  0.00    -0.206 F 
ATOM     90  C   UNL A   1      45.425  27.173  37.972  1.00  0.00     0.059 A 
ATOM     91  C   UNL A   1      46.958  28.728  36.909  1.00  0.00     0.059 A 
ATOM     92  F   UNL A   1      46.168  30.186  35.250  1.00  0.00    -0.206 F 
ATOM     93  C   UNL A   1      46.703  27.720  37.837  1.00  0.00     0.060 A 
BRANCH  93  94
ATOM     94  S   UNL A   1      48.038  27.064  38.865  1.00  0.00     0.124 S 
ATOM     95  O   UNL A   1      48.504  28.268  39.543  1.00  0.00    -0.237 OA
ATOM     96  O   UNL A   1      47.333  26.092  39.695  1.00  0.00    -0.237 OA
ATOM     97  O   UNL A   1      48.960  26.491  37.889  1.00  0.00    -0.744 OA
ENDBRANCH  93  94
ENDBRANCH  61  86
BRANCH  73  98
ATOM     98  C   UNL A   1      39.926  33.724  37.334  1.00  0.00     0.058 A 
ATOM     99  C   UNL A   1      40.472  35.015  37.392  1.00  0.00     0.135 A 
ATOM    100  C   UNL A   1      39.061  33.334  38.370  1.00  0.00     0.135 A 
ATOM    101  F   UNL A   1      41.308  35.439  36.432  1.00  0.00    -0.206 F 
ATOM    102  C   UNL A   1      40.187  35.879  38.446  1.00  0.00     0.059 A 
ATOM    103  C   UNL A   1      38.740  34.190  39.419  1.00  0.00     0.059 A 
ATOM    104  F   UNL A   1      38.499  32.115  38.358  1.00  0.00    -0.206 F 
ATOM    105  C   UNL A   1      39.317  35.459  39.454  1.00  0.00     0.060 A 
BRANCH 105 106
ATOM    106  S   UNL A   1      38.922  36.603  40.795  1.00  0.00     0.124 S 
ATOM    107  O   UNL A   1      37.840  35.896  41.475  1.00  0.00    -0.237 OA
ATOM    108  O   UNL A   1      40.184  36.681  41.522  1.00  0.00    -0.237 OA
ATOM    109  O   UNL A   1      38.532  37.824  40.096  1.00  0.00    -0.744 OA
ENDBRANCH 105 106
ENDBRANCH  73  98
ENDBRANCH  47  48
ENDBRANCH  40  42
ENDBRANCH  39  40
ENDBRANCH  38  39
ENDBRANCH  37  38
ENDBRANCH  36  37
ENDBRANCH  35  36
ENDBRANCH   1  35
TORSDOF 24
ENDMDL
MODEL 2
REMARK VINA RESULT:     -11.6      0.972      7.687
REMARK SMILES C[C@H](C(=O)Nc1ccc(C(F)(F)F)cc1)n1nc(C(=O)OCCOCCOCCOC(=O)c2ccc(-c3c4nc(c(-c5c(F)cc(S(=O)(=O)[O-])cc5F)c5ccc([nH]5)c(-c5c(F)cc(S(=O)(=O)[O-])cc5F)c5nc(c(-c6c(F)cc(S(=O)(=O)[O-])cc6F)c6ccc3[nH]6)C=C5)C=C4)cc2)c2ccccc2c1=O
REMARK SMILES IDX 25 1 24 2 23 3 22 4 21 5 19 6 20 7 18 8 16 9 17 10 105 11
REMARK SMILES IDX 104 12 106 13 99 14 103 15 100 16 102 17 101 18 2 19 1 20
REMARK SMILES IDX 3 21 4 22 5 23 6 25 7 26 15 27 8 28 14 29 9 30 10 31 11 32
REMARK SMILES IDX 12 33 13 34 26 35 27 36 28 37 29 38 30 39 31 40 32 41 33 42
REMARK SMILES IDX 34 43 98 44 35 45 97 46 36 47 37 48 38 49 91 50 39 51 96 52
REMARK SMILES IDX 90 53 92 54 40 55 95 56 89 57 88 58 41 60 75 61 54 62 74 63
REMARK SMILES IDX 55 64 58 65 73 66 93 67 56 68 57 69 72 71 94 72 59 73 42 74
REMARK SMILES IDX 43 75 52 76 44 77 45 78 51 79 53 80 46 81 47 82 48 83 49 84
REMARK SMILES IDX 50 85 76 86 77 87 86 88 78 89 79 90 85 91 87 92 80 93 81 94
REMARK SMILES IDX 82 95 83 96 84 97 60 98 61 99 70 100 62 101 63 102 69 103
REMARK SMILES IDX 71 104 64 105 65 106 66 107 67 108 68 109
REMARK H PARENT 5 24 92 59 58 70
REMARK Flexibility Score: inf
ROOT
ATOM      1  C   UNL A   1      41.676  19.445  26.132  1.00  0.00     0.188 C 
ENDROOT
BRANCH   1   2
ATOM      2  O   UNL A   1      40.702  20.439  26.432  1.00  0.00    -0.376 OA
BRANCH   2   3
ATOM      3  C   UNL A   1      39.472  20.323  25.733  1.00  0.00     0.202 C 
BRANCH   3   4
ATOM      4  C   UNL A   1      38.634  21.596  25.820  1.00  0.00     0.261 C 
BRANCH   4   5
ATOM      5  O   UNL A   1      37.387  21.538  25.125  1.00  0.00    -0.458 OA
BRANCH   5   6
ATOM      6  C   UNL A   1      36.806  20.331  25.006  1.00  0.00     0.359 C 
ATOM      7  O   UNL A   1      37.355  19.266  24.814  1.00  0.00    -0.244 OA
BRANCH   6   8
ATOM      8  C   UNL A   1      35.295  20.488  25.069  1.00  0.00     0.176 A 
ATOM      9  N   UNL A   1      33.595  22.016  25.266  1.00  0.00    -0.216 N 
ATOM     10  N   UNL A   1      34.893  21.656  25.455  1.00  0.00    -0.161 NA
ATOM     11  C   UNL A   1      32.651  21.211  24.634  1.00  0.00     0.275 A 
ATOM     12  C   UNL A   1      33.107  19.856  24.237  1.00  0.00     0.051 A 
ATOM     13  O   UNL A   1      31.510  21.575  24.362  1.00  0.00    -0.267 OA
ATOM     14  C   UNL A   1      34.396  19.444  24.569  1.00  0.00     0.022 A 
ATOM     15  C   UNL A   1      32.278  19.001  23.503  1.00  0.00     0.014 A 
ATOM     16  C   UNL A   1      34.797  18.124  24.340  1.00  0.00     0.011 A 
ATOM     17  C   UNL A   1      32.713  17.709  23.190  1.00  0.00     0.001 A 
ATOM     18  C   UNL A   1      33.949  17.256  23.651  1.00  0.00     0.001 A 
BRANCH   9  19
ATOM     19  C   UNL A   1      33.317  23.404  25.631  1.00  0.00     0.197 C 
ATOM     20  C   UNL A   1      34.590  24.237  25.753  1.00  0.00     0.044 C 
BRANCH  19  21
ATOM     21  C   UNL A   1      32.343  23.557  26.820  1.00  0.00     0.249 C 
ATOM     22  O   UNL A   1      32.500  22.905  27.861  1.00  0.00    -0.272 OA
ATOM     23  N   UNL A   1      31.405  24.565  26.867  1.00  0.00    -0.324 N 
ATOM     24  H   UNL A   1      30.849  24.579  27.680  1.00  0.00     0.170 HD
BRANCH  23  25
ATOM     25  C   UNL A   1      31.121  25.571  25.938  1.00  0.00     0.041 A 
ATOM     26  C   UNL A   1      31.621  26.859  26.127  1.00  0.00     0.027 A 
ATOM     27  C   UNL A   1      30.198  25.333  24.917  1.00  0.00     0.027 A 
ATOM     28  C   UNL A   1      31.247  27.890  25.254  1.00  0.00     0.015 A 
ATOM     29  C   UNL A   1      29.847  26.355  24.026  1.00  0.00     0.015 A 
ATOM     30  C   UNL A   1      30.371  27.647  24.182  1.00  0.00     0.056 A 
BRANCH  30  31
ATOM     31  C   UNL A   1      29.962  28.763  23.241  1.00  0.00     0.416 C 
ATOM     32  F   UNL A   1      28.700  28.585  22.762  1.00  0.00    -0.166 F 
ATOM     33  F   UNL A   1      29.958  29.987  23.845  1.00  0.00    -0.166 F 
ATOM     34  F   UNL A   1      30.760  28.882  22.149  1.00  0.00    -0.166 F 
ENDBRANCH  30  31
ENDBRANCH  23  25
ENDBRANCH  19  21
ENDBRANCH   9  19
ENDBRANCH   6   8
ENDBRANCH   5   6
ENDBRANCH   4   5
ENDBRANCH   3   4
ENDBRANCH   2   3
ENDBRANCH   1   2
BRANCH   1  35
ATOM     35  C   UNL A   1      43.113  19.990  25.990  1.00  0.00     0.188 C 
BRANCH  35  36
ATOM     36  O   UNL A   1      43.365  21.233  25.355  1.00  0.00    -0.376 OA
BRANCH  36  37
ATOM     37  C   UNL A   1      44.418  22.044  25.844  1.00  0.00     0.202 C 
BRANCH  37  38
ATOM     38  C   UNL A   1      44.154  23.549  25.999  1.00  0.00     0.261 C 
BRANCH  38  39
ATOM     39  O   UNL A   1      43.310  23.906  27.109  1.00  0.00    -0.460 OA
BRANCH  39  40
ATOM     40  C   UNL A   1      42.022  24.206  26.796  1.00  0.00     0.338 C 
ATOM     41  O   UNL A   1      41.264  23.537  26.113  1.00  0.00    -0.246 OA
BRANCH  40  42
ATOM     42  C   UNL A   1      41.569  25.375  27.592  1.00  0.00     0.060 A 
ATOM     43  C   UNL A   1      42.347  26.543  27.542  1.00  0.00     0.016 A 
ATOM     44  C   UNL A   1      40.421  25.337  28.385  1.00  0.00     0.016 A 
ATOM     45  C   UNL A   1      41.997  27.664  28.298  1.00  0.00     0.010 A 
ATOM     46  C   UNL A   1      40.096  26.447  29.180  1.00  0.00     0.010 A 
ATOM     47  C   UNL A   1      40.901  27.602  29.166  1.00  0.00    -0.014 A 
BRANCH  47  48
ATOM     48  C   UNL A   1      40.759  28.620  30.241  1.00  0.00     0.031 A 
ATOM     49  C   UNL A   1      41.675  28.507  31.434  1.00  0.00     0.074 A 
ATOM     50  C   UNL A   1      39.858  29.617  30.184  1.00  0.00     0.049 A 
ATOM     51  N   UNL A   1      41.701  29.214  32.534  1.00  0.00    -0.248 NA
ATOM     52  C   UNL A   1      42.699  27.450  31.371  1.00  0.00     0.031 C 
ATOM     53  C   UNL A   1      38.952  29.884  29.071  1.00  0.00     0.029 A 
ATOM     54  N   UNL A   1      39.555  30.591  31.106  1.00  0.00    -0.354 N 
ATOM     55  C   UNL A   1      42.737  28.685  33.295  1.00  0.00     0.074 A 
ATOM     56  C   UNL A   1      43.305  27.590  32.540  1.00  0.00     0.031 C 
ATOM     57  C   UNL A   1      38.181  30.944  29.381  1.00  0.00     0.029 A 
ATOM     58  C   UNL A   1      38.511  31.404  30.731  1.00  0.00     0.049 A 
ATOM     59  H   UNL A   1      40.040  30.697  31.957  1.00  0.00     0.167 HD
ATOM     60  C   UNL A   1      43.177  29.068  34.517  1.00  0.00     0.037 A 
ATOM     61  C   UNL A   1      37.878  32.383  31.412  1.00  0.00     0.037 A 
ATOM     62  C   UNL A   1      42.601  30.135  35.290  1.00  0.00     0.049 A 
ATOM     63  C   UNL A   1      38.315  32.724  32.819  1.00  0.00     0.074 A 
ATOM     64  C   UNL A   1      42.976  30.589  36.541  1.00  0.00     0.029 A 
ATOM     65  N   UNL A   1      41.517  30.901  34.893  1.00  0.00    -0.354 N 
ATOM     66  N   UNL A   1      39.304  32.226  33.522  1.00  0.00    -0.248 NA
ATOM     67  C   UNL A   1      37.543  33.757  33.526  1.00  0.00     0.031 C 
ATOM     68  C   UNL A   1      42.085  31.598  36.924  1.00  0.00     0.029 A 
ATOM     69  C   UNL A   1      41.191  31.809  35.887  1.00  0.00     0.049 A 
ATOM     70  H   UNL A   1      41.048  30.816  34.031  1.00  0.00     0.167 HD
ATOM     71  C   UNL A   1      39.291  32.907  34.737  1.00  0.00     0.074 A 
ATOM     72  C   UNL A   1      38.201  33.855  34.673  1.00  0.00     0.031 C 
ATOM     73  C   UNL A   1      40.112  32.762  35.809  1.00  0.00     0.037 A 
BRANCH  60  74
ATOM     74  C   UNL A   1      44.314  28.285  35.111  1.00  0.00     0.058 A 
ATOM     75  C   UNL A   1      44.093  27.206  35.980  1.00  0.00     0.135 A 
ATOM     76  C   UNL A   1      45.643  28.624  34.808  1.00  0.00     0.135 A 
ATOM     77  F   UNL A   1      42.841  26.855  36.320  1.00  0.00    -0.206 F 
ATOM     78  C   UNL A   1      45.151  26.509  36.554  1.00  0.00     0.059 A 
ATOM     79  C   UNL A   1      46.715  27.925  35.350  1.00  0.00     0.059 A 
ATOM     80  F   UNL A   1      45.907  29.654  33.988  1.00  0.00    -0.206 F 
ATOM     81  C   UNL A   1      46.459  26.880  36.237  1.00  0.00     0.060 A 
BRANCH  81  82
ATOM     82  S   UNL A   1      47.823  25.980  37.004  1.00  0.00     0.124 S 
ATOM     83  O   UNL A   1      48.939  26.891  36.768  1.00  0.00    -0.237 OA
ATOM     84  O   UNL A   1      47.381  25.865  38.390  1.00  0.00    -0.237 OA
ATOM     85  O   UNL A   1      47.866  24.728  36.256  1.00  0.00    -0.744 OA
ENDBRANCH  81  82
ENDBRANCH  60  74
BRANCH  61  86
ATOM     86  C   UNL A   1      36.735  33.112  30.794  1.00  0.00     0.058 A 
ATOM     87  C   UNL A   1      35.410  32.735  31.062  1.00  0.00     0.135 A 
ATOM     88  C   UNL A   1      36.943  34.172  29.900  1.00  0.00     0.135 A 
ATOM     89  F   UNL A   1      35.159  31.713  31.896  1.00  0.00    -0.206 F 
ATOM     90  C   UNL A   1      34.333  33.372  30.454  1.00  0.00     0.059 A 
ATOM     91  C   UNL A   1      35.881  34.843  29.299  1.00  0.00     0.059 A 
ATOM     92  F   UNL A   1      38.190  34.573  29.610  1.00  0.00    -0.206 F 
ATOM     93  C   UNL A   1      34.580  34.428  29.575  1.00  0.00     0.060 A 
BRANCH  93  94
ATOM     94  S   UNL A   1      33.171  35.279  28.828  1.00  0.00     0.124 S 
ATOM     95  O   UNL A   1      33.837  36.299  28.026  1.00  0.00    -0.237 OA
ATOM     96  O   UNL A   1      32.523  34.202  28.086  1.00  0.00    -0.237 OA
ATOM     97  O   UNL A   1      32.426  35.770  29.983  1.00  0.00    -0.744 OA
ENDBRANCH  93  94
ENDBRANCH  61  86
BRANCH  73  98
ATOM     98  C   UNL A   1      39.904  33.678  36.988  1.00  0.00     0.058 A 
ATOM     99  C   UNL A   1      40.565  34.910  37.096  1.00  0.00     0.135 A 
ATOM    100  C   UNL A   1      38.974  33.345  37.987  1.00  0.00     0.135 A 
ATOM    101  F   UNL A   1      41.466  35.278  36.172  1.00  0.00    -0.206 F 
ATOM    102  C   UNL A   1      40.328  35.771  38.164  1.00  0.00     0.059 A 
ATOM    103  C   UNL A   1      38.701  34.202  39.049  1.00  0.00     0.059 A 
ATOM    104  F   UNL A   1      38.303  32.184  37.926  1.00  0.00    -0.206 F 
ATOM    105  C   UNL A   1      39.391  35.410  39.135  1.00  0.00     0.060 A 
BRANCH 105 106
ATOM    106  S   UNL A   1      39.062  36.553  40.494  1.00  0.00     0.124 S 
ATOM    107  O   UNL A   1      38.548  37.719  39.780  1.00  0.00    -0.237 OA
ATOM    108  O   UNL A   1      38.086  35.817  41.291  1.00  0.00    -0.237 OA
ATOM    109  O   UNL A   1      40.370  36.726  41.118  1.00  0.00    -0.744 OA
ENDBRANCH 105 106
ENDBRANCH  73  98
ENDBRANCH  47  48
ENDBRANCH  40  42
ENDBRANCH  39  40
ENDBRANCH  38  39
ENDBRANCH  37  38
ENDBRANCH  36  37
ENDBRANCH  35  36
ENDBRANCH   1  35
TORSDOF 24
ENDMDL
MODEL 3
REMARK VINA RESULT:     -10.1      2.391      3.221
REMARK SMILES C[C@H](C(=O)Nc1ccc(C(F)(F)F)cc1)n1nc(C(=O)OCCOCCOCCOC(=O)c2ccc(-c3c4nc(c(-c5c(F)cc(S(=O)(=O)[O-])cc5F)c5ccc([nH]5)c(-c5c(F)cc(S(=O)(=O)[O-])cc5F)c5nc(c(-c6c(F)cc(S(=O)(=O)[O-])cc6F)c6ccc3[nH]6)C=C5)C=C4)cc2)c2ccccc2c1=O
REMARK SMILES IDX 25 1 24 2 23 3 22 4 21 5 19 6 20 7 18 8 16 9 17 10 105 11
REMARK SMILES IDX 104 12 106 13 99 14 103 15 100 16 102 17 101 18 2 19 1 20
REMARK SMILES IDX 3 21 4 22 5 23 6 25 7 26 15 27 8 28 14 29 9 30 10 31 11 32
REMARK SMILES IDX 12 33 13 34 26 35 27 36 28 37 29 38 30 39 31 40 32 41 33 42
REMARK SMILES IDX 34 43 98 44 35 45 97 46 36 47 37 48 38 49 91 50 39 51 96 52
REMARK SMILES IDX 90 53 92 54 40 55 95 56 89 57 88 58 41 60 75 61 54 62 74 63
REMARK SMILES IDX 55 64 58 65 73 66 93 67 56 68 57 69 72 71 94 72 59 73 42 74
REMARK SMILES IDX 43 75 52 76 44 77 45 78 51 79 53 80 46 81 47 82 48 83 49 84
REMARK SMILES IDX 50 85 76 86 77 87 86 88 78 89 79 90 85 91 87 92 80 93 81 94
REMARK SMILES IDX 82 95 83 96 84 97 60 98 61 99 70 100 62 101 63 102 69 103
REMARK SMILES IDX 71 104 64 105 65 106 66 107 67 108 68 109
REMARK H PARENT 5 24 92 59 58 70
REMARK Flexibility Score: inf
ROOT
ATOM      1  C   UNL A   1      41.514  19.380  26.124  1.00  0.00     0.188 C 
ENDROOT
BRANCH   1   2
ATOM      2  O   UNL A   1      40.874  20.648  26.034  1.00  0.00    -0.376 OA
BRANCH   2   3
ATOM      3  C   UNL A   1      39.477  20.649  26.286  1.00  0.00     0.202 C 
BRANCH   3   4
ATOM      4  C   UNL A   1      38.793  21.906  25.756  1.00  0.00     0.261 C 
BRANCH   4   5
ATOM      5  O   UNL A   1      37.592  21.667  25.021  1.00  0.00    -0.458 OA
BRANCH   5   6
ATOM      6  C   UNL A   1      37.100  20.416  25.037  1.00  0.00     0.359 C 
ATOM      7  O   UNL A   1      37.720  19.380  24.902  1.00  0.00    -0.244 OA
BRANCH   6   8
ATOM      8  C   UNL A   1      35.588  20.467  25.174  1.00  0.00     0.176 A 
ATOM      9  N   UNL A   1      33.799  21.870  25.482  1.00  0.00    -0.216 N 
ATOM     10  N   UNL A   1      35.126  21.597  25.603  1.00  0.00    -0.161 NA
ATOM     11  C   UNL A   1      32.882  21.013  24.880  1.00  0.00     0.275 A 
ATOM     12  C   UNL A   1      33.410  19.700  24.434  1.00  0.00     0.051 A 
ATOM     13  O   UNL A   1      31.707  21.302  24.669  1.00  0.00    -0.267 OA
ATOM     14  C   UNL A   1      34.738  19.372  24.697  1.00  0.00     0.022 A 
ATOM     15  C   UNL A   1      32.606  18.802  23.723  1.00  0.00     0.014 A 
ATOM     16  C   UNL A   1      35.217  18.087  24.422  1.00  0.00     0.011 A 
ATOM     17  C   UNL A   1      33.112  17.549  23.363  1.00  0.00     0.001 A 
ATOM     18  C   UNL A   1      34.397  17.175  23.756  1.00  0.00     0.001 A 
BRANCH   9  19
ATOM     19  C   UNL A   1      33.445  23.229  25.888  1.00  0.00     0.197 C 
ATOM     20  C   UNL A   1      34.673  24.116  26.078  1.00  0.00     0.044 C 
BRANCH  19  21
ATOM     21  C   UNL A   1      32.433  23.293  27.053  1.00  0.00     0.249 C 
ATOM     22  O   UNL A   1      32.575  22.588  28.062  1.00  0.00    -0.272 OA
ATOM     23  N   UNL A   1      31.468  24.274  27.126  1.00  0.00    -0.324 N 
ATOM     24  H   UNL A   1      30.888  24.229  27.920  1.00  0.00     0.170 HD
BRANCH  23  25
ATOM     25  C   UNL A   1      31.186  25.323  26.245  1.00  0.00     0.041 A 
ATOM     26  C   UNL A   1      30.267  25.140  25.212  1.00  0.00     0.027 A 
ATOM     27  C   UNL A   1      31.946  26.493  26.292  1.00  0.00     0.027 A 
ATOM     28  C   UNL A   1      30.064  26.155  24.267  1.00  0.00     0.015 A 
ATOM     29  C   UNL A   1      31.723  27.521  25.367  1.00  0.00     0.015 A 
ATOM     30  C   UNL A   1      30.776  27.366  24.345  1.00  0.00     0.056 A 
BRANCH  30  31
ATOM     31  C   UNL A   1      30.563  28.462  23.319  1.00  0.00     0.416 C 
ATOM     32  F   UNL A   1      31.623  29.314  23.259  1.00  0.00    -0.166 F 
ATOM     33  F   UNL A   1      30.406  27.977  22.053  1.00  0.00    -0.166 F 
ATOM     34  F   UNL A   1      29.476  29.239  23.563  1.00  0.00    -0.166 F 
ENDBRANCH  30  31
ENDBRANCH  23  25
ENDBRANCH  19  21
ENDBRANCH   9  19
ENDBRANCH   6   8
ENDBRANCH   5   6
ENDBRANCH   4   5
ENDBRANCH   3   4
ENDBRANCH   2   3
ENDBRANCH   1   2
BRANCH   1  35
ATOM     35  C   UNL A   1      43.053  19.440  26.017  1.00  0.00     0.188 C 
BRANCH  35  36
ATOM     36  O   UNL A   1      43.687  19.906  24.837  1.00  0.00    -0.376 OA
BRANCH  36  37
ATOM     37  C   UNL A   1      44.930  20.575  24.952  1.00  0.00     0.202 C 
BRANCH  37  38
ATOM     38  C   UNL A   1      45.016  22.023  24.448  1.00  0.00     0.261 C 
BRANCH  38  39
ATOM     39  O   UNL A   1      44.654  23.025  25.415  1.00  0.00    -0.460 OA
BRANCH  39  40
ATOM     40  C   UNL A   1      43.340  23.369  25.443  1.00  0.00     0.338 C 
ATOM     41  O   UNL A   1      42.440  22.860  24.794  1.00  0.00    -0.246 OA
BRANCH  40  42
ATOM     42  C   UNL A   1      43.091  24.322  26.554  1.00  0.00     0.060 A 
ATOM     43  C   UNL A   1      43.671  25.598  26.465  1.00  0.00     0.016 A 
ATOM     44  C   UNL A   1      42.325  23.982  27.670  1.00  0.00     0.016 A 
ATOM     45  C   UNL A   1      43.508  26.527  27.495  1.00  0.00     0.010 A 
ATOM     46  C   UNL A   1      42.200  24.900  28.725  1.00  0.00     0.010 A 
ATOM     47  C   UNL A   1      42.818  26.162  28.657  1.00  0.00    -0.014 A 
BRANCH  47  48
ATOM     48  C   UNL A   1      42.976  26.980  29.889  1.00  0.00     0.031 A 
ATOM     49  C   UNL A   1      41.916  28.011  30.184  1.00  0.00     0.074 A 
ATOM     50  C   UNL A   1      44.015  26.831  30.732  1.00  0.00     0.049 A 
ATOM     51  N   UNL A   1      41.861  28.898  31.143  1.00  0.00    -0.248 NA
ATOM     52  C   UNL A   1      40.763  28.039  29.269  1.00  0.00     0.031 C 
ATOM     53  C   UNL A   1      45.079  25.840  30.606  1.00  0.00     0.029 A 
ATOM     54  N   UNL A   1      44.344  27.537  31.865  1.00  0.00    -0.354 N 
ATOM     55  C   UNL A   1      40.673  29.593  30.944  1.00  0.00     0.074 A 
ATOM     56  C   UNL A   1      40.046  29.035  29.765  1.00  0.00     0.031 C 
ATOM     57  C   UNL A   1      45.954  26.010  31.615  1.00  0.00     0.029 A 
ATOM     58  C   UNL A   1      45.535  27.149  32.434  1.00  0.00     0.049 A 
ATOM     59  H   UNL A   1      43.780  28.254  32.236  1.00  0.00     0.167 HD
ATOM     60  C   UNL A   1      40.149  30.610  31.669  1.00  0.00     0.037 A 
ATOM     61  C   UNL A   1      46.217  27.672  33.474  1.00  0.00     0.037 A 
ATOM     62  C   UNL A   1      40.778  31.192  32.823  1.00  0.00     0.049 A 
ATOM     63  C   UNL A   1      45.668  28.876  34.205  1.00  0.00     0.074 A 
ATOM     64  C   UNL A   1      40.326  32.231  33.616  1.00  0.00     0.029 A 
ATOM     65  N   UNL A   1      42.004  30.799  33.337  1.00  0.00    -0.354 N 
ATOM     66  N   UNL A   1      44.538  29.515  34.015  1.00  0.00    -0.248 NA
ATOM     67  C   UNL A   1      46.492  29.433  35.288  1.00  0.00     0.031 C 
ATOM     68  C   UNL A   1      41.302  32.500  34.581  1.00  0.00     0.029 A 
ATOM     69  C   UNL A   1      42.338  31.593  34.422  1.00  0.00     0.049 A 
ATOM     70  H   UNL A   1      42.556  30.064  32.985  1.00  0.00     0.167 HD
ATOM     71  C   UNL A   1      44.503  30.526  34.974  1.00  0.00     0.074 A 
ATOM     72  C   UNL A   1      45.721  30.411  35.745  1.00  0.00     0.031 C 
ATOM     73  C   UNL A   1      43.547  31.462  35.197  1.00  0.00     0.037 A 
BRANCH  60  74
ATOM     74  C   UNL A   1      38.846  31.187  31.194  1.00  0.00     0.058 A 
ATOM     75  C   UNL A   1      38.796  32.189  30.213  1.00  0.00     0.135 A 
ATOM     76  C   UNL A   1      37.632  30.733  31.732  1.00  0.00     0.135 A 
ATOM     77  F   UNL A   1      39.930  32.675  29.682  1.00  0.00    -0.206 F 
ATOM     78  C   UNL A   1      37.587  32.745  29.805  1.00  0.00     0.059 A 
ATOM     79  C   UNL A   1      36.411  31.255  31.321  1.00  0.00     0.059 A 
ATOM     80  F   UNL A   1      37.626  29.781  32.679  1.00  0.00    -0.206 F 
ATOM     81  C   UNL A   1      36.401  32.274  30.369  1.00  0.00     0.060 A 
BRANCH  81  82
ATOM     82  S   UNL A   1      34.841  33.017  29.845  1.00  0.00     0.124 S 
ATOM     83  O   UNL A   1      35.295  34.301  29.319  1.00  0.00    -0.237 OA
ATOM     84  O   UNL A   1      34.358  32.061  28.854  1.00  0.00    -0.237 OA
ATOM     85  O   UNL A   1      34.065  33.083  31.079  1.00  0.00    -0.744 OA
ENDBRANCH  81  82
ENDBRANCH  60  74
BRANCH  61  86
ATOM     86  C   UNL A   1      47.522  27.085  33.890  1.00  0.00     0.058 A 
ATOM     87  C   UNL A   1      47.586  26.116  34.903  1.00  0.00     0.135 A 
ATOM     88  C   UNL A   1      48.729  27.505  33.312  1.00  0.00     0.135 A 
ATOM     89  F   UNL A   1      46.461  25.696  35.501  1.00  0.00    -0.206 F 
ATOM     90  C   UNL A   1      48.801  25.595  35.338  1.00  0.00     0.059 A 
ATOM     91  C   UNL A   1      49.955  26.980  33.711  1.00  0.00     0.059 A 
ATOM     92  F   UNL A   1      48.723  28.429  32.339  1.00  0.00    -0.206 F 
ATOM     93  C   UNL A   1      49.981  26.032  34.733  1.00  0.00     0.060 A 
BRANCH  93  94
ATOM     94  S   UNL A   1      51.549  25.314  35.274  1.00  0.00     0.124 S 
ATOM     95  O   UNL A   1      51.093  24.182  36.071  1.00  0.00    -0.237 OA
ATOM     96  O   UNL A   1      52.188  24.988  34.003  1.00  0.00    -0.237 OA
ATOM     97  O   UNL A   1      52.174  26.402  36.020  1.00  0.00    -0.744 OA
ENDBRANCH  93  94
ENDBRANCH  61  86
BRANCH  73  98
ATOM     98  C   UNL A   1      43.742  32.413  36.349  1.00  0.00     0.058 A 
ATOM     99  C   UNL A   1      43.319  32.101  37.649  1.00  0.00     0.135 A 
ATOM    100  C   UNL A   1      44.428  33.624  36.158  1.00  0.00     0.135 A 
ATOM    101  F   UNL A   1      42.655  30.959  37.888  1.00  0.00    -0.206 F 
ATOM    102  C   UNL A   1      43.550  32.964  38.717  1.00  0.00     0.059 A 
ATOM    103  C   UNL A   1      44.694  34.490  37.215  1.00  0.00     0.059 A 
ATOM    104  F   UNL A   1      44.868  33.967  34.937  1.00  0.00    -0.206 F 
ATOM    105  C   UNL A   1      44.241  34.156  38.490  1.00  0.00     0.060 A 
BRANCH 105 106
ATOM    106  S   UNL A   1      44.571  35.249  39.890  1.00  0.00     0.124 S 
ATOM    107  O   UNL A   1      43.219  35.608  40.308  1.00  0.00    -0.237 OA
ATOM    108  O   UNL A   1      45.307  34.378  40.801  1.00  0.00    -0.237 OA
ATOM    109  O   UNL A   1      45.353  36.331  39.299  1.00  0.00    -0.744 OA
ENDBRANCH 105 106
ENDBRANCH  73  98
ENDBRANCH  47  48
ENDBRANCH  40  42
ENDBRANCH  39  40
ENDBRANCH  38  39
ENDBRANCH  37  38
ENDBRANCH  36  37
ENDBRANCH  35  36
ENDBRANCH   1  35
TORSDOF 24
ENDMDL
