MODEL 1
REMARK VINA RESULT:     -10.0      0.000      0.000
REMARK SMILES CC(C)CN(C)c1cc2c(cc1Cl)C=C(C(=O)OCCOCCOCCOC(=O)c1ccc(-c3c4nc(c(-c5c(F)cc(S(=O)(=O)[O-])cc5F)c5ccc([nH]5)c(-c5c(F)cc(S(=O)(=O)[O-])cc5F)c5nc(c(-c6c(F)cc(S(=O)(=O)[O-])cc6F)c6ccc3[nH]6)C=C5)C=C4)cc1)[C@@H](C(F)(F)F)O2
REMARK SMILES IDX 22 1 21 2 20 3 19 4 18 5 16 6 17 7 15 8 7 9 8 10 12 11 9 12
REMARK SMILES IDX 11 13 13 14 10 15 101 16 14 17 96 18 5 19 6 20 4 21 2 22
REMARK SMILES IDX 1 23 3 24 97 25 98 26 99 27 100 28 23 29 24 30 25 31 26 32
REMARK SMILES IDX 27 33 28 34 29 35 30 36 31 37 95 38 32 39 94 40 33 41 34 42
REMARK SMILES IDX 35 43 88 44 36 45 93 46 87 47 89 48 37 49 92 50 86 51 85 52
REMARK SMILES IDX 38 54 72 55 51 56 71 57 52 58 55 59 70 60 90 61 53 62 54 63
REMARK SMILES IDX 69 65 91 66 56 67 39 68 40 69 49 70 41 71 42 72 48 73 50 74
REMARK SMILES IDX 43 75 44 76 45 77 46 78 47 79 73 80 74 81 83 82 75 83 76 84
REMARK SMILES IDX 82 85 84 86 77 87 78 88 79 89 80 90 81 91 57 92 58 93 67 94
REMARK SMILES IDX 59 95 60 96 66 97 68 98 61 99 62 100 63 101 64 102 65 103
REMARK H PARENT 89 53 55 64
REMARK Flexibility Score: inf
ROOT
ATOM      1  C   UNL A   1      36.813  23.801  25.452  1.00  0.00     0.188 C 
ENDROOT
BRANCH   1   2
ATOM      2  O   UNL A   1      36.972  23.181  24.195  1.00  0.00    -0.376 OA
BRANCH   2   3
ATOM      3  C   UNL A   1      36.674  21.803  24.066  1.00  0.00     0.202 C 
BRANCH   3   4
ATOM      4  C   UNL A   1      35.489  21.131  24.793  1.00  0.00     0.261 C 
BRANCH   4   5
ATOM      5  O   UNL A   1      34.318  21.928  25.020  1.00  0.00    -0.460 OA
BRANCH   5   6
ATOM      6  C   UNL A   1      33.280  21.698  24.189  1.00  0.00     0.338 C 
ATOM      7  O   UNL A   1      32.909  20.606  23.785  1.00  0.00    -0.246 OA
BRANCH   6   8
ATOM      8  C   UNL A   1      32.545  22.952  23.936  1.00  0.00     0.087 C 
ATOM      9  C   UNL A   1      31.531  27.833  23.267  1.00  0.00     0.059 A 
ATOM     10  C   UNL A   1      30.734  26.697  23.537  1.00  0.00     0.074 A 
ATOM     11  C   UNL A   1      32.902  27.601  23.012  1.00  0.00     0.065 A 
ATOM     12  C   UNL A   1      31.288  25.406  23.572  1.00  0.00     0.130 A 
ATOM     13  C   UNL A   1      33.415  26.307  22.904  1.00  0.00     0.034 A 
ATOM     14  Cl  UNL A   1      34.087  28.861  22.995  1.00  0.00    -0.082 Cl
ATOM     15  C   UNL A   1      32.618  25.213  23.214  1.00  0.00     0.019 A 
ATOM     16  O   UNL A   1      30.483  24.372  23.979  1.00  0.00    -0.475 OA
ATOM     17  C   UNL A   1      33.226  23.900  23.286  1.00  0.00     0.027 C 
ATOM     18  C   UNL A   1      31.141  23.147  24.446  1.00  0.00     0.316 C 
BRANCH   9  19
ATOM     19  N   UNL A   1      30.994  29.127  23.336  1.00  0.00    -0.373 N 
ATOM     20  C   UNL A   1      31.165  29.820  24.609  1.00  0.00     0.143 C 
BRANCH  19  21
ATOM     21  C   UNL A   1      29.805  29.481  22.529  1.00  0.00     0.119 C 
BRANCH  21  22
ATOM     22  C   UNL A   1      28.554  29.804  23.373  1.00  0.00     0.002 C 
ATOM     23  C   UNL A   1      28.244  31.304  23.374  1.00  0.00     0.009 C 
ATOM     24  C   UNL A   1      27.312  29.045  22.895  1.00  0.00     0.009 C 
ENDBRANCH  21  22
ENDBRANCH  19  21
ENDBRANCH   9  19
BRANCH  18  25
ATOM     25  C   UNL A   1      31.089  23.062  25.977  1.00  0.00     0.430 C 
ATOM     26  F   UNL A   1      31.218  21.784  26.409  1.00  0.00    -0.167 F 
ATOM     27  F   UNL A   1      32.103  23.763  26.542  1.00  0.00    -0.167 F 
ATOM     28  F   UNL A   1      29.933  23.546  26.482  1.00  0.00    -0.167 F 
ENDBRANCH  18  25
ENDBRANCH   6   8
ENDBRANCH   5   6
ENDBRANCH   4   5
ENDBRANCH   3   4
ENDBRANCH   2   3
ENDBRANCH   1   2
BRANCH   1  29
ATOM     29  C   UNL A   1      37.922  23.414  26.455  1.00  0.00     0.188 C 
BRANCH  29  30
ATOM     30  O   UNL A   1      39.015  22.610  26.028  1.00  0.00    -0.376 OA
BRANCH  30  31
ATOM     31  C   UNL A   1      40.085  22.364  26.935  1.00  0.00     0.202 C 
BRANCH  31  32
ATOM     32  C   UNL A   1      41.551  22.618  26.531  1.00  0.00     0.261 C 
BRANCH  32  33
ATOM     33  O   UNL A   1      42.279  23.563  27.327  1.00  0.00    -0.460 OA
BRANCH  33  34
ATOM     34  C   UNL A   1      42.501  24.778  26.756  1.00  0.00     0.338 C 
ATOM     35  O   UNL A   1      42.788  25.003  25.594  1.00  0.00    -0.246 OA
BRANCH  34  36
ATOM     36  C   UNL A   1      42.124  25.828  27.728  1.00  0.00     0.060 A 
ATOM     37  C   UNL A   1      40.997  25.679  28.535  1.00  0.00     0.016 A 
ATOM     38  C   UNL A   1      42.912  26.987  27.814  1.00  0.00     0.016 A 
ATOM     39  C   UNL A   1      40.669  26.688  29.444  1.00  0.00     0.010 A 
ATOM     40  C   UNL A   1      42.569  28.004  28.708  1.00  0.00     0.010 A 
ATOM     41  C   UNL A   1      41.455  27.853  29.545  1.00  0.00    -0.014 A 
BRANCH  41  42
ATOM     42  C   UNL A   1      41.210  28.811  30.651  1.00  0.00     0.031 A 
ATOM     43  C   UNL A   1      40.130  29.847  30.590  1.00  0.00     0.074 A 
ATOM     44  C   UNL A   1      42.003  28.729  31.736  1.00  0.00     0.049 A 
ATOM     45  N   UNL A   1      39.722  30.660  31.531  1.00  0.00    -0.248 NA
ATOM     46  C   UNL A   1      39.423  29.999  29.312  1.00  0.00     0.031 C 
ATOM     47  C   UNL A   1      43.119  27.793  31.883  1.00  0.00     0.029 A 
ATOM     48  N   UNL A   1      41.988  29.422  32.917  1.00  0.00    -0.354 N 
ATOM     49  C   UNL A   1      38.695  31.409  30.973  1.00  0.00     0.074 A 
ATOM     50  C   UNL A   1      38.578  30.985  29.591  1.00  0.00     0.031 C 
ATOM     51  C   UNL A   1      43.661  27.947  33.099  1.00  0.00     0.029 A 
ATOM     52  C   UNL A   1      42.946  29.006  33.809  1.00  0.00     0.049 A 
ATOM     53  H   UNL A   1      41.351  30.149  33.109  1.00  0.00     0.167 HD
ATOM     54  C   UNL A   1      37.917  32.347  31.567  1.00  0.00     0.037 A 
ATOM     55  C   UNL A   1      43.216  29.415  35.063  1.00  0.00     0.037 A 
ATOM     56  C   UNL A   1      38.065  32.776  32.937  1.00  0.00     0.049 A 
ATOM     57  C   UNL A   1      42.358  30.472  35.694  1.00  0.00     0.074 A 
ATOM     58  C   UNL A   1      37.287  33.677  33.645  1.00  0.00     0.029 A 
ATOM     59  N   UNL A   1      39.070  32.361  33.801  1.00  0.00    -0.354 N 
ATOM     60  N   UNL A   1      41.321  31.098  35.188  1.00  0.00    -0.248 NA
ATOM     61  C   UNL A   1      42.697  30.874  37.064  1.00  0.00     0.031 C 
ATOM     62  C   UNL A   1      37.856  33.853  34.912  1.00  0.00     0.029 A 
ATOM     63  C   UNL A   1      38.957  33.017  35.019  1.00  0.00     0.049 A 
ATOM     64  H   UNL A   1      39.764  31.698  33.581  1.00  0.00     0.167 HD
ATOM     65  C   UNL A   1      40.876  31.961  36.183  1.00  0.00     0.074 A 
ATOM     66  C   UNL A   1      41.745  31.762  37.326  1.00  0.00     0.031 C 
ATOM     67  C   UNL A   1      39.839  32.835  36.149  1.00  0.00     0.037 A 
BRANCH  54  68
ATOM     68  C   UNL A   1      36.832  32.984  30.737  1.00  0.00     0.058 A 
ATOM     69  C   UNL A   1      37.113  34.013  29.823  1.00  0.00     0.135 A 
ATOM     70  C   UNL A   1      35.504  32.531  30.818  1.00  0.00     0.135 A 
ATOM     71  F   UNL A   1      38.362  34.489  29.703  1.00  0.00    -0.206 F 
ATOM     72  C   UNL A   1      36.113  34.594  29.049  1.00  0.00     0.059 A 
ATOM     73  C   UNL A   1      34.492  33.079  30.033  1.00  0.00     0.059 A 
ATOM     74  F   UNL A   1      35.178  31.543  31.667  1.00  0.00    -0.206 F 
ATOM     75  C   UNL A   1      34.804  34.122  29.164  1.00  0.00     0.060 A 
BRANCH  75  76
ATOM     76  S   UNL A   1      33.520  34.905  28.166  1.00  0.00     0.124 S 
ATOM     77  O   UNL A   1      34.258  35.236  26.950  1.00  0.00    -0.237 OA
ATOM     78  O   UNL A   1      32.533  33.837  28.036  1.00  0.00    -0.237 OA
ATOM     79  O   UNL A   1      33.104  36.045  28.976  1.00  0.00    -0.744 OA
ENDBRANCH  75  76
ENDBRANCH  54  68
BRANCH  55  80
ATOM     80  C   UNL A   1      44.331  28.768  35.801  1.00  0.00     0.058 A 
ATOM     81  C   UNL A   1      45.625  29.302  35.764  1.00  0.00     0.135 A 
ATOM     82  C   UNL A   1      44.099  27.664  36.637  1.00  0.00     0.135 A 
ATOM     83  F   UNL A   1      45.895  30.354  34.975  1.00  0.00    -0.206 F 
ATOM     84  C   UNL A   1      46.649  28.777  36.544  1.00  0.00     0.059 A 
ATOM     85  C   UNL A   1      45.100  27.136  37.444  1.00  0.00     0.059 A 
ATOM     86  F   UNL A   1      42.870  27.129  36.718  1.00  0.00    -0.206 F 
ATOM     87  C   UNL A   1      46.372  27.704  37.394  1.00  0.00     0.060 A 
BRANCH  87  88
ATOM     88  S   UNL A   1      47.683  27.107  38.483  1.00  0.00     0.124 S 
ATOM     89  O   UNL A   1      48.818  27.040  37.571  1.00  0.00    -0.237 OA
ATOM     90  O   UNL A   1      47.737  28.159  39.495  1.00  0.00    -0.237 OA
ATOM     91  O   UNL A   1      47.173  25.823  38.952  1.00  0.00    -0.744 OA
ENDBRANCH  87  88
ENDBRANCH  55  80
BRANCH  67  92
ATOM     92  C   UNL A   1      39.583  33.662  37.382  1.00  0.00     0.058 A 
ATOM     93  C   UNL A   1      38.719  33.220  38.396  1.00  0.00     0.135 A 
ATOM     94  C   UNL A   1      40.258  34.877  37.583  1.00  0.00     0.135 A 
ATOM     95  F   UNL A   1      38.039  32.071  38.254  1.00  0.00    -0.206 F 
ATOM     96  C   UNL A   1      38.523  33.959  39.560  1.00  0.00     0.059 A 
ATOM     97  C   UNL A   1      40.100  35.619  38.751  1.00  0.00     0.059 A 
ATOM     98  F   UNL A   1      41.100  35.346  36.649  1.00  0.00    -0.206 F 
ATOM     99  C   UNL A   1      39.223  35.154  39.731  1.00  0.00     0.060 A 
BRANCH  99 100
ATOM    100  S   UNL A   1      38.992  36.078  41.265  1.00  0.00     0.124 S 
ATOM    101  O   UNL A   1      40.243  35.807  41.966  1.00  0.00    -0.237 OA
ATOM    102  O   UNL A   1      38.820  37.445  40.781  1.00  0.00    -0.237 OA
ATOM    103  O   UNL A   1      37.801  35.472  41.853  1.00  0.00    -0.744 OA
ENDBRANCH  99 100
ENDBRANCH  67  92
ENDBRANCH  41  42
ENDBRANCH  34  36
ENDBRANCH  33  34
ENDBRANCH  32  33
ENDBRANCH  31  32
ENDBRANCH  30  31
ENDBRANCH  29  30
ENDBRANCH   1  29
TORSDOF 24
ENDMDL
MODEL 2
REMARK VINA RESULT:      -9.5      3.652      4.871
REMARK SMILES CC(C)CN(C)c1cc2c(cc1Cl)C=C(C(=O)OCCOCCOCCOC(=O)c1ccc(-c3c4nc(c(-c5c(F)cc(S(=O)(=O)[O-])cc5F)c5ccc([nH]5)c(-c5c(F)cc(S(=O)(=O)[O-])cc5F)c5nc(c(-c6c(F)cc(S(=O)(=O)[O-])cc6F)c6ccc3[nH]6)C=C5)C=C4)cc1)[C@@H](C(F)(F)F)O2
REMARK SMILES IDX 22 1 21 2 20 3 19 4 18 5 16 6 17 7 15 8 7 9 8 10 12 11 9 12
REMARK SMILES IDX 11 13 13 14 10 15 101 16 14 17 96 18 5 19 6 20 4 21 2 22
REMARK SMILES IDX 1 23 3 24 97 25 98 26 99 27 100 28 23 29 24 30 25 31 26 32
REMARK SMILES IDX 27 33 28 34 29 35 30 36 31 37 95 38 32 39 94 40 33 41 34 42
REMARK SMILES IDX 35 43 88 44 36 45 93 46 87 47 89 48 37 49 92 50 86 51 85 52
REMARK SMILES IDX 38 54 72 55 51 56 71 57 52 58 55 59 70 60 90 61 53 62 54 63
REMARK SMILES IDX 69 65 91 66 56 67 39 68 40 69 49 70 41 71 42 72 48 73 50 74
REMARK SMILES IDX 43 75 44 76 45 77 46 78 47 79 73 80 74 81 83 82 75 83 76 84
REMARK SMILES IDX 82 85 84 86 77 87 78 88 79 89 80 90 81 91 57 92 58 93 67 94
REMARK SMILES IDX 59 95 60 96 66 97 68 98 61 99 62 100 63 101 64 102 65 103
REMARK H PARENT 89 53 55 64
REMARK Flexibility Score: inf
ROOT
ATOM      1  C   UNL A   1      37.079  23.560  25.479  1.00  0.00     0.188 C 
ENDROOT
BRANCH   1   2
ATOM      2  O   UNL A   1      37.094  23.146  24.131  1.00  0.00    -0.376 OA
BRANCH   2   3
ATOM      3  C   UNL A   1      36.529  21.893  23.792  1.00  0.00     0.202 C 
BRANCH   3   4
ATOM      4  C   UNL A   1      35.498  21.170  24.684  1.00  0.00     0.261 C 
BRANCH   4   5
ATOM      5  O   UNL A   1      34.280  21.866  24.981  1.00  0.00    -0.460 OA
BRANCH   5   6
ATOM      6  C   UNL A   1      33.249  21.633  24.142  1.00  0.00     0.338 C 
ATOM      7  O   UNL A   1      32.859  20.537  23.767  1.00  0.00    -0.246 OA
BRANCH   6   8
ATOM      8  C   UNL A   1      32.546  22.895  23.839  1.00  0.00     0.087 C 
ATOM      9  C   UNL A   1      31.628  27.786  23.112  1.00  0.00     0.059 A 
ATOM     10  C   UNL A   1      30.803  26.657  23.317  1.00  0.00     0.074 A 
ATOM     11  C   UNL A   1      33.012  27.542  22.960  1.00  0.00     0.065 A 
ATOM     12  C   UNL A   1      31.341  25.361  23.389  1.00  0.00     0.130 A 
ATOM     13  C   UNL A   1      33.521  26.245  22.887  1.00  0.00     0.034 A 
ATOM     14  Cl  UNL A   1      34.206  28.792  23.037  1.00  0.00    -0.082 Cl
ATOM     15  C   UNL A   1      32.693  25.157  23.132  1.00  0.00     0.019 A 
ATOM     16  O   UNL A   1      30.499  24.332  23.731  1.00  0.00    -0.475 OA
ATOM     17  C   UNL A   1      33.282  23.838  23.245  1.00  0.00     0.027 C 
ATOM     18  C   UNL A   1      31.109  23.101  24.242  1.00  0.00     0.316 C 
BRANCH   9  19
ATOM     19  N   UNL A   1      31.099  29.084  23.145  1.00  0.00    -0.373 N 
ATOM     20  C   UNL A   1      31.043  29.717  24.458  1.00  0.00     0.143 C 
BRANCH  19  21
ATOM     21  C   UNL A   1      30.078  29.496  22.154  1.00  0.00     0.119 C 
BRANCH  21  22
ATOM     22  C   UNL A   1      28.954  30.371  22.747  1.00  0.00     0.002 C 
ATOM     23  C   UNL A   1      28.742  31.649  21.929  1.00  0.00     0.009 C 
ATOM     24  C   UNL A   1      27.620  29.624  22.849  1.00  0.00     0.009 C 
ENDBRANCH  21  22
ENDBRANCH  19  21
ENDBRANCH   9  19
BRANCH  18  25
ATOM     25  C   UNL A   1      30.941  23.012  25.764  1.00  0.00     0.430 C 
ATOM     26  F   UNL A   1      30.414  21.820  26.138  1.00  0.00    -0.167 F 
ATOM     27  F   UNL A   1      32.135  23.120  26.397  1.00  0.00    -0.167 F 
ATOM     28  F   UNL A   1      30.137  23.981  26.252  1.00  0.00    -0.167 F 
ENDBRANCH  18  25
ENDBRANCH   6   8
ENDBRANCH   5   6
ENDBRANCH   4   5
ENDBRANCH   3   4
ENDBRANCH   2   3
ENDBRANCH   1   2
BRANCH   1  29
ATOM     29  C   UNL A   1      38.249  22.972  26.299  1.00  0.00     0.188 C 
BRANCH  29  30
ATOM     30  O   UNL A   1      39.146  22.049  25.693  1.00  0.00    -0.376 OA
BRANCH  30  31
ATOM     31  C   UNL A   1      39.129  20.691  26.120  1.00  0.00     0.202 C 
BRANCH  31  32
ATOM     32  C   UNL A   1      39.982  19.619  25.412  1.00  0.00     0.261 C 
BRANCH  32  33
ATOM     33  O   UNL A   1      41.139  19.153  26.119  1.00  0.00    -0.460 OA
BRANCH  33  34
ATOM     34  C   UNL A   1      42.308  19.786  25.833  1.00  0.00     0.338 C 
ATOM     35  O   UNL A   1      43.164  19.430  25.044  1.00  0.00    -0.246 OA
BRANCH  34  36
ATOM     36  C   UNL A   1      42.291  21.117  26.481  1.00  0.00     0.060 A 
ATOM     37  C   UNL A   1      42.023  21.240  27.844  1.00  0.00     0.016 A 
ATOM     38  C   UNL A   1      42.535  22.256  25.699  1.00  0.00     0.016 A 
ATOM     39  C   UNL A   1      42.016  22.510  28.427  1.00  0.00     0.010 A 
ATOM     40  C   UNL A   1      42.505  23.526  26.280  1.00  0.00     0.010 A 
ATOM     41  C   UNL A   1      42.266  23.660  27.654  1.00  0.00    -0.014 A 
BRANCH  41  42
ATOM     42  C   UNL A   1      42.456  24.969  28.326  1.00  0.00     0.031 A 
ATOM     43  C   UNL A   1      41.374  26.003  28.391  1.00  0.00     0.074 A 
ATOM     44  C   UNL A   1      43.655  25.215  28.888  1.00  0.00     0.049 A 
ATOM     45  N   UNL A   1      41.359  27.131  29.053  1.00  0.00    -0.248 NA
ATOM     46  C   UNL A   1      40.159  25.746  27.607  1.00  0.00     0.031 C 
ATOM     47  C   UNL A   1      44.798  24.303  28.841  1.00  0.00     0.029 A 
ATOM     48  N   UNL A   1      44.108  26.286  29.613  1.00  0.00    -0.354 N 
ATOM     49  C   UNL A   1      40.127  27.715  28.789  1.00  0.00     0.074 A 
ATOM     50  C   UNL A   1      39.442  26.835  27.862  1.00  0.00     0.031 C 
ATOM     51  C   UNL A   1      45.812  24.837  29.538  1.00  0.00     0.029 A 
ATOM     52  C   UNL A   1      45.397  26.137  30.061  1.00  0.00     0.049 A 
ATOM     53  H   UNL A   1      43.561  27.085  29.795  1.00  0.00     0.167 HD
ATOM     54  C   UNL A   1      39.615  28.867  29.289  1.00  0.00     0.037 A 
ATOM     55  C   UNL A   1      46.162  26.945  30.819  1.00  0.00     0.037 A 
ATOM     56  C   UNL A   1      40.322  29.746  30.190  1.00  0.00     0.049 A 
ATOM     57  C   UNL A   1      45.586  28.227  31.343  1.00  0.00     0.074 A 
ATOM     58  C   UNL A   1      39.866  30.904  30.797  1.00  0.00     0.029 A 
ATOM     59  N   UNL A   1      41.641  29.585  30.594  1.00  0.00    -0.354 N 
ATOM     60  N   UNL A   1      44.379  28.716  31.171  1.00  0.00    -0.248 NA
ATOM     61  C   UNL A   1      46.465  29.064  32.168  1.00  0.00     0.031 C 
ATOM     62  C   UNL A   1      40.923  31.474  31.514  1.00  0.00     0.029 A 
ATOM     63  C   UNL A   1      42.026  30.642  31.408  1.00  0.00     0.049 A 
ATOM     64  H   UNL A   1      42.220  28.829  30.340  1.00  0.00     0.167 HD
ATOM     65  C   UNL A   1      44.351  29.914  31.876  1.00  0.00     0.074 A 
ATOM     66  C   UNL A   1      45.655  30.065  32.492  1.00  0.00     0.031 C 
ATOM     67  C   UNL A   1      43.334  30.803  32.001  1.00  0.00     0.037 A 
BRANCH  54  68
ATOM     68  C   UNL A   1      38.221  29.254  28.869  1.00  0.00     0.058 A 
ATOM     69  C   UNL A   1      37.936  29.674  27.559  1.00  0.00     0.135 A 
ATOM     70  C   UNL A   1      37.146  29.159  29.769  1.00  0.00     0.135 A 
ATOM     71  F   UNL A   1      38.923  29.786  26.655  1.00  0.00    -0.206 F 
ATOM     72  C   UNL A   1      36.647  30.020  27.168  1.00  0.00     0.059 A 
ATOM     73  C   UNL A   1      35.842  29.474  29.392  1.00  0.00     0.059 A 
ATOM     74  F   UNL A   1      37.355  28.755  31.032  1.00  0.00    -0.206 F 
ATOM     75  C   UNL A   1      35.606  29.921  28.093  1.00  0.00     0.060 A 
BRANCH  75  76
ATOM     76  S   UNL A   1      33.945  30.396  27.571  1.00  0.00     0.124 S 
ATOM     77  O   UNL A   1      34.099  30.440  26.119  1.00  0.00    -0.237 OA
ATOM     78  O   UNL A   1      33.131  29.301  28.088  1.00  0.00    -0.237 OA
ATOM     79  O   UNL A   1      33.740  31.688  28.217  1.00  0.00    -0.744 OA
ENDBRANCH  75  76
ENDBRANCH  54  68
BRANCH  55  80
ATOM     80  C   UNL A   1      47.543  26.513  31.155  1.00  0.00     0.058 A 
ATOM     81  C   UNL A   1      48.634  26.915  30.373  1.00  0.00     0.135 A 
ATOM     82  C   UNL A   1      47.807  25.775  32.321  1.00  0.00     0.135 A 
ATOM     83  F   UNL A   1      48.429  27.617  29.247  1.00  0.00    -0.206 F 
ATOM     84  C   UNL A   1      49.941  26.618  30.743  1.00  0.00     0.059 A 
ATOM     85  C   UNL A   1      49.106  25.486  32.724  1.00  0.00     0.059 A 
ATOM     86  F   UNL A   1      46.795  25.382  33.110  1.00  0.00    -0.206 F 
ATOM     87  C   UNL A   1      50.167  25.918  31.930  1.00  0.00     0.060 A 
BRANCH  87  88
ATOM     88  S   UNL A   1      51.872  25.639  32.454  1.00  0.00     0.124 S 
ATOM     89  O   UNL A   1      51.766  24.354  33.135  1.00  0.00    -0.237 OA
ATOM     90  O   UNL A   1      52.582  25.630  31.178  1.00  0.00    -0.237 OA
ATOM     91  O   UNL A   1      52.154  26.786  33.311  1.00  0.00    -0.744 OA
ENDBRANCH  87  88
ENDBRANCH  55  80
BRANCH  67  92
ATOM     92  C   UNL A   1      43.583  32.036  32.829  1.00  0.00     0.058 A 
ATOM     93  C   UNL A   1      44.046  33.229  32.249  1.00  0.00     0.135 A 
ATOM     94  C   UNL A   1      43.293  32.049  34.203  1.00  0.00     0.135 A 
ATOM     95  F   UNL A   1      44.349  33.273  30.942  1.00  0.00    -0.206 F 
ATOM     96  C   UNL A   1      44.225  34.384  33.005  1.00  0.00     0.059 A 
ATOM     97  C   UNL A   1      43.437  33.200  34.973  1.00  0.00     0.059 A 
ATOM     98  F   UNL A   1      42.842  30.939  34.809  1.00  0.00    -0.206 F 
ATOM     99  C   UNL A   1      43.912  34.362  34.365  1.00  0.00     0.060 A 
BRANCH  99 100
ATOM    100  S   UNL A   1      44.108  35.881  35.321  1.00  0.00     0.124 S 
ATOM    101  O   UNL A   1      44.971  36.671  34.447  1.00  0.00    -0.237 OA
ATOM    102  O   UNL A   1      42.731  36.350  35.444  1.00  0.00    -0.237 OA
ATOM    103  O   UNL A   1      44.724  35.426  36.564  1.00  0.00    -0.744 OA
ENDBRANCH  99 100
ENDBRANCH  67  92
ENDBRANCH  41  42
ENDBRANCH  34  36
ENDBRANCH  33  34
ENDBRANCH  32  33
ENDBRANCH  31  32
ENDBRANCH  30  31
ENDBRANCH  29  30
ENDBRANCH   1  29
TORSDOF 24
ENDMDL
MODEL 3
REMARK VINA RESULT:      -9.5      5.722      7.458
REMARK SMILES CC(C)CN(C)c1cc2c(cc1Cl)C=C(C(=O)OCCOCCOCCOC(=O)c1ccc(-c3c4nc(c(-c5c(F)cc(S(=O)(=O)[O-])cc5F)c5ccc([nH]5)c(-c5c(F)cc(S(=O)(=O)[O-])cc5F)c5nc(c(-c6c(F)cc(S(=O)(=O)[O-])cc6F)c6ccc3[nH]6)C=C5)C=C4)cc1)[C@@H](C(F)(F)F)O2
REMARK SMILES IDX 22 1 21 2 20 3 19 4 18 5 16 6 17 7 15 8 7 9 8 10 12 11 9 12
REMARK SMILES IDX 11 13 13 14 10 15 101 16 14 17 96 18 5 19 6 20 4 21 2 22
REMARK SMILES IDX 1 23 3 24 97 25 98 26 99 27 100 28 23 29 24 30 25 31 26 32
REMARK SMILES IDX 27 33 28 34 29 35 30 36 31 37 95 38 32 39 94 40 33 41 34 42
REMARK SMILES IDX 35 43 88 44 36 45 93 46 87 47 89 48 37 49 92 50 86 51 85 52
REMARK SMILES IDX 38 54 72 55 51 56 71 57 52 58 55 59 70 60 90 61 53 62 54 63
REMARK SMILES IDX 69 65 91 66 56 67 39 68 40 69 49 70 41 71 42 72 48 73 50 74
REMARK SMILES IDX 43 75 44 76 45 77 46 78 47 79 73 80 74 81 83 82 75 83 76 84
REMARK SMILES IDX 82 85 84 86 77 87 78 88 79 89 80 90 81 91 57 92 58 93 67 94
REMARK SMILES IDX 59 95 60 96 66 97 68 98 61 99 62 100 63 101 64 102 65 103
REMARK H PARENT 89 53 55 64
REMARK Flexibility Score: inf
ROOT
ATOM      1  C   UNL A   1      44.231  22.672  26.523  1.00  0.00     0.188 C 
ENDROOT
BRANCH   1   2
ATOM      2  O   UNL A   1      42.970  22.106  26.799  1.00  0.00    -0.376 OA
BRANCH   2   3
ATOM      3  C   UNL A   1      42.162  22.687  27.806  1.00  0.00     0.202 C 
BRANCH   3   4
ATOM      4  C   UNL A   1      41.567  24.106  27.686  1.00  0.00     0.261 C 
BRANCH   4   5
ATOM      5  O   UNL A   1      41.823  25.021  28.760  1.00  0.00    -0.460 OA
BRANCH   5   6
ATOM      6  C   UNL A   1      42.705  26.008  28.495  1.00  0.00     0.338 C 
ATOM      7  O   UNL A   1      43.784  25.878  27.936  1.00  0.00    -0.246 OA
BRANCH   6   8
ATOM      8  C   UNL A   1      42.122  27.317  28.846  1.00  0.00     0.087 C 
ATOM      9  C   UNL A   1      39.293  30.838  31.059  1.00  0.00     0.059 A 
ATOM     10  C   UNL A   1      40.069  30.808  29.878  1.00  0.00     0.074 A 
ATOM     11  C   UNL A   1      39.371  29.704  31.899  1.00  0.00     0.065 A 
ATOM     12  C   UNL A   1      40.860  29.694  29.551  1.00  0.00     0.130 A 
ATOM     13  C   UNL A   1      40.267  28.665  31.643  1.00  0.00     0.034 A 
ATOM     14  Cl  UNL A   1      38.260  29.408  33.193  1.00  0.00    -0.082 Cl
ATOM     15  C   UNL A   1      40.987  28.644  30.455  1.00  0.00     0.019 A 
ATOM     16  O   UNL A   1      41.474  29.679  28.323  1.00  0.00    -0.475 OA
ATOM     17  C   UNL A   1      41.758  27.464  30.123  1.00  0.00     0.027 C 
ATOM     18  C   UNL A   1      41.905  28.378  27.799  1.00  0.00     0.316 C 
BRANCH   9  19
ATOM     19  N   UNL A   1      38.427  31.908  31.328  1.00  0.00    -0.373 N 
ATOM     20  C   UNL A   1      38.812  32.776  32.436  1.00  0.00     0.143 C 
BRANCH  19  21
ATOM     21  C   UNL A   1      36.980  31.783  31.040  1.00  0.00     0.119 C 
BRANCH  21  22
ATOM     22  C   UNL A   1      36.395  32.983  30.265  1.00  0.00     0.002 C 
ATOM     23  C   UNL A   1      37.250  33.339  29.046  1.00  0.00     0.009 C 
ATOM     24  C   UNL A   1      34.955  32.737  29.803  1.00  0.00     0.009 C 
ENDBRANCH  21  22
ENDBRANCH  19  21
ENDBRANCH   9  19
BRANCH  18  25
ATOM     25  C   UNL A   1      40.940  27.894  26.709  1.00  0.00     0.430 C 
ATOM     26  F   UNL A   1      39.959  27.114  27.223  1.00  0.00    -0.167 F 
ATOM     27  F   UNL A   1      40.323  28.938  26.101  1.00  0.00    -0.167 F 
ATOM     28  F   UNL A   1      41.564  27.180  25.747  1.00  0.00    -0.167 F 
ENDBRANCH  18  25
ENDBRANCH   6   8
ENDBRANCH   5   6
ENDBRANCH   4   5
ENDBRANCH   3   4
ENDBRANCH   2   3
ENDBRANCH   1   2
BRANCH   1  29
ATOM     29  C   UNL A   1      44.267  23.426  25.175  1.00  0.00     0.188 C 
BRANCH  29  30
ATOM     30  O   UNL A   1      45.075  24.588  25.033  1.00  0.00    -0.376 OA
BRANCH  30  31
ATOM     31  C   UNL A   1      46.460  24.507  25.352  1.00  0.00     0.202 C 
BRANCH  31  32
ATOM     32  C   UNL A   1      47.536  25.052  24.391  1.00  0.00     0.261 C 
BRANCH  32  33
ATOM     33  O   UNL A   1      48.097  26.331  24.718  1.00  0.00    -0.460 OA
BRANCH  33  34
ATOM     34  C   UNL A   1      47.422  27.415  24.252  1.00  0.00     0.338 C 
ATOM     35  O   UNL A   1      47.168  27.680  23.091  1.00  0.00    -0.246 OA
BRANCH  34  36
ATOM     36  C   UNL A   1      46.841  28.138  25.405  1.00  0.00     0.060 A 
ATOM     37  C   UNL A   1      45.461  28.177  25.597  1.00  0.00     0.016 A 
ATOM     38  C   UNL A   1      47.702  28.797  26.297  1.00  0.00     0.016 A 
ATOM     39  C   UNL A   1      44.943  28.867  26.697  1.00  0.00     0.010 A 
ATOM     40  C   UNL A   1      47.180  29.503  27.383  1.00  0.00     0.010 A 
ATOM     41  C   UNL A   1      45.796  29.526  27.603  1.00  0.00    -0.014 A 
BRANCH  41  42
ATOM     42  C   UNL A   1      45.244  30.073  28.866  1.00  0.00     0.031 A 
ATOM     43  C   UNL A   1      44.762  31.486  28.986  1.00  0.00     0.074 A 
ATOM     44  C   UNL A   1      45.188  29.251  29.931  1.00  0.00     0.049 A 
ATOM     45  N   UNL A   1      44.141  32.057  29.986  1.00  0.00    -0.248 NA
ATOM     46  C   UNL A   1      45.017  32.376  27.846  1.00  0.00     0.031 C 
ATOM     47  C   UNL A   1      45.676  27.871  29.944  1.00  0.00     0.029 A 
ATOM     48  N   UNL A   1      44.689  29.443  31.193  1.00  0.00    -0.354 N 
ATOM     49  C   UNL A   1      43.907  33.368  29.595  1.00  0.00     0.074 A 
ATOM     50  C   UNL A   1      44.501  33.520  28.281  1.00  0.00     0.031 C 
ATOM     51  C   UNL A   1      45.422  27.329  31.144  1.00  0.00     0.029 A 
ATOM     52  C   UNL A   1      44.774  28.328  31.991  1.00  0.00     0.049 A 
ATOM     53  H   UNL A   1      44.307  30.298  31.498  1.00  0.00     0.167 HD
ATOM     54  C   UNL A   1      43.243  34.342  30.266  1.00  0.00     0.037 A 
ATOM     55  C   UNL A   1      44.366  28.122  33.257  1.00  0.00     0.037 A 
ATOM     56  C   UNL A   1      42.681  34.181  31.586  1.00  0.00     0.049 A 
ATOM     57  C   UNL A   1      43.655  29.221  33.991  1.00  0.00     0.074 A 
ATOM     58  C   UNL A   1      41.940  35.090  32.322  1.00  0.00     0.029 A 
ATOM     59  N   UNL A   1      42.818  33.051  32.382  1.00  0.00    -0.354 N 
ATOM     60  N   UNL A   1      43.346  30.424  33.568  1.00  0.00    -0.248 NA
ATOM     61  C   UNL A   1      43.230  28.936  35.366  1.00  0.00     0.031 C 
ATOM     62  C   UNL A   1      41.684  34.536  33.581  1.00  0.00     0.029 A 
ATOM     63  C   UNL A   1      42.212  33.255  33.613  1.00  0.00     0.049 A 
ATOM     64  H   UNL A   1      43.279  32.224  32.111  1.00  0.00     0.167 HD
ATOM     65  C   UNL A   1      42.680  31.038  34.623  1.00  0.00     0.074 A 
ATOM     66  C   UNL A   1      42.614  30.065  35.696  1.00  0.00     0.031 C 
ATOM     67  C   UNL A   1      42.168  32.293  34.690  1.00  0.00     0.037 A 
BRANCH  54  68
ATOM     68  C   UNL A   1      43.090  35.679  29.588  1.00  0.00     0.058 A 
ATOM     69  C   UNL A   1      42.045  35.931  28.684  1.00  0.00     0.135 A 
ATOM     70  C   UNL A   1      43.967  36.738  29.879  1.00  0.00     0.135 A 
ATOM     71  F   UNL A   1      41.177  34.957  28.366  1.00  0.00    -0.206 F 
ATOM     72  C   UNL A   1      41.897  37.169  28.066  1.00  0.00     0.059 A 
ATOM     73  C   UNL A   1      43.822  37.994  29.294  1.00  0.00     0.059 A 
ATOM     74  F   UNL A   1      44.979  36.560  30.743  1.00  0.00    -0.206 F 
ATOM     75  C   UNL A   1      42.793  38.194  28.375  1.00  0.00     0.060 A 
BRANCH  75  76
ATOM     76  S   UNL A   1      42.596  39.785  27.546  1.00  0.00     0.124 S 
ATOM     77  O   UNL A   1      42.861  40.717  28.638  1.00  0.00    -0.237 OA
ATOM     78  O   UNL A   1      43.618  39.723  26.505  1.00  0.00    -0.237 OA
ATOM     79  O   UNL A   1      41.217  39.754  27.070  1.00  0.00    -0.744 OA
ENDBRANCH  75  76
ENDBRANCH  54  68
BRANCH  55  80
ATOM     80  C   UNL A   1      44.592  26.788  33.871  1.00  0.00     0.058 A 
ATOM     81  C   UNL A   1      43.550  25.857  33.973  1.00  0.00     0.135 A 
ATOM     82  C   UNL A   1      45.875  26.385  34.273  1.00  0.00     0.135 A 
ATOM     83  F   UNL A   1      42.305  26.200  33.605  1.00  0.00    -0.206 F 
ATOM     84  C   UNL A   1      43.774  24.565  34.435  1.00  0.00     0.059 A 
ATOM     85  C   UNL A   1      46.129  25.091  34.716  1.00  0.00     0.059 A 
ATOM     86  F   UNL A   1      46.908  27.237  34.178  1.00  0.00    -0.206 F 
ATOM     87  C   UNL A   1      45.071  24.187  34.788  1.00  0.00     0.060 A 
BRANCH  87  88
ATOM     88  S   UNL A   1      45.365  22.474  35.278  1.00  0.00     0.124 S 
ATOM     89  O   UNL A   1      44.266  21.783  34.614  1.00  0.00    -0.237 OA
ATOM     90  O   UNL A   1      46.697  22.229  34.732  1.00  0.00    -0.237 OA
ATOM     91  O   UNL A   1      45.292  22.522  36.734  1.00  0.00    -0.744 OA
ENDBRANCH  87  88
ENDBRANCH  55  80
BRANCH  67  92
ATOM     92  C   UNL A   1      41.495  32.704  35.974  1.00  0.00     0.058 A 
ATOM     93  C   UNL A   1      40.155  32.377  36.238  1.00  0.00     0.135 A 
ATOM     94  C   UNL A   1      42.215  33.371  36.978  1.00  0.00     0.135 A 
ATOM     95  F   UNL A   1      39.416  31.748  35.311  1.00  0.00    -0.206 F 
ATOM     96  C   UNL A   1      39.550  32.710  37.446  1.00  0.00     0.059 A 
ATOM     97  C   UNL A   1      41.638  33.689  38.205  1.00  0.00     0.059 A 
ATOM     98  F   UNL A   1      43.500  33.703  36.782  1.00  0.00    -0.206 F 
ATOM     99  C   UNL A   1      40.301  33.360  38.427  1.00  0.00     0.060 A 
BRANCH  99 100
ATOM    100  S   UNL A   1      39.512  33.746  40.005  1.00  0.00     0.124 S 
ATOM    101  O   UNL A   1      38.198  34.212  39.573  1.00  0.00    -0.237 OA
ATOM    102  O   UNL A   1      39.534  32.454  40.685  1.00  0.00    -0.237 OA
ATOM    103  O   UNL A   1      40.381  34.767  40.581  1.00  0.00    -0.744 OA
ENDBRANCH  99 100
ENDBRANCH  67  92
ENDBRANCH  41  42
ENDBRANCH  34  36
ENDBRANCH  33  34
ENDBRANCH  32  33
ENDBRANCH  31  32
ENDBRANCH  30  31
ENDBRANCH  29  30
ENDBRANCH   1  29
TORSDOF 24
ENDMDL
