MODEL 1
REMARK VINA RESULT:     -10.6      0.000      0.000
REMARK SMILES C[C@@H](C(=O)NCc1ccc(F)cc1)n1cc(C(=O)OCCOCCOCCOC(=O)c2ccc(-c3c4nc(c(-c5c(F)cc(S(=O)(=O)[O-])cc5F)c5ccc([nH]5)c(-c5c(F)cc(S(=O)(=O)[O-])cc5F)c5nc(c(-c6c(F)cc(S(=O)(=O)[O-])cc6F)c6ccc3[nH]6)C=C5)C=C4)cc2)cn1
REMARK SMILES IDX 23 1 22 2 21 3 20 4 19 5 17 6 18 7 16 8 14 9 15 10 98 11
REMARK SMILES IDX 97 12 2 13 1 14 3 15 4 16 5 17 6 19 7 20 8 21 13 22 9 23
REMARK SMILES IDX 12 24 10 25 11 26 24 27 25 28 26 29 27 30 28 31 29 32 30 33
REMARK SMILES IDX 31 34 32 35 96 36 33 37 95 38 34 39 35 40 36 41 89 42 37 43
REMARK SMILES IDX 94 44 88 45 90 46 38 47 93 48 87 49 86 50 39 52 73 53 52 54
REMARK SMILES IDX 72 55 53 56 56 57 71 58 91 59 54 60 55 61 70 63 92 64 57 65
REMARK SMILES IDX 40 66 41 67 50 68 42 69 43 70 49 71 51 72 44 73 45 74 46 75
REMARK SMILES IDX 47 76 48 77 74 78 75 79 84 80 76 81 77 82 83 83 85 84 78 85
REMARK SMILES IDX 79 86 80 87 81 88 82 89 58 90 59 91 68 92 60 93 61 94 67 95
REMARK SMILES IDX 69 96 62 97 63 98 64 99 65 100 66 101
REMARK H PARENT 5 18 90 51 56 62
REMARK Flexibility Score: inf
ROOT
ATOM      1  C   UNL A   1      41.261  20.827  27.288  1.00  0.00     0.188 C 
ENDROOT
BRANCH   1   2
ATOM      2  O   UNL A   1      39.945  21.366  27.248  1.00  0.00    -0.376 OA
BRANCH   2   3
ATOM      3  C   UNL A   1      39.499  22.115  26.128  1.00  0.00     0.202 C 
BRANCH   3   4
ATOM      4  C   UNL A   1      38.003  22.438  25.923  1.00  0.00     0.261 C 
BRANCH   4   5
ATOM      5  O   UNL A   1      37.444  22.083  24.647  1.00  0.00    -0.460 OA
BRANCH   5   6
ATOM      6  C   UNL A   1      36.290  21.355  24.691  1.00  0.00     0.341 C 
ATOM      7  O   UNL A   1      36.227  20.176  24.977  1.00  0.00    -0.246 OA
BRANCH   6   8
ATOM      8  C   UNL A   1      35.102  22.172  24.511  1.00  0.00     0.098 A 
ATOM      9  N   UNL A   1      33.457  23.469  23.805  1.00  0.00    -0.260 N 
ATOM     10  C   UNL A   1      34.641  22.883  23.417  1.00  0.00     0.125 A 
ATOM     11  N   UNL A   1      33.168  23.235  25.105  1.00  0.00    -0.180 NA
ATOM     12  C   UNL A   1      34.160  22.452  25.523  1.00  0.00     0.150 A 
BRANCH   9  13
ATOM     13  C   UNL A   1      32.395  23.978  22.919  1.00  0.00     0.193 C 
ATOM     14  C   UNL A   1      31.135  24.210  23.760  1.00  0.00     0.044 C 
BRANCH  13  15
ATOM     15  C   UNL A   1      32.831  25.218  22.136  1.00  0.00     0.244 C 
ATOM     16  O   UNL A   1      32.508  25.435  20.967  1.00  0.00    -0.273 OA
ATOM     17  N   UNL A   1      33.570  26.197  22.748  1.00  0.00    -0.350 N 
ATOM     18  H   UNL A   1      33.826  26.943  22.159  1.00  0.00     0.163 HD
BRANCH  17  19
ATOM     19  C   UNL A   1      34.040  26.319  24.113  1.00  0.00     0.151 C 
BRANCH  19  20
ATOM     20  C   UNL A   1      33.321  27.381  24.919  1.00  0.00    -0.029 A 
ATOM     21  C   UNL A   1      32.807  28.558  24.345  1.00  0.00     0.008 A 
ATOM     22  C   UNL A   1      33.189  27.202  26.308  1.00  0.00     0.008 A 
ATOM     23  C   UNL A   1      32.168  29.518  25.134  1.00  0.00     0.039 A 
ATOM     24  C   UNL A   1      32.547  28.162  27.096  1.00  0.00     0.039 A 
ATOM     25  C   UNL A   1      32.041  29.311  26.501  1.00  0.00     0.123 A 
ATOM     26  F   UNL A   1      31.427  30.230  27.257  1.00  0.00    -0.207 F 
ENDBRANCH  19  20
ENDBRANCH  17  19
ENDBRANCH  13  15
ENDBRANCH   9  13
ENDBRANCH   6   8
ENDBRANCH   5   6
ENDBRANCH   4   5
ENDBRANCH   3   4
ENDBRANCH   2   3
ENDBRANCH   1   2
BRANCH   1  27
ATOM     27  C   UNL A   1      41.758  19.833  26.213  1.00  0.00     0.188 C 
BRANCH  27  28
ATOM     28  O   UNL A   1      43.138  19.528  26.294  1.00  0.00    -0.376 OA
BRANCH  28  29
ATOM     29  C   UNL A   1      43.707  18.581  25.406  1.00  0.00     0.202 C 
BRANCH  29  30
ATOM     30  C   UNL A   1      44.609  19.011  24.250  1.00  0.00     0.261 C 
BRANCH  30  31
ATOM     31  O   UNL A   1      44.536  20.376  23.893  1.00  0.00    -0.460 OA
BRANCH  31  32
ATOM     32  C   UNL A   1      45.538  21.131  24.385  1.00  0.00     0.338 C 
ATOM     33  O   UNL A   1      46.601  20.735  24.834  1.00  0.00    -0.246 OA
BRANCH  32  34
ATOM     34  C   UNL A   1      45.089  22.522  24.412  1.00  0.00     0.060 A 
ATOM     35  C   UNL A   1      46.082  23.497  24.500  1.00  0.00     0.016 A 
ATOM     36  C   UNL A   1      43.752  22.767  24.757  1.00  0.00     0.016 A 
ATOM     37  C   UNL A   1      45.788  24.642  25.200  1.00  0.00     0.010 A 
ATOM     38  C   UNL A   1      43.471  23.889  25.487  1.00  0.00     0.010 A 
ATOM     39  C   UNL A   1      44.520  24.757  25.778  1.00  0.00    -0.014 A 
BRANCH  39  40
ATOM     40  C   UNL A   1      44.281  25.866  26.669  1.00  0.00     0.031 A 
ATOM     41  C   UNL A   1      45.309  26.915  26.536  1.00  0.00     0.074 A 
ATOM     42  C   UNL A   1      43.171  25.941  27.425  1.00  0.00     0.049 A 
ATOM     43  N   UNL A   1      46.232  27.228  27.380  1.00  0.00    -0.248 NA
ATOM     44  C   UNL A   1      45.462  27.543  25.211  1.00  0.00     0.031 C 
ATOM     45  C   UNL A   1      41.983  25.083  27.379  1.00  0.00     0.029 A 
ATOM     46  N   UNL A   1      42.825  26.888  28.335  1.00  0.00    -0.354 N 
ATOM     47  C   UNL A   1      46.916  28.278  26.784  1.00  0.00     0.074 A 
ATOM     48  C   UNL A   1      46.575  28.252  25.388  1.00  0.00     0.031 C 
ATOM     49  C   UNL A   1      40.972  25.689  28.045  1.00  0.00     0.029 A 
ATOM     50  C   UNL A   1      41.474  26.907  28.661  1.00  0.00     0.049 A 
ATOM     51  H   UNL A   1      43.477  27.509  28.731  1.00  0.00     0.167 HD
ATOM     52  C   UNL A   1      47.448  29.278  27.535  1.00  0.00     0.037 A 
ATOM     53  C   UNL A   1      40.828  27.913  29.306  1.00  0.00     0.037 A 
ATOM     54  C   UNL A   1      47.595  28.879  28.911  1.00  0.00     0.049 A 
ATOM     55  C   UNL A   1      41.872  28.719  30.000  1.00  0.00     0.074 A 
ATOM     56  C   UNL A   1      48.269  27.860  29.556  1.00  0.00     0.029 A 
ATOM     57  N   UNL A   1      46.666  29.349  29.809  1.00  0.00    -0.354 N 
ATOM     58  N   UNL A   1      42.598  28.280  30.993  1.00  0.00    -0.248 NA
ATOM     59  C   UNL A   1      42.421  29.866  29.293  1.00  0.00     0.031 C 
ATOM     60  C   UNL A   1      47.418  27.472  30.632  1.00  0.00     0.029 A 
ATOM     61  C   UNL A   1      46.301  28.308  30.623  1.00  0.00     0.049 A 
ATOM     62  H   UNL A   1      46.324  30.270  29.858  1.00  0.00     0.167 HD
ATOM     63  C   UNL A   1      43.863  28.805  30.772  1.00  0.00     0.074 A 
ATOM     64  C   UNL A   1      43.670  29.847  29.766  1.00  0.00     0.031 C 
ATOM     65  C   UNL A   1      44.984  28.157  31.208  1.00  0.00     0.037 A 
BRANCH  52  66
ATOM     66  C   UNL A   1      47.442  30.723  27.097  1.00  0.00     0.058 A 
ATOM     67  C   UNL A   1      46.266  31.473  26.861  1.00  0.00     0.135 A 
ATOM     68  C   UNL A   1      48.633  31.468  27.177  1.00  0.00     0.135 A 
ATOM     69  F   UNL A   1      45.044  30.931  26.880  1.00  0.00    -0.206 F 
ATOM     70  C   UNL A   1      46.271  32.849  26.696  1.00  0.00     0.059 A 
ATOM     71  C   UNL A   1      48.651  32.861  27.080  1.00  0.00     0.059 A 
ATOM     72  F   UNL A   1      49.802  30.859  27.428  1.00  0.00    -0.206 F 
ATOM     73  C   UNL A   1      47.461  33.540  26.839  1.00  0.00     0.060 A 
BRANCH  73  74
ATOM     74  S   UNL A   1      47.384  35.336  26.810  1.00  0.00     0.124 S 
ATOM     75  O   UNL A   1      46.634  35.573  25.580  1.00  0.00    -0.237 OA
ATOM     76  O   UNL A   1      46.677  35.626  28.052  1.00  0.00    -0.237 OA
ATOM     77  O   UNL A   1      48.788  35.731  26.779  1.00  0.00    -0.744 OA
ENDBRANCH  73  74
ENDBRANCH  52  66
BRANCH  53  78
ATOM     78  C   UNL A   1      39.462  28.448  29.041  1.00  0.00     0.058 A 
ATOM     79  C   UNL A   1      39.112  29.018  27.799  1.00  0.00     0.135 A 
ATOM     80  C   UNL A   1      38.563  28.682  30.099  1.00  0.00     0.135 A 
ATOM     81  F   UNL A   1      39.908  28.898  26.728  1.00  0.00    -0.206 F 
ATOM     82  C   UNL A   1      37.981  29.815  27.632  1.00  0.00     0.059 A 
ATOM     83  C   UNL A   1      37.427  29.489  29.958  1.00  0.00     0.059 A 
ATOM     84  F   UNL A   1      38.818  28.188  31.321  1.00  0.00    -0.206 F 
ATOM     85  C   UNL A   1      37.163  30.076  28.724  1.00  0.00     0.060 A 
BRANCH  85  86
ATOM     86  S   UNL A   1      35.820  31.267  28.508  1.00  0.00     0.124 S 
ATOM     87  O   UNL A   1      35.141  31.189  29.798  1.00  0.00    -0.237 OA
ATOM     88  O   UNL A   1      36.550  32.505  28.253  1.00  0.00    -0.237 OA
ATOM     89  O   UNL A   1      35.073  30.738  27.371  1.00  0.00    -0.744 OA
ENDBRANCH  85  86
ENDBRANCH  53  78
BRANCH  65  90
ATOM     90  C   UNL A   1      44.822  27.046  32.215  1.00  0.00     0.058 A 
ATOM     91  C   UNL A   1      45.094  27.341  33.560  1.00  0.00     0.135 A 
ATOM     92  C   UNL A   1      44.581  25.699  31.889  1.00  0.00     0.135 A 
ATOM     93  F   UNL A   1      45.382  28.601  33.927  1.00  0.00    -0.206 F 
ATOM     94  C   UNL A   1      45.141  26.353  34.536  1.00  0.00     0.059 A 
ATOM     95  C   UNL A   1      44.588  24.693  32.860  1.00  0.00     0.059 A 
ATOM     96  F   UNL A   1      44.404  25.319  30.616  1.00  0.00    -0.206 F 
ATOM     97  C   UNL A   1      44.886  25.030  34.179  1.00  0.00     0.060 A 
BRANCH  97  98
ATOM     98  S   UNL A   1      44.988  23.770  35.469  1.00  0.00     0.124 S 
ATOM     99  O   UNL A   1      43.936  22.840  35.067  1.00  0.00    -0.237 OA
ATOM    100  O   UNL A   1      46.354  23.277  35.315  1.00  0.00    -0.237 OA
ATOM    101  O   UNL A   1      44.729  24.508  36.702  1.00  0.00    -0.744 OA
ENDBRANCH  97  98
ENDBRANCH  65  90
ENDBRANCH  39  40
ENDBRANCH  32  34
ENDBRANCH  31  32
ENDBRANCH  30  31
ENDBRANCH  29  30
ENDBRANCH  28  29
ENDBRANCH  27  28
ENDBRANCH   1  27
TORSDOF 24
ENDMDL
MODEL 2
REMARK VINA RESULT:     -10.2      4.243     10.489
REMARK SMILES C[C@@H](C(=O)NCc1ccc(F)cc1)n1cc(C(=O)OCCOCCOCCOC(=O)c2ccc(-c3c4nc(c(-c5c(F)cc(S(=O)(=O)[O-])cc5F)c5ccc([nH]5)c(-c5c(F)cc(S(=O)(=O)[O-])cc5F)c5nc(c(-c6c(F)cc(S(=O)(=O)[O-])cc6F)c6ccc3[nH]6)C=C5)C=C4)cc2)cn1
REMARK SMILES IDX 23 1 22 2 21 3 20 4 19 5 17 6 18 7 16 8 14 9 15 10 98 11
REMARK SMILES IDX 97 12 2 13 1 14 3 15 4 16 5 17 6 19 7 20 8 21 13 22 9 23
REMARK SMILES IDX 12 24 10 25 11 26 24 27 25 28 26 29 27 30 28 31 29 32 30 33
REMARK SMILES IDX 31 34 32 35 96 36 33 37 95 38 34 39 35 40 36 41 89 42 37 43
REMARK SMILES IDX 94 44 88 45 90 46 38 47 93 48 87 49 86 50 39 52 73 53 52 54
REMARK SMILES IDX 72 55 53 56 56 57 71 58 91 59 54 60 55 61 70 63 92 64 57 65
REMARK SMILES IDX 40 66 41 67 50 68 42 69 43 70 49 71 51 72 44 73 45 74 46 75
REMARK SMILES IDX 47 76 48 77 74 78 75 79 84 80 76 81 77 82 83 83 85 84 78 85
REMARK SMILES IDX 79 86 80 87 81 88 82 89 58 90 59 91 68 92 60 93 61 94 67 95
REMARK SMILES IDX 69 96 62 97 63 98 64 99 65 100 66 101
REMARK H PARENT 5 18 90 51 56 62
REMARK Flexibility Score: inf
ROOT
ATOM      1  C   UNL A   1      40.500  33.340  36.517  1.00  0.00     0.188 C 
ENDROOT
BRANCH   1   2
ATOM      2  O   UNL A   1      39.392  33.263  37.406  1.00  0.00    -0.376 OA
BRANCH   2   3
ATOM      3  C   UNL A   1      38.312  32.378  37.149  1.00  0.00     0.202 C 
BRANCH   3   4
ATOM      4  C   UNL A   1      37.839  32.085  35.709  1.00  0.00     0.261 C 
BRANCH   4   5
ATOM      5  O   UNL A   1      36.622  32.727  35.296  1.00  0.00    -0.460 OA
BRANCH   5   6
ATOM      6  C   UNL A   1      36.763  33.709  34.357  1.00  0.00     0.341 C 
ATOM      7  O   UNL A   1      37.526  34.649  34.448  1.00  0.00    -0.246 OA
BRANCH   6   8
ATOM      8  C   UNL A   1      36.013  33.437  33.142  1.00  0.00     0.098 A 
ATOM      9  N   UNL A   1      35.283  33.076  31.087  1.00  0.00    -0.260 N 
ATOM     10  C   UNL A   1      36.409  33.381  31.817  1.00  0.00     0.125 A 
ATOM     11  N   UNL A   1      34.173  33.004  31.856  1.00  0.00    -0.180 NA
ATOM     12  C   UNL A   1      34.620  33.220  33.092  1.00  0.00     0.150 A 
BRANCH   9  13
ATOM     13  C   UNL A   1      35.243  32.517  29.724  1.00  0.00     0.193 C 
ATOM     14  C   UNL A   1      34.161  33.258  28.930  1.00  0.00     0.044 C 
BRANCH  13  15
ATOM     15  C   UNL A   1      36.612  32.543  29.041  1.00  0.00     0.244 C 
ATOM     16  O   UNL A   1      37.201  33.580  28.730  1.00  0.00    -0.273 OA
ATOM     17  N   UNL A   1      37.287  31.373  28.800  1.00  0.00    -0.350 N 
ATOM     18  H   UNL A   1      38.146  31.486  28.334  1.00  0.00     0.163 HD
BRANCH  17  19
ATOM     19  C   UNL A   1      36.948  30.000  29.113  1.00  0.00     0.151 C 
BRANCH  19  20
ATOM     20  C   UNL A   1      37.786  29.396  30.220  1.00  0.00    -0.029 A 
ATOM     21  C   UNL A   1      37.828  29.927  31.522  1.00  0.00     0.008 A 
ATOM     22  C   UNL A   1      38.584  28.274  29.930  1.00  0.00     0.008 A 
ATOM     23  C   UNL A   1      38.632  29.344  32.505  1.00  0.00     0.039 A 
ATOM     24  C   UNL A   1      39.387  27.692  30.915  1.00  0.00     0.039 A 
ATOM     25  C   UNL A   1      39.402  28.231  32.194  1.00  0.00     0.123 A 
ATOM     26  F   UNL A   1      40.171  27.673  33.138  1.00  0.00    -0.207 F 
ENDBRANCH  19  20
ENDBRANCH  17  19
ENDBRANCH  13  15
ENDBRANCH   9  13
ENDBRANCH   6   8
ENDBRANCH   5   6
ENDBRANCH   4   5
ENDBRANCH   3   4
ENDBRANCH   2   3
ENDBRANCH   1   2
BRANCH   1  27
ATOM     27  C   UNL A   1      41.117  34.699  36.114  1.00  0.00     0.188 C 
BRANCH  27  28
ATOM     28  O   UNL A   1      42.241  34.599  35.260  1.00  0.00    -0.376 OA
BRANCH  28  29
ATOM     29  C   UNL A   1      42.067  34.244  33.898  1.00  0.00     0.202 C 
BRANCH  29  30
ATOM     30  C   UNL A   1      40.844  34.701  33.103  1.00  0.00     0.261 C 
BRANCH  30  31
ATOM     31  O   UNL A   1      40.701  34.131  31.818  1.00  0.00    -0.460 OA
BRANCH  31  32
ATOM     32  C   UNL A   1      41.796  34.241  31.040  1.00  0.00     0.338 C 
ATOM     33  O   UNL A   1      42.594  35.163  31.025  1.00  0.00    -0.246 OA
BRANCH  32  34
ATOM     34  C   UNL A   1      41.807  33.113  30.109  1.00  0.00     0.060 A 
ATOM     35  C   UNL A   1      40.841  32.128  30.312  1.00  0.00     0.016 A 
ATOM     36  C   UNL A   1      42.980  32.888  29.375  1.00  0.00     0.016 A 
ATOM     37  C   UNL A   1      41.184  30.832  30.012  1.00  0.00     0.010 A 
ATOM     38  C   UNL A   1      43.336  31.593  29.113  1.00  0.00     0.010 A 
ATOM     39  C   UNL A   1      42.473  30.583  29.528  1.00  0.00    -0.014 A 
BRANCH  39  40
ATOM     40  C   UNL A   1      42.893  29.210  29.398  1.00  0.00     0.031 A 
ATOM     41  C   UNL A   1      43.736  28.778  30.529  1.00  0.00     0.074 A 
ATOM     42  C   UNL A   1      42.441  28.421  28.406  1.00  0.00     0.049 A 
ATOM     43  N   UNL A   1      45.000  28.526  30.520  1.00  0.00    -0.248 NA
ATOM     44  C   UNL A   1      43.142  28.848  31.876  1.00  0.00     0.031 C 
ATOM     45  C   UNL A   1      41.380  28.705  27.435  1.00  0.00     0.029 A 
ATOM     46  N   UNL A   1      42.771  27.134  28.126  1.00  0.00    -0.354 N 
ATOM     47  C   UNL A   1      45.296  28.151  31.824  1.00  0.00     0.074 A 
ATOM     48  C   UNL A   1      44.205  28.607  32.641  1.00  0.00     0.031 C 
ATOM     49  C   UNL A   1      41.002  27.548  26.841  1.00  0.00     0.029 A 
ATOM     50  C   UNL A   1      41.870  26.476  27.298  1.00  0.00     0.049 A 
ATOM     51  H   UNL A   1      43.582  26.703  28.480  1.00  0.00     0.167 HD
ATOM     52  C   UNL A   1      46.248  27.216  32.080  1.00  0.00     0.037 A 
ATOM     53  C   UNL A   1      41.808  25.133  27.102  1.00  0.00     0.037 A 
ATOM     54  C   UNL A   1      47.134  27.048  30.956  1.00  0.00     0.049 A 
ATOM     55  C   UNL A   1      43.125  24.576  27.523  1.00  0.00     0.074 A 
ATOM     56  C   UNL A   1      47.967  27.890  30.247  1.00  0.00     0.029 A 
ATOM     57  N   UNL A   1      46.945  25.942  30.162  1.00  0.00    -0.354 N 
ATOM     58  N   UNL A   1      44.252  24.815  26.909  1.00  0.00    -0.248 NA
ATOM     59  C   UNL A   1      43.255  24.114  28.898  1.00  0.00     0.031 C 
ATOM     60  C   UNL A   1      47.873  27.457  28.893  1.00  0.00     0.029 A 
ATOM     61  C   UNL A   1      47.034  26.342  28.853  1.00  0.00     0.049 A 
ATOM     62  H   UNL A   1      46.774  25.026  30.477  1.00  0.00     0.167 HD
ATOM     63  C   UNL A   1      45.192  24.945  27.923  1.00  0.00     0.074 A 
ATOM     64  C   UNL A   1      44.539  24.411  29.115  1.00  0.00     0.031 C 
ATOM     65  C   UNL A   1      46.297  25.732  27.765  1.00  0.00     0.037 A 
BRANCH  52  66
ATOM     66  C   UNL A   1      46.111  26.187  33.176  1.00  0.00     0.058 A 
ATOM     67  C   UNL A   1      45.118  25.180  33.197  1.00  0.00     0.135 A 
ATOM     68  C   UNL A   1      47.162  26.024  34.097  1.00  0.00     0.135 A 
ATOM     69  F   UNL A   1      44.122  25.124  32.306  1.00  0.00    -0.206 F 
ATOM     70  C   UNL A   1      45.151  24.107  34.073  1.00  0.00     0.059 A 
ATOM     71  C   UNL A   1      47.249  24.916  34.943  1.00  0.00     0.059 A 
ATOM     72  F   UNL A   1      48.173  26.906  34.141  1.00  0.00    -0.206 F 
ATOM     73  C   UNL A   1      46.235  23.964  34.921  1.00  0.00     0.060 A 
BRANCH  73  74
ATOM     74  S   UNL A   1      46.328  22.457  35.898  1.00  0.00     0.124 S 
ATOM     75  O   UNL A   1      45.178  22.616  36.783  1.00  0.00    -0.237 OA
ATOM     76  O   UNL A   1      46.205  21.427  34.873  1.00  0.00    -0.237 OA
ATOM     77  O   UNL A   1      47.636  22.553  36.537  1.00  0.00    -0.744 OA
ENDBRANCH  73  74
ENDBRANCH  52  66
BRANCH  53  78
ATOM     78  C   UNL A   1      40.594  24.277  26.967  1.00  0.00     0.058 A 
ATOM     79  C   UNL A   1      40.604  23.080  26.223  1.00  0.00     0.135 A 
ATOM     80  C   UNL A   1      39.323  24.772  27.319  1.00  0.00     0.135 A 
ATOM     81  F   UNL A   1      41.751  22.533  25.796  1.00  0.00    -0.206 F 
ATOM     82  C   UNL A   1      39.436  22.448  25.803  1.00  0.00     0.059 A 
ATOM     83  C   UNL A   1      38.135  24.161  26.899  1.00  0.00     0.059 A 
ATOM     84  F   UNL A   1      39.215  25.912  28.018  1.00  0.00    -0.206 F 
ATOM     85  C   UNL A   1      38.204  23.014  26.114  1.00  0.00     0.060 A 
BRANCH  85  86
ATOM     86  S   UNL A   1      36.726  22.270  25.388  1.00  0.00     0.124 S 
ATOM     87  O   UNL A   1      35.664  23.085  25.971  1.00  0.00    -0.237 OA
ATOM     88  O   UNL A   1      36.957  22.464  23.959  1.00  0.00    -0.237 OA
ATOM     89  O   UNL A   1      36.778  20.885  25.846  1.00  0.00    -0.744 OA
ENDBRANCH  85  86
ENDBRANCH  53  78
BRANCH  65  90
ATOM     90  C   UNL A   1      46.658  26.190  26.374  1.00  0.00     0.058 A 
ATOM     91  C   UNL A   1      47.752  25.572  25.749  1.00  0.00     0.135 A 
ATOM     92  C   UNL A   1      46.087  27.298  25.722  1.00  0.00     0.135 A 
ATOM     93  F   UNL A   1      48.373  24.541  26.344  1.00  0.00    -0.206 F 
ATOM     94  C   UNL A   1      48.269  26.035  24.544  1.00  0.00     0.059 A 
ATOM     95  C   UNL A   1      46.569  27.759  24.492  1.00  0.00     0.059 A 
ATOM     96  F   UNL A   1      45.099  28.001  26.295  1.00  0.00    -0.206 F 
ATOM     97  C   UNL A   1      47.672  27.128  23.921  1.00  0.00     0.060 A 
BRANCH  97  98
ATOM     98  S   UNL A   1      48.393  27.720  22.374  1.00  0.00     0.124 S 
ATOM     99  O   UNL A   1      49.692  28.218  22.816  1.00  0.00    -0.237 OA
ATOM    100  O   UNL A   1      48.428  26.506  21.563  1.00  0.00    -0.237 OA
ATOM    101  O   UNL A   1      47.455  28.743  21.919  1.00  0.00    -0.744 OA
ENDBRANCH  97  98
ENDBRANCH  65  90
ENDBRANCH  39  40
ENDBRANCH  32  34
ENDBRANCH  31  32
ENDBRANCH  30  31
ENDBRANCH  29  30
ENDBRANCH  28  29
ENDBRANCH  27  28
ENDBRANCH   1  27
TORSDOF 24
ENDMDL
MODEL 3
REMARK VINA RESULT:      -9.6      2.159      7.654
REMARK SMILES C[C@@H](C(=O)NCc1ccc(F)cc1)n1cc(C(=O)OCCOCCOCCOC(=O)c2ccc(-c3c4nc(c(-c5c(F)cc(S(=O)(=O)[O-])cc5F)c5ccc([nH]5)c(-c5c(F)cc(S(=O)(=O)[O-])cc5F)c5nc(c(-c6c(F)cc(S(=O)(=O)[O-])cc6F)c6ccc3[nH]6)C=C5)C=C4)cc2)cn1
REMARK SMILES IDX 23 1 22 2 21 3 20 4 19 5 17 6 18 7 16 8 14 9 15 10 98 11
REMARK SMILES IDX 97 12 2 13 1 14 3 15 4 16 5 17 6 19 7 20 8 21 13 22 9 23
REMARK SMILES IDX 12 24 10 25 11 26 24 27 25 28 26 29 27 30 28 31 29 32 30 33
REMARK SMILES IDX 31 34 32 35 96 36 33 37 95 38 34 39 35 40 36 41 89 42 37 43
REMARK SMILES IDX 94 44 88 45 90 46 38 47 93 48 87 49 86 50 39 52 73 53 52 54
REMARK SMILES IDX 72 55 53 56 56 57 71 58 91 59 54 60 55 61 70 63 92 64 57 65
REMARK SMILES IDX 40 66 41 67 50 68 42 69 43 70 49 71 51 72 44 73 45 74 46 75
REMARK SMILES IDX 47 76 48 77 74 78 75 79 84 80 76 81 77 82 83 83 85 84 78 85
REMARK SMILES IDX 79 86 80 87 81 88 82 89 58 90 59 91 68 92 60 93 61 94 67 95
REMARK SMILES IDX 69 96 62 97 63 98 64 99 65 100 66 101
REMARK H PARENT 5 18 90 51 56 62
REMARK Flexibility Score: inf
ROOT
ATOM      1  C   UNL A   1      41.654  21.446  27.365  1.00  0.00     0.188 C 
ENDROOT
BRANCH   1   2
ATOM      2  O   UNL A   1      40.383  22.061  27.540  1.00  0.00    -0.376 OA
BRANCH   2   3
ATOM      3  C   UNL A   1      39.853  22.931  26.551  1.00  0.00     0.202 C 
BRANCH   3   4
ATOM      4  C   UNL A   1      38.370  23.358  26.568  1.00  0.00     0.261 C 
BRANCH   4   5
ATOM      5  O   UNL A   1      37.810  23.765  25.309  1.00  0.00    -0.460 OA
BRANCH   5   6
ATOM      6  C   UNL A   1      37.055  22.825  24.668  1.00  0.00     0.341 C 
ATOM      7  O   UNL A   1      37.405  21.680  24.460  1.00  0.00    -0.246 OA
BRANCH   6   8
ATOM      8  C   UNL A   1      35.705  23.284  24.385  1.00  0.00     0.098 A 
ATOM      9  N   UNL A   1      33.795  23.976  23.515  1.00  0.00    -0.260 N 
ATOM     10  C   UNL A   1      35.083  23.611  23.194  1.00  0.00     0.125 A 
ATOM     11  N   UNL A   1      33.575  23.972  24.849  1.00  0.00    -0.180 NA
ATOM     12  C   UNL A   1      34.728  23.552  25.367  1.00  0.00     0.150 A 
BRANCH   9  13
ATOM     13  C   UNL A   1      32.639  24.017  22.602  1.00  0.00     0.193 C 
ATOM     14  C   UNL A   1      31.384  23.635  23.396  1.00  0.00     0.044 C 
BRANCH  13  15
ATOM     15  C   UNL A   1      32.509  25.362  21.884  1.00  0.00     0.244 C 
ATOM     16  O   UNL A   1      33.076  25.626  20.822  1.00  0.00    -0.273 OA
ATOM     17  N   UNL A   1      31.676  26.333  22.378  1.00  0.00    -0.350 N 
ATOM     18  H   UNL A   1      31.677  27.172  21.865  1.00  0.00     0.163 HD
BRANCH  17  19
ATOM     19  C   UNL A   1      30.797  26.333  23.530  1.00  0.00     0.151 C 
BRANCH  19  20
ATOM     20  C   UNL A   1      31.216  27.293  24.624  1.00  0.00    -0.029 A 
ATOM     21  C   UNL A   1      31.192  26.953  25.989  1.00  0.00     0.008 A 
ATOM     22  C   UNL A   1      31.616  28.593  24.267  1.00  0.00     0.008 A 
ATOM     23  C   UNL A   1      31.570  27.880  26.963  1.00  0.00     0.039 A 
ATOM     24  C   UNL A   1      31.997  29.519  25.243  1.00  0.00     0.039 A 
ATOM     25  C   UNL A   1      31.972  29.154  26.582  1.00  0.00     0.123 A 
ATOM     26  F   UNL A   1      32.336  30.041  27.516  1.00  0.00    -0.207 F 
ENDBRANCH  19  20
ENDBRANCH  17  19
ENDBRANCH  13  15
ENDBRANCH   9  13
ENDBRANCH   6   8
ENDBRANCH   5   6
ENDBRANCH   4   5
ENDBRANCH   3   4
ENDBRANCH   2   3
ENDBRANCH   1   2
BRANCH   1  27
ATOM     27  C   UNL A   1      41.961  20.567  26.132  1.00  0.00     0.188 C 
BRANCH  27  28
ATOM     28  O   UNL A   1      43.159  19.819  26.233  1.00  0.00    -0.376 OA
BRANCH  28  29
ATOM     29  C   UNL A   1      43.531  18.933  25.190  1.00  0.00     0.202 C 
BRANCH  29  30
ATOM     30  C   UNL A   1      44.545  19.339  24.121  1.00  0.00     0.261 C 
BRANCH  30  31
ATOM     31  O   UNL A   1      44.639  20.725  23.861  1.00  0.00    -0.460 OA
BRANCH  31  32
ATOM     32  C   UNL A   1      45.783  21.292  24.291  1.00  0.00     0.338 C 
ATOM     33  O   UNL A   1      46.843  20.730  24.506  1.00  0.00    -0.246 OA
BRANCH  32  34
ATOM     34  C   UNL A   1      45.511  22.699  24.582  1.00  0.00     0.060 A 
ATOM     35  C   UNL A   1      46.621  23.516  24.801  1.00  0.00     0.016 A 
ATOM     36  C   UNL A   1      44.223  23.035  25.019  1.00  0.00     0.016 A 
ATOM     37  C   UNL A   1      46.485  24.542  25.705  1.00  0.00     0.010 A 
ATOM     38  C   UNL A   1      44.098  24.032  25.947  1.00  0.00     0.010 A 
ATOM     39  C   UNL A   1      45.252  24.701  26.345  1.00  0.00    -0.014 A 
BRANCH  39  40
ATOM     40  C   UNL A   1      45.170  25.650  27.428  1.00  0.00     0.031 A 
ATOM     41  C   UNL A   1      43.824  26.240  27.548  1.00  0.00     0.074 A 
ATOM     42  C   UNL A   1      46.196  25.849  28.276  1.00  0.00     0.049 A 
ATOM     43  N   UNL A   1      43.463  27.448  27.274  1.00  0.00    -0.248 NA
ATOM     44  C   UNL A   1      42.703  25.316  27.795  1.00  0.00     0.031 C 
ATOM     45  C   UNL A   1      47.441  25.082  28.386  1.00  0.00     0.029 A 
ATOM     46  N   UNL A   1      46.290  26.728  29.306  1.00  0.00    -0.354 N 
ATOM     47  C   UNL A   1      42.108  27.489  27.570  1.00  0.00     0.074 A 
ATOM     48  C   UNL A   1      41.658  26.125  27.632  1.00  0.00     0.031 C 
ATOM     49  C   UNL A   1      48.041  25.379  29.563  1.00  0.00     0.029 A 
ATOM     50  C   UNL A   1      47.292  26.435  30.223  1.00  0.00     0.049 A 
ATOM     51  H   UNL A   1      45.696  27.508  29.396  1.00  0.00     0.167 HD
ATOM     52  C   UNL A   1      41.537  28.620  28.059  1.00  0.00     0.037 A 
ATOM     53  C   UNL A   1      47.410  26.971  31.466  1.00  0.00     0.037 A 
ATOM     54  C   UNL A   1      42.355  29.777  27.797  1.00  0.00     0.049 A 
ATOM     55  C   UNL A   1      46.604  28.224  31.473  1.00  0.00     0.074 A 
ATOM     56  C   UNL A   1      42.856  30.369  26.655  1.00  0.00     0.029 A 
ATOM     57  N   UNL A   1      43.098  30.275  28.841  1.00  0.00    -0.354 N 
ATOM     58  N   UNL A   1      46.893  29.286  30.770  1.00  0.00    -0.248 NA
ATOM     59  C   UNL A   1      45.221  28.135  31.919  1.00  0.00     0.031 C 
ATOM     60  C   UNL A   1      44.152  30.839  27.015  1.00  0.00     0.029 A 
ATOM     61  C   UNL A   1      44.353  30.562  28.368  1.00  0.00     0.049 A 
ATOM     62  H   UNL A   1      42.785  30.402  29.765  1.00  0.00     0.167 HD
ATOM     63  C   UNL A   1      45.668  29.770  30.331  1.00  0.00     0.074 A 
ATOM     64  C   UNL A   1      44.673  29.077  31.146  1.00  0.00     0.031 C 
ATOM     65  C   UNL A   1      45.562  30.466  29.161  1.00  0.00     0.037 A 
BRANCH  52  66
ATOM     66  C   UNL A   1      40.458  28.602  29.115  1.00  0.00     0.058 A 
ATOM     67  C   UNL A   1      40.666  28.190  30.452  1.00  0.00     0.135 A 
ATOM     68  C   UNL A   1      39.245  29.271  28.867  1.00  0.00     0.135 A 
ATOM     69  F   UNL A   1      41.816  27.653  30.875  1.00  0.00    -0.206 F 
ATOM     70  C   UNL A   1      39.740  28.404  31.460  1.00  0.00     0.059 A 
ATOM     71  C   UNL A   1      38.328  29.556  29.881  1.00  0.00     0.059 A 
ATOM     72  F   UNL A   1      38.960  29.732  27.640  1.00  0.00    -0.206 F 
ATOM     73  C   UNL A   1      38.588  29.115  31.175  1.00  0.00     0.060 A 
BRANCH  73  74
ATOM     74  S   UNL A   1      37.512  29.535  32.553  1.00  0.00     0.124 S 
ATOM     75  O   UNL A   1      37.402  28.249  33.235  1.00  0.00    -0.237 OA
ATOM     76  O   UNL A   1      38.293  30.557  33.243  1.00  0.00    -0.237 OA
ATOM     77  O   UNL A   1      36.298  30.009  31.898  1.00  0.00    -0.744 OA
ENDBRANCH  73  74
ENDBRANCH  52  66
BRANCH  53  78
ATOM     78  C   UNL A   1      47.823  26.289  32.726  1.00  0.00     0.058 A 
ATOM     79  C   UNL A   1      49.103  26.472  33.288  1.00  0.00     0.135 A 
ATOM     80  C   UNL A   1      47.073  25.213  33.241  1.00  0.00     0.135 A 
ATOM     81  F   UNL A   1      49.926  27.436  32.853  1.00  0.00    -0.206 F 
ATOM     82  C   UNL A   1      49.629  25.612  34.251  1.00  0.00     0.059 A 
ATOM     83  C   UNL A   1      47.584  24.330  34.199  1.00  0.00     0.059 A 
ATOM     84  F   UNL A   1      45.847  24.956  32.759  1.00  0.00    -0.206 F 
ATOM     85  C   UNL A   1      48.878  24.521  34.675  1.00  0.00     0.060 A 
BRANCH  85  86
ATOM     86  S   UNL A   1      49.671  23.328  35.777  1.00  0.00     0.124 S 
ATOM     87  O   UNL A   1      51.082  23.661  35.613  1.00  0.00    -0.237 OA
ATOM     88  O   UNL A   1      49.088  23.674  37.070  1.00  0.00    -0.237 OA
ATOM     89  O   UNL A   1      49.263  22.036  35.234  1.00  0.00    -0.744 OA
ENDBRANCH  85  86
ENDBRANCH  53  78
BRANCH  65  90
ATOM     90  C   UNL A   1      46.823  30.990  28.522  1.00  0.00     0.058 A 
ATOM     91  C   UNL A   1      47.093  32.362  28.641  1.00  0.00     0.135 A 
ATOM     92  C   UNL A   1      47.664  30.242  27.677  1.00  0.00     0.135 A 
ATOM     93  F   UNL A   1      46.297  33.141  29.392  1.00  0.00    -0.206 F 
ATOM     94  C   UNL A   1      48.133  32.972  27.949  1.00  0.00     0.059 A 
ATOM     95  C   UNL A   1      48.738  30.827  26.998  1.00  0.00     0.059 A 
ATOM     96  F   UNL A   1      47.421  28.946  27.436  1.00  0.00    -0.206 F 
ATOM     97  C   UNL A   1      48.952  32.198  27.129  1.00  0.00     0.060 A 
BRANCH  97  98
ATOM     98  S   UNL A   1      50.272  33.031  26.221  1.00  0.00     0.124 S 
ATOM     99  O   UNL A   1      50.871  31.927  25.478  1.00  0.00    -0.237 OA
ATOM    100  O   UNL A   1      49.533  34.001  25.418  1.00  0.00    -0.237 OA
ATOM    101  O   UNL A   1      51.111  33.604  27.270  1.00  0.00    -0.744 OA
ENDBRANCH  97  98
ENDBRANCH  65  90
ENDBRANCH  39  40
ENDBRANCH  32  34
ENDBRANCH  31  32
ENDBRANCH  30  31
ENDBRANCH  29  30
ENDBRANCH  28  29
ENDBRANCH  27  28
ENDBRANCH   1  27
TORSDOF 24
ENDMDL
