MODEL 1
REMARK VINA RESULT:      -9.3      0.000      0.000
REMARK SMILES CCCCN(C)c1ccc([N+](=O)[O-])c(C(=O)OCCOCCOCCOC(=O)c2ccc(-c3c4nc(c(-c5c(F)cc(S(=O)(=O)[O-])cc5F)c5ccc([nH]5)c(-c5c(F)cc(S(=O)(=O)[O-])cc5F)c5nc(c(-c6c(F)cc(S(=O)(=O)[O-])cc6F)c6ccc3[nH]6)C=C5)C=C4)cc2)c1
REMARK SMILES IDX 21 1 20 2 19 3 18 4 17 5 15 6 16 7 14 8 7 9 8 10 95 11 9 12
REMARK SMILES IDX 10 13 5 14 6 15 4 16 3 17 2 18 1 19 11 20 12 21 13 22 22 23
REMARK SMILES IDX 23 24 24 25 25 26 26 27 27 28 28 29 29 30 30 31 94 32 31 33
REMARK SMILES IDX 93 34 32 35 33 36 34 37 87 38 35 39 92 40 86 41 88 42 36 43
REMARK SMILES IDX 91 44 85 45 84 46 37 48 71 49 50 50 70 51 51 52 54 53 69 54
REMARK SMILES IDX 89 55 52 56 53 57 68 59 90 60 55 61 38 62 39 63 48 64 40 65
REMARK SMILES IDX 41 66 47 67 49 68 42 69 43 70 44 71 45 72 46 73 72 74 73 75
REMARK SMILES IDX 82 76 74 77 75 78 81 79 83 80 76 81 77 82 78 83 79 84 80 85
REMARK SMILES IDX 56 86 57 87 66 88 58 89 59 90 65 91 67 92 60 93 61 94 62 95
REMARK SMILES IDX 63 96 64 97
REMARK H PARENT 88 47 54 58
REMARK Flexibility Score: inf
ROOT
ATOM      1  C   UNL A   1      38.953  22.008  26.165  1.00  0.00     0.188 C 
ENDROOT
BRANCH   1   2
ATOM      2  O   UNL A   1      37.930  21.719  25.222  1.00  0.00    -0.376 OA
BRANCH   2   3
ATOM      3  C   UNL A   1      37.213  22.852  24.750  1.00  0.00     0.202 C 
BRANCH   3   4
ATOM      4  C   UNL A   1      36.554  22.678  23.377  1.00  0.00     0.261 C 
BRANCH   4   5
ATOM      5  O   UNL A   1      35.613  23.710  23.044  1.00  0.00    -0.459 OA
BRANCH   5   6
ATOM      6  C   UNL A   1      34.314  23.400  22.827  1.00  0.00     0.345 C 
ATOM      7  O   UNL A   1      33.800  23.140  21.759  1.00  0.00    -0.246 OA
BRANCH   6   8
ATOM      8  C   UNL A   1      33.586  23.477  24.126  1.00  0.00     0.139 A 
ATOM      9  C   UNL A   1      32.647  25.009  25.817  1.00  0.00     0.038 A 
ATOM     10  C   UNL A   1      31.949  23.929  26.363  1.00  0.00     0.033 A 
ATOM     11  C   UNL A   1      33.514  24.723  24.764  1.00  0.00     0.048 A 
ATOM     12  C   UNL A   1      32.101  22.633  25.842  1.00  0.00     0.089 A 
ATOM     13  C   UNL A   1      32.911  22.415  24.713  1.00  0.00     0.284 A 
BRANCH   9  14
ATOM     14  N   UNL A   1      32.506  26.332  26.227  1.00  0.00    -0.375 N 
ATOM     15  C   UNL A   1      31.182  26.789  26.646  1.00  0.00     0.143 C 
BRANCH  14  16
ATOM     16  C   UNL A   1      33.381  27.332  25.570  1.00  0.00     0.116 C 
BRANCH  16  17
ATOM     17  C   UNL A   1      34.237  28.200  26.514  1.00  0.00     0.021 C 
BRANCH  17  18
ATOM     18  C   UNL A   1      33.966  29.714  26.655  1.00  0.00    -0.002 C 
ATOM     19  C   UNL A   1      32.570  30.134  27.087  1.00  0.00     0.004 C 
ENDBRANCH  17  18
ENDBRANCH  16  17
ENDBRANCH  14  16
ENDBRANCH   9  14
BRANCH  13  20
ATOM     20  N   UNL A   1      33.159  21.040  24.301  1.00  0.00     0.063 N 
ATOM     21  O   UNL A   1      32.297  20.499  23.595  1.00  0.00    -0.258 OA
ATOM     22  O   UNL A   1      34.150  20.472  24.778  1.00  0.00    -0.258 OA
ENDBRANCH  13  20
ENDBRANCH   6   8
ENDBRANCH   5   6
ENDBRANCH   4   5
ENDBRANCH   3   4
ENDBRANCH   2   3
ENDBRANCH   1   2
BRANCH   1  23
ATOM     23  C   UNL A   1      40.011  20.891  26.277  1.00  0.00     0.188 C 
BRANCH  23  24
ATOM     24  O   UNL A   1      40.753  20.717  27.473  1.00  0.00    -0.376 OA
BRANCH  24  25
ATOM     25  C   UNL A   1      41.995  21.389  27.595  1.00  0.00     0.202 C 
BRANCH  25  26
ATOM     26  C   UNL A   1      42.630  22.081  26.371  1.00  0.00     0.261 C 
BRANCH  26  27
ATOM     27  O   UNL A   1      42.108  23.370  26.000  1.00  0.00    -0.460 OA
BRANCH  27  28
ATOM     28  C   UNL A   1      42.984  24.408  26.044  1.00  0.00     0.338 C 
ATOM     29  O   UNL A   1      43.956  24.574  25.327  1.00  0.00    -0.246 OA
BRANCH  28  30
ATOM     30  C   UNL A   1      42.477  25.451  26.974  1.00  0.00     0.060 A 
ATOM     31  C   UNL A   1      43.119  26.700  27.010  1.00  0.00     0.016 A 
ATOM     32  C   UNL A   1      41.409  25.192  27.831  1.00  0.00     0.016 A 
ATOM     33  C   UNL A   1      42.703  27.687  27.906  1.00  0.00     0.010 A 
ATOM     34  C   UNL A   1      41.016  26.168  28.756  1.00  0.00     0.010 A 
ATOM     35  C   UNL A   1      41.680  27.410  28.818  1.00  0.00    -0.014 A 
BRANCH  35  36
ATOM     36  C   UNL A   1      41.434  28.330  29.959  1.00  0.00     0.031 A 
ATOM     37  C   UNL A   1      42.271  28.171  31.200  1.00  0.00     0.074 A 
ATOM     38  C   UNL A   1      40.492  29.290  29.902  1.00  0.00     0.049 A 
ATOM     39  N   UNL A   1      42.190  28.797  32.347  1.00  0.00    -0.248 NA
ATOM     40  C   UNL A   1      43.343  27.165  31.140  1.00  0.00     0.031 C 
ATOM     41  C   UNL A   1      39.647  29.581  28.747  1.00  0.00     0.029 A 
ATOM     42  N   UNL A   1      40.078  30.187  30.858  1.00  0.00    -0.354 N 
ATOM     43  C   UNL A   1      43.183  28.246  33.149  1.00  0.00     0.074 A 
ATOM     44  C   UNL A   1      43.840  27.222  32.365  1.00  0.00     0.031 C 
ATOM     45  C   UNL A   1      38.793  30.567  29.071  1.00  0.00     0.029 A 
ATOM     46  C   UNL A   1      39.008  30.956  30.465  1.00  0.00     0.049 A 
ATOM     47  H   UNL A   1      40.509  30.272  31.740  1.00  0.00     0.167 HD
ATOM     48  C   UNL A   1      43.518  28.566  34.422  1.00  0.00     0.037 A 
ATOM     49  C   UNL A   1      38.267  31.844  31.159  1.00  0.00     0.037 A 
ATOM     50  C   UNL A   1      42.862  29.586  35.197  1.00  0.00     0.049 A 
ATOM     51  C   UNL A   1      38.617  32.144  32.596  1.00  0.00     0.074 A 
ATOM     52  C   UNL A   1      43.152  30.009  36.482  1.00  0.00     0.029 A 
ATOM     53  N   UNL A   1      41.773  30.332  34.769  1.00  0.00    -0.354 N 
ATOM     54  N   UNL A   1      39.582  31.643  33.334  1.00  0.00    -0.248 NA
ATOM     55  C   UNL A   1      37.784  33.133  33.295  1.00  0.00     0.031 C 
ATOM     56  C   UNL A   1      42.201  30.963  36.855  1.00  0.00     0.029 A 
ATOM     57  C   UNL A   1      41.358  31.188  35.777  1.00  0.00     0.049 A 
ATOM     58  H   UNL A   1      41.356  30.264  33.880  1.00  0.00     0.167 HD
ATOM     59  C   UNL A   1      39.488  32.278  34.570  1.00  0.00     0.074 A 
ATOM     60  C   UNL A   1      38.379  33.205  34.478  1.00  0.00     0.031 C 
ATOM     61  C   UNL A   1      40.254  32.112  35.677  1.00  0.00     0.037 A 
BRANCH  48  62
ATOM     62  C   UNL A   1      44.619  27.772  35.073  1.00  0.00     0.058 A 
ATOM     63  C   UNL A   1      45.962  28.180  35.027  1.00  0.00     0.135 A 
ATOM     64  C   UNL A   1      44.320  26.593  35.776  1.00  0.00     0.135 A 
ATOM     65  F   UNL A   1      46.310  29.290  34.355  1.00  0.00    -0.206 F 
ATOM     66  C   UNL A   1      46.971  27.433  35.626  1.00  0.00     0.059 A 
ATOM     67  C   UNL A   1      45.308  25.847  36.410  1.00  0.00     0.059 A 
ATOM     68  F   UNL A   1      43.053  26.155  35.852  1.00  0.00    -0.206 F 
ATOM     69  C   UNL A   1      46.633  26.267  36.316  1.00  0.00     0.060 A 
BRANCH  69  70
ATOM     70  S   UNL A   1      47.954  25.306  37.085  1.00  0.00     0.124 S 
ATOM     71  O   UNL A   1      48.916  26.351  37.422  1.00  0.00    -0.237 OA
ATOM     72  O   UNL A   1      47.271  24.687  38.217  1.00  0.00    -0.237 OA
ATOM     73  O   UNL A   1      48.370  24.389  36.030  1.00  0.00    -0.744 OA
ENDBRANCH  69  70
ENDBRANCH  48  62
BRANCH  49  74
ATOM     74  C   UNL A   1      37.099  32.501  30.508  1.00  0.00     0.058 A 
ATOM     75  C   UNL A   1      35.807  31.966  30.615  1.00  0.00     0.135 A 
ATOM     76  C   UNL A   1      37.255  33.687  29.771  1.00  0.00     0.135 A 
ATOM     77  F   UNL A   1      35.609  30.824  31.291  1.00  0.00    -0.206 F 
ATOM     78  C   UNL A   1      34.712  32.577  30.010  1.00  0.00     0.059 A 
ATOM     79  C   UNL A   1      36.171  34.331  29.181  1.00  0.00     0.059 A 
ATOM     80  F   UNL A   1      38.469  34.242  29.638  1.00  0.00    -0.206 F 
ATOM     81  C   UNL A   1      34.903  33.763  29.300  1.00  0.00     0.060 A 
BRANCH  81  82
ATOM     82  S   UNL A   1      33.466  34.575  28.567  1.00  0.00     0.124 S 
ATOM     83  O   UNL A   1      34.080  35.713  27.893  1.00  0.00    -0.237 OA
ATOM     84  O   UNL A   1      32.934  33.530  27.698  1.00  0.00    -0.237 OA
ATOM     85  O   UNL A   1      32.636  34.901  29.724  1.00  0.00    -0.744 OA
ENDBRANCH  81  82
ENDBRANCH  49  74
BRANCH  61  86
ATOM     86  C   UNL A   1      39.956  32.976  36.876  1.00  0.00     0.058 A 
ATOM     87  C   UNL A   1      38.920  32.671  37.774  1.00  0.00     0.135 A 
ATOM     88  C   UNL A   1      40.763  34.090  37.166  1.00  0.00     0.135 A 
ATOM     89  F   UNL A   1      38.114  31.622  37.547  1.00  0.00    -0.206 F 
ATOM     90  C   UNL A   1      38.679  33.455  38.900  1.00  0.00     0.059 A 
ATOM     91  C   UNL A   1      40.561  34.867  38.302  1.00  0.00     0.059 A 
ATOM     92  F   UNL A   1      41.777  34.420  36.351  1.00  0.00    -0.206 F 
ATOM     93  C   UNL A   1      39.508  34.549  39.158  1.00  0.00     0.060 A 
BRANCH  93  94
ATOM     94  S   UNL A   1      39.207  35.534  40.641  1.00  0.00     0.124 S 
ATOM     95  O   UNL A   1      40.468  35.379  41.359  1.00  0.00    -0.237 OA
ATOM     96  O   UNL A   1      38.951  36.861  40.088  1.00  0.00    -0.237 OA
ATOM     97  O   UNL A   1      38.052  34.884  41.254  1.00  0.00    -0.744 OA
ENDBRANCH  93  94
ENDBRANCH  61  86
ENDBRANCH  35  36
ENDBRANCH  28  30
ENDBRANCH  27  28
ENDBRANCH  26  27
ENDBRANCH  25  26
ENDBRANCH  24  25
ENDBRANCH  23  24
ENDBRANCH   1  23
TORSDOF 25
ENDMDL
MODEL 2
REMARK VINA RESULT:      -8.8      1.217      2.069
REMARK SMILES CCCCN(C)c1ccc([N+](=O)[O-])c(C(=O)OCCOCCOCCOC(=O)c2ccc(-c3c4nc(c(-c5c(F)cc(S(=O)(=O)[O-])cc5F)c5ccc([nH]5)c(-c5c(F)cc(S(=O)(=O)[O-])cc5F)c5nc(c(-c6c(F)cc(S(=O)(=O)[O-])cc6F)c6ccc3[nH]6)C=C5)C=C4)cc2)c1
REMARK SMILES IDX 21 1 20 2 19 3 18 4 17 5 15 6 16 7 14 8 7 9 8 10 95 11 9 12
REMARK SMILES IDX 10 13 5 14 6 15 4 16 3 17 2 18 1 19 11 20 12 21 13 22 22 23
REMARK SMILES IDX 23 24 24 25 25 26 26 27 27 28 28 29 29 30 30 31 94 32 31 33
REMARK SMILES IDX 93 34 32 35 33 36 34 37 87 38 35 39 92 40 86 41 88 42 36 43
REMARK SMILES IDX 91 44 85 45 84 46 37 48 71 49 50 50 70 51 51 52 54 53 69 54
REMARK SMILES IDX 89 55 52 56 53 57 68 59 90 60 55 61 38 62 39 63 48 64 40 65
REMARK SMILES IDX 41 66 47 67 49 68 42 69 43 70 44 71 45 72 46 73 72 74 73 75
REMARK SMILES IDX 82 76 74 77 75 78 81 79 83 80 76 81 77 82 78 83 79 84 80 85
REMARK SMILES IDX 56 86 57 87 66 88 58 89 59 90 65 91 67 92 60 93 61 94 62 95
REMARK SMILES IDX 63 96 64 97
REMARK H PARENT 88 47 54 58
REMARK Flexibility Score: inf
ROOT
ATOM      1  C   UNL A   1      39.849  22.296  26.415  1.00  0.00     0.188 C 
ENDROOT
BRANCH   1   2
ATOM      2  O   UNL A   1      38.992  21.351  25.789  1.00  0.00    -0.376 OA
BRANCH   2   3
ATOM      3  C   UNL A   1      37.625  21.735  25.722  1.00  0.00     0.202 C 
BRANCH   3   4
ATOM      4  C   UNL A   1      37.380  23.207  25.376  1.00  0.00     0.261 C 
BRANCH   4   5
ATOM      5  O   UNL A   1      36.021  23.634  25.559  1.00  0.00    -0.459 OA
BRANCH   5   6
ATOM      6  C   UNL A   1      35.076  23.296  24.653  1.00  0.00     0.345 C 
ATOM      7  O   UNL A   1      35.258  22.747  23.586  1.00  0.00    -0.246 OA
BRANCH   6   8
ATOM      8  C   UNL A   1      33.750  23.757  25.157  1.00  0.00     0.139 A 
ATOM      9  C   UNL A   1      31.935  25.396  24.832  1.00  0.00     0.038 A 
ATOM     10  C   UNL A   1      31.128  24.621  25.667  1.00  0.00     0.033 A 
ATOM     11  C   UNL A   1      33.255  24.977  24.677  1.00  0.00     0.048 A 
ATOM     12  C   UNL A   1      31.628  23.463  26.285  1.00  0.00     0.089 A 
ATOM     13  C   UNL A   1      32.939  23.027  26.014  1.00  0.00     0.284 A 
BRANCH   9  14
ATOM     14  N   UNL A   1      31.503  26.518  24.130  1.00  0.00    -0.375 N 
ATOM     15  C   UNL A   1      30.901  26.320  22.812  1.00  0.00     0.143 C 
BRANCH  14  16
ATOM     16  C   UNL A   1      32.272  27.769  24.332  1.00  0.00     0.116 C 
BRANCH  16  17
ATOM     17  C   UNL A   1      31.479  28.959  24.911  1.00  0.00     0.021 C 
BRANCH  17  18
ATOM     18  C   UNL A   1      32.034  29.772  26.100  1.00  0.00    -0.002 C 
ATOM     19  C   UNL A   1      31.442  31.152  26.336  1.00  0.00     0.004 C 
ENDBRANCH  17  18
ENDBRANCH  16  17
ENDBRANCH  14  16
ENDBRANCH   9  14
BRANCH  13  20
ATOM     20  N   UNL A   1      33.465  21.911  26.789  1.00  0.00     0.063 N 
ATOM     21  O   UNL A   1      33.467  20.799  26.246  1.00  0.00    -0.258 OA
ATOM     22  O   UNL A   1      33.762  22.129  27.971  1.00  0.00    -0.258 OA
ENDBRANCH  13  20
ENDBRANCH   6   8
ENDBRANCH   5   6
ENDBRANCH   4   5
ENDBRANCH   3   4
ENDBRANCH   2   3
ENDBRANCH   1   2
BRANCH   1  23
ATOM     23  C   UNL A   1      40.745  21.675  27.507  1.00  0.00     0.188 C 
BRANCH  23  24
ATOM     24  O   UNL A   1      42.126  21.460  27.272  1.00  0.00    -0.376 OA
BRANCH  24  25
ATOM     25  C   UNL A   1      42.788  22.307  26.348  1.00  0.00     0.202 C 
BRANCH  25  26
ATOM     26  C   UNL A   1      43.385  23.651  26.813  1.00  0.00     0.261 C 
BRANCH  26  27
ATOM     27  O   UNL A   1      43.230  24.779  25.932  1.00  0.00    -0.460 OA
BRANCH  27  28
ATOM     28  C   UNL A   1      42.050  25.449  26.017  1.00  0.00     0.338 C 
ATOM     29  O   UNL A   1      41.085  25.323  25.281  1.00  0.00    -0.246 OA
BRANCH  28  30
ATOM     30  C   UNL A   1      42.009  26.232  27.279  1.00  0.00     0.060 A 
ATOM     31  C   UNL A   1      41.010  25.947  28.224  1.00  0.00     0.016 A 
ATOM     32  C   UNL A   1      42.918  27.263  27.515  1.00  0.00     0.016 A 
ATOM     33  C   UNL A   1      40.909  26.695  29.399  1.00  0.00     0.010 A 
ATOM     34  C   UNL A   1      42.792  28.037  28.675  1.00  0.00     0.010 A 
ATOM     35  C   UNL A   1      41.771  27.776  29.609  1.00  0.00    -0.014 A 
BRANCH  35  36
ATOM     36  C   UNL A   1      41.485  28.750  30.695  1.00  0.00     0.031 A 
ATOM     37  C   UNL A   1      42.296  28.669  31.961  1.00  0.00     0.074 A 
ATOM     38  C   UNL A   1      40.530  29.690  30.568  1.00  0.00     0.049 A 
ATOM     39  N   UNL A   1      42.179  29.352  33.072  1.00  0.00    -0.248 NA
ATOM     40  C   UNL A   1      43.385  27.679  31.977  1.00  0.00     0.031 C 
ATOM     41  C   UNL A   1      39.707  29.908  29.381  1.00  0.00     0.029 A 
ATOM     42  N   UNL A   1      40.080  30.629  31.467  1.00  0.00    -0.354 N 
ATOM     43  C   UNL A   1      43.162  28.860  33.923  1.00  0.00     0.074 A 
ATOM     44  C   UNL A   1      43.852  27.807  33.208  1.00  0.00     0.031 C 
ATOM     45  C   UNL A   1      38.830  30.895  29.635  1.00  0.00     0.029 A 
ATOM     46  C   UNL A   1      39.008  31.358  31.011  1.00  0.00     0.049 A 
ATOM     47  H   UNL A   1      40.489  30.766  32.352  1.00  0.00     0.167 HD
ATOM     48  C   UNL A   1      43.463  29.250  35.185  1.00  0.00     0.037 A 
ATOM     49  C   UNL A   1      38.238  32.268  31.642  1.00  0.00     0.037 A 
ATOM     50  C   UNL A   1      42.773  30.297  35.892  1.00  0.00     0.049 A 
ATOM     51  C   UNL A   1      38.550  32.647  33.069  1.00  0.00     0.074 A 
ATOM     52  C   UNL A   1      43.028  30.791  37.159  1.00  0.00     0.029 A 
ATOM     53  N   UNL A   1      41.683  31.002  35.402  1.00  0.00    -0.354 N 
ATOM     54  N   UNL A   1      39.505  32.201  33.853  1.00  0.00    -0.248 NA
ATOM     55  C   UNL A   1      37.686  33.657  33.697  1.00  0.00     0.031 C 
ATOM     56  C   UNL A   1      42.054  31.747  37.460  1.00  0.00     0.029 A 
ATOM     57  C   UNL A   1      41.233  31.902  36.355  1.00  0.00     0.049 A 
ATOM     58  H   UNL A   1      41.287  30.882  34.508  1.00  0.00     0.167 HD
ATOM     59  C   UNL A   1      39.373  32.898  35.052  1.00  0.00     0.074 A 
ATOM     60  C   UNL A   1      38.253  33.800  34.888  1.00  0.00     0.031 C 
ATOM     61  C   UNL A   1      40.117  32.801  36.183  1.00  0.00     0.037 A 
BRANCH  48  62
ATOM     62  C   UNL A   1      44.561  28.509  35.900  1.00  0.00     0.058 A 
ATOM     63  C   UNL A   1      44.308  27.369  36.681  1.00  0.00     0.135 A 
ATOM     64  C   UNL A   1      45.895  28.934  35.781  1.00  0.00     0.135 A 
ATOM     65  F   UNL A   1      43.051  26.926  36.844  1.00  0.00    -0.206 F 
ATOM     66  C   UNL A   1      45.332  26.699  37.343  1.00  0.00     0.059 A 
ATOM     67  C   UNL A   1      46.938  28.261  36.408  1.00  0.00     0.059 A 
ATOM     68  F   UNL A   1      46.195  30.019  35.048  1.00  0.00    -0.206 F 
ATOM     69  C   UNL A   1      46.644  27.154  37.200  1.00  0.00     0.060 A 
BRANCH  69  70
ATOM     70  S   UNL A   1      47.961  26.275  38.068  1.00  0.00     0.124 S 
ATOM     71  O   UNL A   1      47.669  24.889  37.714  1.00  0.00    -0.237 OA
ATOM     72  O   UNL A   1      49.164  26.841  37.466  1.00  0.00    -0.237 OA
ATOM     73  O   UNL A   1      47.740  26.624  39.468  1.00  0.00    -0.744 OA
ENDBRANCH  69  70
ENDBRANCH  48  62
BRANCH  49  74
ATOM     74  C   UNL A   1      37.075  32.871  30.933  1.00  0.00     0.058 A 
ATOM     75  C   UNL A   1      37.239  33.942  30.041  1.00  0.00     0.135 A 
ATOM     76  C   UNL A   1      35.774  32.380  31.129  1.00  0.00     0.135 A 
ATOM     77  F   UNL A   1      38.458  34.461  29.835  1.00  0.00    -0.206 F 
ATOM     78  C   UNL A   1      36.156  34.509  29.375  1.00  0.00     0.059 A 
ATOM     79  C   UNL A   1      34.680  32.912  30.452  1.00  0.00     0.059 A 
ATOM     80  F   UNL A   1      35.560  31.357  31.971  1.00  0.00    -0.206 F 
ATOM     81  C   UNL A   1      34.880  33.981  29.581  1.00  0.00     0.060 A 
BRANCH  81  82
ATOM     82  S   UNL A   1      33.492  34.690  28.668  1.00  0.00     0.124 S 
ATOM     83  O   UNL A   1      32.543  34.966  29.739  1.00  0.00    -0.237 OA
ATOM     84  O   UNL A   1      34.102  35.857  28.039  1.00  0.00    -0.237 OA
ATOM     85  O   UNL A   1      33.112  33.620  27.750  1.00  0.00    -0.744 OA
ENDBRANCH  81  82
ENDBRANCH  49  74
BRANCH  61  86
ATOM     86  C   UNL A   1      39.778  33.720  37.329  1.00  0.00     0.058 A 
ATOM     87  C   UNL A   1      38.843  33.368  38.314  1.00  0.00     0.135 A 
ATOM     88  C   UNL A   1      40.450  34.946  37.476  1.00  0.00     0.135 A 
ATOM     89  F   UNL A   1      38.167  32.211  38.223  1.00  0.00    -0.206 F 
ATOM     90  C   UNL A   1      38.567  34.208  39.390  1.00  0.00     0.059 A 
ATOM     91  C   UNL A   1      40.214  35.786  38.561  1.00  0.00     0.059 A 
ATOM     92  F   UNL A   1      41.366  35.329  36.572  1.00  0.00    -0.206 F 
ATOM     93  C   UNL A   1      39.261  35.415  39.507  1.00  0.00     0.060 A 
BRANCH  93  94
ATOM     94  S   UNL A   1      38.920  36.478  40.925  1.00  0.00     0.124 S 
ATOM     95  O   UNL A   1      38.346  37.655  40.280  1.00  0.00    -0.237 OA
ATOM     96  O   UNL A   1      37.991  35.667  41.708  1.00  0.00    -0.237 OA
ATOM     97  O   UNL A   1      40.235  36.673  41.530  1.00  0.00    -0.744 OA
ENDBRANCH  93  94
ENDBRANCH  61  86
ENDBRANCH  35  36
ENDBRANCH  28  30
ENDBRANCH  27  28
ENDBRANCH  26  27
ENDBRANCH  25  26
ENDBRANCH  24  25
ENDBRANCH  23  24
ENDBRANCH   1  23
TORSDOF 25
ENDMDL
MODEL 3
REMARK VINA RESULT:      -8.6      6.204      8.603
REMARK SMILES CCCCN(C)c1ccc([N+](=O)[O-])c(C(=O)OCCOCCOCCOC(=O)c2ccc(-c3c4nc(c(-c5c(F)cc(S(=O)(=O)[O-])cc5F)c5ccc([nH]5)c(-c5c(F)cc(S(=O)(=O)[O-])cc5F)c5nc(c(-c6c(F)cc(S(=O)(=O)[O-])cc6F)c6ccc3[nH]6)C=C5)C=C4)cc2)c1
REMARK SMILES IDX 21 1 20 2 19 3 18 4 17 5 15 6 16 7 14 8 7 9 8 10 95 11 9 12
REMARK SMILES IDX 10 13 5 14 6 15 4 16 3 17 2 18 1 19 11 20 12 21 13 22 22 23
REMARK SMILES IDX 23 24 24 25 25 26 26 27 27 28 28 29 29 30 30 31 94 32 31 33
REMARK SMILES IDX 93 34 32 35 33 36 34 37 87 38 35 39 92 40 86 41 88 42 36 43
REMARK SMILES IDX 91 44 85 45 84 46 37 48 71 49 50 50 70 51 51 52 54 53 69 54
REMARK SMILES IDX 89 55 52 56 53 57 68 59 90 60 55 61 38 62 39 63 48 64 40 65
REMARK SMILES IDX 41 66 47 67 49 68 42 69 43 70 44 71 45 72 46 73 72 74 73 75
REMARK SMILES IDX 82 76 74 77 75 78 81 79 83 80 76 81 77 82 78 83 79 84 80 85
REMARK SMILES IDX 56 86 57 87 66 88 58 89 59 90 65 91 67 92 60 93 61 94 62 95
REMARK SMILES IDX 63 96 64 97
REMARK H PARENT 88 47 54 58
REMARK Flexibility Score: inf
ROOT
ATOM      1  C   UNL A   1      38.069  22.234  25.884  1.00  0.00     0.188 C 
ENDROOT
BRANCH   1   2
ATOM      2  O   UNL A   1      37.491  22.117  24.591  1.00  0.00    -0.376 OA
BRANCH   2   3
ATOM      3  C   UNL A   1      36.761  23.257  24.156  1.00  0.00     0.202 C 
BRANCH   3   4
ATOM      4  C   UNL A   1      35.613  22.961  23.186  1.00  0.00     0.261 C 
BRANCH   4   5
ATOM      5  O   UNL A   1      34.844  24.117  22.819  1.00  0.00    -0.459 OA
BRANCH   5   6
ATOM      6  C   UNL A   1      33.613  23.968  22.278  1.00  0.00     0.345 C 
ATOM      7  O   UNL A   1      33.266  24.302  21.164  1.00  0.00    -0.246 OA
BRANCH   6   8
ATOM      8  C   UNL A   1      32.715  23.362  23.303  1.00  0.00     0.139 A 
ATOM      9  C   UNL A   1      32.087  21.261  24.435  1.00  0.00     0.038 A 
ATOM     10  C   UNL A   1      31.402  22.017  25.389  1.00  0.00     0.033 A 
ATOM     11  C   UNL A   1      32.649  21.963  23.370  1.00  0.00     0.048 A 
ATOM     12  C   UNL A   1      31.323  23.415  25.283  1.00  0.00     0.089 A 
ATOM     13  C   UNL A   1      31.994  24.085  24.243  1.00  0.00     0.284 A 
BRANCH   9  14
ATOM     14  N   UNL A   1      32.270  19.882  24.498  1.00  0.00    -0.375 N 
ATOM     15  C   UNL A   1      32.897  19.322  25.695  1.00  0.00     0.143 C 
BRANCH  14  16
ATOM     16  C   UNL A   1      32.531  19.184  23.217  1.00  0.00     0.116 C 
BRANCH  16  17
ATOM     17  C   UNL A   1      32.645  17.648  23.300  1.00  0.00     0.021 C 
BRANCH  17  18
ATOM     18  C   UNL A   1      34.010  16.948  23.127  1.00  0.00    -0.002 C 
ATOM     19  C   UNL A   1      34.627  16.310  24.361  1.00  0.00     0.004 C 
ENDBRANCH  17  18
ENDBRANCH  16  17
ENDBRANCH  14  16
ENDBRANCH   9  14
BRANCH  13  20
ATOM     20  N   UNL A   1      31.762  25.514  24.084  1.00  0.00     0.063 N 
ATOM     21  O   UNL A   1      30.851  25.855  23.318  1.00  0.00    -0.258 OA
ATOM     22  O   UNL A   1      32.562  26.285  24.630  1.00  0.00    -0.258 OA
ENDBRANCH  13  20
ENDBRANCH   6   8
ENDBRANCH   5   6
ENDBRANCH   4   5
ENDBRANCH   3   4
ENDBRANCH   2   3
ENDBRANCH   1   2
BRANCH   1  23
ATOM     23  C   UNL A   1      39.342  21.379  26.063  1.00  0.00     0.188 C 
BRANCH  23  24
ATOM     24  O   UNL A   1      40.028  21.357  27.303  1.00  0.00    -0.376 OA
BRANCH  24  25
ATOM     25  C   UNL A   1      41.249  20.642  27.380  1.00  0.00     0.202 C 
BRANCH  25  26
ATOM     26  C   UNL A   1      41.564  19.526  26.363  1.00  0.00     0.261 C 
BRANCH  26  27
ATOM     27  O   UNL A   1      42.319  19.896  25.194  1.00  0.00    -0.460 OA
BRANCH  27  28
ATOM     28  C   UNL A   1      43.673  19.872  25.322  1.00  0.00     0.338 C 
ATOM     29  O   UNL A   1      44.404  18.910  25.158  1.00  0.00    -0.246 OA
BRANCH  28  30
ATOM     30  C   UNL A   1      44.182  21.257  25.495  1.00  0.00     0.060 A 
ATOM     31  C   UNL A   1      44.669  21.650  26.753  1.00  0.00     0.016 A 
ATOM     32  C   UNL A   1      44.145  22.173  24.445  1.00  0.00     0.016 A 
ATOM     33  C   UNL A   1      45.109  22.958  26.968  1.00  0.00     0.010 A 
ATOM     34  C   UNL A   1      44.550  23.495  24.671  1.00  0.00     0.010 A 
ATOM     35  C   UNL A   1      45.008  23.902  25.940  1.00  0.00    -0.014 A 
BRANCH  35  36
ATOM     36  C   UNL A   1      45.188  25.346  26.241  1.00  0.00     0.031 A 
ATOM     37  C   UNL A   1      46.571  25.933  26.130  1.00  0.00     0.074 A 
ATOM     38  C   UNL A   1      44.154  26.127  26.604  1.00  0.00     0.049 A 
ATOM     39  N   UNL A   1      46.991  27.138  26.417  1.00  0.00    -0.248 NA
ATOM     40  C   UNL A   1      47.623  25.033  25.631  1.00  0.00     0.031 C 
ATOM     41  C   UNL A   1      42.762  25.698  26.704  1.00  0.00     0.029 A 
ATOM     42  N   UNL A   1      44.127  27.451  26.976  1.00  0.00    -0.354 N 
ATOM     43  C   UNL A   1      48.356  27.136  26.155  1.00  0.00     0.074 A 
ATOM     44  C   UNL A   1      48.698  25.803  25.705  1.00  0.00     0.031 C 
ATOM     45  C   UNL A   1      42.019  26.730  27.141  1.00  0.00     0.029 A 
ATOM     46  C   UNL A   1      42.887  27.883  27.382  1.00  0.00     0.049 A 
ATOM     47  H   UNL A   1      44.921  28.033  26.952  1.00  0.00     0.167 HD
ATOM     48  C   UNL A   1      49.244  28.151  26.276  1.00  0.00     0.037 A 
ATOM     49  C   UNL A   1      42.503  29.060  27.918  1.00  0.00     0.037 A 
ATOM     50  C   UNL A   1      48.899  29.476  26.723  1.00  0.00     0.049 A 
ATOM     51  C   UNL A   1      43.519  30.161  28.102  1.00  0.00     0.074 A 
ATOM     52  C   UNL A   1      49.721  30.583  26.843  1.00  0.00     0.029 A 
ATOM     53  N   UNL A   1      47.636  29.870  27.139  1.00  0.00    -0.354 N 
ATOM     54  N   UNL A   1      44.801  30.159  27.817  1.00  0.00    -0.248 NA
ATOM     55  C   UNL A   1      43.037  31.426  28.675  1.00  0.00     0.031 C 
ATOM     56  C   UNL A   1      48.970  31.627  27.393  1.00  0.00     0.029 A 
ATOM     57  C   UNL A   1      47.663  31.193  27.549  1.00  0.00     0.049 A 
ATOM     58  H   UNL A   1      46.836  29.295  27.142  1.00  0.00     0.167 HD
ATOM     59  C   UNL A   1      45.268  31.429  28.147  1.00  0.00     0.074 A 
ATOM     60  C   UNL A   1      44.131  32.174  28.645  1.00  0.00     0.031 C 
ATOM     61  C   UNL A   1      46.524  31.931  28.042  1.00  0.00     0.037 A 
BRANCH  48  62
ATOM     62  C   UNL A   1      50.686  27.857  25.960  1.00  0.00     0.058 A 
ATOM     63  C   UNL A   1      51.190  27.907  24.650  1.00  0.00     0.135 A 
ATOM     64  C   UNL A   1      51.586  27.544  26.993  1.00  0.00     0.135 A 
ATOM     65  F   UNL A   1      50.373  28.184  23.621  1.00  0.00    -0.206 F 
ATOM     66  C   UNL A   1      52.523  27.624  24.372  1.00  0.00     0.059 A 
ATOM     67  C   UNL A   1      52.930  27.291  26.742  1.00  0.00     0.059 A 
ATOM     68  F   UNL A   1      51.160  27.482  28.265  1.00  0.00    -0.206 F 
ATOM     69  C   UNL A   1      53.386  27.317  25.425  1.00  0.00     0.060 A 
BRANCH  69  70
ATOM     70  S   UNL A   1      55.113  26.951  25.048  1.00  0.00     0.124 S 
ATOM     71  O   UNL A   1      54.985  25.741  24.241  1.00  0.00    -0.237 OA
ATOM     72  O   UNL A   1      55.536  28.149  24.329  1.00  0.00    -0.237 OA
ATOM     73  O   UNL A   1      55.719  26.766  26.362  1.00  0.00    -0.744 OA
ENDBRANCH  69  70
ENDBRANCH  48  62
BRANCH  49  74
ATOM     74  C   UNL A   1      41.088  29.252  28.343  1.00  0.00     0.058 A 
ATOM     75  C   UNL A   1      40.053  29.365  27.403  1.00  0.00     0.135 A 
ATOM     76  C   UNL A   1      40.744  29.319  29.703  1.00  0.00     0.135 A 
ATOM     77  F   UNL A   1      40.331  29.328  26.092  1.00  0.00    -0.206 F 
ATOM     78  C   UNL A   1      38.729  29.543  27.795  1.00  0.00     0.059 A 
ATOM     79  C   UNL A   1      39.424  29.468  30.119  1.00  0.00     0.059 A 
ATOM     80  F   UNL A   1      41.696  29.216  30.644  1.00  0.00    -0.206 F 
ATOM     81  C   UNL A   1      38.423  29.586  29.156  1.00  0.00     0.060 A 
BRANCH  81  82
ATOM     82  S   UNL A   1      36.695  29.763  29.651  1.00  0.00     0.124 S 
ATOM     83  O   UNL A   1      35.998  29.220  28.491  1.00  0.00    -0.237 OA
ATOM     84  O   UNL A   1      36.639  28.954  30.865  1.00  0.00    -0.237 OA
ATOM     85  O   UNL A   1      36.548  31.201  29.858  1.00  0.00    -0.744 OA
ENDBRANCH  81  82
ENDBRANCH  49  74
BRANCH  61  86
ATOM     86  C   UNL A   1      46.742  33.371  28.432  1.00  0.00     0.058 A 
ATOM     87  C   UNL A   1      47.160  33.738  29.721  1.00  0.00     0.135 A 
ATOM     88  C   UNL A   1      46.590  34.394  27.480  1.00  0.00     0.135 A 
ATOM     89  F   UNL A   1      47.317  32.804  30.673  1.00  0.00    -0.206 F 
ATOM     90  C   UNL A   1      47.396  35.068  30.060  1.00  0.00     0.059 A 
ATOM     91  C   UNL A   1      46.852  35.727  27.788  1.00  0.00     0.059 A 
ATOM     92  F   UNL A   1      46.206  34.102  26.228  1.00  0.00    -0.206 F 
ATOM     93  C   UNL A   1      47.243  36.056  29.084  1.00  0.00     0.060 A 
BRANCH  93  94
ATOM     94  S   UNL A   1      47.586  37.772  29.526  1.00  0.00     0.124 S 
ATOM     95  O   UNL A   1      46.369  38.441  29.078  1.00  0.00    -0.237 OA
ATOM     96  O   UNL A   1      47.771  37.692  30.972  1.00  0.00    -0.237 OA
ATOM     97  O   UNL A   1      48.791  38.086  28.763  1.00  0.00    -0.744 OA
ENDBRANCH  93  94
ENDBRANCH  61  86
ENDBRANCH  35  36
ENDBRANCH  28  30
ENDBRANCH  27  28
ENDBRANCH  26  27
ENDBRANCH  25  26
ENDBRANCH  24  25
ENDBRANCH  23  24
ENDBRANCH   1  23
TORSDOF 25
ENDMDL
