MODEL 1
REMARK VINA RESULT:      -9.2      0.000      0.000
REMARK SMILES O=C(C[C@@H]1C[N@@H+](CCSc2ccccc2F)CCO1)OCCOCCOCCOC(=O)c1ccc(-c2c3nc(c(-c4c(F)cc(S(=O)(=O)[O-])cc4F)c4ccc([nH]4)c(-c4c(F)cc(S(=O)(=O)[O-])cc4F)c4nc(c(-c5c(F)cc(S(=O)(=O)[O-])cc5F)c5ccc2[nH]5)C=C4)C=C3)cc1
REMARK SMILES IDX 24 1 23 2 22 3 21 4 20 5 2 6 1 7 3 8 4 9 5 10 19 11 6 12
REMARK SMILES IDX 18 13 17 14 7 16 8 17 9 18 10 19 11 20 15 21 12 22 14 23
REMARK SMILES IDX 16 24 13 25 25 26 26 27 27 28 28 29 29 30 30 31 31 32 32 33
REMARK SMILES IDX 33 34 97 35 34 36 96 37 35 38 36 39 37 40 90 41 38 42 95 43
REMARK SMILES IDX 89 44 91 45 39 46 94 47 88 48 87 49 40 51 74 52 53 53 73 54
REMARK SMILES IDX 54 55 57 56 72 57 92 58 55 59 56 60 71 62 93 63 58 64 41 65
REMARK SMILES IDX 42 66 51 67 43 68 44 69 50 70 52 71 45 72 46 73 47 74 48 75
REMARK SMILES IDX 49 76 75 77 76 78 85 79 77 80 78 81 84 82 86 83 79 84 80 85
REMARK SMILES IDX 81 86 82 87 83 88 59 89 60 90 69 91 61 92 62 93 68 94 70 95
REMARK SMILES IDX 63 96 64 97 65 98 66 99 67 100
REMARK H PARENT 6 15 91 50 57 61
REMARK Flexibility Score: inf
ROOT
ATOM      1  C   UNL A   1      39.828  22.129  26.883  1.00  0.00     0.188 C 
ENDROOT
BRANCH   1   2
ATOM      2  O   UNL A   1      40.219  20.878  26.330  1.00  0.00    -0.376 OA
BRANCH   2   3
ATOM      3  C   UNL A   1      39.219  20.074  25.728  1.00  0.00     0.202 C 
BRANCH   3   4
ATOM      4  C   UNL A   1      38.156  20.788  24.868  1.00  0.00     0.261 C 
BRANCH   4   5
ATOM      5  O   UNL A   1      36.817  20.515  25.300  1.00  0.00    -0.463 OA
BRANCH   5   6
ATOM      6  C   UNL A   1      35.976  21.528  25.598  1.00  0.00     0.308 C 
ATOM      7  O   UNL A   1      36.349  22.584  26.087  1.00  0.00    -0.252 OA
BRANCH   6   8
ATOM      8  C   UNL A   1      34.540  21.110  25.525  1.00  0.00     0.160 C 
BRANCH   8   9
ATOM      9  C   UNL A   1      33.642  22.149  24.884  1.00  0.00     0.184 C 
ATOM     10  C   UNL A   1      32.275  22.328  25.609  1.00  0.00     0.295 C 
ATOM     11  O   UNL A   1      33.543  21.755  23.510  1.00  0.00    -0.366 OA
ATOM     12  N   UNL A   1      31.254  23.051  24.823  1.00  0.00    -0.330 N 
ATOM     13  C   UNL A   1      32.639  22.604  22.814  1.00  0.00     0.222 C 
ATOM     14  C   UNL A   1      31.274  22.475  23.485  1.00  0.00     0.291 C 
ATOM     15  H   UNL A   1      30.342  22.901  25.254  1.00  0.00     0.348 HD
BRANCH  12  16
ATOM     16  C   UNL A   1      31.240  24.525  24.907  1.00  0.00     0.273 C 
BRANCH  16  17
ATOM     17  C   UNL A   1      30.742  25.370  26.139  1.00  0.00     0.136 C 
BRANCH  17  18
ATOM     18  S   UNL A   1      31.416  27.060  26.503  1.00  0.00    -0.117 SA
BRANCH  18  19
ATOM     19  C   UNL A   1      32.082  27.617  24.923  1.00  0.00     0.043 A 
ATOM     20  C   UNL A   1      33.482  27.714  24.827  1.00  0.00     0.018 A 
ATOM     21  C   UNL A   1      31.312  28.090  23.854  1.00  0.00     0.136 A 
ATOM     22  C   UNL A   1      34.077  28.424  23.777  1.00  0.00     0.001 A 
ATOM     23  C   UNL A   1      31.910  28.746  22.770  1.00  0.00     0.040 A 
ATOM     24  F   UNL A   1      29.973  28.006  23.887  1.00  0.00    -0.206 F 
ATOM     25  C   UNL A   1      33.290  28.953  22.757  1.00  0.00     0.003 A 
ENDBRANCH  18  19
ENDBRANCH  17  18
ENDBRANCH  16  17
ENDBRANCH  12  16
ENDBRANCH   8   9
ENDBRANCH   6   8
ENDBRANCH   5   6
ENDBRANCH   4   5
ENDBRANCH   3   4
ENDBRANCH   2   3
ENDBRANCH   1   2
BRANCH   1  26
ATOM     26  C   UNL A   1      40.944  23.201  26.882  1.00  0.00     0.188 C 
BRANCH  26  27
ATOM     27  O   UNL A   1      42.288  22.818  26.608  1.00  0.00    -0.376 OA
BRANCH  27  28
ATOM     28  C   UNL A   1      42.889  23.227  25.388  1.00  0.00     0.202 C 
BRANCH  28  29
ATOM     29  C   UNL A   1      43.270  24.702  25.207  1.00  0.00     0.261 C 
BRANCH  29  30
ATOM     30  O   UNL A   1      42.165  25.624  25.152  1.00  0.00    -0.460 OA
BRANCH  30  31
ATOM     31  C   UNL A   1      42.509  26.934  25.271  1.00  0.00     0.338 C 
ATOM     32  O   UNL A   1      42.644  27.737  24.367  1.00  0.00    -0.246 OA
BRANCH  31  33
ATOM     33  C   UNL A   1      42.549  27.342  26.695  1.00  0.00     0.060 A 
ATOM     34  C   UNL A   1      41.527  26.881  27.535  1.00  0.00     0.016 A 
ATOM     35  C   UNL A   1      43.486  28.261  27.168  1.00  0.00     0.016 A 
ATOM     36  C   UNL A   1      41.403  27.379  28.832  1.00  0.00     0.010 A 
ATOM     37  C   UNL A   1      43.348  28.778  28.466  1.00  0.00     0.010 A 
ATOM     38  C   UNL A   1      42.279  28.373  29.287  1.00  0.00    -0.014 A 
BRANCH  38  39
ATOM     39  C   UNL A   1      41.937  29.119  30.528  1.00  0.00     0.031 A 
ATOM     40  C   UNL A   1      40.719  30.009  30.525  1.00  0.00     0.074 A 
ATOM     41  C   UNL A   1      42.639  28.952  31.665  1.00  0.00     0.049 A 
ATOM     42  N   UNL A   1      40.217  30.730  31.493  1.00  0.00    -0.248 NA
ATOM     43  C   UNL A   1      39.963  30.089  29.264  1.00  0.00     0.031 C 
ATOM     44  C   UNL A   1      43.800  28.078  31.823  1.00  0.00     0.029 A 
ATOM     45  N   UNL A   1      42.465  29.509  32.909  1.00  0.00    -0.354 N 
ATOM     46  C   UNL A   1      39.085  31.341  30.964  1.00  0.00     0.074 A 
ATOM     47  C   UNL A   1      38.993  30.936  29.579  1.00  0.00     0.031 C 
ATOM     48  C   UNL A   1      44.231  28.153  33.095  1.00  0.00     0.029 A 
ATOM     49  C   UNL A   1      43.395  29.099  33.835  1.00  0.00     0.049 A 
ATOM     50  H   UNL A   1      41.741  30.142  33.118  1.00  0.00     0.167 HD
ATOM     51  C   UNL A   1      38.192  32.152  31.579  1.00  0.00     0.037 A 
ATOM     52  C   UNL A   1      43.556  29.451  35.128  1.00  0.00     0.037 A 
ATOM     53  C   UNL A   1      38.272  32.555  32.958  1.00  0.00     0.049 A 
ATOM     54  C   UNL A   1      42.597  30.424  35.765  1.00  0.00     0.074 A 
ATOM     55  C   UNL A   1      37.407  33.375  33.664  1.00  0.00     0.029 A 
ATOM     56  N   UNL A   1      39.265  32.168  33.843  1.00  0.00    -0.354 N 
ATOM     57  N   UNL A   1      41.533  30.992  35.250  1.00  0.00    -0.248 NA
ATOM     58  C   UNL A   1      42.859  30.802  37.163  1.00  0.00     0.031 C 
ATOM     59  C   UNL A   1      37.901  33.520  34.963  1.00  0.00     0.029 A 
ATOM     60  C   UNL A   1      39.047  32.750  35.081  1.00  0.00     0.049 A 
ATOM     61  H   UNL A   1      40.015  31.569  33.625  1.00  0.00     0.167 HD
ATOM     62  C   UNL A   1      40.986  31.771  36.267  1.00  0.00     0.074 A 
ATOM     63  C   UNL A   1      41.828  31.591  37.430  1.00  0.00     0.031 C 
ATOM     64  C   UNL A   1      39.885  32.563  36.238  1.00  0.00     0.037 A 
BRANCH  51  65
ATOM     65  C   UNL A   1      37.036  32.668  30.769  1.00  0.00     0.058 A 
ATOM     66  C   UNL A   1      37.177  33.819  29.979  1.00  0.00     0.135 A 
ATOM     67  C   UNL A   1      35.765  32.078  30.850  1.00  0.00     0.135 A 
ATOM     68  F   UNL A   1      38.374  34.415  29.859  1.00  0.00    -0.206 F 
ATOM     69  C   UNL A   1      36.091  34.386  29.321  1.00  0.00     0.059 A 
ATOM     70  C   UNL A   1      34.669  32.615  30.182  1.00  0.00     0.059 A 
ATOM     71  F   UNL A   1      35.584  30.962  31.573  1.00  0.00    -0.206 F 
ATOM     72  C   UNL A   1      34.839  33.782  29.435  1.00  0.00     0.060 A 
BRANCH  72  73
ATOM     73  S   UNL A   1      33.438  34.537  28.581  1.00  0.00     0.124 S 
ATOM     74  O   UNL A   1      34.081  35.626  27.857  1.00  0.00    -0.237 OA
ATOM     75  O   UNL A   1      32.948  33.430  27.764  1.00  0.00    -0.237 OA
ATOM     76  O   UNL A   1      32.554  34.939  29.671  1.00  0.00    -0.744 OA
ENDBRANCH  72  73
ENDBRANCH  51  65
BRANCH  52  77
ATOM     77  C   UNL A   1      44.678  28.879  35.922  1.00  0.00     0.058 A 
ATOM     78  C   UNL A   1      44.550  27.643  36.573  1.00  0.00     0.135 A 
ATOM     79  C   UNL A   1      45.906  29.550  36.029  1.00  0.00     0.135 A 
ATOM     80  F   UNL A   1      43.398  26.959  36.503  1.00  0.00    -0.206 F 
ATOM     81  C   UNL A   1      45.592  27.102  37.319  1.00  0.00     0.059 A 
ATOM     82  C   UNL A   1      46.971  29.017  36.749  1.00  0.00     0.059 A 
ATOM     83  F   UNL A   1      46.082  30.727  35.407  1.00  0.00    -0.206 F 
ATOM     84  C   UNL A   1      46.797  27.799  37.404  1.00  0.00     0.060 A 
BRANCH  84  85
ATOM     85  S   UNL A   1      48.127  27.087  38.393  1.00  0.00     0.124 S 
ATOM     86  O   UNL A   1      48.044  25.680  38.011  1.00  0.00    -0.237 OA
ATOM     87  O   UNL A   1      49.296  27.810  37.903  1.00  0.00    -0.237 OA
ATOM     88  O   UNL A   1      47.731  27.393  39.764  1.00  0.00    -0.744 OA
ENDBRANCH  84  85
ENDBRANCH  52  77
BRANCH  64  89
ATOM     89  C   UNL A   1      39.504  33.284  37.503  1.00  0.00     0.058 A 
ATOM     90  C   UNL A   1      40.159  34.470  37.873  1.00  0.00     0.135 A 
ATOM     91  C   UNL A   1      38.537  32.770  38.381  1.00  0.00     0.135 A 
ATOM     92  F   UNL A   1      41.099  35.002  37.075  1.00  0.00    -0.206 F 
ATOM     93  C   UNL A   1      39.872  35.118  39.071  1.00  0.00     0.059 A 
ATOM     94  C   UNL A   1      38.215  33.415  39.572  1.00  0.00     0.059 A 
ATOM     95  F   UNL A   1      37.877  31.643  38.071  1.00  0.00    -0.206 F 
ATOM     96  C   UNL A   1      38.897  34.582  39.914  1.00  0.00     0.060 A 
BRANCH  96  97
ATOM     97  S   UNL A   1      38.509  35.455  41.447  1.00  0.00     0.124 S 
ATOM     98  O   UNL A   1      39.596  35.024  42.320  1.00  0.00    -0.237 OA
ATOM     99  O   UNL A   1      38.549  36.852  41.027  1.00  0.00    -0.237 OA
ATOM    100  O   UNL A   1      37.184  34.950  41.797  1.00  0.00    -0.744 OA
ENDBRANCH  96  97
ENDBRANCH  64  89
ENDBRANCH  38  39
ENDBRANCH  31  33
ENDBRANCH  30  31
ENDBRANCH  29  30
ENDBRANCH  28  29
ENDBRANCH  27  28
ENDBRANCH  26  27
ENDBRANCH   1  26
TORSDOF 25
ENDMDL
MODEL 2
REMARK VINA RESULT:      -8.8      2.163      3.604
REMARK SMILES O=C(C[C@@H]1C[N@@H+](CCSc2ccccc2F)CCO1)OCCOCCOCCOC(=O)c1ccc(-c2c3nc(c(-c4c(F)cc(S(=O)(=O)[O-])cc4F)c4ccc([nH]4)c(-c4c(F)cc(S(=O)(=O)[O-])cc4F)c4nc(c(-c5c(F)cc(S(=O)(=O)[O-])cc5F)c5ccc2[nH]5)C=C4)C=C3)cc1
REMARK SMILES IDX 24 1 23 2 22 3 21 4 20 5 2 6 1 7 3 8 4 9 5 10 19 11 6 12
REMARK SMILES IDX 18 13 17 14 7 16 8 17 9 18 10 19 11 20 15 21 12 22 14 23
REMARK SMILES IDX 16 24 13 25 25 26 26 27 27 28 28 29 29 30 30 31 31 32 32 33
REMARK SMILES IDX 33 34 97 35 34 36 96 37 35 38 36 39 37 40 90 41 38 42 95 43
REMARK SMILES IDX 89 44 91 45 39 46 94 47 88 48 87 49 40 51 74 52 53 53 73 54
REMARK SMILES IDX 54 55 57 56 72 57 92 58 55 59 56 60 71 62 93 63 58 64 41 65
REMARK SMILES IDX 42 66 51 67 43 68 44 69 50 70 52 71 45 72 46 73 47 74 48 75
REMARK SMILES IDX 49 76 75 77 76 78 85 79 77 80 78 81 84 82 86 83 79 84 80 85
REMARK SMILES IDX 81 86 82 87 83 88 59 89 60 90 69 91 61 92 62 93 68 94 70 95
REMARK SMILES IDX 63 96 64 97 65 98 66 99 67 100
REMARK H PARENT 6 15 91 50 57 61
REMARK Flexibility Score: inf
ROOT
ATOM      1  C   UNL A   1      39.390  22.962  26.883  1.00  0.00     0.188 C 
ENDROOT
BRANCH   1   2
ATOM      2  O   UNL A   1      39.445  21.774  26.103  1.00  0.00    -0.376 OA
BRANCH   2   3
ATOM      3  C   UNL A   1      38.283  21.392  25.388  1.00  0.00     0.202 C 
BRANCH   3   4
ATOM      4  C   UNL A   1      37.276  22.503  25.023  1.00  0.00     0.261 C 
BRANCH   4   5
ATOM      5  O   UNL A   1      36.328  22.759  26.067  1.00  0.00    -0.463 OA
BRANCH   5   6
ATOM      6  C   UNL A   1      35.332  23.650  25.881  1.00  0.00     0.308 C 
ATOM      7  O   UNL A   1      35.527  24.810  25.548  1.00  0.00    -0.252 OA
BRANCH   6   8
ATOM      8  C   UNL A   1      34.018  23.144  26.390  1.00  0.00     0.160 C 
BRANCH   8   9
ATOM      9  C   UNL A   1      33.034  22.808  25.288  1.00  0.00     0.184 C 
ATOM     10  C   UNL A   1      33.692  22.671  23.882  1.00  0.00     0.295 C 
ATOM     11  O   UNL A   1      32.020  23.816  25.378  1.00  0.00    -0.366 OA
ATOM     12  N   UNL A   1      32.739  22.702  22.754  1.00  0.00    -0.330 N 
ATOM     13  C   UNL A   1      31.077  23.667  24.322  1.00  0.00     0.222 C 
ATOM     14  C   UNL A   1      31.833  23.814  23.005  1.00  0.00     0.291 C 
ATOM     15  H   UNL A   1      33.259  22.862  21.891  1.00  0.00     0.348 HD
BRANCH  12  16
ATOM     16  C   UNL A   1      32.120  21.426  22.343  1.00  0.00     0.273 C 
BRANCH  16  17
ATOM     17  C   UNL A   1      32.202  20.069  23.138  1.00  0.00     0.136 C 
BRANCH  17  18
ATOM     18  S   UNL A   1      32.267  18.430  22.270  1.00  0.00    -0.117 SA
BRANCH  18  19
ATOM     19  C   UNL A   1      32.922  17.301  23.513  1.00  0.00     0.043 A 
ATOM     20  C   UNL A   1      32.218  17.221  24.729  1.00  0.00     0.018 A 
ATOM     21  C   UNL A   1      34.141  16.619  23.410  1.00  0.00     0.136 A 
ATOM     22  C   UNL A   1      32.805  16.632  25.855  1.00  0.00     0.001 A 
ATOM     23  C   UNL A   1      34.701  15.974  24.520  1.00  0.00     0.040 A 
ATOM     24  F   UNL A   1      34.844  16.648  22.268  1.00  0.00    -0.206 F 
ATOM     25  C   UNL A   1      34.053  16.022  25.755  1.00  0.00     0.003 A 
ENDBRANCH  18  19
ENDBRANCH  17  18
ENDBRANCH  16  17
ENDBRANCH  12  16
ENDBRANCH   8   9
ENDBRANCH   6   8
ENDBRANCH   5   6
ENDBRANCH   4   5
ENDBRANCH   3   4
ENDBRANCH   2   3
ENDBRANCH   1   2
BRANCH   1  26
ATOM     26  C   UNL A   1      40.695  23.793  26.867  1.00  0.00     0.188 C 
BRANCH  26  27
ATOM     27  O   UNL A   1      41.946  23.138  26.690  1.00  0.00    -0.376 OA
BRANCH  27  28
ATOM     28  C   UNL A   1      42.668  23.339  25.484  1.00  0.00     0.202 C 
BRANCH  28  29
ATOM     29  C   UNL A   1      43.010  24.772  25.054  1.00  0.00     0.261 C 
BRANCH  29  30
ATOM     30  O   UNL A   1      42.023  25.768  25.381  1.00  0.00    -0.460 OA
BRANCH  30  31
ATOM     31  C   UNL A   1      42.484  27.047  25.387  1.00  0.00     0.338 C 
ATOM     32  O   UNL A   1      42.652  27.766  24.420  1.00  0.00    -0.246 OA
BRANCH  31  33
ATOM     33  C   UNL A   1      42.615  27.555  26.772  1.00  0.00     0.060 A 
ATOM     34  C   UNL A   1      41.875  26.914  27.776  1.00  0.00     0.016 A 
ATOM     35  C   UNL A   1      43.338  28.712  27.064  1.00  0.00     0.016 A 
ATOM     36  C   UNL A   1      41.809  27.460  29.058  1.00  0.00     0.010 A 
ATOM     37  C   UNL A   1      43.254  29.271  28.349  1.00  0.00     0.010 A 
ATOM     38  C   UNL A   1      42.452  28.672  29.338  1.00  0.00    -0.014 A 
BRANCH  38  39
ATOM     39  C   UNL A   1      42.105  29.396  30.590  1.00  0.00     0.031 A 
ATOM     40  C   UNL A   1      40.876  30.271  30.603  1.00  0.00     0.074 A 
ATOM     41  C   UNL A   1      42.814  29.224  31.722  1.00  0.00     0.049 A 
ATOM     42  N   UNL A   1      40.368  30.972  31.584  1.00  0.00    -0.248 NA
ATOM     43  C   UNL A   1      40.113  30.357  29.346  1.00  0.00     0.031 C 
ATOM     44  C   UNL A   1      43.986  28.363  31.864  1.00  0.00     0.029 A 
ATOM     45  N   UNL A   1      42.638  29.762  32.974  1.00  0.00    -0.354 N 
ATOM     46  C   UNL A   1      39.226  31.575  31.067  1.00  0.00     0.074 A 
ATOM     47  C   UNL A   1      39.134  31.187  29.676  1.00  0.00     0.031 C 
ATOM     48  C   UNL A   1      44.422  28.427  33.136  1.00  0.00     0.029 A 
ATOM     49  C   UNL A   1      43.576  29.352  33.892  1.00  0.00     0.049 A 
ATOM     50  H   UNL A   1      41.906  30.383  33.194  1.00  0.00     0.167 HD
ATOM     51  C   UNL A   1      38.325  32.366  31.696  1.00  0.00     0.037 A 
ATOM     52  C   UNL A   1      43.738  29.688  35.188  1.00  0.00     0.037 A 
ATOM     53  C   UNL A   1      38.405  32.752  33.080  1.00  0.00     0.049 A 
ATOM     54  C   UNL A   1      42.769  30.640  35.842  1.00  0.00     0.074 A 
ATOM     55  C   UNL A   1      37.532  33.551  33.800  1.00  0.00     0.029 A 
ATOM     56  N   UNL A   1      39.406  32.366  33.956  1.00  0.00    -0.354 N 
ATOM     57  N   UNL A   1      41.695  31.201  35.338  1.00  0.00    -0.248 NA
ATOM     58  C   UNL A   1      43.031  31.002  37.243  1.00  0.00     0.031 C 
ATOM     59  C   UNL A   1      38.029  33.685  35.099  1.00  0.00     0.029 A 
ATOM     60  C   UNL A   1      39.186  32.928  35.202  1.00  0.00     0.049 A 
ATOM     61  H   UNL A   1      40.163  31.780  33.727  1.00  0.00     0.167 HD
ATOM     62  C   UNL A   1      41.142  31.959  36.368  1.00  0.00     0.074 A 
ATOM     63  C   UNL A   1      41.991  31.775  37.526  1.00  0.00     0.031 C 
ATOM     64  C   UNL A   1      40.031  32.737  36.354  1.00  0.00     0.037 A 
BRANCH  51  65
ATOM     65  C   UNL A   1      37.159  32.878  30.897  1.00  0.00     0.058 A 
ATOM     66  C   UNL A   1      37.295  34.016  30.087  1.00  0.00     0.135 A 
ATOM     67  C   UNL A   1      35.885  32.298  31.009  1.00  0.00     0.135 A 
ATOM     68  F   UNL A   1      38.494  34.602  29.939  1.00  0.00    -0.206 F 
ATOM     69  C   UNL A   1      36.202  34.580  29.439  1.00  0.00     0.059 A 
ATOM     70  C   UNL A   1      34.782  32.833  30.350  1.00  0.00     0.059 A 
ATOM     71  F   UNL A   1      35.709  31.194  31.751  1.00  0.00    -0.206 F 
ATOM     72  C   UNL A   1      34.948  33.986  29.583  1.00  0.00     0.060 A 
BRANCH  72  73
ATOM     73  S   UNL A   1      33.538  34.738  28.741  1.00  0.00     0.124 S 
ATOM     74  O   UNL A   1      33.251  35.881  29.599  1.00  0.00    -0.237 OA
ATOM     75  O   UNL A   1      34.099  35.052  27.429  1.00  0.00    -0.237 OA
ATOM     76  O   UNL A   1      32.535  33.677  28.746  1.00  0.00    -0.744 OA
ENDBRANCH  72  73
ENDBRANCH  51  65
BRANCH  52  77
ATOM     77  C   UNL A   1      44.870  29.121  35.970  1.00  0.00     0.058 A 
ATOM     78  C   UNL A   1      44.717  27.944  36.719  1.00  0.00     0.135 A 
ATOM     79  C   UNL A   1      46.133  29.734  35.967  1.00  0.00     0.135 A 
ATOM     80  F   UNL A   1      43.532  27.318  36.758  1.00  0.00    -0.206 F 
ATOM     81  C   UNL A   1      45.768  27.409  37.455  1.00  0.00     0.059 A 
ATOM     82  C   UNL A   1      47.206  29.202  36.675  1.00  0.00     0.059 A 
ATOM     83  F   UNL A   1      46.333  30.850  35.249  1.00  0.00    -0.206 F 
ATOM     84  C   UNL A   1      47.008  28.047  37.429  1.00  0.00     0.060 A 
BRANCH  84  85
ATOM     85  S   UNL A   1      48.351  27.343  38.407  1.00  0.00     0.124 S 
ATOM     86  O   UNL A   1      48.096  25.914  38.254  1.00  0.00    -0.237 OA
ATOM     87  O   UNL A   1      49.532  27.855  37.720  1.00  0.00    -0.237 OA
ATOM     88  O   UNL A   1      48.119  27.887  39.742  1.00  0.00    -0.744 OA
ENDBRANCH  84  85
ENDBRANCH  52  77
BRANCH  64  89
ATOM     89  C   UNL A   1      39.646  33.435  37.630  1.00  0.00     0.058 A 
ATOM     90  C   UNL A   1      40.302  34.612  38.025  1.00  0.00     0.135 A 
ATOM     91  C   UNL A   1      38.672  32.909  38.493  1.00  0.00     0.135 A 
ATOM     92  F   UNL A   1      41.249  35.156  37.242  1.00  0.00    -0.206 F 
ATOM     93  C   UNL A   1      40.011  35.239  39.232  1.00  0.00     0.059 A 
ATOM     94  C   UNL A   1      38.346  33.534  39.693  1.00  0.00     0.059 A 
ATOM     95  F   UNL A   1      38.010  31.790  38.159  1.00  0.00    -0.206 F 
ATOM     96  C   UNL A   1      39.030  34.692  40.061  1.00  0.00     0.060 A 
BRANCH  96  97
ATOM     97  S   UNL A   1      38.637  35.537  41.608  1.00  0.00     0.124 S 
ATOM     98  O   UNL A   1      37.246  35.149  41.816  1.00  0.00    -0.237 OA
ATOM     99  O   UNL A   1      39.604  34.955  42.533  1.00  0.00    -0.237 OA
ATOM    100  O   UNL A   1      38.855  36.945  41.288  1.00  0.00    -0.744 OA
ENDBRANCH  96  97
ENDBRANCH  64  89
ENDBRANCH  38  39
ENDBRANCH  31  33
ENDBRANCH  30  31
ENDBRANCH  29  30
ENDBRANCH  28  29
ENDBRANCH  27  28
ENDBRANCH  26  27
ENDBRANCH   1  26
TORSDOF 25
ENDMDL
MODEL 3
REMARK VINA RESULT:      -7.8      4.423     10.673
REMARK SMILES O=C(C[C@@H]1C[N@@H+](CCSc2ccccc2F)CCO1)OCCOCCOCCOC(=O)c1ccc(-c2c3nc(c(-c4c(F)cc(S(=O)(=O)[O-])cc4F)c4ccc([nH]4)c(-c4c(F)cc(S(=O)(=O)[O-])cc4F)c4nc(c(-c5c(F)cc(S(=O)(=O)[O-])cc5F)c5ccc2[nH]5)C=C4)C=C3)cc1
REMARK SMILES IDX 24 1 23 2 22 3 21 4 20 5 2 6 1 7 3 8 4 9 5 10 19 11 6 12
REMARK SMILES IDX 18 13 17 14 7 16 8 17 9 18 10 19 11 20 15 21 12 22 14 23
REMARK SMILES IDX 16 24 13 25 25 26 26 27 27 28 28 29 29 30 30 31 31 32 32 33
REMARK SMILES IDX 33 34 97 35 34 36 96 37 35 38 36 39 37 40 90 41 38 42 95 43
REMARK SMILES IDX 89 44 91 45 39 46 94 47 88 48 87 49 40 51 74 52 53 53 73 54
REMARK SMILES IDX 54 55 57 56 72 57 92 58 55 59 56 60 71 62 93 63 58 64 41 65
REMARK SMILES IDX 42 66 51 67 43 68 44 69 50 70 52 71 45 72 46 73 47 74 48 75
REMARK SMILES IDX 49 76 75 77 76 78 85 79 77 80 78 81 84 82 86 83 79 84 80 85
REMARK SMILES IDX 81 86 82 87 83 88 59 89 60 90 69 91 61 92 62 93 68 94 70 95
REMARK SMILES IDX 63 96 64 97 65 98 66 99 67 100
REMARK H PARENT 6 15 91 50 57 61
REMARK Flexibility Score: inf
ROOT
ATOM      1  C   UNL A   1      45.204  25.483  31.638  1.00  0.00     0.188 C 
ENDROOT
BRANCH   1   2
ATOM      2  O   UNL A   1      44.335  24.710  30.818  1.00  0.00    -0.376 OA
BRANCH   2   3
ATOM      3  C   UNL A   1      44.912  23.713  29.993  1.00  0.00     0.202 C 
BRANCH   3   4
ATOM      4  C   UNL A   1      45.540  24.170  28.660  1.00  0.00     0.261 C 
BRANCH   4   5
ATOM      5  O   UNL A   1      45.263  23.272  27.578  1.00  0.00    -0.463 OA
BRANCH   5   6
ATOM      6  C   UNL A   1      44.673  23.723  26.450  1.00  0.00     0.308 C 
ATOM      7  O   UNL A   1      44.711  23.118  25.389  1.00  0.00    -0.252 OA
BRANCH   6   8
ATOM      8  C   UNL A   1      44.223  25.146  26.578  1.00  0.00     0.160 C 
BRANCH   8   9
ATOM      9  C   UNL A   1      45.329  26.151  26.328  1.00  0.00     0.184 C 
ATOM     10  C   UNL A   1      44.821  27.617  26.185  1.00  0.00     0.295 C 
ATOM     11  O   UNL A   1      46.034  25.649  25.187  1.00  0.00    -0.366 OA
ATOM     12  N   UNL A   1      45.802  28.551  25.595  1.00  0.00    -0.330 N 
ATOM     13  C   UNL A   1      47.048  26.565  24.788  1.00  0.00     0.222 C 
ATOM     14  C   UNL A   1      46.366  27.882  24.431  1.00  0.00     0.291 C 
ATOM     15  H   UNL A   1      45.314  29.400  25.308  1.00  0.00     0.348 HD
BRANCH  12  16
ATOM     16  C   UNL A   1      46.759  29.207  26.508  1.00  0.00     0.273 C 
BRANCH  16  17
ATOM     17  C   UNL A   1      46.416  29.804  27.924  1.00  0.00     0.136 C 
BRANCH  17  18
ATOM     18  S   UNL A   1      47.299  29.249  29.459  1.00  0.00    -0.117 SA
BRANCH  18  19
ATOM     19  C   UNL A   1      46.528  30.204  30.779  1.00  0.00     0.043 A 
ATOM     20  C   UNL A   1      47.383  30.986  31.576  1.00  0.00     0.018 A 
ATOM     21  C   UNL A   1      45.181  30.111  31.151  1.00  0.00     0.136 A 
ATOM     22  C   UNL A   1      46.942  31.504  32.799  1.00  0.00     0.001 A 
ATOM     23  C   UNL A   1      44.722  30.682  32.344  1.00  0.00     0.040 A 
ATOM     24  F   UNL A   1      44.318  29.391  30.416  1.00  0.00    -0.206 F 
ATOM     25  C   UNL A   1      45.615  31.339  33.191  1.00  0.00     0.003 A 
ENDBRANCH  18  19
ENDBRANCH  17  18
ENDBRANCH  16  17
ENDBRANCH  12  16
ENDBRANCH   8   9
ENDBRANCH   6   8
ENDBRANCH   5   6
ENDBRANCH   4   5
ENDBRANCH   3   4
ENDBRANCH   2   3
ENDBRANCH   1   2
BRANCH   1  26
ATOM     26  C   UNL A   1      45.902  24.678  32.760  1.00  0.00     0.188 C 
BRANCH  26  27
ATOM     27  O   UNL A   1      46.866  25.316  33.591  1.00  0.00    -0.376 OA
BRANCH  27  28
ATOM     28  C   UNL A   1      47.881  24.534  34.201  1.00  0.00     0.202 C 
BRANCH  28  29
ATOM     29  C   UNL A   1      47.989  24.524  35.732  1.00  0.00     0.261 C 
BRANCH  29  30
ATOM     30  O   UNL A   1      46.757  24.750  36.441  1.00  0.00    -0.460 OA
BRANCH  30  31
ATOM     31  C   UNL A   1      46.790  25.779  37.329  1.00  0.00     0.338 C 
ATOM     32  O   UNL A   1      47.572  25.921  38.251  1.00  0.00    -0.246 OA
BRANCH  31  33
ATOM     33  C   UNL A   1      45.832  26.840  36.944  1.00  0.00     0.060 A 
ATOM     34  C   UNL A   1      44.517  26.738  37.420  1.00  0.00     0.016 A 
ATOM     35  C   UNL A   1      46.172  27.840  36.032  1.00  0.00     0.016 A 
ATOM     36  C   UNL A   1      43.527  27.596  36.943  1.00  0.00     0.010 A 
ATOM     37  C   UNL A   1      45.170  28.689  35.536  1.00  0.00     0.010 A 
ATOM     38  C   UNL A   1      43.835  28.541  35.955  1.00  0.00    -0.014 A 
BRANCH  38  39
ATOM     39  C   UNL A   1      42.722  29.211  35.231  1.00  0.00     0.031 A 
ATOM     40  C   UNL A   1      42.117  30.458  35.826  1.00  0.00     0.074 A 
ATOM     41  C   UNL A   1      42.304  28.775  34.027  1.00  0.00     0.049 A 
ATOM     42  N   UNL A   1      41.161  31.219  35.361  1.00  0.00    -0.248 NA
ATOM     43  C   UNL A   1      42.672  30.912  37.113  1.00  0.00     0.031 C 
ATOM     44  C   UNL A   1      42.841  27.620  33.311  1.00  0.00     0.029 A 
ATOM     45  N   UNL A   1      41.332  29.268  33.189  1.00  0.00    -0.354 N 
ATOM     46  C   UNL A   1      41.004  32.243  36.289  1.00  0.00     0.074 A 
ATOM     47  C   UNL A   1      41.939  31.987  37.363  1.00  0.00     0.031 C 
ATOM     48  C   UNL A   1      42.195  27.496  32.137  1.00  0.00     0.029 A 
ATOM     49  C   UNL A   1      41.181  28.546  32.029  1.00  0.00     0.049 A 
ATOM     50  H   UNL A   1      40.795  30.066  33.400  1.00  0.00     0.167 HD
ATOM     51  C   UNL A   1      40.172  33.310  36.245  1.00  0.00     0.037 A 
ATOM     52  C   UNL A   1      40.321  28.709  31.003  1.00  0.00     0.037 A 
ATOM     53  C   UNL A   1      39.244  33.576  35.177  1.00  0.00     0.049 A 
ATOM     54  C   UNL A   1      39.344  29.858  31.019  1.00  0.00     0.074 A 
ATOM     55  C   UNL A   1      38.363  34.637  35.051  1.00  0.00     0.029 A 
ATOM     56  N   UNL A   1      39.079  32.785  34.053  1.00  0.00    -0.354 N 
ATOM     57  N   UNL A   1      39.210  30.816  31.905  1.00  0.00    -0.248 NA
ATOM     58  C   UNL A   1      38.402  29.949  29.892  1.00  0.00     0.031 C 
ATOM     59  C   UNL A   1      37.633  34.463  33.872  1.00  0.00     0.029 A 
ATOM     60  C   UNL A   1      38.095  33.320  33.239  1.00  0.00     0.049 A 
ATOM     61  H   UNL A   1      39.585  31.962  33.860  1.00  0.00     0.167 HD
ATOM     62  C   UNL A   1      38.190  31.635  31.428  1.00  0.00     0.074 A 
ATOM     63  C   UNL A   1      37.750  31.069  30.171  1.00  0.00     0.031 C 
ATOM     64  C   UNL A   1      37.665  32.756  31.984  1.00  0.00     0.037 A 
BRANCH  51  65
ATOM     65  C   UNL A   1      40.217  34.286  37.386  1.00  0.00     0.058 A 
ATOM     66  C   UNL A   1      41.174  35.312  37.410  1.00  0.00     0.135 A 
ATOM     67  C   UNL A   1      39.375  34.146  38.501  1.00  0.00     0.135 A 
ATOM     68  F   UNL A   1      41.996  35.495  36.365  1.00  0.00    -0.206 F 
ATOM     69  C   UNL A   1      41.315  36.148  38.512  1.00  0.00     0.059 A 
ATOM     70  C   UNL A   1      39.484  34.986  39.605  1.00  0.00     0.059 A 
ATOM     71  F   UNL A   1      38.427  33.196  38.516  1.00  0.00    -0.206 F 
ATOM     72  C   UNL A   1      40.471  35.972  39.609  1.00  0.00     0.060 A 
BRANCH  72  73
ATOM     73  S   UNL A   1      40.675  37.060  41.035  1.00  0.00     0.124 S 
ATOM     74  O   UNL A   1      41.090  38.307  40.404  1.00  0.00    -0.237 OA
ATOM     75  O   UNL A   1      39.336  37.056  41.616  1.00  0.00    -0.237 OA
ATOM     76  O   UNL A   1      41.697  36.387  41.833  1.00  0.00    -0.744 OA
ENDBRANCH  72  73
ENDBRANCH  51  65
BRANCH  52  77
ATOM     77  C   UNL A   1      40.338  27.758  29.858  1.00  0.00     0.058 A 
ATOM     78  C   UNL A   1      39.438  26.683  29.795  1.00  0.00     0.135 A 
ATOM     79  C   UNL A   1      41.241  27.917  28.795  1.00  0.00     0.135 A 
ATOM     80  F   UNL A   1      38.554  26.483  30.784  1.00  0.00    -0.206 F 
ATOM     81  C   UNL A   1      39.448  25.788  28.731  1.00  0.00     0.059 A 
ATOM     82  C   UNL A   1      41.252  27.050  27.708  1.00  0.00     0.059 A 
ATOM     83  F   UNL A   1      42.106  28.943  28.802  1.00  0.00    -0.206 F 
ATOM     84  C   UNL A   1      40.361  25.978  27.694  1.00  0.00     0.060 A 
BRANCH  84  85
ATOM     85  S   UNL A   1      40.367  24.792  26.334  1.00  0.00     0.124 S 
ATOM     86  O   UNL A   1      38.942  24.506  26.199  1.00  0.00    -0.237 OA
ATOM     87  O   UNL A   1      40.964  25.569  25.252  1.00  0.00    -0.237 OA
ATOM     88  O   UNL A   1      41.186  23.697  26.843  1.00  0.00    -0.744 OA
ENDBRANCH  84  85
ENDBRANCH  52  77
BRANCH  64  89
ATOM     89  C   UNL A   1      36.571  33.467  31.234  1.00  0.00     0.058 A 
ATOM     90  C   UNL A   1      35.227  33.305  31.609  1.00  0.00     0.135 A 
ATOM     91  C   UNL A   1      36.844  34.257  30.107  1.00  0.00     0.135 A 
ATOM     92  F   UNL A   1      34.907  32.553  32.675  1.00  0.00    -0.206 F 
ATOM     93  C   UNL A   1      34.193  33.897  30.891  1.00  0.00     0.059 A 
ATOM     94  C   UNL A   1      35.828  34.881  29.388  1.00  0.00     0.059 A 
ATOM     95  F   UNL A   1      38.112  34.450  29.710  1.00  0.00    -0.206 F 
ATOM     96  C   UNL A   1      34.504  34.684  29.781  1.00  0.00     0.060 A 
BRANCH  96  97
ATOM     97  S   UNL A   1      33.153  35.477  28.880  1.00  0.00     0.124 S 
ATOM     98  O   UNL A   1      32.410  36.118  29.958  1.00  0.00    -0.237 OA
ATOM     99  O   UNL A   1      33.868  36.376  27.980  1.00  0.00    -0.237 OA
ATOM    100  O   UNL A   1      32.478  34.357  28.230  1.00  0.00    -0.744 OA
ENDBRANCH  96  97
ENDBRANCH  64  89
ENDBRANCH  38  39
ENDBRANCH  31  33
ENDBRANCH  30  31
ENDBRANCH  29  30
ENDBRANCH  28  29
ENDBRANCH  27  28
ENDBRANCH  26  27
ENDBRANCH   1  26
TORSDOF 25
ENDMDL
