MODEL 1
REMARK VINA RESULT:     -10.4      0.000      0.000
REMARK SMILES CC(=O)Oc1c(Cl)cc(-c2ccccc2)cc1C(=O)OCCOCCOCCOC(=O)c1ccc(-c2c3nc(c(-c4c(F)cc(S(=O)(=O)[O-])cc4F)c4ccc([nH]4)c(-c4c(F)cc(S(=O)(=O)[O-])cc4F)c4nc(c(-c5c(F)cc(S(=O)(=O)[O-])cc5F)c5ccc2[nH]5)C=C4)C=C3)cc1
REMARK SMILES IDX 25 1 24 2 23 3 22 4 21 5 20 6 18 7 19 8 17 9 5 10 6 11 7 12
REMARK SMILES IDX 8 13 16 14 9 15 4 16 2 17 1 18 3 19 10 20 11 21 15 22 12 23
REMARK SMILES IDX 14 24 13 25 26 26 27 27 28 28 29 29 30 30 31 31 32 32 33 33
REMARK SMILES IDX 97 34 34 35 96 36 35 37 36 38 37 39 90 40 38 41 95 42 89 43
REMARK SMILES IDX 91 44 39 45 94 46 88 47 87 48 40 50 74 51 53 52 73 53 54 54
REMARK SMILES IDX 57 55 72 56 92 57 55 58 56 59 71 61 93 62 58 63 41 64 42 65
REMARK SMILES IDX 51 66 43 67 44 68 50 69 52 70 45 71 46 72 47 73 48 74 49 75
REMARK SMILES IDX 75 76 76 77 85 78 77 79 78 80 84 81 86 82 79 83 80 84 81 85
REMARK SMILES IDX 82 86 83 87 59 88 60 89 69 90 61 91 62 92 68 93 70 94 63 95
REMARK SMILES IDX 64 96 65 97 66 98 67 99
REMARK H PARENT 91 49 57 60
REMARK Flexibility Score: inf
ROOT
ATOM      1  C   UNL A   1      39.770  22.590  26.859  1.00  0.00     0.188 C 
ENDROOT
BRANCH   1   2
ATOM      2  C   UNL A   1      38.423  22.640  26.106  1.00  0.00     0.188 C 
BRANCH   2   3
ATOM      3  O   UNL A   1      38.154  21.683  25.088  1.00  0.00    -0.376 OA
BRANCH   3   4
ATOM      4  C   UNL A   1      36.958  21.789  24.326  1.00  0.00     0.202 C 
BRANCH   4   5
ATOM      5  C   UNL A   1      36.685  23.054  23.500  1.00  0.00     0.261 C 
BRANCH   5   6
ATOM      6  O   UNL A   1      35.451  23.718  23.825  1.00  0.00    -0.460 OA
BRANCH   6   7
ATOM      7  C   UNL A   1      34.354  23.247  23.181  1.00  0.00     0.342 C 
ATOM      8  O   UNL A   1      34.121  23.337  21.986  1.00  0.00    -0.246 OA
BRANCH   7   9
ATOM      9  C   UNL A   1      33.502  22.436  24.075  1.00  0.00     0.105 A 
ATOM     10  C   UNL A   1      32.533  22.978  24.923  1.00  0.00     0.164 A 
ATOM     11  C   UNL A   1      31.639  22.123  25.583  1.00  0.00     0.085 A 
ATOM     12  Cl  UNL A   1      30.280  22.728  26.466  1.00  0.00    -0.080 Cl
ATOM     13  C   UNL A   1      31.803  20.738  25.505  1.00  0.00     0.033 A 
ATOM     14  C   UNL A   1      33.659  21.039  23.999  1.00  0.00     0.028 A 
ATOM     15  C   UNL A   1      32.834  20.179  24.739  1.00  0.00    -0.016 A 
BRANCH  10  16
ATOM     16  O   UNL A   1      32.433  24.366  25.071  1.00  0.00    -0.424 OA
BRANCH  16  17
ATOM     17  C   UNL A   1      31.669  24.948  24.059  1.00  0.00     0.308 C 
ATOM     18  C   UNL A   1      32.097  26.369  23.852  1.00  0.00     0.139 C 
ATOM     19  O   UNL A   1      30.771  24.410  23.420  1.00  0.00    -0.252 OA
ENDBRANCH  16  17
ENDBRANCH  10  16
BRANCH  15  20
ATOM     20  C   UNL A   1      33.015  18.726  24.697  1.00  0.00    -0.018 A 
ATOM     21  C   UNL A   1      33.616  18.112  23.588  1.00  0.00     0.009 A 
ATOM     22  C   UNL A   1      32.558  17.912  25.745  1.00  0.00     0.009 A 
ATOM     23  C   UNL A   1      33.750  16.724  23.525  1.00  0.00     0.001 A 
ATOM     24  C   UNL A   1      32.693  16.522  25.684  1.00  0.00     0.001 A 
ATOM     25  C   UNL A   1      33.287  15.930  24.572  1.00  0.00     0.000 A 
ENDBRANCH  15  20
ENDBRANCH   7   9
ENDBRANCH   6   7
ENDBRANCH   5   6
ENDBRANCH   4   5
ENDBRANCH   3   4
ENDBRANCH   2   3
ENDBRANCH   1   2
BRANCH   1  26
ATOM     26  O   UNL A   1      40.809  21.942  26.165  1.00  0.00    -0.376 OA
BRANCH  26  27
ATOM     27  C   UNL A   1      42.159  22.217  26.490  1.00  0.00     0.202 C 
BRANCH  27  28
ATOM     28  C   UNL A   1      43.055  23.281  25.822  1.00  0.00     0.261 C 
BRANCH  28  29
ATOM     29  O   UNL A   1      43.308  24.501  26.521  1.00  0.00    -0.460 OA
BRANCH  29  30
ATOM     30  C   UNL A   1      42.720  25.610  26.022  1.00  0.00     0.338 C 
ATOM     31  O   UNL A   1      42.492  25.860  24.842  1.00  0.00    -0.246 OA
BRANCH  30  32
ATOM     32  C   UNL A   1      42.242  26.434  27.143  1.00  0.00     0.060 A 
ATOM     33  C   UNL A   1      42.715  27.746  27.269  1.00  0.00     0.016 A 
ATOM     34  C   UNL A   1      41.353  25.904  28.081  1.00  0.00     0.016 A 
ATOM     35  C   UNL A   1      42.308  28.529  28.349  1.00  0.00     0.010 A 
ATOM     36  C   UNL A   1      40.960  26.687  29.171  1.00  0.00     0.010 A 
ATOM     37  C   UNL A   1      41.453  27.995  29.323  1.00  0.00    -0.014 A 
BRANCH  37  38
ATOM     38  C   UNL A   1      41.199  28.749  30.574  1.00  0.00     0.031 A 
ATOM     39  C   UNL A   1      40.080  29.754  30.595  1.00  0.00     0.074 A 
ATOM     40  C   UNL A   1      41.936  28.532  31.679  1.00  0.00     0.049 A 
ATOM     41  N   UNL A   1      39.710  30.564  31.553  1.00  0.00    -0.248 NA
ATOM     42  C   UNL A   1      39.268  29.856  29.372  1.00  0.00     0.031 C 
ATOM     43  C   UNL A   1      43.013  27.551  31.798  1.00  0.00     0.029 A 
ATOM     44  N   UNL A   1      41.892  29.134  32.912  1.00  0.00    -0.354 N 
ATOM     45  C   UNL A   1      38.630  31.277  31.048  1.00  0.00     0.074 A 
ATOM     46  C   UNL A   1      38.417  30.820  29.692  1.00  0.00     0.031 C 
ATOM     47  C   UNL A   1      43.540  27.631  33.033  1.00  0.00     0.029 A 
ATOM     48  C   UNL A   1      42.862  28.691  33.777  1.00  0.00     0.049 A 
ATOM     49  H   UNL A   1      41.227  29.820  33.153  1.00  0.00     0.167 HD
ATOM     50  C   UNL A   1      37.880  32.223  31.662  1.00  0.00     0.037 A 
ATOM     51  C   UNL A   1      43.184  29.111  35.018  1.00  0.00     0.037 A 
ATOM     52  C   UNL A   1      38.098  32.677  33.010  1.00  0.00     0.049 A 
ATOM     53  C   UNL A   1      42.386  30.224  35.651  1.00  0.00     0.074 A 
ATOM     54  C   UNL A   1      37.383  33.621  33.725  1.00  0.00     0.029 A 
ATOM     55  N   UNL A   1      39.111  32.228  33.843  1.00  0.00    -0.354 N 
ATOM     56  N   UNL A   1      41.354  30.878  35.170  1.00  0.00    -0.248 NA
ATOM     57  C   UNL A   1      42.794  30.658  36.995  1.00  0.00     0.031 C 
ATOM     58  C   UNL A   1      37.996  33.781  34.973  1.00  0.00     0.029 A 
ATOM     59  C   UNL A   1      39.058  32.895  35.056  1.00  0.00     0.049 A 
ATOM     60  H   UNL A   1      39.773  31.537  33.608  1.00  0.00     0.167 HD
ATOM     61  C   UNL A   1      40.972  31.774  36.165  1.00  0.00     0.074 A 
ATOM     62  C   UNL A   1      41.879  31.575  37.276  1.00  0.00     0.031 C 
ATOM     63  C   UNL A   1      39.960  32.678  36.160  1.00  0.00     0.037 A 
BRANCH  50  64
ATOM     64  C   UNL A   1      36.771  32.855  30.866  1.00  0.00     0.058 A 
ATOM     65  C   UNL A   1      35.425  32.518  31.076  1.00  0.00     0.135 A 
ATOM     66  C   UNL A   1      37.059  33.833  29.901  1.00  0.00     0.135 A 
ATOM     67  F   UNL A   1      35.095  31.574  31.972  1.00  0.00    -0.206 F 
ATOM     68  C   UNL A   1      34.404  33.113  30.341  1.00  0.00     0.059 A 
ATOM     69  C   UNL A   1      36.053  34.461  29.174  1.00  0.00     0.059 A 
ATOM     70  F   UNL A   1      38.331  34.189  29.658  1.00  0.00    -0.206 F 
ATOM     71  C   UNL A   1      34.729  34.084  29.392  1.00  0.00     0.060 A 
BRANCH  71  72
ATOM     72  S   UNL A   1      33.394  34.851  28.451  1.00  0.00     0.124 S 
ATOM     73  O   UNL A   1      34.131  35.801  27.621  1.00  0.00    -0.237 OA
ATOM     74  O   UNL A   1      32.814  33.712  27.746  1.00  0.00    -0.237 OA
ATOM     75  O   UNL A   1      32.547  35.445  29.481  1.00  0.00    -0.744 OA
ENDBRANCH  71  72
ENDBRANCH  50  64
BRANCH  51  76
ATOM     76  C   UNL A   1      44.328  28.496  35.744  1.00  0.00     0.058 A 
ATOM     77  C   UNL A   1      44.136  27.424  36.627  1.00  0.00     0.135 A 
ATOM     78  C   UNL A   1      45.636  28.981  35.582  1.00  0.00     0.135 A 
ATOM     79  F   UNL A   1      42.902  26.935  36.829  1.00  0.00    -0.206 F 
ATOM     80  C   UNL A   1      45.194  26.864  37.337  1.00  0.00     0.059 A 
ATOM     81  C   UNL A   1      46.714  28.420  36.258  1.00  0.00     0.059 A 
ATOM     82  F   UNL A   1      45.876  30.002  34.744  1.00  0.00    -0.206 F 
ATOM     83  C   UNL A   1      46.481  27.369  37.145  1.00  0.00     0.060 A 
BRANCH  83  84
ATOM     84  S   UNL A   1      47.853  26.611  38.043  1.00  0.00     0.124 S 
ATOM     85  O   UNL A   1      47.169  26.046  39.200  1.00  0.00    -0.237 OA
ATOM     86  O   UNL A   1      48.364  25.651  37.071  1.00  0.00    -0.237 OA
ATOM     87  O   UNL A   1      48.736  27.740  38.321  1.00  0.00    -0.744 OA
ENDBRANCH  83  84
ENDBRANCH  51  76
BRANCH  63  88
ATOM     88  C   UNL A   1      39.743  33.492  37.407  1.00  0.00     0.058 A 
ATOM     89  C   UNL A   1      40.481  34.658  37.670  1.00  0.00     0.135 A 
ATOM     90  C   UNL A   1      38.738  33.134  38.322  1.00  0.00     0.135 A 
ATOM     91  F   UNL A   1      41.456  35.043  36.832  1.00  0.00    -0.206 F 
ATOM     92  C   UNL A   1      40.244  35.427  38.806  1.00  0.00     0.059 A 
ATOM     93  C   UNL A   1      38.466  33.903  39.449  1.00  0.00     0.059 A 
ATOM     94  F   UNL A   1      37.995  32.036  38.113  1.00  0.00    -0.206 F 
ATOM     95  C   UNL A   1      39.233  35.042  39.688  1.00  0.00     0.060 A 
BRANCH  95  96
ATOM     96  S   UNL A   1      38.911  36.070  41.138  1.00  0.00     0.124 S 
ATOM     97  O   UNL A   1      37.832  35.333  41.787  1.00  0.00    -0.237 OA
ATOM     98  O   UNL A   1      40.197  36.049  41.828  1.00  0.00    -0.237 OA
ATOM     99  O   UNL A   1      38.534  37.359  40.565  1.00  0.00    -0.744 OA
ENDBRANCH  95  96
ENDBRANCH  63  88
ENDBRANCH  37  38
ENDBRANCH  30  32
ENDBRANCH  29  30
ENDBRANCH  28  29
ENDBRANCH  27  28
ENDBRANCH  26  27
ENDBRANCH   1  26
TORSDOF 23
ENDMDL
MODEL 2
REMARK VINA RESULT:     -10.3      6.398     11.344
REMARK SMILES CC(=O)Oc1c(Cl)cc(-c2ccccc2)cc1C(=O)OCCOCCOCCOC(=O)c1ccc(-c2c3nc(c(-c4c(F)cc(S(=O)(=O)[O-])cc4F)c4ccc([nH]4)c(-c4c(F)cc(S(=O)(=O)[O-])cc4F)c4nc(c(-c5c(F)cc(S(=O)(=O)[O-])cc5F)c5ccc2[nH]5)C=C4)C=C3)cc1
REMARK SMILES IDX 25 1 24 2 23 3 22 4 21 5 20 6 18 7 19 8 17 9 5 10 6 11 7 12
REMARK SMILES IDX 8 13 16 14 9 15 4 16 2 17 1 18 3 19 10 20 11 21 15 22 12 23
REMARK SMILES IDX 14 24 13 25 26 26 27 27 28 28 29 29 30 30 31 31 32 32 33 33
REMARK SMILES IDX 97 34 34 35 96 36 35 37 36 38 37 39 90 40 38 41 95 42 89 43
REMARK SMILES IDX 91 44 39 45 94 46 88 47 87 48 40 50 74 51 53 52 73 53 54 54
REMARK SMILES IDX 57 55 72 56 92 57 55 58 56 59 71 61 93 62 58 63 41 64 42 65
REMARK SMILES IDX 51 66 43 67 44 68 50 69 52 70 45 71 46 72 47 73 48 74 49 75
REMARK SMILES IDX 75 76 76 77 85 78 77 79 78 80 84 81 86 82 79 83 80 84 81 85
REMARK SMILES IDX 82 86 83 87 59 88 60 89 69 90 61 91 62 92 68 93 70 94 63 95
REMARK SMILES IDX 64 96 65 97 66 98 67 99
REMARK H PARENT 91 49 57 60
REMARK Flexibility Score: inf
ROOT
ATOM      1  C   UNL A   1      40.453  20.172  26.678  1.00  0.00     0.188 C 
ENDROOT
BRANCH   1   2
ATOM      2  C   UNL A   1      40.012  21.513  26.052  1.00  0.00     0.188 C 
BRANCH   2   3
ATOM      3  O   UNL A   1      39.592  22.576  26.899  1.00  0.00    -0.376 OA
BRANCH   3   4
ATOM      4  C   UNL A   1      38.666  23.538  26.408  1.00  0.00     0.202 C 
BRANCH   4   5
ATOM      5  C   UNL A   1      37.389  23.076  25.690  1.00  0.00     0.261 C 
BRANCH   5   6
ATOM      6  O   UNL A   1      36.369  24.086  25.590  1.00  0.00    -0.460 OA
BRANCH   6   7
ATOM      7  C   UNL A   1      35.541  23.967  24.523  1.00  0.00     0.342 C 
ATOM      8  O   UNL A   1      35.830  23.511  23.429  1.00  0.00    -0.246 OA
BRANCH   7   9
ATOM      9  C   UNL A   1      34.147  24.310  24.874  1.00  0.00     0.105 A 
ATOM     10  C   UNL A   1      33.126  23.364  25.001  1.00  0.00     0.164 A 
ATOM     11  C   UNL A   1      31.888  23.755  25.530  1.00  0.00     0.085 A 
ATOM     12  Cl  UNL A   1      30.659  22.602  25.924  1.00  0.00    -0.080 Cl
ATOM     13  C   UNL A   1      31.630  25.101  25.799  1.00  0.00     0.033 A 
ATOM     14  C   UNL A   1      33.880  25.664  25.149  1.00  0.00     0.028 A 
ATOM     15  C   UNL A   1      32.611  26.076  25.581  1.00  0.00    -0.016 A 
BRANCH  10  16
ATOM     16  O   UNL A   1      33.360  22.032  24.643  1.00  0.00    -0.424 OA
BRANCH  16  17
ATOM     17  C   UNL A   1      34.044  21.334  25.638  1.00  0.00     0.308 C 
ATOM     18  C   UNL A   1      34.966  20.331  25.013  1.00  0.00     0.139 C 
ATOM     19  O   UNL A   1      33.927  21.485  26.849  1.00  0.00    -0.252 OA
ENDBRANCH  16  17
ENDBRANCH  10  16
BRANCH  15  20
ATOM     20  C   UNL A   1      32.313  27.489  25.831  1.00  0.00    -0.018 A 
ATOM     21  C   UNL A   1      31.650  28.261  24.866  1.00  0.00     0.009 A 
ATOM     22  C   UNL A   1      32.716  28.111  27.023  1.00  0.00     0.009 A 
ATOM     23  C   UNL A   1      31.402  29.618  25.083  1.00  0.00     0.001 A 
ATOM     24  C   UNL A   1      32.468  29.469  27.241  1.00  0.00     0.001 A 
ATOM     25  C   UNL A   1      31.813  30.221  26.269  1.00  0.00     0.000 A 
ENDBRANCH  15  20
ENDBRANCH   7   9
ENDBRANCH   6   7
ENDBRANCH   5   6
ENDBRANCH   4   5
ENDBRANCH   3   4
ENDBRANCH   2   3
ENDBRANCH   1   2
BRANCH   1  26
ATOM     26  O   UNL A   1      41.301  19.394  25.867  1.00  0.00    -0.376 OA
BRANCH  26  27
ATOM     27  C   UNL A   1      42.472  18.816  26.413  1.00  0.00     0.202 C 
BRANCH  27  28
ATOM     28  C   UNL A   1      43.575  18.083  25.622  1.00  0.00     0.261 C 
BRANCH  28  29
ATOM     29  O   UNL A   1      44.792  18.775  25.339  1.00  0.00    -0.460 OA
BRANCH  29  30
ATOM     30  C   UNL A   1      44.777  19.601  24.269  1.00  0.00     0.338 C 
ATOM     31  O   UNL A   1      44.663  19.282  23.090  1.00  0.00    -0.246 OA
BRANCH  30  32
ATOM     32  C   UNL A   1      44.766  20.992  24.750  1.00  0.00     0.060 A 
ATOM     33  C   UNL A   1      44.441  22.015  23.852  1.00  0.00     0.016 A 
ATOM     34  C   UNL A   1      45.102  21.284  26.073  1.00  0.00     0.016 A 
ATOM     35  C   UNL A   1      44.468  23.343  24.276  1.00  0.00     0.010 A 
ATOM     36  C   UNL A   1      45.143  22.618  26.490  1.00  0.00     0.010 A 
ATOM     37  C   UNL A   1      44.848  23.656  25.588  1.00  0.00    -0.014 A 
BRANCH  37  38
ATOM     38  C   UNL A   1      45.086  25.069  25.970  1.00  0.00     0.031 A 
ATOM     39  C   UNL A   1      46.481  25.620  25.858  1.00  0.00     0.074 A 
ATOM     40  C   UNL A   1      44.078  25.856  26.389  1.00  0.00     0.049 A 
ATOM     41  N   UNL A   1      46.935  26.802  26.185  1.00  0.00    -0.248 NA
ATOM     42  C   UNL A   1      47.500  24.716  25.301  1.00  0.00     0.031 C 
ATOM     43  C   UNL A   1      42.677  25.453  26.492  1.00  0.00     0.029 A 
ATOM     44  N   UNL A   1      44.085  27.160  26.817  1.00  0.00    -0.354 N 
ATOM     45  C   UNL A   1      48.291  26.783  25.881  1.00  0.00     0.074 A 
ATOM     46  C   UNL A   1      48.591  25.465  25.366  1.00  0.00     0.031 C 
ATOM     47  C   UNL A   1      41.961  26.485  26.971  1.00  0.00     0.029 A 
ATOM     48  C   UNL A   1      42.857  27.608  27.241  1.00  0.00     0.049 A 
ATOM     49  H   UNL A   1      44.895  27.722  26.820  1.00  0.00     0.167 HD
ATOM     50  C   UNL A   1      49.202  27.776  26.016  1.00  0.00     0.037 A 
ATOM     51  C   UNL A   1      42.504  28.781  27.806  1.00  0.00     0.037 A 
ATOM     52  C   UNL A   1      48.899  29.084  26.535  1.00  0.00     0.049 A 
ATOM     53  C   UNL A   1      43.553  29.843  28.022  1.00  0.00     0.074 A 
ATOM     54  C   UNL A   1      49.750  30.163  26.697  1.00  0.00     0.029 A 
ATOM     55  N   UNL A   1      47.651  29.489  26.984  1.00  0.00    -0.354 N 
ATOM     56  N   UNL A   1      44.828  29.820  27.713  1.00  0.00    -0.248 NA
ATOM     57  C   UNL A   1      43.116  31.092  28.664  1.00  0.00     0.031 C 
ATOM     58  C   UNL A   1      49.030  31.203  27.293  1.00  0.00     0.029 A 
ATOM     59  C   UNL A   1      47.715  30.793  27.448  1.00  0.00     0.049 A 
ATOM     60  H   UNL A   1      46.839  28.933  26.975  1.00  0.00     0.167 HD
ATOM     61  C   UNL A   1      45.335  31.061  28.092  1.00  0.00     0.074 A 
ATOM     62  C   UNL A   1      44.229  31.811  28.647  1.00  0.00     0.031 C 
ATOM     63  C   UNL A   1      46.602  31.534  27.987  1.00  0.00     0.037 A 
BRANCH  50  64
ATOM     64  C   UNL A   1      50.622  27.474  25.626  1.00  0.00     0.058 A 
ATOM     65  C   UNL A   1      51.087  27.667  24.315  1.00  0.00     0.135 A 
ATOM     66  C   UNL A   1      51.539  27.013  26.584  1.00  0.00     0.135 A 
ATOM     67  F   UNL A   1      50.248  28.087  23.355  1.00  0.00    -0.206 F 
ATOM     68  C   UNL A   1      52.405  27.392  23.964  1.00  0.00     0.059 A 
ATOM     69  C   UNL A   1      52.867  26.758  26.262  1.00  0.00     0.059 A 
ATOM     70  F   UNL A   1      51.145  26.807  27.852  1.00  0.00    -0.206 F 
ATOM     71  C   UNL A   1      53.287  26.938  24.945  1.00  0.00     0.060 A 
BRANCH  71  72
ATOM     72  S   UNL A   1      54.996  26.591  24.476  1.00  0.00     0.124 S 
ATOM     73  O   UNL A   1      55.153  25.217  24.945  1.00  0.00    -0.237 OA
ATOM     74  O   UNL A   1      54.963  26.766  23.028  1.00  0.00    -0.237 OA
ATOM     75  O   UNL A   1      55.761  27.595  25.209  1.00  0.00    -0.744 OA
ENDBRANCH  71  72
ENDBRANCH  50  64
BRANCH  51  76
ATOM     76  C   UNL A   1      41.096  29.012  28.231  1.00  0.00     0.058 A 
ATOM     77  C   UNL A   1      40.089  29.280  27.293  1.00  0.00     0.135 A 
ATOM     78  C   UNL A   1      40.734  28.987  29.588  1.00  0.00     0.135 A 
ATOM     79  F   UNL A   1      40.387  29.331  25.986  1.00  0.00    -0.206 F 
ATOM     80  C   UNL A   1      38.777  29.532  27.683  1.00  0.00     0.059 A 
ATOM     81  C   UNL A   1      39.424  29.208  30.000  1.00  0.00     0.059 A 
ATOM     82  F   UNL A   1      41.658  28.730  30.527  1.00  0.00    -0.206 F 
ATOM     83  C   UNL A   1      38.454  29.493  29.040  1.00  0.00     0.060 A 
BRANCH  83  84
ATOM     84  S   UNL A   1      36.740  29.785  29.532  1.00  0.00     0.124 S 
ATOM     85  O   UNL A   1      36.015  29.325  28.355  1.00  0.00    -0.237 OA
ATOM     86  O   UNL A   1      36.617  28.953  30.724  1.00  0.00    -0.237 OA
ATOM     87  O   UNL A   1      36.702  31.225  29.775  1.00  0.00    -0.744 OA
ENDBRANCH  83  84
ENDBRANCH  51  76
BRANCH  63  88
ATOM     88  C   UNL A   1      46.859  32.948  28.437  1.00  0.00     0.058 A 
ATOM     89  C   UNL A   1      47.281  33.246  29.743  1.00  0.00     0.135 A 
ATOM     90  C   UNL A   1      46.743  34.013  27.529  1.00  0.00     0.135 A 
ATOM     91  F   UNL A   1      47.405  32.266  30.653  1.00  0.00    -0.206 F 
ATOM     92  C   UNL A   1      47.556  34.552  30.138  1.00  0.00     0.059 A 
ATOM     93  C   UNL A   1      47.039  35.323  27.894  1.00  0.00     0.059 A 
ATOM     94  F   UNL A   1      46.355  33.784  26.264  1.00  0.00    -0.206 F 
ATOM     95  C   UNL A   1      47.434  35.584  29.205  1.00  0.00     0.060 A 
BRANCH  95  96
ATOM     96  S   UNL A   1      47.831  37.268  29.720  1.00  0.00     0.124 S 
ATOM     97  O   UNL A   1      49.255  37.157  30.020  1.00  0.00    -0.237 OA
ATOM     98  O   UNL A   1      47.492  38.047  28.533  1.00  0.00    -0.237 OA
ATOM     99  O   UNL A   1      46.962  37.485  30.874  1.00  0.00    -0.744 OA
ENDBRANCH  95  96
ENDBRANCH  63  88
ENDBRANCH  37  38
ENDBRANCH  30  32
ENDBRANCH  29  30
ENDBRANCH  28  29
ENDBRANCH  27  28
ENDBRANCH  26  27
ENDBRANCH   1  26
TORSDOF 23
ENDMDL
MODEL 3
REMARK VINA RESULT:     -10.1      3.200     10.070
REMARK SMILES CC(=O)Oc1c(Cl)cc(-c2ccccc2)cc1C(=O)OCCOCCOCCOC(=O)c1ccc(-c2c3nc(c(-c4c(F)cc(S(=O)(=O)[O-])cc4F)c4ccc([nH]4)c(-c4c(F)cc(S(=O)(=O)[O-])cc4F)c4nc(c(-c5c(F)cc(S(=O)(=O)[O-])cc5F)c5ccc2[nH]5)C=C4)C=C3)cc1
REMARK SMILES IDX 25 1 24 2 23 3 22 4 21 5 20 6 18 7 19 8 17 9 5 10 6 11 7 12
REMARK SMILES IDX 8 13 16 14 9 15 4 16 2 17 1 18 3 19 10 20 11 21 15 22 12 23
REMARK SMILES IDX 14 24 13 25 26 26 27 27 28 28 29 29 30 30 31 31 32 32 33 33
REMARK SMILES IDX 97 34 34 35 96 36 35 37 36 38 37 39 90 40 38 41 95 42 89 43
REMARK SMILES IDX 91 44 39 45 94 46 88 47 87 48 40 50 74 51 53 52 73 53 54 54
REMARK SMILES IDX 57 55 72 56 92 57 55 58 56 59 71 61 93 62 58 63 41 64 42 65
REMARK SMILES IDX 51 66 43 67 44 68 50 69 52 70 45 71 46 72 47 73 48 74 49 75
REMARK SMILES IDX 75 76 76 77 85 78 77 79 78 80 84 81 86 82 79 83 80 84 81 85
REMARK SMILES IDX 82 86 83 87 59 88 60 89 69 90 61 91 62 92 68 93 70 94 63 95
REMARK SMILES IDX 64 96 65 97 66 98 67 99
REMARK H PARENT 91 49 57 60
REMARK Flexibility Score: inf
ROOT
ATOM      1  C   UNL A   1      35.338  32.388  28.012  1.00  0.00     0.188 C 
ENDROOT
BRANCH   1   2
ATOM      2  C   UNL A   1      33.933  31.754  28.084  1.00  0.00     0.188 C 
BRANCH   2   3
ATOM      3  O   UNL A   1      33.503  30.884  27.044  1.00  0.00    -0.376 OA
BRANCH   3   4
ATOM      4  C   UNL A   1      34.098  29.598  26.915  1.00  0.00     0.202 C 
BRANCH   4   5
ATOM      5  C   UNL A   1      33.282  28.340  27.249  1.00  0.00     0.261 C 
BRANCH   5   6
ATOM      6  O   UNL A   1      31.865  28.482  27.038  1.00  0.00    -0.460 OA
BRANCH   6   7
ATOM      7  C   UNL A   1      31.264  27.433  26.425  1.00  0.00     0.342 C 
ATOM      8  O   UNL A   1      30.755  26.468  26.971  1.00  0.00    -0.246 OA
BRANCH   7   9
ATOM      9  C   UNL A   1      31.136  27.653  24.969  1.00  0.00     0.105 A 
ATOM     10  C   UNL A   1      31.634  26.772  24.006  1.00  0.00     0.164 A 
ATOM     11  C   UNL A   1      31.291  26.959  22.659  1.00  0.00     0.085 A 
ATOM     12  Cl  UNL A   1      31.682  25.788  21.447  1.00  0.00    -0.080 Cl
ATOM     13  C   UNL A   1      30.576  28.092  22.265  1.00  0.00     0.033 A 
ATOM     14  C   UNL A   1      30.413  28.792  24.564  1.00  0.00     0.028 A 
ATOM     15  C   UNL A   1      30.156  29.039  23.208  1.00  0.00    -0.016 A 
BRANCH  10  16
ATOM     16  O   UNL A   1      32.428  25.689  24.395  1.00  0.00    -0.424 OA
BRANCH  16  17
ATOM     17  C   UNL A   1      33.774  25.888  24.087  1.00  0.00     0.308 C 
ATOM     18  C   UNL A   1      34.425  24.575  23.775  1.00  0.00     0.139 C 
ATOM     19  O   UNL A   1      34.369  26.960  24.070  1.00  0.00    -0.252 OA
ENDBRANCH  16  17
ENDBRANCH  10  16
BRANCH  15  20
ATOM     20  C   UNL A   1      29.440  30.242  22.775  1.00  0.00    -0.018 A 
ATOM     21  C   UNL A   1      29.083  30.414  21.429  1.00  0.00     0.009 A 
ATOM     22  C   UNL A   1      29.129  31.263  23.685  1.00  0.00     0.009 A 
ATOM     23  C   UNL A   1      28.440  31.578  21.004  1.00  0.00     0.001 A 
ATOM     24  C   UNL A   1      28.484  32.428  23.261  1.00  0.00     0.001 A 
ATOM     25  C   UNL A   1      28.142  32.585  21.920  1.00  0.00     0.000 A 
ENDBRANCH  15  20
ENDBRANCH   7   9
ENDBRANCH   6   7
ENDBRANCH   5   6
ENDBRANCH   4   5
ENDBRANCH   3   4
ENDBRANCH   2   3
ENDBRANCH   1   2
BRANCH   1  26
ATOM     26  O   UNL A   1      35.406  33.722  28.457  1.00  0.00    -0.376 OA
BRANCH  26  27
ATOM     27  C   UNL A   1      34.434  34.661  28.037  1.00  0.00     0.202 C 
BRANCH  27  28
ATOM     28  C   UNL A   1      33.412  35.377  28.945  1.00  0.00     0.261 C 
BRANCH  28  29
ATOM     29  O   UNL A   1      32.942  34.704  30.114  1.00  0.00    -0.460 OA
BRANCH  29  30
ATOM     30  C   UNL A   1      33.189  35.312  31.295  1.00  0.00     0.338 C 
ATOM     31  O   UNL A   1      32.515  36.184  31.834  1.00  0.00    -0.246 OA
BRANCH  30  32
ATOM     32  C   UNL A   1      34.337  34.649  31.933  1.00  0.00     0.060 A 
ATOM     33  C   UNL A   1      35.609  35.217  31.795  1.00  0.00     0.016 A 
ATOM     34  C   UNL A   1      34.161  33.458  32.642  1.00  0.00     0.016 A 
ATOM     35  C   UNL A   1      36.717  34.581  32.355  1.00  0.00     0.010 A 
ATOM     36  C   UNL A   1      35.277  32.817  33.190  1.00  0.00     0.010 A 
ATOM     37  C   UNL A   1      36.563  33.362  33.030  1.00  0.00    -0.014 A 
BRANCH  37  38
ATOM     38  C   UNL A   1      37.760  32.585  33.430  1.00  0.00     0.031 A 
ATOM     39  C   UNL A   1      38.454  32.943  34.716  1.00  0.00     0.074 A 
ATOM     40  C   UNL A   1      38.213  31.567  32.677  1.00  0.00     0.049 A 
ATOM     41  N   UNL A   1      39.543  32.442  35.239  1.00  0.00    -0.248 NA
ATOM     42  C   UNL A   1      37.833  34.007  35.521  1.00  0.00     0.031 C 
ATOM     43  C   UNL A   1      37.599  31.092  31.438  1.00  0.00     0.029 A 
ATOM     44  N   UNL A   1      39.306  30.752  32.843  1.00  0.00    -0.354 N 
ATOM     45  C   UNL A   1      39.744  33.133  36.428  1.00  0.00     0.074 A 
ATOM     46  C   UNL A   1      38.676  34.104  36.539  1.00  0.00     0.031 C 
ATOM     47  C   UNL A   1      38.336  30.080  30.946  1.00  0.00     0.029 A 
ATOM     48  C   UNL A   1      39.490  29.859  31.815  1.00  0.00     0.049 A 
ATOM     49  H   UNL A   1      39.902  30.804  33.626  1.00  0.00     0.167 HD
ATOM     50  C   UNL A   1      40.725  32.969  37.345  1.00  0.00     0.037 A 
ATOM     51  C   UNL A   1      40.490  28.983  31.590  1.00  0.00     0.037 A 
ATOM     52  C   UNL A   1      41.788  32.005  37.228  1.00  0.00     0.049 A 
ATOM     53  C   UNL A   1      41.618  28.875  32.586  1.00  0.00     0.074 A 
ATOM     54  C   UNL A   1      42.822  31.753  38.112  1.00  0.00     0.029 A 
ATOM     55  N   UNL A   1      41.958  31.141  36.157  1.00  0.00    -0.354 N 
ATOM     56  N   UNL A   1      41.786  29.520  33.716  1.00  0.00    -0.248 NA
ATOM     57  C   UNL A   1      42.692  27.920  32.277  1.00  0.00     0.031 C 
ATOM     58  C   UNL A   1      43.648  30.773  37.551  1.00  0.00     0.029 A 
ATOM     59  C   UNL A   1      43.096  30.373  36.344  1.00  0.00     0.049 A 
ATOM     60  H   UNL A   1      41.361  31.082  35.377  1.00  0.00     0.167 HD
ATOM     61  C   UNL A   1      42.965  29.025  34.267  1.00  0.00     0.074 A 
ATOM     62  C   UNL A   1      43.465  28.023  33.350  1.00  0.00     0.031 C 
ATOM     63  C   UNL A   1      43.576  29.368  35.428  1.00  0.00     0.037 A 
BRANCH  50  64
ATOM     64  C   UNL A   1      40.715  33.877  38.544  1.00  0.00     0.058 A 
ATOM     65  C   UNL A   1      40.003  33.554  39.710  1.00  0.00     0.135 A 
ATOM     66  C   UNL A   1      41.452  35.071  38.536  1.00  0.00     0.135 A 
ATOM     67  F   UNL A   1      39.265  32.434  39.765  1.00  0.00    -0.206 F 
ATOM     68  C   UNL A   1      40.004  34.396  40.818  1.00  0.00     0.059 A 
ATOM     69  C   UNL A   1      41.490  35.915  39.641  1.00  0.00     0.059 A 
ATOM     70  F   UNL A   1      42.147  35.429  37.444  1.00  0.00    -0.206 F 
ATOM     71  C   UNL A   1      40.751  35.574  40.774  1.00  0.00     0.060 A 
BRANCH  71  72
ATOM     72  S   UNL A   1      40.748  36.653  42.221  1.00  0.00     0.124 S 
ATOM     73  O   UNL A   1      41.041  35.705  43.292  1.00  0.00    -0.237 OA
ATOM     74  O   UNL A   1      41.812  37.601  41.906  1.00  0.00    -0.237 OA
ATOM     75  O   UNL A   1      39.399  37.210  42.228  1.00  0.00    -0.744 OA
ENDBRANCH  71  72
ENDBRANCH  50  64
BRANCH  51  76
ATOM     76  C   UNL A   1      40.488  28.146  30.358  1.00  0.00     0.058 A 
ATOM     77  C   UNL A   1      39.610  27.063  30.217  1.00  0.00     0.135 A 
ATOM     78  C   UNL A   1      41.379  28.405  29.304  1.00  0.00     0.135 A 
ATOM     79  F   UNL A   1      38.750  26.764  31.203  1.00  0.00    -0.206 F 
ATOM     80  C   UNL A   1      39.624  26.254  29.084  1.00  0.00     0.059 A 
ATOM     81  C   UNL A   1      41.393  27.629  28.150  1.00  0.00     0.059 A 
ATOM     82  F   UNL A   1      42.238  29.434  29.385  1.00  0.00    -0.206 F 
ATOM     83  C   UNL A   1      40.520  26.546  28.055  1.00  0.00     0.060 A 
BRANCH  83  84
ATOM     84  S   UNL A   1      40.505  25.512  26.573  1.00  0.00     0.124 S 
ATOM     85  O   UNL A   1      40.921  26.462  25.549  1.00  0.00    -0.237 OA
ATOM     86  O   UNL A   1      41.473  24.475  26.913  1.00  0.00    -0.237 OA
ATOM     87  O   UNL A   1      39.118  25.062  26.493  1.00  0.00    -0.744 OA
ENDBRANCH  83  84
ENDBRANCH  51  76
BRANCH  63  88
ATOM     88  C   UNL A   1      44.831  28.625  35.804  1.00  0.00     0.058 A 
ATOM     89  C   UNL A   1      46.106  29.093  35.447  1.00  0.00     0.135 A 
ATOM     90  C   UNL A   1      44.758  27.462  36.587  1.00  0.00     0.135 A 
ATOM     91  F   UNL A   1      46.233  30.199  34.695  1.00  0.00    -0.206 F 
ATOM     92  C   UNL A   1      47.261  28.421  35.834  1.00  0.00     0.059 A 
ATOM     93  C   UNL A   1      45.901  26.789  37.010  1.00  0.00     0.059 A 
ATOM     94  F   UNL A   1      43.564  26.977  36.968  1.00  0.00    -0.206 F 
ATOM     95  C   UNL A   1      47.149  27.271  36.618  1.00  0.00     0.060 A 
BRANCH  95  96
ATOM     96  S   UNL A   1      48.657  26.431  37.145  1.00  0.00     0.124 S 
ATOM     97  O   UNL A   1      49.250  27.422  38.038  1.00  0.00    -0.237 OA
ATOM     98  O   UNL A   1      48.137  25.228  37.788  1.00  0.00    -0.237 OA
ATOM     99  O   UNL A   1      49.376  26.204  35.894  1.00  0.00    -0.744 OA
ENDBRANCH  95  96
ENDBRANCH  63  88
ENDBRANCH  37  38
ENDBRANCH  30  32
ENDBRANCH  29  30
ENDBRANCH  28  29
ENDBRANCH  27  28
ENDBRANCH  26  27
ENDBRANCH   1  26
TORSDOF 23
ENDMDL
