MODEL 1
REMARK VINA RESULT:      -8.9      0.000      0.000
REMARK SMILES COc1ccc2c(c1)c(Cc1nc(-c3ccc(C(=O)OCCOCCOCCOC(=O)c4ccc(-c5c6nc(c(-c7c(F)cc(S(=O)(=O)[O-])cc7F)c7ccc([nH]7)c(-c7c(F)cc(S(=O)(=O)[O-])cc7F)c7nc(c(-c8c(F)cc(S(=O)(=O)[O-])cc8F)c8ccc5[nH]8)C=C7)C=C6)cc4)cc3)cs1)c(C)n2C(=O)c1ccc(Cl)cc1
REMARK SMILES IDX 24 1 23 2 22 3 21 4 20 5 18 6 19 7 17 8 14 9 15 10 99 11
REMARK SMILES IDX 16 12 98 13 13 14 11 15 12 16 101 17 100 18 10 19 9 20 3 21
REMARK SMILES IDX 4 22 8 23 5 24 7 25 6 26 104 27 102 28 103 29 2 30 1 31
REMARK SMILES IDX 105 32 106 33 107 34 108 35 113 36 109 37 112 38 110 39
REMARK SMILES IDX 111 40 25 41 26 42 27 43 28 44 29 45 30 46 31 47 32 48 33 49
REMARK SMILES IDX 97 50 34 51 96 52 35 53 36 54 37 55 90 56 38 57 95 58 89 59
REMARK SMILES IDX 91 60 39 61 94 62 88 63 87 64 40 66 74 67 53 68 73 69 54 70
REMARK SMILES IDX 57 71 72 72 92 73 55 74 56 75 71 77 93 78 58 79 41 80 42 81
REMARK SMILES IDX 51 82 43 83 44 84 50 85 52 86 45 87 46 88 47 89 48 90 49 91
REMARK SMILES IDX 75 92 76 93 85 94 77 95 78 96 84 97 86 98 79 99 80 100
REMARK SMILES IDX 81 101 82 102 83 103 59 104 60 105 69 106 61 107 62 108
REMARK SMILES IDX 68 109 70 110 63 111 64 112 65 113 66 114 67 115
REMARK H PARENT 91 65 57 76
REMARK Flexibility Score: inf
ROOT
ATOM      1  C   UNL A   1      43.017  38.457  26.840  1.00  0.00     0.188 C 
ENDROOT
BRANCH   1   2
ATOM      2  O   UNL A   1      42.135  39.189  27.654  1.00  0.00    -0.376 OA
BRANCH   2   3
ATOM      3  C   UNL A   1      41.738  40.458  27.202  1.00  0.00     0.202 C 
BRANCH   3   4
ATOM      4  C   UNL A   1      41.893  40.838  25.713  1.00  0.00     0.261 C 
BRANCH   4   5
ATOM      5  O   UNL A   1      42.582  42.081  25.434  1.00  0.00    -0.460 OA
BRANCH   5   6
ATOM      6  C   UNL A   1      42.963  42.272  24.141  1.00  0.00     0.338 C 
ATOM      7  O   UNL A   1      42.371  41.855  23.159  1.00  0.00    -0.246 OA
BRANCH   6   8
ATOM      8  C   UNL A   1      44.075  43.260  24.014  1.00  0.00     0.060 A 
ATOM      9  C   UNL A   1      46.396  44.803  23.369  1.00  0.00     0.001 A 
ATOM     10  C   UNL A   1      45.424  44.512  22.430  1.00  0.00     0.011 A 
ATOM     11  C   UNL A   1      46.205  44.270  24.650  1.00  0.00     0.011 A 
ATOM     12  C   UNL A   1      44.244  43.857  22.774  1.00  0.00     0.016 A 
ATOM     13  C   UNL A   1      45.067  43.472  24.965  1.00  0.00     0.016 A 
BRANCH   9  14
ATOM     14  C   UNL A   1      47.577  45.554  22.928  1.00  0.00     0.081 A 
ATOM     15  C   UNL A   1      48.647  46.980  21.621  1.00  0.00     0.098 A 
ATOM     16  N   UNL A   1      47.695  46.066  21.656  1.00  0.00    -0.241 NA
ATOM     17  S   UNL A   1      49.668  47.020  23.002  1.00  0.00    -0.126 S 
ATOM     18  C   UNL A   1      48.642  45.875  23.756  1.00  0.00     0.095 A 
BRANCH  15  19
ATOM     19  C   UNL A   1      48.912  47.898  20.464  1.00  0.00     0.105 C 
BRANCH  19  20
ATOM     20  C   UNL A   1      47.986  47.733  19.281  1.00  0.00    -0.012 A 
ATOM     21  C   UNL A   1      49.789  46.744  16.073  1.00  0.00     0.119 A 
ATOM     22  C   UNL A   1      48.880  47.379  15.240  1.00  0.00     0.048 A 
ATOM     23  C   UNL A   1      49.559  46.755  17.443  1.00  0.00     0.057 A 
ATOM     24  C   UNL A   1      47.646  47.853  15.736  1.00  0.00     0.031 A 
ATOM     25  C   UNL A   1      48.376  47.307  17.980  1.00  0.00     0.008 A 
ATOM     26  C   UNL A   1      47.364  47.709  17.106  1.00  0.00     0.057 A 
ATOM     27  N   UNL A   1      46.213  47.927  17.870  1.00  0.00    -0.280 N 
ATOM     28  C   UNL A   1      46.667  48.180  19.180  1.00  0.00     0.028 A 
ATOM     29  C   UNL A   1      45.866  48.831  20.260  1.00  0.00     0.065 C 
BRANCH  21  30
ATOM     30  O   UNL A   1      50.953  46.137  15.691  1.00  0.00    -0.497 OA
ATOM     31  C   UNL A   1      50.961  44.715  15.786  1.00  0.00     0.278 C 
ENDBRANCH  21  30
BRANCH  27  32
ATOM     32  C   UNL A   1      44.864  47.961  17.406  1.00  0.00     0.262 C 
ATOM     33  O   UNL A   1      44.448  49.012  16.909  1.00  0.00    -0.268 OA
BRANCH  32  34
ATOM     34  C   UNL A   1      43.845  46.888  17.488  1.00  0.00     0.040 A 
ATOM     35  C   UNL A   1      43.864  45.940  18.519  1.00  0.00     0.015 A 
ATOM     36  C   UNL A   1      42.719  46.983  16.657  1.00  0.00     0.015 A 
ATOM     37  C   UNL A   1      42.789  45.047  18.668  1.00  0.00     0.021 A 
ATOM     38  C   UNL A   1      41.652  46.090  16.804  1.00  0.00     0.021 A 
ATOM     39  C   UNL A   1      41.696  45.118  17.801  1.00  0.00     0.041 A 
ATOM     40  Cl  UNL A   1      40.376  44.026  17.982  1.00  0.00    -0.084 Cl
ENDBRANCH  32  34
ENDBRANCH  27  32
ENDBRANCH  19  20
ENDBRANCH  15  19
ENDBRANCH   9  14
ENDBRANCH   6   8
ENDBRANCH   5   6
ENDBRANCH   4   5
ENDBRANCH   3   4
ENDBRANCH   2   3
ENDBRANCH   1   2
BRANCH   1  41
ATOM     41  C   UNL A   1      44.405  38.264  27.494  1.00  0.00     0.188 C 
BRANCH  41  42
ATOM     42  O   UNL A   1      45.445  39.176  27.167  1.00  0.00    -0.376 OA
BRANCH  42  43
ATOM     43  C   UNL A   1      46.777  38.690  27.245  1.00  0.00     0.202 C 
BRANCH  43  44
ATOM     44  C   UNL A   1      47.126  37.808  28.460  1.00  0.00     0.261 C 
BRANCH  44  45
ATOM     45  O   UNL A   1      48.307  36.989  28.266  1.00  0.00    -0.460 OA
BRANCH  45  46
ATOM     46  C   UNL A   1      48.745  36.259  29.345  1.00  0.00     0.338 C 
ATOM     47  O   UNL A   1      49.468  36.647  30.216  1.00  0.00    -0.246 OA
BRANCH  46  48
ATOM     48  C   UNL A   1      47.882  35.025  29.454  1.00  0.00     0.060 A 
ATOM     49  C   UNL A   1      47.675  34.103  28.421  1.00  0.00     0.016 A 
ATOM     50  C   UNL A   1      47.075  34.938  30.586  1.00  0.00     0.016 A 
ATOM     51  C   UNL A   1      46.536  33.251  28.436  1.00  0.00     0.010 A 
ATOM     52  C   UNL A   1      45.983  34.055  30.603  1.00  0.00     0.010 A 
ATOM     53  C   UNL A   1      45.601  33.283  29.486  1.00  0.00    -0.014 A 
BRANCH  53  54
ATOM     54  C   UNL A   1      44.506  32.244  29.617  1.00  0.00     0.031 A 
ATOM     55  C   UNL A   1      43.279  32.971  29.992  1.00  0.00     0.074 A 
ATOM     56  C   UNL A   1      44.375  30.885  29.457  1.00  0.00     0.049 A 
ATOM     57  N   UNL A   1      42.854  33.072  31.206  1.00  0.00    -0.248 NA
ATOM     58  C   UNL A   1      42.637  33.886  29.041  1.00  0.00     0.031 C 
ATOM     59  C   UNL A   1      45.379  29.880  29.128  1.00  0.00     0.029 A 
ATOM     60  N   UNL A   1      43.244  30.070  29.501  1.00  0.00    -0.354 N 
ATOM     61  C   UNL A   1      41.705  33.827  31.109  1.00  0.00     0.074 A 
ATOM     62  C   UNL A   1      41.794  34.526  29.854  1.00  0.00     0.031 C 
ATOM     63  C   UNL A   1      44.831  28.734  28.658  1.00  0.00     0.029 A 
ATOM     64  C   UNL A   1      43.414  28.770  28.957  1.00  0.00     0.049 A 
ATOM     65  H   UNL A   1      42.389  30.374  29.880  1.00  0.00     0.167 HD
ATOM     66  C   UNL A   1      40.640  33.526  31.893  1.00  0.00     0.037 A 
ATOM     67  C   UNL A   1      42.587  27.679  28.934  1.00  0.00     0.037 A 
ATOM     68  C   UNL A   1      41.030  32.696  33.015  1.00  0.00     0.049 A 
ATOM     69  C   UNL A   1      41.634  27.832  30.036  1.00  0.00     0.074 A 
ATOM     70  C   UNL A   1      41.985  32.790  34.013  1.00  0.00     0.029 A 
ATOM     71  N   UNL A   1      40.640  31.379  32.998  1.00  0.00    -0.354 N 
ATOM     72  N   UNL A   1      41.960  27.643  31.280  1.00  0.00    -0.248 NA
ATOM     73  C   UNL A   1      40.431  28.604  29.799  1.00  0.00     0.031 C 
ATOM     74  C   UNL A   1      42.423  31.457  34.259  1.00  0.00     0.029 A 
ATOM     75  C   UNL A   1      41.673  30.603  33.455  1.00  0.00     0.049 A 
ATOM     76  H   UNL A   1      39.759  31.047  32.707  1.00  0.00     0.167 HD
ATOM     77  C   UNL A   1      41.324  28.673  31.938  1.00  0.00     0.074 A 
ATOM     78  C   UNL A   1      40.293  29.141  31.012  1.00  0.00     0.031 C 
ATOM     79  C   UNL A   1      41.903  29.240  33.033  1.00  0.00     0.037 A 
BRANCH  66  80
ATOM     80  C   UNL A   1      39.218  33.634  31.401  1.00  0.00     0.058 A 
ATOM     81  C   UNL A   1      38.273  34.304  32.199  1.00  0.00     0.135 A 
ATOM     82  C   UNL A   1      38.684  32.905  30.310  1.00  0.00     0.135 A 
ATOM     83  F   UNL A   1      38.665  35.000  33.278  1.00  0.00    -0.206 F 
ATOM     84  C   UNL A   1      36.904  34.210  31.967  1.00  0.00     0.059 A 
ATOM     85  C   UNL A   1      37.331  32.856  30.019  1.00  0.00     0.059 A 
ATOM     86  F   UNL A   1      39.426  32.116  29.525  1.00  0.00    -0.206 F 
ATOM     87  C   UNL A   1      36.443  33.478  30.876  1.00  0.00     0.060 A 
BRANCH  87  88
ATOM     88  S   UNL A   1      34.677  33.287  30.613  1.00  0.00     0.124 S 
ATOM     89  O   UNL A   1      34.380  34.460  29.801  1.00  0.00    -0.237 OA
ATOM     90  O   UNL A   1      34.615  31.998  29.932  1.00  0.00    -0.237 OA
ATOM     91  O   UNL A   1      34.134  33.302  31.968  1.00  0.00    -0.744 OA
ENDBRANCH  87  88
ENDBRANCH  66  80
BRANCH  67  92
ATOM     92  C   UNL A   1      42.512  26.467  28.074  1.00  0.00     0.058 A 
ATOM     93  C   UNL A   1      42.129  26.440  26.714  1.00  0.00     0.135 A 
ATOM     94  C   UNL A   1      43.149  25.314  28.538  1.00  0.00     0.135 A 
ATOM     95  F   UNL A   1      41.633  27.541  26.135  1.00  0.00    -0.206 F 
ATOM     96  C   UNL A   1      42.280  25.301  25.894  1.00  0.00     0.059 A 
ATOM     97  C   UNL A   1      43.353  24.202  27.721  1.00  0.00     0.059 A 
ATOM     98  F   UNL A   1      43.682  25.284  29.770  1.00  0.00    -0.206 F 
ATOM     99  C   UNL A   1      42.866  24.159  26.422  1.00  0.00     0.060 A 
BRANCH  99 100
ATOM    100  S   UNL A   1      43.011  22.628  25.454  1.00  0.00     0.124 S 
ATOM    101  O   UNL A   1      43.328  23.100  24.112  1.00  0.00    -0.237 OA
ATOM    102  O   UNL A   1      44.084  21.896  26.116  1.00  0.00    -0.237 OA
ATOM    103  O   UNL A   1      41.683  22.044  25.623  1.00  0.00    -0.744 OA
ENDBRANCH  99 100
ENDBRANCH  67  92
BRANCH  79 104
ATOM    104  C   UNL A   1      43.019  28.482  33.714  1.00  0.00     0.058 A 
ATOM    105  C   UNL A   1      44.391  28.666  33.459  1.00  0.00     0.135 A 
ATOM    106  C   UNL A   1      42.676  27.637  34.778  1.00  0.00     0.135 A 
ATOM    107  F   UNL A   1      44.809  29.511  32.508  1.00  0.00    -0.206 F 
ATOM    108  C   UNL A   1      45.375  28.034  34.228  1.00  0.00     0.059 A 
ATOM    109  C   UNL A   1      43.637  27.020  35.575  1.00  0.00     0.059 A 
ATOM    110  F   UNL A   1      41.384  27.451  35.095  1.00  0.00    -0.206 F 
ATOM    111  C   UNL A   1      44.987  27.224  35.295  1.00  0.00     0.060 A 
BRANCH 111 112
ATOM    112  S   UNL A   1      46.252  26.521  36.378  1.00  0.00     0.124 S 
ATOM    113  O   UNL A   1      47.099  27.675  36.659  1.00  0.00    -0.237 OA
ATOM    114  O   UNL A   1      45.464  26.023  37.503  1.00  0.00    -0.237 OA
ATOM    115  O   UNL A   1      46.868  25.483  35.555  1.00  0.00    -0.744 OA
ENDBRANCH 111 112
ENDBRANCH  79 104
ENDBRANCH  53  54
ENDBRANCH  46  48
ENDBRANCH  45  46
ENDBRANCH  44  45
ENDBRANCH  43  44
ENDBRANCH  42  43
ENDBRANCH  41  42
ENDBRANCH   1  41
TORSDOF 26
ENDMDL
MODEL 2
REMARK VINA RESULT:      -8.7      1.964      2.507
REMARK SMILES COc1ccc2c(c1)c(Cc1nc(-c3ccc(C(=O)OCCOCCOCCOC(=O)c4ccc(-c5c6nc(c(-c7c(F)cc(S(=O)(=O)[O-])cc7F)c7ccc([nH]7)c(-c7c(F)cc(S(=O)(=O)[O-])cc7F)c7nc(c(-c8c(F)cc(S(=O)(=O)[O-])cc8F)c8ccc5[nH]8)C=C7)C=C6)cc4)cc3)cs1)c(C)n2C(=O)c1ccc(Cl)cc1
REMARK SMILES IDX 24 1 23 2 22 3 21 4 20 5 18 6 19 7 17 8 14 9 15 10 99 11
REMARK SMILES IDX 16 12 98 13 13 14 11 15 12 16 101 17 100 18 10 19 9 20 3 21
REMARK SMILES IDX 4 22 8 23 5 24 7 25 6 26 104 27 102 28 103 29 2 30 1 31
REMARK SMILES IDX 105 32 106 33 107 34 108 35 113 36 109 37 112 38 110 39
REMARK SMILES IDX 111 40 25 41 26 42 27 43 28 44 29 45 30 46 31 47 32 48 33 49
REMARK SMILES IDX 97 50 34 51 96 52 35 53 36 54 37 55 90 56 38 57 95 58 89 59
REMARK SMILES IDX 91 60 39 61 94 62 88 63 87 64 40 66 74 67 53 68 73 69 54 70
REMARK SMILES IDX 57 71 72 72 92 73 55 74 56 75 71 77 93 78 58 79 41 80 42 81
REMARK SMILES IDX 51 82 43 83 44 84 50 85 52 86 45 87 46 88 47 89 48 90 49 91
REMARK SMILES IDX 75 92 76 93 85 94 77 95 78 96 84 97 86 98 79 99 80 100
REMARK SMILES IDX 81 101 82 102 83 103 59 104 60 105 69 106 61 107 62 108
REMARK SMILES IDX 68 109 70 110 63 111 64 112 65 113 66 114 67 115
REMARK H PARENT 91 65 57 76
REMARK Flexibility Score: inf
ROOT
ATOM      1  C   UNL A   1      43.151  37.646  26.735  1.00  0.00     0.188 C 
ENDROOT
BRANCH   1   2
ATOM      2  O   UNL A   1      42.480  38.220  27.830  1.00  0.00    -0.376 OA
BRANCH   2   3
ATOM      3  C   UNL A   1      42.031  39.544  27.693  1.00  0.00     0.202 C 
BRANCH   3   4
ATOM      4  C   UNL A   1      41.877  40.174  26.292  1.00  0.00     0.261 C 
BRANCH   4   5
ATOM      5  O   UNL A   1      42.499  41.466  26.094  1.00  0.00    -0.460 OA
BRANCH   5   6
ATOM      6  C   UNL A   1      42.779  41.800  24.804  1.00  0.00     0.338 C 
ATOM      7  O   UNL A   1      42.104  41.501  23.832  1.00  0.00    -0.246 OA
BRANCH   6   8
ATOM      8  C   UNL A   1      43.894  42.787  24.699  1.00  0.00     0.060 A 
ATOM      9  C   UNL A   1      46.229  44.328  24.102  1.00  0.00     0.001 A 
ATOM     10  C   UNL A   1      45.278  44.035  23.142  1.00  0.00     0.011 A 
ATOM     11  C   UNL A   1      46.009  43.799  25.380  1.00  0.00     0.011 A 
ATOM     12  C   UNL A   1      44.091  43.380  23.461  1.00  0.00     0.016 A 
ATOM     13  C   UNL A   1      44.864  43.002  25.672  1.00  0.00     0.016 A 
BRANCH   9  14
ATOM     14  C   UNL A   1      47.419  45.078  23.685  1.00  0.00     0.081 A 
ATOM     15  C   UNL A   1      48.575  46.357  22.302  1.00  0.00     0.098 A 
ATOM     16  N   UNL A   1      47.668  45.399  22.370  1.00  0.00    -0.241 NA
ATOM     17  S   UNL A   1      49.418  46.667  23.766  1.00  0.00    -0.126 S 
ATOM     18  C   UNL A   1      48.361  45.586  24.569  1.00  0.00     0.095 A 
BRANCH  15  19
ATOM     19  C   UNL A   1      48.937  47.106  21.053  1.00  0.00     0.105 C 
BRANCH  19  20
ATOM     20  C   UNL A   1      48.103  46.778  19.835  1.00  0.00    -0.012 A 
ATOM     21  C   UNL A   1      50.009  44.828  17.174  1.00  0.00     0.119 A 
ATOM     22  C   UNL A   1      49.282  45.352  16.117  1.00  0.00     0.048 A 
ATOM     23  C   UNL A   1      49.665  45.197  18.469  1.00  0.00     0.057 A 
ATOM     24  C   UNL A   1      48.093  46.082  16.341  1.00  0.00     0.031 A 
ATOM     25  C   UNL A   1      48.536  46.006  18.721  1.00  0.00     0.008 A 
ATOM     26  C   UNL A   1      47.676  46.308  17.664  1.00  0.00     0.057 A 
ATOM     27  N   UNL A   1      46.508  46.846  18.216  1.00  0.00    -0.280 N 
ATOM     28  C   UNL A   1      46.880  47.348  19.480  1.00  0.00     0.028 A 
ATOM     29  C   UNL A   1      46.094  48.336  20.280  1.00  0.00     0.065 C 
BRANCH  21  30
ATOM     30  O   UNL A   1      51.098  44.005  17.082  1.00  0.00    -0.497 OA
ATOM     31  C   UNL A   1      52.353  44.617  17.369  1.00  0.00     0.278 C 
ENDBRANCH  21  30
BRANCH  27  32
ATOM     32  C   UNL A   1      45.225  46.936  17.598  1.00  0.00     0.262 C 
ATOM     33  O   UNL A   1      45.021  47.869  16.816  1.00  0.00    -0.268 OA
BRANCH  32  34
ATOM     34  C   UNL A   1      44.048  46.061  17.813  1.00  0.00     0.040 A 
ATOM     35  C   UNL A   1      44.097  44.974  18.695  1.00  0.00     0.015 A 
ATOM     36  C   UNL A   1      42.811  46.486  17.306  1.00  0.00     0.015 A 
ATOM     37  C   UNL A   1      42.919  44.274  19.008  1.00  0.00     0.021 A 
ATOM     38  C   UNL A   1      41.640  45.785  17.616  1.00  0.00     0.021 A 
ATOM     39  C   UNL A   1      41.700  44.675  18.456  1.00  0.00     0.041 A 
ATOM     40  Cl  UNL A   1      40.254  43.820  18.839  1.00  0.00    -0.084 Cl
ENDBRANCH  32  34
ENDBRANCH  27  32
ENDBRANCH  19  20
ENDBRANCH  15  19
ENDBRANCH   9  14
ENDBRANCH   6   8
ENDBRANCH   5   6
ENDBRANCH   4   5
ENDBRANCH   3   4
ENDBRANCH   2   3
ENDBRANCH   1   2
BRANCH   1  41
ATOM     41  C   UNL A   1      44.659  37.439  27.008  1.00  0.00     0.188 C 
BRANCH  41  42
ATOM     42  O   UNL A   1      45.571  38.446  26.590  1.00  0.00    -0.376 OA
BRANCH  42  43
ATOM     43  C   UNL A   1      46.875  38.021  26.220  1.00  0.00     0.202 C 
BRANCH  43  44
ATOM     44  C   UNL A   1      47.574  37.021  27.161  1.00  0.00     0.261 C 
BRANCH  44  45
ATOM     45  O   UNL A   1      48.701  36.340  26.554  1.00  0.00    -0.460 OA
BRANCH  45  46
ATOM     46  C   UNL A   1      49.519  35.617  27.391  1.00  0.00     0.338 C 
ATOM     47  O   UNL A   1      50.435  36.047  28.030  1.00  0.00    -0.246 OA
BRANCH  46  48
ATOM     48  C   UNL A   1      48.854  34.289  27.659  1.00  0.00     0.060 A 
ATOM     49  C   UNL A   1      48.560  33.332  26.681  1.00  0.00     0.016 A 
ATOM     50  C   UNL A   1      48.307  34.122  28.929  1.00  0.00     0.016 A 
ATOM     51  C   UNL A   1      47.561  32.347  26.915  1.00  0.00     0.010 A 
ATOM     52  C   UNL A   1      47.358  33.112  29.156  1.00  0.00     0.010 A 
ATOM     53  C   UNL A   1      46.859  32.281  28.132  1.00  0.00    -0.014 A 
BRANCH  53  54
ATOM     54  C   UNL A   1      45.948  31.118  28.470  1.00  0.00     0.031 A 
ATOM     55  C   UNL A   1      44.749  31.693  29.108  1.00  0.00     0.074 A 
ATOM     56  C   UNL A   1      45.951  29.752  28.316  1.00  0.00     0.049 A 
ATOM     57  N   UNL A   1      44.580  31.750  30.385  1.00  0.00    -0.248 NA
ATOM     58  C   UNL A   1      43.817  32.516  28.329  1.00  0.00     0.031 C 
ATOM     59  C   UNL A   1      46.977  28.873  27.765  1.00  0.00     0.029 A 
ATOM     60  N   UNL A   1      44.961  28.805  28.581  1.00  0.00    -0.354 N 
ATOM     61  C   UNL A   1      43.355  32.359  30.545  1.00  0.00     0.074 A 
ATOM     62  C   UNL A   1      43.093  33.054  29.313  1.00  0.00     0.031 C 
ATOM     63  C   UNL A   1      46.484  27.666  27.398  1.00  0.00     0.029 A 
ATOM     64  C   UNL A   1      45.167  27.532  27.989  1.00  0.00     0.049 A 
ATOM     65  H   UNL A   1      44.174  29.006  29.136  1.00  0.00     0.167 HD
ATOM     66  C   UNL A   1      42.522  31.937  31.530  1.00  0.00     0.037 A 
ATOM     67  C   UNL A   1      44.491  26.349  28.120  1.00  0.00     0.037 A 
ATOM     68  C   UNL A   1      43.236  31.168  32.529  1.00  0.00     0.049 A 
ATOM     69  C   UNL A   1      43.781  26.392  29.399  1.00  0.00     0.074 A 
ATOM     70  C   UNL A   1      44.362  31.385  33.306  1.00  0.00     0.029 A 
ATOM     71  N   UNL A   1      43.012  29.814  32.570  1.00  0.00    -0.354 N 
ATOM     72  N   UNL A   1      44.381  26.253  30.544  1.00  0.00    -0.248 NA
ATOM     73  C   UNL A   1      42.471  27.011  29.434  1.00  0.00     0.031 C 
ATOM     74  C   UNL A   1      44.998  30.116  33.430  1.00  0.00     0.029 A 
ATOM     75  C   UNL A   1      44.205  29.172  32.785  1.00  0.00     0.049 A 
ATOM     76  H   UNL A   1      42.137  29.375  32.463  1.00  0.00     0.167 HD
ATOM     77  C   UNL A   1      43.778  27.203  31.340  1.00  0.00     0.074 A 
ATOM     78  C   UNL A   1      42.528  27.536  30.659  1.00  0.00     0.031 C 
ATOM     79  C   UNL A   1      44.502  27.844  32.299  1.00  0.00     0.037 A 
BRANCH  66  80
ATOM     80  C   UNL A   1      41.026  31.868  31.348  1.00  0.00     0.058 A 
ATOM     81  C   UNL A   1      40.200  32.515  32.285  1.00  0.00     0.135 A 
ATOM     82  C   UNL A   1      40.361  30.999  30.449  1.00  0.00     0.135 A 
ATOM     83  F   UNL A   1      40.727  33.337  33.205  1.00  0.00    -0.206 F 
ATOM     84  C   UNL A   1      38.830  32.273  32.360  1.00  0.00     0.059 A 
ATOM     85  C   UNL A   1      38.991  30.798  30.460  1.00  0.00     0.059 A 
ATOM     86  F   UNL A   1      41.007  30.216  29.577  1.00  0.00    -0.206 F 
ATOM     87  C   UNL A   1      38.237  31.408  31.444  1.00  0.00     0.060 A 
BRANCH  87  88
ATOM     88  S   UNL A   1      36.486  31.031  31.581  1.00  0.00     0.124 S 
ATOM     89  O   UNL A   1      35.964  31.660  30.374  1.00  0.00    -0.237 OA
ATOM     90  O   UNL A   1      36.496  29.571  31.595  1.00  0.00    -0.237 OA
ATOM     91  O   UNL A   1      36.105  31.663  32.840  1.00  0.00    -0.744 OA
ENDBRANCH  87  88
ENDBRANCH  66  80
BRANCH  67  92
ATOM     92  C   UNL A   1      44.383  25.130  27.272  1.00  0.00     0.058 A 
ATOM     93  C   UNL A   1      43.594  25.000  26.107  1.00  0.00     0.135 A 
ATOM     94  C   UNL A   1      45.352  24.139  27.450  1.00  0.00     0.135 A 
ATOM     95  F   UNL A   1      42.729  25.966  25.772  1.00  0.00    -0.206 F 
ATOM     96  C   UNL A   1      43.693  23.900  25.229  1.00  0.00     0.059 A 
ATOM     97  C   UNL A   1      45.496  23.077  26.559  1.00  0.00     0.059 A 
ATOM     98  F   UNL A   1      46.250  24.243  28.443  1.00  0.00    -0.206 F 
ATOM     99  C   UNL A   1      44.633  22.911  25.485  1.00  0.00     0.060 A 
BRANCH  99 100
ATOM    100  S   UNL A   1      44.756  21.423  24.449  1.00  0.00     0.124 S 
ATOM    101  O   UNL A   1      44.493  21.919  23.104  1.00  0.00    -0.237 OA
ATOM    102  O   UNL A   1      46.118  20.952  24.673  1.00  0.00    -0.237 OA
ATOM    103  O   UNL A   1      43.717  20.574  25.025  1.00  0.00    -0.744 OA
ENDBRANCH  99 100
ENDBRANCH  67  92
BRANCH  79 104
ATOM    104  C   UNL A   1      45.819  27.232  32.717  1.00  0.00     0.058 A 
ATOM    105  C   UNL A   1      45.968  26.219  33.683  1.00  0.00     0.135 A 
ATOM    106  C   UNL A   1      46.963  27.594  31.992  1.00  0.00     0.135 A 
ATOM    107  F   UNL A   1      44.914  25.763  34.371  1.00  0.00    -0.206 F 
ATOM    108  C   UNL A   1      47.200  25.599  33.917  1.00  0.00     0.059 A 
ATOM    109  C   UNL A   1      48.193  26.971  32.187  1.00  0.00     0.059 A 
ATOM    110  F   UNL A   1      46.878  28.528  31.030  1.00  0.00    -0.206 F 
ATOM    111  C   UNL A   1      48.305  25.971  33.151  1.00  0.00     0.060 A 
BRANCH 111 112
ATOM    112  S   UNL A   1      49.862  25.075  33.350  1.00  0.00     0.124 S 
ATOM    113  O   UNL A   1      50.538  25.338  32.084  1.00  0.00    -0.237 OA
ATOM    114  O   UNL A   1      50.446  25.714  34.526  1.00  0.00    -0.237 OA
ATOM    115  O   UNL A   1      49.436  23.692  33.552  1.00  0.00    -0.744 OA
ENDBRANCH 111 112
ENDBRANCH  79 104
ENDBRANCH  53  54
ENDBRANCH  46  48
ENDBRANCH  45  46
ENDBRANCH  44  45
ENDBRANCH  43  44
ENDBRANCH  42  43
ENDBRANCH  41  42
ENDBRANCH   1  41
TORSDOF 26
ENDMDL
MODEL 3
REMARK VINA RESULT:      -8.6     12.577     17.305
REMARK SMILES COc1ccc2c(c1)c(Cc1nc(-c3ccc(C(=O)OCCOCCOCCOC(=O)c4ccc(-c5c6nc(c(-c7c(F)cc(S(=O)(=O)[O-])cc7F)c7ccc([nH]7)c(-c7c(F)cc(S(=O)(=O)[O-])cc7F)c7nc(c(-c8c(F)cc(S(=O)(=O)[O-])cc8F)c8ccc5[nH]8)C=C7)C=C6)cc4)cc3)cs1)c(C)n2C(=O)c1ccc(Cl)cc1
REMARK SMILES IDX 24 1 23 2 22 3 21 4 20 5 18 6 19 7 17 8 14 9 15 10 99 11
REMARK SMILES IDX 16 12 98 13 13 14 11 15 12 16 101 17 100 18 10 19 9 20 3 21
REMARK SMILES IDX 4 22 8 23 5 24 7 25 6 26 104 27 102 28 103 29 2 30 1 31
REMARK SMILES IDX 105 32 106 33 107 34 108 35 113 36 109 37 112 38 110 39
REMARK SMILES IDX 111 40 25 41 26 42 27 43 28 44 29 45 30 46 31 47 32 48 33 49
REMARK SMILES IDX 97 50 34 51 96 52 35 53 36 54 37 55 90 56 38 57 95 58 89 59
REMARK SMILES IDX 91 60 39 61 94 62 88 63 87 64 40 66 74 67 53 68 73 69 54 70
REMARK SMILES IDX 57 71 72 72 92 73 55 74 56 75 71 77 93 78 58 79 41 80 42 81
REMARK SMILES IDX 51 82 43 83 44 84 50 85 52 86 45 87 46 88 47 89 48 90 49 91
REMARK SMILES IDX 75 92 76 93 85 94 77 95 78 96 84 97 86 98 79 99 80 100
REMARK SMILES IDX 81 101 82 102 83 103 59 104 60 105 69 106 61 107 62 108
REMARK SMILES IDX 68 109 70 110 63 111 64 112 65 113 66 114 67 115
REMARK H PARENT 91 65 57 76
REMARK Flexibility Score: inf
ROOT
ATOM      1  C   UNL A   1      36.290  32.609  32.766  1.00  0.00     0.188 C 
ENDROOT
BRANCH   1   2
ATOM      2  O   UNL A   1      35.147  33.265  32.275  1.00  0.00    -0.376 OA
BRANCH   2   3
ATOM      3  C   UNL A   1      35.334  34.217  31.257  1.00  0.00     0.202 C 
BRANCH   3   4
ATOM      4  C   UNL A   1      34.716  33.994  29.860  1.00  0.00     0.261 C 
BRANCH   4   5
ATOM      5  O   UNL A   1      34.233  32.658  29.575  1.00  0.00    -0.460 OA
BRANCH   5   6
ATOM      6  C   UNL A   1      35.068  31.868  28.846  1.00  0.00     0.338 C 
ATOM      7  O   UNL A   1      36.273  31.770  29.009  1.00  0.00    -0.246 OA
BRANCH   6   8
ATOM      8  C   UNL A   1      34.329  30.928  27.952  1.00  0.00     0.060 A 
ATOM      9  C   UNL A   1      33.345  29.210  25.887  1.00  0.00     0.001 A 
ATOM     10  C   UNL A   1      34.564  28.994  26.502  1.00  0.00     0.011 A 
ATOM     11  C   UNL A   1      32.627  30.339  26.302  1.00  0.00     0.011 A 
ATOM     12  C   UNL A   1      34.988  29.766  27.581  1.00  0.00     0.016 A 
ATOM     13  C   UNL A   1      33.131  31.216  27.307  1.00  0.00     0.016 A 
BRANCH   9  14
ATOM     14  C   UNL A   1      32.953  28.306  24.800  1.00  0.00     0.081 A 
ATOM     15  C   UNL A   1      33.205  26.531  23.507  1.00  0.00     0.098 A 
ATOM     16  N   UNL A   1      33.850  27.473  24.171  1.00  0.00    -0.241 NA
ATOM     17  S   UNL A   1      31.519  26.798  23.318  1.00  0.00    -0.126 S 
ATOM     18  C   UNL A   1      31.648  28.155  24.354  1.00  0.00     0.095 A 
BRANCH  15  19
ATOM     19  C   UNL A   1      33.850  25.329  22.882  1.00  0.00     0.105 C 
BRANCH  19  20
ATOM     20  C   UNL A   1      33.775  24.056  23.696  1.00  0.00    -0.012 A 
ATOM     21  C   UNL A   1      37.058  23.157  25.408  1.00  0.00     0.119 A 
ATOM     22  C   UNL A   1      36.828  21.790  25.367  1.00  0.00     0.048 A 
ATOM     23  C   UNL A   1      36.077  24.013  24.922  1.00  0.00     0.057 A 
ATOM     24  C   UNL A   1      35.557  21.276  25.032  1.00  0.00     0.031 A 
ATOM     25  C   UNL A   1      34.828  23.520  24.490  1.00  0.00     0.008 A 
ATOM     26  C   UNL A   1      34.528  22.172  24.697  1.00  0.00     0.057 A 
ATOM     27  N   UNL A   1      33.158  22.008  24.468  1.00  0.00    -0.280 N 
ATOM     28  C   UNL A   1      32.779  23.080  23.635  1.00  0.00     0.028 A 
ATOM     29  C   UNL A   1      31.529  23.137  22.817  1.00  0.00     0.065 C 
BRANCH  21  30
ATOM     30  O   UNL A   1      38.200  23.776  25.835  1.00  0.00    -0.497 OA
ATOM     31  C   UNL A   1      39.107  22.952  26.563  1.00  0.00     0.278 C 
ENDBRANCH  21  30
BRANCH  27  32
ATOM     32  C   UNL A   1      32.330  20.938  24.923  1.00  0.00     0.262 C 
ATOM     33  O   UNL A   1      31.234  21.221  25.414  1.00  0.00    -0.268 OA
BRANCH  32  34
ATOM     34  C   UNL A   1      32.640  19.489  24.933  1.00  0.00     0.040 A 
ATOM     35  C   UNL A   1      32.779  18.780  26.133  1.00  0.00     0.015 A 
ATOM     36  C   UNL A   1      32.547  18.787  23.722  1.00  0.00     0.015 A 
ATOM     37  C   UNL A   1      32.897  17.380  26.109  1.00  0.00     0.021 A 
ATOM     38  C   UNL A   1      32.669  17.393  23.700  1.00  0.00     0.021 A 
ATOM     39  C   UNL A   1      32.856  16.695  24.892  1.00  0.00     0.041 A 
ATOM     40  Cl  UNL A   1      32.998  14.979  24.859  1.00  0.00    -0.084 Cl
ENDBRANCH  32  34
ENDBRANCH  27  32
ENDBRANCH  19  20
ENDBRANCH  15  19
ENDBRANCH   9  14
ENDBRANCH   6   8
ENDBRANCH   5   6
ENDBRANCH   4   5
ENDBRANCH   3   4
ENDBRANCH   2   3
ENDBRANCH   1   2
BRANCH   1  41
ATOM     41  C   UNL A   1      36.232  31.079  32.551  1.00  0.00     0.188 C 
BRANCH  41  42
ATOM     42  O   UNL A   1      37.360  30.428  31.982  1.00  0.00    -0.376 OA
BRANCH  42  43
ATOM     43  C   UNL A   1      37.114  29.240  31.242  1.00  0.00     0.202 C 
BRANCH  43  44
ATOM     44  C   UNL A   1      38.311  28.293  31.031  1.00  0.00     0.261 C 
BRANCH  44  45
ATOM     45  O   UNL A   1      39.303  28.804  30.105  1.00  0.00    -0.460 OA
BRANCH  45  46
ATOM     46  C   UNL A   1      40.216  29.704  30.601  1.00  0.00     0.338 C 
ATOM     47  O   UNL A   1      40.247  30.878  30.375  1.00  0.00    -0.246 OA
BRANCH  46  48
ATOM     48  C   UNL A   1      40.936  29.049  31.755  1.00  0.00     0.060 A 
ATOM     49  C   UNL A   1      40.502  29.080  33.086  1.00  0.00     0.016 A 
ATOM     50  C   UNL A   1      42.221  28.582  31.492  1.00  0.00     0.016 A 
ATOM     51  C   UNL A   1      41.421  28.852  34.147  1.00  0.00     0.010 A 
ATOM     52  C   UNL A   1      43.100  28.314  32.554  1.00  0.00     0.010 A 
ATOM     53  C   UNL A   1      42.776  28.564  33.903  1.00  0.00    -0.014 A 
BRANCH  53  54
ATOM     54  C   UNL A   1      43.713  28.116  35.007  1.00  0.00     0.031 A 
ATOM     55  C   UNL A   1      43.994  29.307  35.830  1.00  0.00     0.074 A 
ATOM     56  C   UNL A   1      44.304  26.945  35.421  1.00  0.00     0.049 A 
ATOM     57  N   UNL A   1      45.053  30.030  35.696  1.00  0.00    -0.248 NA
ATOM     58  C   UNL A   1      42.933  29.918  36.640  1.00  0.00     0.031 C 
ATOM     59  C   UNL A   1      44.262  25.614  34.825  1.00  0.00     0.029 A 
ATOM     60  N   UNL A   1      45.066  26.663  36.554  1.00  0.00    -0.354 N 
ATOM     61  C   UNL A   1      44.913  31.027  36.637  1.00  0.00     0.074 A 
ATOM     62  C   UNL A   1      43.510  31.080  36.954  1.00  0.00     0.031 C 
ATOM     63  C   UNL A   1      44.609  24.643  35.704  1.00  0.00     0.029 A 
ATOM     64  C   UNL A   1      45.230  25.285  36.845  1.00  0.00     0.049 A 
ATOM     65  H   UNL A   1      45.461  27.370  37.113  1.00  0.00     0.167 HD
ATOM     66  C   UNL A   1      46.002  31.458  37.322  1.00  0.00     0.037 A 
ATOM     67  C   UNL A   1      45.992  24.637  37.781  1.00  0.00     0.037 A 
ATOM     68  C   UNL A   1      47.229  31.075  36.653  1.00  0.00     0.049 A 
ATOM     69  C   UNL A   1      47.081  25.541  38.157  1.00  0.00     0.074 A 
ATOM     70  C   UNL A   1      47.731  31.229  35.372  1.00  0.00     0.029 A 
ATOM     71  N   UNL A   1      47.988  30.088  37.233  1.00  0.00    -0.354 N 
ATOM     72  N   UNL A   1      48.102  25.773  37.387  1.00  0.00    -0.248 NA
ATOM     73  C   UNL A   1      46.832  26.515  39.201  1.00  0.00     0.031 C 
ATOM     74  C   UNL A   1      48.483  30.049  35.105  1.00  0.00     0.029 A 
ATOM     75  C   UNL A   1      48.465  29.259  36.251  1.00  0.00     0.049 A 
ATOM     76  H   UNL A   1      48.163  29.993  38.198  1.00  0.00     0.167 HD
ATOM     77  C   UNL A   1      48.297  27.132  37.513  1.00  0.00     0.074 A 
ATOM     78  C   UNL A   1      47.591  27.508  38.737  1.00  0.00     0.031 C 
ATOM     79  C   UNL A   1      48.745  27.855  36.449  1.00  0.00     0.037 A 
BRANCH  66  80
ATOM     80  C   UNL A   1      45.941  31.841  38.780  1.00  0.00     0.058 A 
ATOM     81  C   UNL A   1      46.456  33.089  39.175  1.00  0.00     0.135 A 
ATOM     82  C   UNL A   1      45.631  30.950  39.836  1.00  0.00     0.135 A 
ATOM     83  F   UNL A   1      46.814  33.999  38.256  1.00  0.00    -0.206 F 
ATOM     84  C   UNL A   1      46.697  33.405  40.509  1.00  0.00     0.059 A 
ATOM     85  C   UNL A   1      45.797  31.270  41.173  1.00  0.00     0.059 A 
ATOM     86  F   UNL A   1      45.247  29.684  39.636  1.00  0.00    -0.206 F 
ATOM     87  C   UNL A   1      46.368  32.484  41.501  1.00  0.00     0.060 A 
BRANCH  87  88
ATOM     88  S   UNL A   1      46.747  32.851  43.218  1.00  0.00     0.124 S 
ATOM     89  O   UNL A   1      45.858  31.926  43.910  1.00  0.00    -0.237 OA
ATOM     90  O   UNL A   1      48.173  32.545  43.280  1.00  0.00    -0.237 OA
ATOM     91  O   UNL A   1      46.407  34.265  43.340  1.00  0.00    -0.744 OA
ENDBRANCH  87  88
ENDBRANCH  66  80
BRANCH  67  92
ATOM     92  C   UNL A   1      45.922  23.288  38.406  1.00  0.00     0.058 A 
ATOM     93  C   UNL A   1      46.615  22.137  37.969  1.00  0.00     0.135 A 
ATOM     94  C   UNL A   1      45.378  23.206  39.690  1.00  0.00     0.135 A 
ATOM     95  F   UNL A   1      47.287  22.158  36.810  1.00  0.00    -0.206 F 
ATOM     96  C   UNL A   1      46.677  20.944  38.721  1.00  0.00     0.059 A 
ATOM     97  C   UNL A   1      45.481  22.051  40.464  1.00  0.00     0.059 A 
ATOM     98  F   UNL A   1      44.824  24.288  40.260  1.00  0.00    -0.206 F 
ATOM     99  C   UNL A   1      46.068  20.896  39.967  1.00  0.00     0.060 A 
BRANCH  99 100
ATOM    100  S   UNL A   1      46.030  19.368  40.950  1.00  0.00     0.124 S 
ATOM    101  O   UNL A   1      46.395  18.334  39.990  1.00  0.00    -0.237 OA
ATOM    102  O   UNL A   1      47.014  19.604  42.000  1.00  0.00    -0.237 OA
ATOM    103  O   UNL A   1      44.644  19.345  41.409  1.00  0.00    -0.744 OA
ENDBRANCH  99 100
ENDBRANCH  67  92
BRANCH  79 104
ATOM    104  C   UNL A   1      49.373  27.104  35.298  1.00  0.00     0.058 A 
ATOM    105  C   UNL A   1      48.668  26.572  34.202  1.00  0.00     0.135 A 
ATOM    106  C   UNL A   1      50.772  27.055  35.240  1.00  0.00     0.135 A 
ATOM    107  F   UNL A   1      47.332  26.641  34.142  1.00  0.00    -0.206 F 
ATOM    108  C   UNL A   1      49.328  26.015  33.101  1.00  0.00     0.059 A 
ATOM    109  C   UNL A   1      51.451  26.531  34.143  1.00  0.00     0.059 A 
ATOM    110  F   UNL A   1      51.502  27.580  36.239  1.00  0.00    -0.206 F 
ATOM    111  C   UNL A   1      50.723  26.013  33.075  1.00  0.00     0.060 A 
BRANCH 111 112
ATOM    112  S   UNL A   1      51.579  25.426  31.595  1.00  0.00     0.124 S 
ATOM    113  O   UNL A   1      52.581  24.523  32.151  1.00  0.00    -0.237 OA
ATOM    114  O   UNL A   1      50.502  24.790  30.839  1.00  0.00    -0.237 OA
ATOM    115  O   UNL A   1      52.107  26.650  30.997  1.00  0.00    -0.744 OA
ENDBRANCH 111 112
ENDBRANCH  79 104
ENDBRANCH  53  54
ENDBRANCH  46  48
ENDBRANCH  45  46
ENDBRANCH  44  45
ENDBRANCH  43  44
ENDBRANCH  42  43
ENDBRANCH  41  42
ENDBRANCH   1  41
TORSDOF 26
ENDMDL
