MODEL 1
REMARK VINA RESULT:      -9.9      0.000      0.000
REMARK SMILES O=C(OCCOCCOCCOC(=O)c1cc(S(=O)(=O)N2CCCCC2)c(Cl)cc1Cl)c1ccc(-c2c3nc(c(-c4c(F)cc(S(=O)(=O)[O-])cc4F)c4ccc([nH]4)c(-c4c(F)cc(S(=O)(=O)[O-])cc4F)c4nc(c(-c5c(F)cc(S(=O)(=O)[O-])cc5F)c5ccc2[nH]5)C=C4)C=C3)cc1
REMARK SMILES IDX 7 1 6 2 5 3 4 4 3 5 2 6 1 7 32 8 33 9 97 10 34 11 96 12
REMARK SMILES IDX 35 13 36 14 37 15 90 16 38 17 95 18 89 19 91 20 39 21 94 22
REMARK SMILES IDX 88 23 87 24 40 26 74 27 53 28 73 29 54 30 57 31 72 32 92 33
REMARK SMILES IDX 55 34 56 35 71 37 93 38 58 39 41 40 42 41 51 42 43 43 44 44
REMARK SMILES IDX 50 45 52 46 45 47 46 48 47 49 48 50 49 51 75 52 76 53 85 54
REMARK SMILES IDX 77 55 78 56 84 57 86 58 79 59 80 60 81 61 82 62 83 63 59 64
REMARK SMILES IDX 60 65 69 66 61 67 62 68 68 69 70 70 63 71 64 72 65 73 66 74
REMARK SMILES IDX 67 75 8 76 9 77 10 78 11 79 12 80 13 81 14 82 15 83 16 84
REMARK SMILES IDX 30 85 17 86 29 87 31 88 27 89 28 90 18 91 19 92 20 93 21 94
REMARK SMILES IDX 22 95 26 96 23 97 25 98 24 99
REMARK H PARENT 91 25 57 36
REMARK Flexibility Score: inf
ROOT
ATOM      1  C   UNL A   1      38.467  22.200  25.832  1.00  0.00     0.188 C 
ENDROOT
BRANCH   1   2
ATOM      2  O   UNL A   1      39.619  22.961  26.207  1.00  0.00    -0.376 OA
BRANCH   2   3
ATOM      3  C   UNL A   1      40.269  22.473  27.383  1.00  0.00     0.202 C 
BRANCH   3   4
ATOM      4  C   UNL A   1      41.561  23.219  27.740  1.00  0.00     0.261 C 
BRANCH   4   5
ATOM      5  O   UNL A   1      42.057  24.008  26.644  1.00  0.00    -0.460 OA
BRANCH   5   6
ATOM      6  C   UNL A   1      41.763  25.302  26.355  1.00  0.00     0.338 C 
ATOM      7  O   UNL A   1      41.639  25.635  25.177  1.00  0.00    -0.246 OA
BRANCH   6   8
ATOM      8  C   UNL A   1      41.511  26.335  27.408  1.00  0.00     0.060 A 
ATOM      9  C   UNL A   1      42.314  27.453  27.618  1.00  0.00     0.016 A 
ATOM     10  C   UNL A   1      40.363  26.191  28.208  1.00  0.00     0.016 A 
ATOM     11  C   UNL A   1      42.092  28.307  28.693  1.00  0.00     0.010 A 
ATOM     12  C   UNL A   1      40.083  27.102  29.238  1.00  0.00     0.010 A 
ATOM     13  C   UNL A   1      40.978  28.142  29.519  1.00  0.00    -0.014 A 
BRANCH  13  14
ATOM     14  C   UNL A   1      40.859  29.003  30.722  1.00  0.00     0.031 A 
ATOM     15  C   UNL A   1      39.835  30.106  30.737  1.00  0.00     0.074 A 
ATOM     16  C   UNL A   1      41.535  28.693  31.849  1.00  0.00     0.049 A 
ATOM     17  N   UNL A   1      39.597  31.000  31.659  1.00  0.00    -0.248 NA
ATOM     18  C   UNL A   1      38.947  30.204  29.565  1.00  0.00     0.031 C 
ATOM     19  C   UNL A   1      42.480  27.580  31.995  1.00  0.00     0.029 A 
ATOM     20  N   UNL A   1      41.504  29.261  33.097  1.00  0.00    -0.354 N 
ATOM     21  C   UNL A   1      38.525  31.753  31.191  1.00  0.00     0.074 A 
ATOM     22  C   UNL A   1      38.187  31.242  29.882  1.00  0.00     0.031 C 
ATOM     23  C   UNL A   1      42.915  27.535  33.265  1.00  0.00     0.029 A 
ATOM     24  C   UNL A   1      42.355  28.662  33.998  1.00  0.00     0.049 A 
ATOM     25  H   UNL A   1      40.929  30.027  33.325  1.00  0.00     0.167 HD
ATOM     26  C   UNL A   1      37.867  32.761  31.811  1.00  0.00     0.037 A 
ATOM     27  C   UNL A   1      42.707  29.032  35.244  1.00  0.00     0.037 A 
ATOM     28  C   UNL A   1      38.212  33.261  33.113  1.00  0.00     0.049 A 
ATOM     29  C   UNL A   1      42.151  30.306  35.797  1.00  0.00     0.074 A 
ATOM     30  C   UNL A   1      37.644  34.305  33.822  1.00  0.00     0.029 A 
ATOM     31  N   UNL A   1      39.226  32.745  33.907  1.00  0.00    -0.354 N 
ATOM     32  N   UNL A   1      41.230  31.089  35.289  1.00  0.00    -0.248 NA
ATOM     33  C   UNL A   1      42.727  30.777  37.062  1.00  0.00     0.031 C 
ATOM     34  C   UNL A   1      38.336  34.440  35.032  1.00  0.00     0.029 A 
ATOM     35  C   UNL A   1      39.311  33.458  35.089  1.00  0.00     0.049 A 
ATOM     36  H   UNL A   1      39.800  31.982  33.665  1.00  0.00     0.167 HD
ATOM     37  C   UNL A   1      41.102  32.139  36.185  1.00  0.00     0.074 A 
ATOM     38  C   UNL A   1      42.052  31.901  37.255  1.00  0.00     0.031 C 
ATOM     39  C   UNL A   1      40.262  33.198  36.136  1.00  0.00     0.037 A 
BRANCH  26  40
ATOM     40  C   UNL A   1      36.720  33.391  31.078  1.00  0.00     0.058 A 
ATOM     41  C   UNL A   1      36.930  34.285  30.016  1.00  0.00     0.135 A 
ATOM     42  C   UNL A   1      35.395  33.087  31.427  1.00  0.00     0.135 A 
ATOM     43  F   UNL A   1      38.179  34.627  29.659  1.00  0.00    -0.206 F 
ATOM     44  C   UNL A   1      35.868  34.868  29.335  1.00  0.00     0.059 A 
ATOM     45  C   UNL A   1      34.315  33.646  30.748  1.00  0.00     0.059 A 
ATOM     46  F   UNL A   1      35.139  32.247  32.441  1.00  0.00    -0.206 F 
ATOM     47  C   UNL A   1      34.563  34.544  29.711  1.00  0.00     0.060 A 
BRANCH  47  48
ATOM     48  S   UNL A   1      33.192  35.313  28.821  1.00  0.00     0.124 S 
ATOM     49  O   UNL A   1      33.901  36.216  27.920  1.00  0.00    -0.237 OA
ATOM     50  O   UNL A   1      32.547  34.166  28.189  1.00  0.00    -0.237 OA
ATOM     51  O   UNL A   1      32.420  35.959  29.878  1.00  0.00    -0.744 OA
ENDBRANCH  47  48
ENDBRANCH  26  40
BRANCH  27  52
ATOM     52  C   UNL A   1      43.838  28.364  35.936  1.00  0.00     0.058 A 
ATOM     53  C   UNL A   1      45.186  28.635  35.688  1.00  0.00     0.135 A 
ATOM     54  C   UNL A   1      43.530  27.322  36.819  1.00  0.00     0.135 A 
ATOM     55  F   UNL A   1      45.533  29.564  34.785  1.00  0.00    -0.206 F 
ATOM     56  C   UNL A   1      46.194  27.906  36.322  1.00  0.00     0.059 A 
ATOM     57  C   UNL A   1      44.509  26.619  37.504  1.00  0.00     0.059 A 
ATOM     58  F   UNL A   1      42.248  26.957  36.964  1.00  0.00    -0.206 F 
ATOM     59  C   UNL A   1      45.843  26.907  37.238  1.00  0.00     0.060 A 
BRANCH  59  60
ATOM     60  S   UNL A   1      47.137  25.962  38.070  1.00  0.00     0.124 S 
ATOM     61  O   UNL A   1      46.855  24.610  37.600  1.00  0.00    -0.237 OA
ATOM     62  O   UNL A   1      48.358  26.572  37.554  1.00  0.00    -0.237 OA
ATOM     63  O   UNL A   1      46.872  26.202  39.485  1.00  0.00    -0.744 OA
ENDBRANCH  59  60
ENDBRANCH  27  52
BRANCH  39  64
ATOM     64  C   UNL A   1      40.282  34.111  37.320  1.00  0.00     0.058 A 
ATOM     65  C   UNL A   1      41.134  35.223  37.385  1.00  0.00     0.135 A 
ATOM     66  C   UNL A   1      39.444  33.847  38.412  1.00  0.00     0.135 A 
ATOM     67  F   UNL A   1      41.968  35.497  36.371  1.00  0.00    -0.206 F 
ATOM     68  C   UNL A   1      41.170  36.034  38.514  1.00  0.00     0.059 A 
ATOM     69  C   UNL A   1      39.449  34.654  39.541  1.00  0.00     0.059 A 
ATOM     70  F   UNL A   1      38.617  32.789  38.391  1.00  0.00    -0.206 F 
ATOM     71  C   UNL A   1      40.327  35.736  39.588  1.00  0.00     0.060 A 
BRANCH  71  72
ATOM     72  S   UNL A   1      40.367  36.798  41.046  1.00  0.00     0.124 S 
ATOM     73  O   UNL A   1      39.001  36.671  41.539  1.00  0.00    -0.237 OA
ATOM     74  O   UNL A   1      41.400  36.170  41.865  1.00  0.00    -0.237 OA
ATOM     75  O   UNL A   1      40.721  38.105  40.500  1.00  0.00    -0.744 OA
ENDBRANCH  71  72
ENDBRANCH  39  64
ENDBRANCH  13  14
ENDBRANCH   6   8
ENDBRANCH   5   6
ENDBRANCH   4   5
ENDBRANCH   3   4
ENDBRANCH   2   3
ENDBRANCH   1   2
BRANCH   1  76
ATOM     76  C   UNL A   1      37.324  23.110  25.368  1.00  0.00     0.188 C 
BRANCH  76  77
ATOM     77  O   UNL A   1      36.159  23.081  26.192  1.00  0.00    -0.376 OA
BRANCH  77  78
ATOM     78  C   UNL A   1      35.554  21.801  26.386  1.00  0.00     0.202 C 
BRANCH  78  79
ATOM     79  C   UNL A   1      34.036  21.774  26.627  1.00  0.00     0.261 C 
BRANCH  79  80
ATOM     80  O   UNL A   1      33.420  23.062  26.857  1.00  0.00    -0.460 OA
BRANCH  80  81
ATOM     81  C   UNL A   1      32.332  23.305  26.087  1.00  0.00     0.339 C 
ATOM     82  O   UNL A   1      31.333  22.610  25.981  1.00  0.00    -0.246 OA
BRANCH  81  83
ATOM     83  C   UNL A   1      32.485  24.502  25.245  1.00  0.00     0.080 A 
ATOM     84  C   UNL A   1      32.071  25.717  25.806  1.00  0.00     0.040 A 
ATOM     85  C   UNL A   1      33.284  24.520  24.108  1.00  0.00     0.057 A 
ATOM     86  C   UNL A   1      32.514  26.962  25.290  1.00  0.00     0.102 A 
ATOM     87  C   UNL A   1      33.694  25.746  23.577  1.00  0.00     0.043 A 
ATOM     88  Cl  UNL A   1      33.901  23.107  23.349  1.00  0.00    -0.083 Cl
ATOM     89  C   UNL A   1      33.360  26.967  24.187  1.00  0.00     0.062 A 
ATOM     90  Cl  UNL A   1      34.190  28.312  23.511  1.00  0.00    -0.083 Cl
BRANCH  86  91
ATOM     91  S   UNL A   1      31.947  28.340  26.269  1.00  0.00     0.244 S 
ATOM     92  O   UNL A   1      31.200  29.141  25.329  1.00  0.00    -0.207 OA
ATOM     93  O   UNL A   1      31.292  27.705  27.399  1.00  0.00    -0.207 OA
BRANCH  91  94
ATOM     94  N   UNL A   1      33.221  29.269  26.850  1.00  0.00    -0.198 NA
ATOM     95  C   UNL A   1      32.929  30.643  27.289  1.00  0.00     0.102 C 
ATOM     96  C   UNL A   1      34.496  28.603  27.175  1.00  0.00     0.102 C 
ATOM     97  C   UNL A   1      34.171  31.498  27.474  1.00  0.00     0.017 C 
ATOM     98  C   UNL A   1      35.656  29.542  27.476  1.00  0.00     0.017 C 
ATOM     99  C   UNL A   1      35.232  30.764  28.269  1.00  0.00     0.003 C 
ENDBRANCH  91  94
ENDBRANCH  86  91
ENDBRANCH  81  83
ENDBRANCH  80  81
ENDBRANCH  79  80
ENDBRANCH  78  79
ENDBRANCH  77  78
ENDBRANCH  76  77
ENDBRANCH   1  76
TORSDOF 22
ENDMDL
MODEL 2
REMARK VINA RESULT:      -9.8      2.562      8.908
REMARK SMILES O=C(OCCOCCOCCOC(=O)c1cc(S(=O)(=O)N2CCCCC2)c(Cl)cc1Cl)c1ccc(-c2c3nc(c(-c4c(F)cc(S(=O)(=O)[O-])cc4F)c4ccc([nH]4)c(-c4c(F)cc(S(=O)(=O)[O-])cc4F)c4nc(c(-c5c(F)cc(S(=O)(=O)[O-])cc5F)c5ccc2[nH]5)C=C4)C=C3)cc1
REMARK SMILES IDX 7 1 6 2 5 3 4 4 3 5 2 6 1 7 32 8 33 9 97 10 34 11 96 12
REMARK SMILES IDX 35 13 36 14 37 15 90 16 38 17 95 18 89 19 91 20 39 21 94 22
REMARK SMILES IDX 88 23 87 24 40 26 74 27 53 28 73 29 54 30 57 31 72 32 92 33
REMARK SMILES IDX 55 34 56 35 71 37 93 38 58 39 41 40 42 41 51 42 43 43 44 44
REMARK SMILES IDX 50 45 52 46 45 47 46 48 47 49 48 50 49 51 75 52 76 53 85 54
REMARK SMILES IDX 77 55 78 56 84 57 86 58 79 59 80 60 81 61 82 62 83 63 59 64
REMARK SMILES IDX 60 65 69 66 61 67 62 68 68 69 70 70 63 71 64 72 65 73 66 74
REMARK SMILES IDX 67 75 8 76 9 77 10 78 11 79 12 80 13 81 14 82 15 83 16 84
REMARK SMILES IDX 30 85 17 86 29 87 31 88 27 89 28 90 18 91 19 92 20 93 21 94
REMARK SMILES IDX 22 95 26 96 23 97 25 98 24 99
REMARK H PARENT 91 25 57 36
REMARK Flexibility Score: inf
ROOT
ATOM      1  C   UNL A   1      32.221  29.714  26.137  1.00  0.00     0.188 C 
ENDROOT
BRANCH   1   2
ATOM      2  O   UNL A   1      31.408  30.814  25.718  1.00  0.00    -0.376 OA
BRANCH   2   3
ATOM      3  C   UNL A   1      31.372  31.889  26.659  1.00  0.00     0.202 C 
BRANCH   3   4
ATOM      4  C   UNL A   1      32.711  32.154  27.359  1.00  0.00     0.261 C 
BRANCH   4   5
ATOM      5  O   UNL A   1      33.032  33.556  27.412  1.00  0.00    -0.460 OA
BRANCH   5   6
ATOM      6  C   UNL A   1      33.368  34.289  28.505  1.00  0.00     0.338 C 
ATOM      7  O   UNL A   1      32.670  35.255  28.810  1.00  0.00    -0.246 OA
BRANCH   6   8
ATOM      8  C   UNL A   1      34.510  33.935  29.404  1.00  0.00     0.060 A 
ATOM      9  C   UNL A   1      35.843  34.228  29.129  1.00  0.00     0.016 A 
ATOM     10  C   UNL A   1      34.215  33.305  30.626  1.00  0.00     0.016 A 
ATOM     11  C   UNL A   1      36.866  33.762  29.947  1.00  0.00     0.010 A 
ATOM     12  C   UNL A   1      35.239  32.912  31.501  1.00  0.00     0.010 A 
ATOM     13  C   UNL A   1      36.580  33.094  31.140  1.00  0.00    -0.014 A 
BRANCH  13  14
ATOM     14  C   UNL A   1      37.706  32.510  31.910  1.00  0.00     0.031 A 
ATOM     15  C   UNL A   1      38.456  31.336  31.339  1.00  0.00     0.074 A 
ATOM     16  C   UNL A   1      38.162  33.128  33.020  1.00  0.00     0.049 A 
ATOM     17  N   UNL A   1      39.434  30.646  31.863  1.00  0.00    -0.248 NA
ATOM     18  C   UNL A   1      38.065  30.892  29.989  1.00  0.00     0.031 C 
ATOM     19  C   UNL A   1      37.586  34.337  33.618  1.00  0.00     0.029 A 
ATOM     20  N   UNL A   1      39.238  32.846  33.824  1.00  0.00    -0.354 N 
ATOM     21  C   UNL A   1      39.787  29.702  30.905  1.00  0.00     0.074 A 
ATOM     22  C   UNL A   1      38.890  29.875  29.785  1.00  0.00     0.031 C 
ATOM     23  C   UNL A   1      38.331  34.704  34.674  1.00  0.00     0.029 A 
ATOM     24  C   UNL A   1      39.377  33.713  34.884  1.00  0.00     0.049 A 
ATOM     25  H   UNL A   1      39.851  32.093  33.659  1.00  0.00     0.167 HD
ATOM     26  C   UNL A   1      40.789  28.791  30.947  1.00  0.00     0.037 A 
ATOM     27  C   UNL A   1      40.200  33.664  35.949  1.00  0.00     0.037 A 
ATOM     28  C   UNL A   1      41.675  28.627  32.066  1.00  0.00     0.049 A 
ATOM     29  C   UNL A   1      41.118  32.492  36.091  1.00  0.00     0.074 A 
ATOM     30  C   UNL A   1      42.698  27.710  32.238  1.00  0.00     0.029 A 
ATOM     31  N   UNL A   1      41.642  29.407  33.213  1.00  0.00    -0.354 N 
ATOM     32  N   UNL A   1      41.354  31.525  35.238  1.00  0.00    -0.248 NA
ATOM     33  C   UNL A   1      41.834  32.371  37.367  1.00  0.00     0.031 C 
ATOM     34  C   UNL A   1      43.262  27.916  33.503  1.00  0.00     0.029 A 
ATOM     35  C   UNL A   1      42.612  28.983  34.102  1.00  0.00     0.049 A 
ATOM     36  H   UNL A   1      41.020  30.154  33.370  1.00  0.00     0.167 HD
ATOM     37  C   UNL A   1      42.263  30.689  35.867  1.00  0.00     0.074 A 
ATOM     38  C   UNL A   1      42.520  31.253  37.178  1.00  0.00     0.031 C 
ATOM     39  C   UNL A   1      42.848  29.563  35.396  1.00  0.00     0.037 A 
BRANCH  26  40
ATOM     40  C   UNL A   1      40.963  27.900  29.753  1.00  0.00     0.058 A 
ATOM     41  C   UNL A   1      40.053  26.870  29.468  1.00  0.00     0.135 A 
ATOM     42  C   UNL A   1      42.041  28.086  28.872  1.00  0.00     0.135 A 
ATOM     43  F   UNL A   1      39.019  26.635  30.292  1.00  0.00    -0.206 F 
ATOM     44  C   UNL A   1      40.214  26.044  28.360  1.00  0.00     0.059 A 
ATOM     45  C   UNL A   1      42.211  27.283  27.748  1.00  0.00     0.059 A 
ATOM     46  F   UNL A   1      42.944  29.051  29.105  1.00  0.00    -0.206 F 
ATOM     47  C   UNL A   1      41.298  26.257  27.507  1.00  0.00     0.060 A 
BRANCH  47  48
ATOM     48  S   UNL A   1      41.496  25.174  26.076  1.00  0.00     0.124 S 
ATOM     49  O   UNL A   1      40.339  24.296  26.214  1.00  0.00    -0.237 OA
ATOM     50  O   UNL A   1      41.446  26.116  24.962  1.00  0.00    -0.237 OA
ATOM     51  O   UNL A   1      42.794  24.545  26.303  1.00  0.00    -0.744 OA
ENDBRANCH  47  48
ENDBRANCH  26  40
BRANCH  27  52
ATOM     52  C   UNL A   1      39.998  34.581  37.098  1.00  0.00     0.058 A 
ATOM     53  C   UNL A   1      39.099  34.353  38.144  1.00  0.00     0.135 A 
ATOM     54  C   UNL A   1      40.680  35.804  37.077  1.00  0.00     0.135 A 
ATOM     55  F   UNL A   1      38.357  33.235  38.162  1.00  0.00    -0.206 F 
ATOM     56  C   UNL A   1      38.907  35.302  39.149  1.00  0.00     0.059 A 
ATOM     57  C   UNL A   1      40.551  36.742  38.090  1.00  0.00     0.059 A 
ATOM     58  F   UNL A   1      41.441  36.100  36.013  1.00  0.00    -0.206 F 
ATOM     59  C   UNL A   1      39.648  36.490  39.117  1.00  0.00     0.060 A 
BRANCH  59  60
ATOM     60  S   UNL A   1      39.415  37.724  40.414  1.00  0.00     0.124 S 
ATOM     61  O   UNL A   1      39.363  36.884  41.606  1.00  0.00    -0.237 OA
ATOM     62  O   UNL A   1      40.606  38.558  40.277  1.00  0.00    -0.237 OA
ATOM     63  O   UNL A   1      38.159  38.368  40.046  1.00  0.00    -0.744 OA
ENDBRANCH  59  60
ENDBRANCH  27  52
BRANCH  39  64
ATOM     64  C   UNL A   1      43.881  28.939  36.277  1.00  0.00     0.058 A 
ATOM     65  C   UNL A   1      45.179  29.460  36.384  1.00  0.00     0.135 A 
ATOM     66  C   UNL A   1      43.563  27.784  37.007  1.00  0.00     0.135 A 
ATOM     67  F   UNL A   1      45.530  30.549  35.684  1.00  0.00    -0.206 F 
ATOM     68  C   UNL A   1      46.139  28.838  37.174  1.00  0.00     0.059 A 
ATOM     69  C   UNL A   1      44.501  27.158  37.816  1.00  0.00     0.059 A 
ATOM     70  F   UNL A   1      42.334  27.251  36.927  1.00  0.00    -0.206 F 
ATOM     71  C   UNL A   1      45.790  27.685  37.881  1.00  0.00     0.060 A 
BRANCH  71  72
ATOM     72  S   UNL A   1      47.035  26.888  38.915  1.00  0.00     0.124 S 
ATOM     73  O   UNL A   1      46.222  25.956  39.688  1.00  0.00    -0.237 OA
ATOM     74  O   UNL A   1      47.927  26.286  37.927  1.00  0.00    -0.237 OA
ATOM     75  O   UNL A   1      47.607  27.999  39.669  1.00  0.00    -0.744 OA
ENDBRANCH  71  72
ENDBRANCH  39  64
ENDBRANCH  13  14
ENDBRANCH   6   8
ENDBRANCH   5   6
ENDBRANCH   4   5
ENDBRANCH   3   4
ENDBRANCH   2   3
ENDBRANCH   1   2
BRANCH   1  76
ATOM     76  C   UNL A   1      32.261  28.611  25.073  1.00  0.00     0.188 C 
BRANCH  76  77
ATOM     77  O   UNL A   1      31.938  29.039  23.751  1.00  0.00    -0.376 OA
BRANCH  77  78
ATOM     78  C   UNL A   1      32.872  28.689  22.728  1.00  0.00     0.202 C 
BRANCH  78  79
ATOM     79  C   UNL A   1      33.673  27.391  22.925  1.00  0.00     0.261 C 
BRANCH  79  80
ATOM     80  O   UNL A   1      33.574  26.430  21.850  1.00  0.00    -0.460 OA
BRANCH  80  81
ATOM     81  C   UNL A   1      32.339  25.896  21.689  1.00  0.00     0.339 C 
ATOM     82  O   UNL A   1      31.533  26.155  20.809  1.00  0.00    -0.246 OA
BRANCH  81  83
ATOM     83  C   UNL A   1      31.962  24.989  22.785  1.00  0.00     0.080 A 
ATOM     84  C   UNL A   1      32.889  23.994  23.116  1.00  0.00     0.040 A 
ATOM     85  C   UNL A   1      30.929  25.274  23.670  1.00  0.00     0.057 A 
ATOM     86  C   UNL A   1      32.845  23.325  24.367  1.00  0.00     0.102 A 
ATOM     87  C   UNL A   1      30.863  24.594  24.889  1.00  0.00     0.043 A 
ATOM     88  Cl  UNL A   1      29.756  26.502  23.410  1.00  0.00    -0.083 Cl
ATOM     89  C   UNL A   1      31.842  23.659  25.270  1.00  0.00     0.062 A 
ATOM     90  Cl  UNL A   1      31.696  23.153  26.906  1.00  0.00    -0.083 Cl
BRANCH  86  91
ATOM     91  S   UNL A   1      34.215  22.204  24.584  1.00  0.00     0.244 S 
ATOM     92  O   UNL A   1      35.148  22.604  23.559  1.00  0.00    -0.207 OA
ATOM     93  O   UNL A   1      34.544  22.341  25.993  1.00  0.00    -0.207 OA
BRANCH  91  94
ATOM     94  N   UNL A   1      33.776  20.607  24.298  1.00  0.00    -0.198 NA
ATOM     95  C   UNL A   1      34.605  19.547  24.893  1.00  0.00     0.102 C 
ATOM     96  C   UNL A   1      32.444  20.327  23.729  1.00  0.00     0.102 C 
ATOM     97  C   UNL A   1      34.337  18.169  24.312  1.00  0.00     0.017 C 
ATOM     98  C   UNL A   1      32.219  18.886  23.294  1.00  0.00     0.017 C 
ATOM     99  C   UNL A   1      32.851  17.881  24.240  1.00  0.00     0.003 C 
ENDBRANCH  91  94
ENDBRANCH  86  91
ENDBRANCH  81  83
ENDBRANCH  80  81
ENDBRANCH  79  80
ENDBRANCH  78  79
ENDBRANCH  77  78
ENDBRANCH  76  77
ENDBRANCH   1  76
TORSDOF 22
ENDMDL
MODEL 3
REMARK VINA RESULT:      -9.5      2.605      8.850
REMARK SMILES O=C(OCCOCCOCCOC(=O)c1cc(S(=O)(=O)N2CCCCC2)c(Cl)cc1Cl)c1ccc(-c2c3nc(c(-c4c(F)cc(S(=O)(=O)[O-])cc4F)c4ccc([nH]4)c(-c4c(F)cc(S(=O)(=O)[O-])cc4F)c4nc(c(-c5c(F)cc(S(=O)(=O)[O-])cc5F)c5ccc2[nH]5)C=C4)C=C3)cc1
REMARK SMILES IDX 7 1 6 2 5 3 4 4 3 5 2 6 1 7 32 8 33 9 97 10 34 11 96 12
REMARK SMILES IDX 35 13 36 14 37 15 90 16 38 17 95 18 89 19 91 20 39 21 94 22
REMARK SMILES IDX 88 23 87 24 40 26 74 27 53 28 73 29 54 30 57 31 72 32 92 33
REMARK SMILES IDX 55 34 56 35 71 37 93 38 58 39 41 40 42 41 51 42 43 43 44 44
REMARK SMILES IDX 50 45 52 46 45 47 46 48 47 49 48 50 49 51 75 52 76 53 85 54
REMARK SMILES IDX 77 55 78 56 84 57 86 58 79 59 80 60 81 61 82 62 83 63 59 64
REMARK SMILES IDX 60 65 69 66 61 67 62 68 68 69 70 70 63 71 64 72 65 73 66 74
REMARK SMILES IDX 67 75 8 76 9 77 10 78 11 79 12 80 13 81 14 82 15 83 16 84
REMARK SMILES IDX 30 85 17 86 29 87 31 88 27 89 28 90 18 91 19 92 20 93 21 94
REMARK SMILES IDX 22 95 26 96 23 97 25 98 24 99
REMARK H PARENT 91 25 57 36
REMARK Flexibility Score: inf
ROOT
ATOM      1  C   UNL A   1      32.209  29.929  25.752  1.00  0.00     0.188 C 
ENDROOT
BRANCH   1   2
ATOM      2  O   UNL A   1      31.383  31.092  25.648  1.00  0.00    -0.376 OA
BRANCH   2   3
ATOM      3  C   UNL A   1      31.403  31.914  26.817  1.00  0.00     0.202 C 
BRANCH   3   4
ATOM      4  C   UNL A   1      32.800  32.108  27.423  1.00  0.00     0.261 C 
BRANCH   4   5
ATOM      5  O   UNL A   1      33.137  33.498  27.584  1.00  0.00    -0.460 OA
BRANCH   5   6
ATOM      6  C   UNL A   1      33.403  34.157  28.742  1.00  0.00     0.338 C 
ATOM      7  O   UNL A   1      32.624  35.030  29.121  1.00  0.00    -0.246 OA
BRANCH   6   8
ATOM      8  C   UNL A   1      34.567  33.822  29.621  1.00  0.00     0.060 A 
ATOM      9  C   UNL A   1      35.840  34.367  29.477  1.00  0.00     0.016 A 
ATOM     10  C   UNL A   1      34.349  32.934  30.690  1.00  0.00     0.016 A 
ATOM     11  C   UNL A   1      36.905  33.919  30.250  1.00  0.00     0.010 A 
ATOM     12  C   UNL A   1      35.402  32.548  31.532  1.00  0.00     0.010 A 
ATOM     13  C   UNL A   1      36.703  33.002  31.284  1.00  0.00    -0.014 A 
BRANCH  13  14
ATOM     14  C   UNL A   1      37.892  32.466  31.994  1.00  0.00     0.031 A 
ATOM     15  C   UNL A   1      38.794  31.493  31.284  1.00  0.00     0.074 A 
ATOM     16  C   UNL A   1      38.253  32.974  33.191  1.00  0.00     0.049 A 
ATOM     17  N   UNL A   1      39.851  30.868  31.732  1.00  0.00    -0.248 NA
ATOM     18  C   UNL A   1      38.476  31.197  29.876  1.00  0.00     0.031 C 
ATOM     19  C   UNL A   1      37.518  34.001  33.937  1.00  0.00     0.029 A 
ATOM     20  N   UNL A   1      39.351  32.724  33.976  1.00  0.00    -0.354 N 
ATOM     21  C   UNL A   1      40.334  30.124  30.661  1.00  0.00     0.074 A 
ATOM     22  C   UNL A   1      39.430  30.336  29.554  1.00  0.00     0.031 C 
ATOM     23  C   UNL A   1      38.199  34.308  35.053  1.00  0.00     0.029 A 
ATOM     24  C   UNL A   1      39.366  33.442  35.149  1.00  0.00     0.049 A 
ATOM     25  H   UNL A   1      40.059  32.088  33.724  1.00  0.00     0.167 HD
ATOM     26  C   UNL A   1      41.446  29.354  30.602  1.00  0.00     0.037 A 
ATOM     27  C   UNL A   1      40.180  33.350  36.218  1.00  0.00     0.037 A 
ATOM     28  C   UNL A   1      42.339  29.150  31.711  1.00  0.00     0.049 A 
ATOM     29  C   UNL A   1      41.244  32.299  36.219  1.00  0.00     0.074 A 
ATOM     30  C   UNL A   1      43.472  28.359  31.779  1.00  0.00     0.029 A 
ATOM     31  N   UNL A   1      42.194  29.748  32.953  1.00  0.00    -0.354 N 
ATOM     32  N   UNL A   1      41.612  31.502  35.246  1.00  0.00    -0.248 NA
ATOM     33  C   UNL A   1      41.960  32.093  37.484  1.00  0.00     0.031 C 
ATOM     34  C   UNL A   1      43.994  28.455  33.075  1.00  0.00     0.029 A 
ATOM     35  C   UNL A   1      43.205  29.332  33.799  1.00  0.00     0.049 A 
ATOM     36  H   UNL A   1      41.477  30.378  33.197  1.00  0.00     0.167 HD
ATOM     37  C   UNL A   1      42.619  30.711  35.776  1.00  0.00     0.074 A 
ATOM     38  C   UNL A   1      42.789  31.112  37.159  1.00  0.00     0.031 C 
ATOM     39  C   UNL A   1      43.351  29.748  35.168  1.00  0.00     0.037 A 
BRANCH  26  40
ATOM     40  C   UNL A   1      41.747  28.672  29.300  1.00  0.00     0.058 A 
ATOM     41  C   UNL A   1      41.180  27.429  28.977  1.00  0.00     0.135 A 
ATOM     42  C   UNL A   1      42.595  29.272  28.357  1.00  0.00     0.135 A 
ATOM     43  F   UNL A   1      40.382  26.801  29.855  1.00  0.00    -0.206 F 
ATOM     44  C   UNL A   1      41.457  26.796  27.770  1.00  0.00     0.059 A 
ATOM     45  C   UNL A   1      42.872  28.665  27.135  1.00  0.00     0.059 A 
ATOM     46  F   UNL A   1      43.169  30.456  28.621  1.00  0.00    -0.206 F 
ATOM     47  C   UNL A   1      42.307  27.421  26.856  1.00  0.00     0.060 A 
BRANCH  47  48
ATOM     48  S   UNL A   1      42.661  26.586  25.294  1.00  0.00     0.124 S 
ATOM     49  O   UNL A   1      43.807  25.761  25.660  1.00  0.00    -0.237 OA
ATOM     50  O   UNL A   1      41.418  25.865  25.037  1.00  0.00    -0.237 OA
ATOM     51  O   UNL A   1      42.945  27.686  24.378  1.00  0.00    -0.744 OA
ENDBRANCH  47  48
ENDBRANCH  26  40
BRANCH  27  52
ATOM     52  C   UNL A   1      39.850  34.061  37.479  1.00  0.00     0.058 A 
ATOM     53  C   UNL A   1      40.440  35.260  37.889  1.00  0.00     0.135 A 
ATOM     54  C   UNL A   1      38.962  33.433  38.361  1.00  0.00     0.135 A 
ATOM     55  F   UNL A   1      41.362  35.855  37.117  1.00  0.00    -0.206 F 
ATOM     56  C   UNL A   1      40.134  35.826  39.127  1.00  0.00     0.059 A 
ATOM     57  C   UNL A   1      38.598  33.998  39.574  1.00  0.00     0.059 A 
ATOM     58  F   UNL A   1      38.493  32.217  38.047  1.00  0.00    -0.206 F 
ATOM     59  C   UNL A   1      39.203  35.191  39.957  1.00  0.00     0.060 A 
BRANCH  59  60
ATOM     60  S   UNL A   1      38.793  35.915  41.560  1.00  0.00     0.124 S 
ATOM     61  O   UNL A   1      38.815  37.340  41.247  1.00  0.00    -0.237 OA
ATOM     62  O   UNL A   1      37.477  35.347  41.839  1.00  0.00    -0.237 OA
ATOM     63  O   UNL A   1      39.869  35.447  42.427  1.00  0.00    -0.744 OA
ENDBRANCH  59  60
ENDBRANCH  27  52
BRANCH  39  64
ATOM     64  C   UNL A   1      44.452  29.145  35.980  1.00  0.00     0.058 A 
ATOM     65  C   UNL A   1      45.743  29.693  36.004  1.00  0.00     0.135 A 
ATOM     66  C   UNL A   1      44.205  27.984  36.727  1.00  0.00     0.135 A 
ATOM     67  F   UNL A   1      46.026  30.790  35.285  1.00  0.00    -0.206 F 
ATOM     68  C   UNL A   1      46.764  29.091  36.730  1.00  0.00     0.059 A 
ATOM     69  C   UNL A   1      45.205  27.377  37.473  1.00  0.00     0.059 A 
ATOM     70  F   UNL A   1      42.984  27.425  36.725  1.00  0.00    -0.206 F 
ATOM     71  C   UNL A   1      46.485  27.931  37.457  1.00  0.00     0.060 A 
BRANCH  71  72
ATOM     72  S   UNL A   1      47.810  27.159  38.407  1.00  0.00     0.124 S 
ATOM     73  O   UNL A   1      48.481  26.365  37.384  1.00  0.00    -0.237 OA
ATOM     74  O   UNL A   1      48.553  28.312  38.906  1.00  0.00    -0.237 OA
ATOM     75  O   UNL A   1      47.093  26.397  39.425  1.00  0.00    -0.744 OA
ENDBRANCH  71  72
ENDBRANCH  39  64
ENDBRANCH  13  14
ENDBRANCH   6   8
ENDBRANCH   5   6
ENDBRANCH   4   5
ENDBRANCH   3   4
ENDBRANCH   2   3
ENDBRANCH   1   2
BRANCH   1  76
ATOM     76  C   UNL A   1      31.516  28.697  25.159  1.00  0.00     0.188 C 
BRANCH  76  77
ATOM     77  O   UNL A   1      30.508  28.982  24.191  1.00  0.00    -0.376 OA
BRANCH  77  78
ATOM     78  C   UNL A   1      30.189  27.926  23.281  1.00  0.00     0.202 C 
BRANCH  78  79
ATOM     79  C   UNL A   1      29.717  26.596  23.891  1.00  0.00     0.261 C 
BRANCH  79  80
ATOM     80  O   UNL A   1      30.742  25.814  24.545  1.00  0.00    -0.460 OA
BRANCH  80  81
ATOM     81  C   UNL A   1      31.098  24.690  23.878  1.00  0.00     0.339 C 
ATOM     82  O   UNL A   1      30.359  23.923  23.279  1.00  0.00    -0.246 OA
BRANCH  81  83
ATOM     83  C   UNL A   1      32.528  24.372  24.017  1.00  0.00     0.080 A 
ATOM     84  C   UNL A   1      32.843  23.216  24.741  1.00  0.00     0.040 A 
ATOM     85  C   UNL A   1      33.505  24.961  23.222  1.00  0.00     0.057 A 
ATOM     86  C   UNL A   1      34.109  22.587  24.620  1.00  0.00     0.102 A 
ATOM     87  C   UNL A   1      34.764  24.361  23.127  1.00  0.00     0.043 A 
ATOM     88  Cl  UNL A   1      33.239  26.350  22.246  1.00  0.00    -0.083 Cl
ATOM     89  C   UNL A   1      35.060  23.151  23.778  1.00  0.00     0.062 A 
ATOM     90  Cl  UNL A   1      36.569  22.478  23.305  1.00  0.00    -0.083 Cl
BRANCH  86  91
ATOM     91  S   UNL A   1      34.198  21.064  25.544  1.00  0.00     0.244 S 
ATOM     92  O   UNL A   1      35.598  20.948  25.873  1.00  0.00    -0.207 OA
ATOM     93  O   UNL A   1      33.196  21.240  26.582  1.00  0.00    -0.207 OA
BRANCH  91  94
ATOM     94  N   UNL A   1      33.767  19.733  24.613  1.00  0.00    -0.198 NA
ATOM     95  C   UNL A   1      32.706  19.910  23.609  1.00  0.00     0.102 C 
ATOM     96  C   UNL A   1      34.643  18.547  24.619  1.00  0.00     0.102 C 
ATOM     97  C   UNL A   1      32.161  18.600  23.066  1.00  0.00     0.017 C 
ATOM     98  C   UNL A   1      34.066  17.316  23.935  1.00  0.00     0.017 C 
ATOM     99  C   UNL A   1      33.282  17.654  22.681  1.00  0.00     0.003 C 
ENDBRANCH  91  94
ENDBRANCH  86  91
ENDBRANCH  81  83
ENDBRANCH  80  81
ENDBRANCH  79  80
ENDBRANCH  78  79
ENDBRANCH  77  78
ENDBRANCH  76  77
ENDBRANCH   1  76
TORSDOF 22
ENDMDL
