MODEL 1
REMARK VINA RESULT:     -11.4      0.000      0.000
REMARK SMILES CS(=O)(=O)c1ccc(-c2cc(Cl)cnc2-c2ccc(C(=O)OCCOCCOCCOC(=O)c3ccc(-c4c5nc(c(-c6c(F)cc(S(=O)(=O)[O-])cc6F)c6ccc([nH]6)c(-c6c(F)cc(S(=O)(=O)[O-])cc6F)c6nc(c(-c7c(F)cc(S(=O)(=O)[O-])cc7F)c7ccc4[nH]7)C=C6)C=C5)cc3)nc2)cc1
REMARK SMILES IDX 26 1 25 2 24 3 23 4 22 5 20 6 21 7 19 8 16 9 17 10 101 11
REMARK SMILES IDX 18 12 100 13 15 14 9 15 10 16 11 17 14 18 12 19 13 20 8 21
REMARK SMILES IDX 5 22 6 23 103 24 7 25 102 26 2 27 1 28 3 29 4 30 27 31 28 32
REMARK SMILES IDX 29 33 30 34 31 35 32 36 33 37 34 38 35 39 99 40 36 41 98 42
REMARK SMILES IDX 37 43 38 44 39 45 92 46 40 47 97 48 91 49 93 50 41 51 96 52
REMARK SMILES IDX 90 53 89 54 42 56 76 57 55 58 75 59 56 60 59 61 74 62 94 63
REMARK SMILES IDX 57 64 58 65 73 67 95 68 60 69 43 70 44 71 53 72 45 73 46 74
REMARK SMILES IDX 52 75 54 76 47 77 48 78 49 79 50 80 51 81 77 82 78 83 87 84
REMARK SMILES IDX 79 85 80 86 86 87 88 88 81 89 82 90 83 91 84 92 85 93 61 94
REMARK SMILES IDX 62 95 71 96 63 97 64 98 70 99 72 100 65 101 66 102 67 103
REMARK SMILES IDX 68 104 69 105
REMARK H PARENT 93 55 59 66
REMARK Flexibility Score: inf
ROOT
ATOM      1  C   UNL A   1      42.573  19.142  26.064  1.00  0.00     0.188 C 
ENDROOT
BRANCH   1   2
ATOM      2  O   UNL A   1      41.183  19.304  25.794  1.00  0.00    -0.376 OA
BRANCH   2   3
ATOM      3  C   UNL A   1      40.425  20.247  26.546  1.00  0.00     0.202 C 
BRANCH   3   4
ATOM      4  C   UNL A   1      39.772  21.435  25.827  1.00  0.00     0.261 C 
BRANCH   4   5
ATOM      5  O   UNL A   1      38.385  21.592  26.164  1.00  0.00    -0.459 OA
BRANCH   5   6
ATOM      6  C   UNL A   1      37.514  21.166  25.215  1.00  0.00     0.356 C 
ATOM      7  O   UNL A   1      37.438  20.039  24.751  1.00  0.00    -0.244 OA
BRANCH   6   8
ATOM      8  C   UNL A   1      36.578  22.269  24.876  1.00  0.00     0.148 A 
ATOM      9  C   UNL A   1      34.565  24.065  24.401  1.00  0.00     0.019 A 
ATOM     10  C   UNL A   1      35.222  23.454  23.321  1.00  0.00     0.014 A 
ATOM     11  C   UNL A   1      35.082  23.837  25.673  1.00  0.00     0.122 A 
ATOM     12  C   UNL A   1      36.241  22.534  23.556  1.00  0.00     0.037 A 
ATOM     13  N   UNL A   1      36.059  22.943  25.936  1.00  0.00    -0.249 NA
BRANCH   9  14
ATOM     14  C   UNL A   1      33.237  24.668  24.251  1.00  0.00     0.080 A 
ATOM     15  C   UNL A   1      32.084  23.850  24.127  1.00  0.00     0.010 A 
ATOM     16  C   UNL A   1      30.847  24.496  24.012  1.00  0.00     0.033 A 
ATOM     17  C   UNL A   1      30.790  25.886  24.046  1.00  0.00     0.060 A 
ATOM     18  N   UNL A   1      33.195  26.022  24.288  1.00  0.00    -0.254 NA
ATOM     19  Cl  UNL A   1      29.281  26.694  23.908  1.00  0.00    -0.083 Cl
ATOM     20  C   UNL A   1      31.971  26.598  24.191  1.00  0.00     0.132 A 
BRANCH  15  21
ATOM     21  C   UNL A   1      32.173  22.376  24.114  1.00  0.00    -0.016 A 
ATOM     22  C   UNL A   1      32.693  19.615  24.051  1.00  0.00     0.067 A 
ATOM     23  C   UNL A   1      32.687  20.284  25.273  1.00  0.00     0.021 A 
ATOM     24  C   UNL A   1      32.387  20.293  22.867  1.00  0.00     0.021 A 
ATOM     25  C   UNL A   1      32.409  21.652  25.300  1.00  0.00     0.010 A 
ATOM     26  C   UNL A   1      32.137  21.668  22.901  1.00  0.00     0.010 A 
BRANCH  22  27
ATOM     27  S   UNL A   1      33.064  17.879  23.984  1.00  0.00     0.175 S 
ATOM     28  C   UNL A   1      34.791  17.807  24.389  1.00  0.00     0.163 C 
ATOM     29  O   UNL A   1      32.911  17.465  22.602  1.00  0.00    -0.224 OA
ATOM     30  O   UNL A   1      32.332  17.218  25.045  1.00  0.00    -0.224 OA
ENDBRANCH  22  27
ENDBRANCH  15  21
ENDBRANCH   9  14
ENDBRANCH   6   8
ENDBRANCH   5   6
ENDBRANCH   4   5
ENDBRANCH   3   4
ENDBRANCH   2   3
ENDBRANCH   1   2
BRANCH   1  31
ATOM     31  C   UNL A   1      43.597  19.532  24.977  1.00  0.00     0.188 C 
BRANCH  31  32
ATOM     32  O   UNL A   1      44.024  20.874  25.013  1.00  0.00    -0.376 OA
BRANCH  32  33
ATOM     33  C   UNL A   1      43.624  21.716  26.080  1.00  0.00     0.202 C 
BRANCH  33  34
ATOM     34  C   UNL A   1      43.719  23.256  26.101  1.00  0.00     0.261 C 
BRANCH  34  35
ATOM     35  O   UNL A   1      42.560  24.014  26.448  1.00  0.00    -0.460 OA
BRANCH  35  36
ATOM     36  C   UNL A   1      42.483  25.259  25.922  1.00  0.00     0.338 C 
ATOM     37  O   UNL A   1      42.619  25.570  24.752  1.00  0.00    -0.246 OA
BRANCH  36  38
ATOM     38  C   UNL A   1      42.026  26.181  26.980  1.00  0.00     0.060 A 
ATOM     39  C   UNL A   1      42.618  27.446  27.072  1.00  0.00     0.016 A 
ATOM     40  C   UNL A   1      41.050  25.783  27.897  1.00  0.00     0.016 A 
ATOM     41  C   UNL A   1      42.267  28.305  28.114  1.00  0.00     0.010 A 
ATOM     42  C   UNL A   1      40.713  26.637  28.951  1.00  0.00     0.010 A 
ATOM     43  C   UNL A   1      41.348  27.884  29.085  1.00  0.00    -0.014 A 
BRANCH  43  44
ATOM     44  C   UNL A   1      41.218  28.646  30.351  1.00  0.00     0.031 A 
ATOM     45  C   UNL A   1      40.137  29.692  30.442  1.00  0.00     0.074 A 
ATOM     46  C   UNL A   1      42.019  28.405  31.404  1.00  0.00     0.049 A 
ATOM     47  N   UNL A   1      39.861  30.521  31.414  1.00  0.00    -0.248 NA
ATOM     48  C   UNL A   1      39.247  29.815  29.274  1.00  0.00     0.031 C 
ATOM     49  C   UNL A   1      43.069  27.388  31.456  1.00  0.00     0.029 A 
ATOM     50  N   UNL A   1      42.074  29.009  32.636  1.00  0.00    -0.354 N 
ATOM     51  C   UNL A   1      38.768  31.262  30.977  1.00  0.00     0.074 A 
ATOM     52  C   UNL A   1      38.453  30.809  29.640  1.00  0.00     0.031 C 
ATOM     53  C   UNL A   1      43.673  27.447  32.658  1.00  0.00     0.029 A 
ATOM     54  C   UNL A   1      43.073  28.524  33.446  1.00  0.00     0.049 A 
ATOM     55  H   UNL A   1      41.456  29.723  32.913  1.00  0.00     0.167 HD
ATOM     56  C   UNL A   1      38.080  32.225  31.634  1.00  0.00     0.037 A 
ATOM     57  C   UNL A   1      43.466  28.918  34.674  1.00  0.00     0.037 A 
ATOM     58  C   UNL A   1      38.402  32.680  32.961  1.00  0.00     0.049 A 
ATOM     59  C   UNL A   1      42.733  30.048  35.356  1.00  0.00     0.074 A 
ATOM     60  C   UNL A   1      37.781  33.666  33.707  1.00  0.00     0.029 A 
ATOM     61  N   UNL A   1      39.433  32.177  33.740  1.00  0.00    -0.354 N 
ATOM     62  N   UNL A   1      41.704  30.743  34.931  1.00  0.00    -0.248 NA
ATOM     63  C   UNL A   1      43.213  30.445  36.688  1.00  0.00     0.031 C 
ATOM     64  C   UNL A   1      38.459  33.784  34.926  1.00  0.00     0.029 A 
ATOM     65  C   UNL A   1      39.470  32.837  34.956  1.00  0.00     0.049 A 
ATOM     66  H   UNL A   1      40.046  31.457  33.469  1.00  0.00     0.167 HD
ATOM     67  C   UNL A   1      41.388  31.625  35.960  1.00  0.00     0.074 A 
ATOM     68  C   UNL A   1      42.333  31.376  37.028  1.00  0.00     0.031 C 
ATOM     69  C   UNL A   1      40.401  32.555  36.021  1.00  0.00     0.037 A 
BRANCH  56  70
ATOM     70  C   UNL A   1      36.921  32.860  30.920  1.00  0.00     0.058 A 
ATOM     71  C   UNL A   1      35.593  32.534  31.241  1.00  0.00     0.135 A 
ATOM     72  C   UNL A   1      37.137  33.825  29.924  1.00  0.00     0.135 A 
ATOM     73  F   UNL A   1      35.332  31.600  32.169  1.00  0.00    -0.206 F 
ATOM     74  C   UNL A   1      34.521  33.129  30.586  1.00  0.00     0.059 A 
ATOM     75  C   UNL A   1      36.078  34.452  29.274  1.00  0.00     0.059 A 
ATOM     76  F   UNL A   1      38.386  34.169  29.575  1.00  0.00    -0.206 F 
ATOM     77  C   UNL A   1      34.773  34.089  29.605  1.00  0.00     0.060 A 
BRANCH  77  78
ATOM     78  S   UNL A   1      33.370  34.863  28.773  1.00  0.00     0.124 S 
ATOM     79  O   UNL A   1      32.441  35.050  29.884  1.00  0.00    -0.237 OA
ATOM     80  O   UNL A   1      33.962  36.081  28.231  1.00  0.00    -0.237 OA
ATOM     81  O   UNL A   1      32.970  33.868  27.783  1.00  0.00    -0.744 OA
ENDBRANCH  77  78
ENDBRANCH  56  70
BRANCH  57  82
ATOM     82  C   UNL A   1      44.613  28.254  35.349  1.00  0.00     0.058 A 
ATOM     83  C   UNL A   1      45.931  28.684  35.129  1.00  0.00     0.135 A 
ATOM     84  C   UNL A   1      44.421  27.150  36.195  1.00  0.00     0.135 A 
ATOM     85  F   UNL A   1      46.168  29.727  34.320  1.00  0.00    -0.206 F 
ATOM     86  C   UNL A   1      47.018  28.025  35.693  1.00  0.00     0.059 A 
ATOM     87  C   UNL A   1      45.490  26.491  36.794  1.00  0.00     0.059 A 
ATOM     88  F   UNL A   1      43.180  26.703  36.447  1.00  0.00    -0.206 F 
ATOM     89  C   UNL A   1      46.788  26.925  36.522  1.00  0.00     0.060 A 
BRANCH  89  90
ATOM     90  S   UNL A   1      48.204  26.080  37.257  1.00  0.00     0.124 S 
ATOM     91  O   UNL A   1      47.606  25.487  38.447  1.00  0.00    -0.237 OA
ATOM     92  O   UNL A   1      48.589  25.147  36.202  1.00  0.00    -0.237 OA
ATOM     93  O   UNL A   1      49.151  27.165  37.500  1.00  0.00    -0.744 OA
ENDBRANCH  89  90
ENDBRANCH  57  82
BRANCH  69  94
ATOM     94  C   UNL A   1      40.242  33.322  37.305  1.00  0.00     0.058 A 
ATOM     95  C   UNL A   1      41.058  34.419  37.622  1.00  0.00     0.135 A 
ATOM     96  C   UNL A   1      39.222  32.981  38.208  1.00  0.00     0.135 A 
ATOM     97  F   UNL A   1      42.049  34.786  36.795  1.00  0.00    -0.206 F 
ATOM     98  C   UNL A   1      40.886  35.134  38.804  1.00  0.00     0.059 A 
ATOM     99  C   UNL A   1      39.014  33.699  39.381  1.00  0.00     0.059 A 
ATOM    100  F   UNL A   1      38.404  31.950  37.946  1.00  0.00    -0.206 F 
ATOM    101  C   UNL A   1      39.860  34.766  39.677  1.00  0.00     0.060 A 
BRANCH 101 102
ATOM    102  S   UNL A   1      39.629  35.717  41.194  1.00  0.00     0.124 S 
ATOM    103  O   UNL A   1      39.290  34.668  42.151  1.00  0.00    -0.237 OA
ATOM    104  O   UNL A   1      40.935  36.343  41.375  1.00  0.00    -0.237 OA
ATOM    105  O   UNL A   1      38.543  36.635  40.857  1.00  0.00    -0.744 OA
ENDBRANCH 101 102
ENDBRANCH  69  94
ENDBRANCH  43  44
ENDBRANCH  36  38
ENDBRANCH  35  36
ENDBRANCH  34  35
ENDBRANCH  33  34
ENDBRANCH  32  33
ENDBRANCH  31  32
ENDBRANCH   1  31
TORSDOF 23
ENDMDL
MODEL 2
REMARK VINA RESULT:     -10.7      5.877     11.375
REMARK SMILES CS(=O)(=O)c1ccc(-c2cc(Cl)cnc2-c2ccc(C(=O)OCCOCCOCCOC(=O)c3ccc(-c4c5nc(c(-c6c(F)cc(S(=O)(=O)[O-])cc6F)c6ccc([nH]6)c(-c6c(F)cc(S(=O)(=O)[O-])cc6F)c6nc(c(-c7c(F)cc(S(=O)(=O)[O-])cc7F)c7ccc4[nH]7)C=C6)C=C5)cc3)nc2)cc1
REMARK SMILES IDX 26 1 25 2 24 3 23 4 22 5 20 6 21 7 19 8 16 9 17 10 101 11
REMARK SMILES IDX 18 12 100 13 15 14 9 15 10 16 11 17 14 18 12 19 13 20 8 21
REMARK SMILES IDX 5 22 6 23 103 24 7 25 102 26 2 27 1 28 3 29 4 30 27 31 28 32
REMARK SMILES IDX 29 33 30 34 31 35 32 36 33 37 34 38 35 39 99 40 36 41 98 42
REMARK SMILES IDX 37 43 38 44 39 45 92 46 40 47 97 48 91 49 93 50 41 51 96 52
REMARK SMILES IDX 90 53 89 54 42 56 76 57 55 58 75 59 56 60 59 61 74 62 94 63
REMARK SMILES IDX 57 64 58 65 73 67 95 68 60 69 43 70 44 71 53 72 45 73 46 74
REMARK SMILES IDX 52 75 54 76 47 77 48 78 49 79 50 80 51 81 77 82 78 83 87 84
REMARK SMILES IDX 79 85 80 86 86 87 88 88 81 89 82 90 83 91 84 92 85 93 61 94
REMARK SMILES IDX 62 95 71 96 63 97 64 98 70 99 72 100 65 101 66 102 67 103
REMARK SMILES IDX 68 104 69 105
REMARK H PARENT 93 55 59 66
REMARK Flexibility Score: inf
ROOT
ATOM      1  C   UNL A   1      35.087  30.185  27.643  1.00  0.00     0.188 C 
ENDROOT
BRANCH   1   2
ATOM      2  O   UNL A   1      34.640  28.850  27.417  1.00  0.00    -0.376 OA
BRANCH   2   3
ATOM      3  C   UNL A   1      33.269  28.610  27.112  1.00  0.00     0.202 C 
BRANCH   3   4
ATOM      4  C   UNL A   1      32.906  27.626  25.992  1.00  0.00     0.261 C 
BRANCH   4   5
ATOM      5  O   UNL A   1      32.915  26.259  26.431  1.00  0.00    -0.459 OA
BRANCH   5   6
ATOM      6  C   UNL A   1      31.691  25.725  26.666  1.00  0.00     0.356 C 
ATOM      7  O   UNL A   1      30.652  26.341  26.852  1.00  0.00    -0.244 OA
BRANCH   6   8
ATOM      8  C   UNL A   1      31.773  24.245  26.574  1.00  0.00     0.148 A 
ATOM      9  C   UNL A   1      32.173  21.578  26.092  1.00  0.00     0.019 A 
ATOM     10  C   UNL A   1      30.909  22.144  25.864  1.00  0.00     0.014 A 
ATOM     11  C   UNL A   1      33.131  22.381  26.706  1.00  0.00     0.122 A 
ATOM     12  C   UNL A   1      30.701  23.501  26.100  1.00  0.00     0.037 A 
ATOM     13  N   UNL A   1      32.965  23.702  26.935  1.00  0.00    -0.249 NA
BRANCH   9  14
ATOM     14  C   UNL A   1      32.576  20.316  25.462  1.00  0.00     0.080 A 
ATOM     15  C   UNL A   1      33.051  20.299  24.125  1.00  0.00     0.010 A 
ATOM     16  C   UNL A   1      33.440  19.061  23.597  1.00  0.00     0.033 A 
ATOM     17  C   UNL A   1      33.370  17.921  24.392  1.00  0.00     0.060 A 
ATOM     18  N   UNL A   1      32.506  19.215  26.248  1.00  0.00    -0.254 NA
ATOM     19  Cl  UNL A   1      33.844  16.397  23.762  1.00  0.00    -0.083 Cl
ATOM     20  C   UNL A   1      32.911  18.044  25.695  1.00  0.00     0.132 A 
BRANCH  15  21
ATOM     21  C   UNL A   1      33.132  21.529  23.312  1.00  0.00    -0.016 A 
ATOM     22  C   UNL A   1      33.098  24.025  22.021  1.00  0.00     0.067 A 
ATOM     23  C   UNL A   1      34.141  23.717  22.892  1.00  0.00     0.021 A 
ATOM     24  C   UNL A   1      32.103  23.083  21.742  1.00  0.00     0.021 A 
ATOM     25  C   UNL A   1      34.163  22.467  23.516  1.00  0.00     0.010 A 
ATOM     26  C   UNL A   1      32.119  21.845  22.391  1.00  0.00     0.010 A 
BRANCH  22  27
ATOM     27  S   UNL A   1      33.034  25.614  21.230  1.00  0.00     0.175 S 
ATOM     28  C   UNL A   1      31.464  26.267  21.737  1.00  0.00     0.163 C 
ATOM     29  O   UNL A   1      32.979  25.375  19.801  1.00  0.00    -0.224 OA
ATOM     30  O   UNL A   1      34.068  26.450  21.806  1.00  0.00    -0.224 OA
ENDBRANCH  22  27
ENDBRANCH  15  21
ENDBRANCH   9  14
ENDBRANCH   6   8
ENDBRANCH   5   6
ENDBRANCH   4   5
ENDBRANCH   3   4
ENDBRANCH   2   3
ENDBRANCH   1   2
BRANCH   1  31
ATOM     31  C   UNL A   1      34.046  31.323  27.706  1.00  0.00     0.188 C 
BRANCH  31  32
ATOM     32  O   UNL A   1      34.581  32.610  27.906  1.00  0.00    -0.376 OA
BRANCH  32  33
ATOM     33  C   UNL A   1      34.333  33.299  29.119  1.00  0.00     0.202 C 
BRANCH  33  34
ATOM     34  C   UNL A   1      35.127  33.132  30.432  1.00  0.00     0.261 C 
BRANCH  34  35
ATOM     35  O   UNL A   1      35.944  31.973  30.601  1.00  0.00    -0.460 OA
BRANCH  35  36
ATOM     36  C   UNL A   1      37.040  32.126  31.381  1.00  0.00     0.338 C 
ATOM     37  O   UNL A   1      37.109  32.726  32.439  1.00  0.00    -0.246 OA
BRANCH  36  38
ATOM     38  C   UNL A   1      38.122  31.288  30.828  1.00  0.00     0.060 A 
ATOM     39  C   UNL A   1      39.021  30.681  31.713  1.00  0.00     0.016 A 
ATOM     40  C   UNL A   1      38.271  31.138  29.447  1.00  0.00     0.016 A 
ATOM     41  C   UNL A   1      40.104  29.955  31.215  1.00  0.00     0.010 A 
ATOM     42  C   UNL A   1      39.366  30.426  28.950  1.00  0.00     0.010 A 
ATOM     43  C   UNL A   1      40.307  29.866  29.831  1.00  0.00    -0.014 A 
BRANCH  43  44
ATOM     44  C   UNL A   1      41.610  29.383  29.311  1.00  0.00     0.031 A 
ATOM     45  C   UNL A   1      42.754  30.361  29.245  1.00  0.00     0.074 A 
ATOM     46  C   UNL A   1      41.786  28.106  28.930  1.00  0.00     0.049 A 
ATOM     47  N   UNL A   1      43.964  30.197  28.780  1.00  0.00    -0.248 NA
ATOM     48  C   UNL A   1      42.491  31.711  29.777  1.00  0.00     0.031 C 
ATOM     49  C   UNL A   1      40.773  27.054  28.991  1.00  0.00     0.029 A 
ATOM     50  N   UNL A   1      42.891  27.479  28.406  1.00  0.00    -0.354 N 
ATOM     51  C   UNL A   1      44.607  31.416  28.965  1.00  0.00     0.074 A 
ATOM     52  C   UNL A   1      43.644  32.322  29.550  1.00  0.00     0.031 C 
ATOM     53  C   UNL A   1      41.300  25.912  28.511  1.00  0.00     0.029 A 
ATOM     54  C   UNL A   1      42.676  26.160  28.082  1.00  0.00     0.049 A 
ATOM     55  H   UNL A   1      43.754  27.932  28.275  1.00  0.00     0.167 HD
ATOM     56  C   UNL A   1      45.889  31.749  28.682  1.00  0.00     0.037 A 
ATOM     57  C   UNL A   1      43.494  25.266  27.492  1.00  0.00     0.037 A 
ATOM     58  C   UNL A   1      46.842  30.849  28.091  1.00  0.00     0.049 A 
ATOM     59  C   UNL A   1      44.895  25.684  27.114  1.00  0.00     0.074 A 
ATOM     60  C   UNL A   1      48.159  31.094  27.744  1.00  0.00     0.029 A 
ATOM     61  N   UNL A   1      46.581  29.527  27.760  1.00  0.00    -0.354 N 
ATOM     62  N   UNL A   1      45.490  26.840  27.289  1.00  0.00    -0.248 NA
ATOM     63  C   UNL A   1      45.738  24.671  26.461  1.00  0.00     0.031 C 
ATOM     64  C   UNL A   1      48.685  29.931  27.171  1.00  0.00     0.029 A 
ATOM     65  C   UNL A   1      47.710  28.947  27.207  1.00  0.00     0.049 A 
ATOM     66  H   UNL A   1      45.721  29.069  27.898  1.00  0.00     0.167 HD
ATOM     67  C   UNL A   1      46.787  26.679  26.811  1.00  0.00     0.074 A 
ATOM     68  C   UNL A   1      46.891  25.314  26.338  1.00  0.00     0.031 C 
ATOM     69  C   UNL A   1      47.804  27.577  26.769  1.00  0.00     0.037 A 
BRANCH  56  70
ATOM     70  C   UNL A   1      46.327  33.151  28.998  1.00  0.00     0.058 A 
ATOM     71  C   UNL A   1      46.905  33.479  30.235  1.00  0.00     0.135 A 
ATOM     72  C   UNL A   1      46.194  34.173  28.045  1.00  0.00     0.135 A 
ATOM     73  F   UNL A   1      47.033  32.544  31.190  1.00  0.00    -0.206 F 
ATOM     74  C   UNL A   1      47.319  34.774  30.523  1.00  0.00     0.059 A 
ATOM     75  C   UNL A   1      46.626  35.471  28.302  1.00  0.00     0.059 A 
ATOM     76  F   UNL A   1      45.643  33.915  26.849  1.00  0.00    -0.206 F 
ATOM     77  C   UNL A   1      47.177  35.764  29.549  1.00  0.00     0.060 A 
BRANCH  77  78
ATOM     78  S   UNL A   1      47.732  37.438  29.932  1.00  0.00     0.124 S 
ATOM     79  O   UNL A   1      48.360  37.832  28.674  1.00  0.00    -0.237 OA
ATOM     80  O   UNL A   1      46.481  38.116  30.254  1.00  0.00    -0.237 OA
ATOM     81  O   UNL A   1      48.644  37.246  31.055  1.00  0.00    -0.744 OA
ENDBRANCH  77  78
ENDBRANCH  56  70
BRANCH  57  82
ATOM     82  C   UNL A   1      43.022  23.884  27.207  1.00  0.00     0.058 A 
ATOM     83  C   UNL A   1      42.862  22.946  28.239  1.00  0.00     0.135 A 
ATOM     84  C   UNL A   1      42.762  23.459  25.895  1.00  0.00     0.135 A 
ATOM     85  F   UNL A   1      43.109  23.300  29.509  1.00  0.00    -0.206 F 
ATOM     86  C   UNL A   1      42.495  21.629  27.979  1.00  0.00     0.059 A 
ATOM     87  C   UNL A   1      42.367  22.156  25.611  1.00  0.00     0.059 A 
ATOM     88  F   UNL A   1      42.891  24.318  24.871  1.00  0.00    -0.206 F 
ATOM     89  C   UNL A   1      42.254  21.242  26.659  1.00  0.00     0.060 A 
BRANCH  89  90
ATOM     90  S   UNL A   1      41.771  19.533  26.332  1.00  0.00     0.124 S 
ATOM     91  O   UNL A   1      42.498  19.254  25.099  1.00  0.00    -0.237 OA
ATOM     92  O   UNL A   1      42.249  18.843  27.526  1.00  0.00    -0.237 OA
ATOM     93  O   UNL A   1      40.319  19.615  26.203  1.00  0.00    -0.744 OA
ENDBRANCH  89  90
ENDBRANCH  57  82
BRANCH  69  94
ATOM     94  C   UNL A   1      49.137  27.098  26.264  1.00  0.00     0.058 A 
ATOM     95  C   UNL A   1      49.491  27.175  24.908  1.00  0.00     0.135 A 
ATOM     96  C   UNL A   1      50.094  26.600  27.163  1.00  0.00     0.135 A 
ATOM     97  F   UNL A   1      48.613  27.641  24.006  1.00  0.00    -0.206 F 
ATOM     98  C   UNL A   1      50.737  26.750  24.458  1.00  0.00     0.059 A 
ATOM     99  C   UNL A   1      51.355  26.195  26.740  1.00  0.00     0.059 A 
ATOM    100  F   UNL A   1      49.812  26.518  28.473  1.00  0.00    -0.206 F 
ATOM    101  C   UNL A   1      51.663  26.260  25.382  1.00  0.00     0.060 A 
BRANCH 101 102
ATOM    102  S   UNL A   1      53.286  25.736  24.790  1.00  0.00     0.124 S 
ATOM    103  O   UNL A   1      54.177  26.505  25.653  1.00  0.00    -0.237 OA
ATOM    104  O   UNL A   1      53.257  24.296  25.030  1.00  0.00    -0.237 OA
ATOM    105  O   UNL A   1      53.278  26.130  23.384  1.00  0.00    -0.744 OA
ENDBRANCH 101 102
ENDBRANCH  69  94
ENDBRANCH  43  44
ENDBRANCH  36  38
ENDBRANCH  35  36
ENDBRANCH  34  35
ENDBRANCH  33  34
ENDBRANCH  32  33
ENDBRANCH  31  32
ENDBRANCH   1  31
TORSDOF 23
ENDMDL
MODEL 3
REMARK VINA RESULT:     -10.2      4.525      9.875
REMARK SMILES CS(=O)(=O)c1ccc(-c2cc(Cl)cnc2-c2ccc(C(=O)OCCOCCOCCOC(=O)c3ccc(-c4c5nc(c(-c6c(F)cc(S(=O)(=O)[O-])cc6F)c6ccc([nH]6)c(-c6c(F)cc(S(=O)(=O)[O-])cc6F)c6nc(c(-c7c(F)cc(S(=O)(=O)[O-])cc7F)c7ccc4[nH]7)C=C6)C=C5)cc3)nc2)cc1
REMARK SMILES IDX 26 1 25 2 24 3 23 4 22 5 20 6 21 7 19 8 16 9 17 10 101 11
REMARK SMILES IDX 18 12 100 13 15 14 9 15 10 16 11 17 14 18 12 19 13 20 8 21
REMARK SMILES IDX 5 22 6 23 103 24 7 25 102 26 2 27 1 28 3 29 4 30 27 31 28 32
REMARK SMILES IDX 29 33 30 34 31 35 32 36 33 37 34 38 35 39 99 40 36 41 98 42
REMARK SMILES IDX 37 43 38 44 39 45 92 46 40 47 97 48 91 49 93 50 41 51 96 52
REMARK SMILES IDX 90 53 89 54 42 56 76 57 55 58 75 59 56 60 59 61 74 62 94 63
REMARK SMILES IDX 57 64 58 65 73 67 95 68 60 69 43 70 44 71 53 72 45 73 46 74
REMARK SMILES IDX 52 75 54 76 47 77 48 78 49 79 50 80 51 81 77 82 78 83 87 84
REMARK SMILES IDX 79 85 80 86 86 87 88 88 81 89 82 90 83 91 84 92 85 93 61 94
REMARK SMILES IDX 62 95 71 96 63 97 64 98 70 99 72 100 65 101 66 102 67 103
REMARK SMILES IDX 68 104 69 105
REMARK H PARENT 93 55 59 66
REMARK Flexibility Score: inf
ROOT
ATOM      1  C   UNL A   1      31.464  28.769  23.840  1.00  0.00     0.188 C 
ENDROOT
BRANCH   1   2
ATOM      2  O   UNL A   1      32.878  28.897  23.717  1.00  0.00    -0.376 OA
BRANCH   2   3
ATOM      3  C   UNL A   1      33.730  28.157  24.587  1.00  0.00     0.202 C 
BRANCH   3   4
ATOM      4  C   UNL A   1      33.411  26.687  24.885  1.00  0.00     0.261 C 
BRANCH   4   5
ATOM      5  O   UNL A   1      32.035  26.477  25.234  1.00  0.00    -0.459 OA
BRANCH   5   6
ATOM      6  C   UNL A   1      31.827  26.004  26.488  1.00  0.00     0.356 C 
ATOM      7  O   UNL A   1      31.551  26.663  27.478  1.00  0.00    -0.244 OA
BRANCH   6   8
ATOM      8  C   UNL A   1      31.894  24.520  26.470  1.00  0.00     0.148 A 
ATOM      9  C   UNL A   1      32.248  21.827  26.110  1.00  0.00     0.019 A 
ATOM     10  C   UNL A   1      30.977  22.393  25.925  1.00  0.00     0.014 A 
ATOM     11  C   UNL A   1      33.244  22.652  26.624  1.00  0.00     0.122 A 
ATOM     12  C   UNL A   1      30.792  23.762  26.098  1.00  0.00     0.037 A 
ATOM     13  N   UNL A   1      33.102  23.985  26.791  1.00  0.00    -0.249 NA
BRANCH   9  14
ATOM     14  C   UNL A   1      32.604  20.530  25.526  1.00  0.00     0.080 A 
ATOM     15  C   UNL A   1      33.026  20.441  24.174  1.00  0.00     0.010 A 
ATOM     16  C   UNL A   1      33.373  19.172  23.692  1.00  0.00     0.033 A 
ATOM     17  C   UNL A   1      33.317  18.072  24.543  1.00  0.00     0.060 A 
ATOM     18  N   UNL A   1      32.548  19.468  26.366  1.00  0.00    -0.254 NA
ATOM     19  Cl  UNL A   1      33.741  16.512  23.968  1.00  0.00    -0.083 Cl
ATOM     20  C   UNL A   1      32.912  18.265  25.855  1.00  0.00     0.132 A 
BRANCH  15  21
ATOM     21  C   UNL A   1      33.094  21.629  23.299  1.00  0.00    -0.016 A 
ATOM     22  C   UNL A   1      33.058  24.063  21.897  1.00  0.00     0.067 A 
ATOM     23  C   UNL A   1      34.143  23.760  22.716  1.00  0.00     0.021 A 
ATOM     24  C   UNL A   1      32.018  23.144  21.723  1.00  0.00     0.021 A 
ATOM     25  C   UNL A   1      34.164  22.540  23.396  1.00  0.00     0.010 A 
ATOM     26  C   UNL A   1      32.036  21.937  22.428  1.00  0.00     0.010 A 
BRANCH  22  27
ATOM     27  S   UNL A   1      32.994  25.616  21.036  1.00  0.00     0.175 S 
ATOM     28  C   UNL A   1      31.400  26.266  21.471  1.00  0.00     0.163 C 
ATOM     29  O   UNL A   1      32.983  25.315  19.617  1.00  0.00    -0.224 OA
ATOM     30  O   UNL A   1      33.999  26.491  21.604  1.00  0.00    -0.224 OA
ENDBRANCH  22  27
ENDBRANCH  15  21
ENDBRANCH   9  14
ENDBRANCH   6   8
ENDBRANCH   5   6
ENDBRANCH   4   5
ENDBRANCH   3   4
ENDBRANCH   2   3
ENDBRANCH   1   2
BRANCH   1  31
ATOM     31  C   UNL A   1      30.673  29.879  24.566  1.00  0.00     0.188 C 
BRANCH  31  32
ATOM     32  O   UNL A   1      31.445  30.719  25.391  1.00  0.00    -0.376 OA
BRANCH  32  33
ATOM     33  C   UNL A   1      31.664  30.374  26.748  1.00  0.00     0.202 C 
BRANCH  33  34
ATOM     34  C   UNL A   1      33.006  29.922  27.360  1.00  0.00     0.261 C 
BRANCH  34  35
ATOM     35  O   UNL A   1      34.163  30.733  27.158  1.00  0.00    -0.460 OA
BRANCH  35  36
ATOM     36  C   UNL A   1      34.785  31.173  28.278  1.00  0.00     0.338 C 
ATOM     37  O   UNL A   1      34.336  31.936  29.114  1.00  0.00    -0.246 OA
BRANCH  36  38
ATOM     38  C   UNL A   1      36.054  30.432  28.424  1.00  0.00     0.060 A 
ATOM     39  C   UNL A   1      36.362  29.866  29.666  1.00  0.00     0.016 A 
ATOM     40  C   UNL A   1      36.947  30.335  27.355  1.00  0.00     0.016 A 
ATOM     41  C   UNL A   1      37.593  29.235  29.857  1.00  0.00     0.010 A 
ATOM     42  C   UNL A   1      38.187  29.719  27.553  1.00  0.00     0.010 A 
ATOM     43  C   UNL A   1      38.529  29.202  28.814  1.00  0.00    -0.014 A 
BRANCH  43  44
ATOM     44  C   UNL A   1      39.935  28.831  29.104  1.00  0.00     0.031 A 
ATOM     45  C   UNL A   1      40.818  29.856  29.768  1.00  0.00     0.074 A 
ATOM     46  C   UNL A   1      40.416  27.610  28.811  1.00  0.00     0.049 A 
ATOM     47  N   UNL A   1      42.087  29.791  30.070  1.00  0.00    -0.248 NA
ATOM     48  C   UNL A   1      40.174  31.130  30.140  1.00  0.00     0.031 C 
ATOM     49  C   UNL A   1      39.650  26.517  28.213  1.00  0.00     0.029 A 
ATOM     50  N   UNL A   1      41.676  27.087  28.974  1.00  0.00    -0.354 N 
ATOM     51  C   UNL A   1      42.395  31.008  30.668  1.00  0.00     0.074 A 
ATOM     52  C   UNL A   1      41.189  31.807  30.653  1.00  0.00     0.031 C 
ATOM     53  C   UNL A   1      40.461  25.455  28.049  1.00  0.00     0.029 A 
ATOM     54  C   UNL A   1      41.808  25.803  28.502  1.00  0.00     0.049 A 
ATOM     55  H   UNL A   1      42.415  27.586  29.391  1.00  0.00     0.167 HD
ATOM     56  C   UNL A   1      43.573  31.421  31.192  1.00  0.00     0.037 A 
ATOM     57  C   UNL A   1      42.896  25.011  28.430  1.00  0.00     0.037 A 
ATOM     58  C   UNL A   1      44.773  30.629  31.196  1.00  0.00     0.049 A 
ATOM     59  C   UNL A   1      44.218  25.523  28.950  1.00  0.00     0.074 A 
ATOM     60  C   UNL A   1      46.024  30.963  31.682  1.00  0.00     0.029 A 
ATOM     61  N   UNL A   1      44.871  29.341  30.691  1.00  0.00    -0.354 N 
ATOM     62  N   UNL A   1      44.497  26.677  29.509  1.00  0.00    -0.248 NA
ATOM     63  C   UNL A   1      45.373  24.621  28.833  1.00  0.00     0.031 C 
ATOM     64  C   UNL A   1      46.889  29.889  31.440  1.00  0.00     0.029 A 
ATOM     65  C   UNL A   1      46.163  28.869  30.848  1.00  0.00     0.049 A 
ATOM     66  H   UNL A   1      44.131  28.836  30.282  1.00  0.00     0.167 HD
ATOM     67  C   UNL A   1      45.845  26.621  29.849  1.00  0.00     0.074 A 
ATOM     68  C   UNL A   1      46.326  25.319  29.434  1.00  0.00     0.031 C 
ATOM     69  C   UNL A   1      46.617  27.558  30.455  1.00  0.00     0.037 A 
BRANCH  56  70
ATOM     70  C   UNL A   1      43.621  32.798  31.792  1.00  0.00     0.058 A 
ATOM     71  C   UNL A   1      43.360  33.015  33.154  1.00  0.00     0.135 A 
ATOM     72  C   UNL A   1      43.959  33.909  31.003  1.00  0.00     0.135 A 
ATOM     73  F   UNL A   1      43.009  31.990  33.947  1.00  0.00    -0.206 F 
ATOM     74  C   UNL A   1      43.415  34.288  33.710  1.00  0.00     0.059 A 
ATOM     75  C   UNL A   1      44.044  35.189  31.544  1.00  0.00     0.059 A 
ATOM     76  F   UNL A   1      44.211  33.758  29.694  1.00  0.00    -0.206 F 
ATOM     77  C   UNL A   1      43.759  35.369  32.897  1.00  0.00     0.060 A 
BRANCH  77  78
ATOM     78  S   UNL A   1      43.839  37.014  33.637  1.00  0.00     0.124 S 
ATOM     79  O   UNL A   1      43.787  37.868  32.453  1.00  0.00    -0.237 OA
ATOM     80  O   UNL A   1      42.651  37.034  34.484  1.00  0.00    -0.237 OA
ATOM     81  O   UNL A   1      45.113  37.006  34.349  1.00  0.00    -0.744 OA
ENDBRANCH  77  78
ENDBRANCH  56  70
BRANCH  57  82
ATOM     82  C   UNL A   1      42.801  23.649  27.838  1.00  0.00     0.058 A 
ATOM     83  C   UNL A   1      42.931  23.450  26.455  1.00  0.00     0.135 A 
ATOM     84  C   UNL A   1      42.536  22.525  28.635  1.00  0.00     0.135 A 
ATOM     85  F   UNL A   1      43.172  24.494  25.648  1.00  0.00    -0.206 F 
ATOM     86  C   UNL A   1      42.768  22.194  25.879  1.00  0.00     0.059 A 
ATOM     87  C   UNL A   1      42.396  21.254  28.087  1.00  0.00     0.059 A 
ATOM     88  F   UNL A   1      42.411  22.658  29.965  1.00  0.00    -0.206 F 
ATOM     89  C   UNL A   1      42.496  21.101  26.704  1.00  0.00     0.060 A 
BRANCH  89  90
ATOM     90  S   UNL A   1      42.295  19.474  25.949  1.00  0.00     0.124 S 
ATOM     91  O   UNL A   1      43.144  19.591  24.769  1.00  0.00    -0.237 OA
ATOM     92  O   UNL A   1      42.779  18.584  27.000  1.00  0.00    -0.237 OA
ATOM     93  O   UNL A   1      40.859  19.401  25.688  1.00  0.00    -0.744 OA
ENDBRANCH  89  90
ENDBRANCH  57  82
BRANCH  69  94
ATOM     94  C   UNL A   1      48.040  27.190  30.775  1.00  0.00     0.058 A 
ATOM     95  C   UNL A   1      48.430  26.768  32.055  1.00  0.00     0.135 A 
ATOM     96  C   UNL A   1      49.017  27.214  29.767  1.00  0.00     0.135 A 
ATOM     97  F   UNL A   1      47.536  26.729  33.056  1.00  0.00    -0.206 F 
ATOM     98  C   UNL A   1      49.746  26.408  32.331  1.00  0.00     0.059 A 
ATOM     99  C   UNL A   1      50.332  26.832  30.013  1.00  0.00     0.059 A 
ATOM    100  F   UNL A   1      48.694  27.595  28.521  1.00  0.00    -0.206 F 
ATOM    101  C   UNL A   1      50.690  26.443  31.303  1.00  0.00     0.060 A 
BRANCH 101 102
ATOM    102  S   UNL A   1      52.388  25.949  31.666  1.00  0.00     0.124 S 
ATOM    103  O   UNL A   1      52.704  26.800  32.809  1.00  0.00    -0.237 OA
ATOM    104  O   UNL A   1      52.246  24.526  31.954  1.00  0.00    -0.237 OA
ATOM    105  O   UNL A   1      53.104  26.264  30.432  1.00  0.00    -0.744 OA
ENDBRANCH 101 102
ENDBRANCH  69  94
ENDBRANCH  43  44
ENDBRANCH  36  38
ENDBRANCH  35  36
ENDBRANCH  34  35
ENDBRANCH  33  34
ENDBRANCH  32  33
ENDBRANCH  31  32
ENDBRANCH   1  31
TORSDOF 23
ENDMDL
