MODEL 1
REMARK VINA RESULT:     -11.6      0.000      0.000
REMARK SMILES Cc1ccc(Cl)c(Nc2ccccc2C(=O)N[C@@H](C)C(=O)OCCOCCOCCOC(=O)c2ccc(-c3c4nc(c(-c5c(F)cc(S(=O)(=O)[O-])cc5F)c5ccc([nH]5)c(-c5c(F)cc(S(=O)(=O)[O-])cc5F)c5nc(c(-c6c(F)cc(S(=O)(=O)[O-])cc6F)c6ccc3[nH]6)C=C5)C=C4)cc2)c1Cl
REMARK SMILES IDX 26 1 25 2 24 3 23 4 22 5 20 6 21 7 18 8 19 9 17 10 15 11
REMARK SMILES IDX 16 12 14 14 9 15 10 16 11 17 13 18 12 19 8 20 7 22 1 23 2 24
REMARK SMILES IDX 3 25 100 26 4 27 101 28 5 29 6 30 27 31 28 32 29 33 30 34
REMARK SMILES IDX 31 35 32 36 33 37 34 38 35 39 99 40 36 41 98 42 37 43 38 44
REMARK SMILES IDX 39 45 92 46 40 47 97 48 91 49 93 50 41 51 96 52 90 53 89 54
REMARK SMILES IDX 42 56 76 57 55 58 75 59 56 60 59 61 74 62 94 63 57 64 58 65
REMARK SMILES IDX 73 67 95 68 60 69 43 70 44 71 53 72 45 73 46 74 52 75 54 76
REMARK SMILES IDX 47 77 48 78 49 79 50 80 51 81 77 82 78 83 87 84 79 85 80 86
REMARK SMILES IDX 86 87 88 88 81 89 82 90 83 91 84 92 85 93 61 94 62 95 71 96
REMARK SMILES IDX 63 97 64 98 70 99 72 100 65 101 66 102 67 103 68 104 69 105
REMARK H PARENT 17 13 8 21 93 55 59 66
REMARK Flexibility Score: inf
ROOT
ATOM      1  C   UNL A   1      30.712  29.344  23.981  1.00  0.00     0.188 C 
ENDROOT
BRANCH   1   2
ATOM      2  O   UNL A   1      29.593  29.317  23.038  1.00  0.00    -0.376 OA
BRANCH   2   3
ATOM      3  C   UNL A   1      28.432  28.470  23.201  1.00  0.00     0.202 C 
BRANCH   3   4
ATOM      4  C   UNL A   1      28.561  26.930  23.871  1.00  0.00     0.261 C 
BRANCH   4   5
ATOM      5  O   UNL A   1      29.887  26.211  23.917  1.00  0.00    -0.462 OA
BRANCH   5   6
ATOM      6  C   UNL A   1      30.438  25.630  25.061  1.00  0.00     0.328 C 
ATOM      7  O   UNL A   1      29.951  25.842  26.172  1.00  0.00    -0.250 OA
BRANCH   6   8
ATOM      8  C   UNL A   1      31.660  24.452  24.862  1.00  0.00     0.189 C 
ATOM      9  C   UNL A   1      32.625  24.469  26.047  1.00  0.00     0.043 C 
BRANCH   8  10
ATOM     10  N   UNL A   1      32.494  24.140  23.656  1.00  0.00    -0.339 N 
ATOM     11  C   UNL A   1      33.681  23.467  23.340  1.00  0.00     0.254 C 
ATOM     12  O   UNL A   1      34.056  23.792  22.195  1.00  0.00    -0.269 OA
ATOM     13  H   UNL A   1      32.086  24.522  22.846  1.00  0.00     0.164 HD
BRANCH  11  14
ATOM     14  C   UNL A   1      34.566  22.391  24.037  1.00  0.00     0.063 A 
ATOM     15  C   UNL A   1      34.295  21.201  24.767  1.00  0.00     0.051 A 
ATOM     16  C   UNL A   1      35.361  20.304  25.124  1.00  0.00     0.027 A 
ATOM     17  C   UNL A   1      36.687  20.537  24.800  1.00  0.00     0.002 A 
ATOM     18  C   UNL A   1      35.968  22.617  23.807  1.00  0.00     0.016 A 
ATOM     19  C   UNL A   1      36.996  21.717  24.161  1.00  0.00     0.001 A 
BRANCH  15  20
ATOM     20  N   UNL A   1      33.038  20.592  24.963  1.00  0.00    -0.352 N 
ATOM     21  H   UNL A   1      32.418  20.990  25.616  1.00  0.00     0.167 HD
BRANCH  20  22
ATOM     22  C   UNL A   1      32.625  19.424  24.255  1.00  0.00     0.077 A 
ATOM     23  C   UNL A   1      34.944  16.830  24.661  1.00  0.00     0.046 C 
ATOM     24  C   UNL A   1      33.736  17.396  23.970  1.00  0.00    -0.030 A 
ATOM     25  C   UNL A   1      33.357  17.378  22.622  1.00  0.00     0.006 A 
ATOM     26  C   UNL A   1      32.957  18.182  24.761  1.00  0.00     0.069 A 
ATOM     27  C   UNL A   1      32.586  18.408  22.082  1.00  0.00     0.023 A 
ATOM     28  Cl  UNL A   1      32.571  17.636  26.341  1.00  0.00    -0.082 Cl
ATOM     29  C   UNL A   1      32.338  19.504  22.888  1.00  0.00     0.066 A 
ATOM     30  Cl  UNL A   1      31.801  20.977  22.180  1.00  0.00    -0.082 Cl
ENDBRANCH  20  22
ENDBRANCH  15  20
ENDBRANCH  11  14
ENDBRANCH   8  10
ENDBRANCH   6   8
ENDBRANCH   5   6
ENDBRANCH   4   5
ENDBRANCH   3   4
ENDBRANCH   2   3
ENDBRANCH   1   2
BRANCH   1  31
ATOM     31  C   UNL A   1      32.175  28.913  23.584  1.00  0.00     0.188 C 
BRANCH  31  32
ATOM     32  O   UNL A   1      33.244  29.275  24.447  1.00  0.00    -0.376 OA
BRANCH  32  33
ATOM     33  C   UNL A   1      32.820  29.863  25.663  1.00  0.00     0.202 C 
BRANCH  33  34
ATOM     34  C   UNL A   1      33.708  29.631  26.914  1.00  0.00     0.261 C 
BRANCH  34  35
ATOM     35  O   UNL A   1      33.502  30.519  28.044  1.00  0.00    -0.460 OA
BRANCH  35  36
ATOM     36  C   UNL A   1      34.551  31.325  28.379  1.00  0.00     0.338 C 
ATOM     37  O   UNL A   1      34.458  32.493  28.776  1.00  0.00    -0.246 OA
BRANCH  36  38
ATOM     38  C   UNL A   1      35.841  30.578  28.441  1.00  0.00     0.060 A 
ATOM     39  C   UNL A   1      36.257  30.060  29.681  1.00  0.00     0.016 A 
ATOM     40  C   UNL A   1      36.677  30.431  27.334  1.00  0.00     0.016 A 
ATOM     41  C   UNL A   1      37.478  29.386  29.811  1.00  0.00     0.010 A 
ATOM     42  C   UNL A   1      37.925  29.789  27.478  1.00  0.00     0.010 A 
ATOM     43  C   UNL A   1      38.337  29.262  28.719  1.00  0.00    -0.014 A 
BRANCH  43  44
ATOM     44  C   UNL A   1      39.750  28.847  28.947  1.00  0.00     0.031 A 
ATOM     45  C   UNL A   1      40.682  29.885  29.507  1.00  0.00     0.074 A 
ATOM     46  C   UNL A   1      40.205  27.590  28.768  1.00  0.00     0.049 A 
ATOM     47  N   UNL A   1      41.986  29.906  29.551  1.00  0.00    -0.248 NA
ATOM     48  C   UNL A   1      40.038  31.062  30.115  1.00  0.00     0.031 C 
ATOM     49  C   UNL A   1      39.386  26.424  28.448  1.00  0.00     0.029 A 
ATOM     50  N   UNL A   1      41.487  27.090  28.824  1.00  0.00    -0.354 N 
ATOM     51  C   UNL A   1      42.320  31.126  30.131  1.00  0.00     0.074 A 
ATOM     52  C   UNL A   1      41.083  31.801  30.451  1.00  0.00     0.031 C 
ATOM     53  C   UNL A   1      40.188  25.352  28.301  1.00  0.00     0.029 A 
ATOM     54  C   UNL A   1      41.583  25.772  28.432  1.00  0.00     0.049 A 
ATOM     55  H   UNL A   1      42.262  27.622  29.117  1.00  0.00     0.167 HD
ATOM     56  C   UNL A   1      43.551  31.643  30.348  1.00  0.00     0.037 A 
ATOM     57  C   UNL A   1      42.670  25.024  28.140  1.00  0.00     0.037 A 
ATOM     58  C   UNL A   1      44.768  30.941  30.040  1.00  0.00     0.049 A 
ATOM     59  C   UNL A   1      44.038  25.662  28.235  1.00  0.00     0.074 A 
ATOM     60  C   UNL A   1      46.072  31.380  30.163  1.00  0.00     0.029 A 
ATOM     61  N   UNL A   1      44.824  29.644  29.551  1.00  0.00    -0.354 N 
ATOM     62  N   UNL A   1      44.363  26.862  28.662  1.00  0.00    -0.248 NA
ATOM     63  C   UNL A   1      45.186  24.863  27.779  1.00  0.00     0.031 C 
ATOM     64  C   UNL A   1      46.915  30.368  29.693  1.00  0.00     0.029 A 
ATOM     65  C   UNL A   1      46.139  29.275  29.336  1.00  0.00     0.049 A 
ATOM     66  H   UNL A   1      44.042  29.070  29.382  1.00  0.00     0.167 HD
ATOM     67  C   UNL A   1      45.746  26.954  28.538  1.00  0.00     0.074 A 
ATOM     68  C   UNL A   1      46.202  25.683  28.015  1.00  0.00     0.031 C 
ATOM     69  C   UNL A   1      46.568  27.995  28.824  1.00  0.00     0.037 A 
BRANCH  56  70
ATOM     70  C   UNL A   1      43.629  33.059  30.842  1.00  0.00     0.058 A 
ATOM     71  C   UNL A   1      43.612  34.165  29.979  1.00  0.00     0.135 A 
ATOM     72  C   UNL A   1      43.736  33.309  32.221  1.00  0.00     0.135 A 
ATOM     73  F   UNL A   1      43.544  33.985  28.651  1.00  0.00    -0.206 F 
ATOM     74  C   UNL A   1      43.728  35.465  30.463  1.00  0.00     0.059 A 
ATOM     75  C   UNL A   1      43.821  34.600  32.729  1.00  0.00     0.059 A 
ATOM     76  F   UNL A   1      43.770  32.287  33.092  1.00  0.00    -0.206 F 
ATOM     77  C   UNL A   1      43.831  35.672  31.841  1.00  0.00     0.060 A 
BRANCH  77  78
ATOM     78  S   UNL A   1      43.980  37.364  32.453  1.00  0.00     0.124 S 
ATOM     79  O   UNL A   1      45.374  37.398  32.882  1.00  0.00    -0.237 OA
ATOM     80  O   UNL A   1      43.663  38.153  31.266  1.00  0.00    -0.237 OA
ATOM     81  O   UNL A   1      42.992  37.426  33.526  1.00  0.00    -0.744 OA
ENDBRANCH  77  78
ENDBRANCH  56  70
BRANCH  57  82
ATOM     82  C   UNL A   1      42.521  23.628  27.626  1.00  0.00     0.058 A 
ATOM     83  C   UNL A   1      42.604  22.517  28.479  1.00  0.00     0.135 A 
ATOM     84  C   UNL A   1      42.328  23.376  26.257  1.00  0.00     0.135 A 
ATOM     85  F   UNL A   1      42.818  22.694  29.792  1.00  0.00    -0.206 F 
ATOM     86  C   UNL A   1      42.504  21.212  27.998  1.00  0.00     0.059 A 
ATOM     87  C   UNL A   1      42.193  22.084  25.756  1.00  0.00     0.059 A 
ATOM     88  F   UNL A   1      42.256  24.396  25.387  1.00  0.00    -0.206 F 
ATOM     89  C   UNL A   1      42.290  21.006  26.633  1.00  0.00     0.060 A 
BRANCH  89  90
ATOM     90  S   UNL A   1      42.106  19.314  26.026  1.00  0.00     0.124 S 
ATOM     91  O   UNL A   1      40.686  19.270  25.696  1.00  0.00    -0.237 OA
ATOM     92  O   UNL A   1      43.027  19.295  24.895  1.00  0.00    -0.237 OA
ATOM     93  O   UNL A   1      42.512  18.502  27.170  1.00  0.00    -0.744 OA
ENDBRANCH  89  90
ENDBRANCH  57  82
BRANCH  69  94
ATOM     94  C   UNL A   1      48.044  27.806  28.608  1.00  0.00     0.058 A 
ATOM     95  C   UNL A   1      48.863  27.226  29.589  1.00  0.00     0.135 A 
ATOM     96  C   UNL A   1      48.627  28.123  27.370  1.00  0.00     0.135 A 
ATOM     97  F   UNL A   1      48.359  26.911  30.792  1.00  0.00    -0.206 F 
ATOM     98  C   UNL A   1      50.211  26.977  29.353  1.00  0.00     0.059 A 
ATOM     99  C   UNL A   1      49.964  27.854  27.102  1.00  0.00     0.059 A 
ATOM    100  F   UNL A   1      47.884  28.669  26.393  1.00  0.00    -0.206 F 
ATOM    101  C   UNL A   1      50.751  27.286  28.102  1.00  0.00     0.060 A 
BRANCH 101 102
ATOM    102  S   UNL A   1      52.486  26.898  27.791  1.00  0.00     0.124 S 
ATOM    103  O   UNL A   1      52.925  26.436  29.102  1.00  0.00    -0.237 OA
ATOM    104  O   UNL A   1      52.394  25.873  26.755  1.00  0.00    -0.237 OA
ATOM    105  O   UNL A   1      53.047  28.173  27.354  1.00  0.00    -0.744 OA
ENDBRANCH 101 102
ENDBRANCH  69  94
ENDBRANCH  43  44
ENDBRANCH  36  38
ENDBRANCH  35  36
ENDBRANCH  34  35
ENDBRANCH  33  34
ENDBRANCH  32  33
ENDBRANCH  31  32
ENDBRANCH   1  31
TORSDOF 24
ENDMDL
MODEL 2
REMARK VINA RESULT:     -11.2      1.513      2.690
REMARK SMILES Cc1ccc(Cl)c(Nc2ccccc2C(=O)N[C@@H](C)C(=O)OCCOCCOCCOC(=O)c2ccc(-c3c4nc(c(-c5c(F)cc(S(=O)(=O)[O-])cc5F)c5ccc([nH]5)c(-c5c(F)cc(S(=O)(=O)[O-])cc5F)c5nc(c(-c6c(F)cc(S(=O)(=O)[O-])cc6F)c6ccc3[nH]6)C=C5)C=C4)cc2)c1Cl
REMARK SMILES IDX 26 1 25 2 24 3 23 4 22 5 20 6 21 7 18 8 19 9 17 10 15 11
REMARK SMILES IDX 16 12 14 14 9 15 10 16 11 17 13 18 12 19 8 20 7 22 1 23 2 24
REMARK SMILES IDX 3 25 100 26 4 27 101 28 5 29 6 30 27 31 28 32 29 33 30 34
REMARK SMILES IDX 31 35 32 36 33 37 34 38 35 39 99 40 36 41 98 42 37 43 38 44
REMARK SMILES IDX 39 45 92 46 40 47 97 48 91 49 93 50 41 51 96 52 90 53 89 54
REMARK SMILES IDX 42 56 76 57 55 58 75 59 56 60 59 61 74 62 94 63 57 64 58 65
REMARK SMILES IDX 73 67 95 68 60 69 43 70 44 71 53 72 45 73 46 74 52 75 54 76
REMARK SMILES IDX 47 77 48 78 49 79 50 80 51 81 77 82 78 83 87 84 79 85 80 86
REMARK SMILES IDX 86 87 88 88 81 89 82 90 83 91 84 92 85 93 61 94 62 95 71 96
REMARK SMILES IDX 63 97 64 98 70 99 72 100 65 101 66 102 67 103 68 104 69 105
REMARK H PARENT 17 13 8 21 93 55 59 66
REMARK Flexibility Score: inf
ROOT
ATOM      1  C   UNL A   1      31.397  29.009  25.406  1.00  0.00     0.188 C 
ENDROOT
BRANCH   1   2
ATOM      2  O   UNL A   1      30.577  29.191  24.207  1.00  0.00    -0.376 OA
BRANCH   2   3
ATOM      3  C   UNL A   1      30.380  28.160  23.211  1.00  0.00     0.202 C 
BRANCH   3   4
ATOM      4  C   UNL A   1      31.656  27.612  22.257  1.00  0.00     0.261 C 
BRANCH   4   5
ATOM      5  O   UNL A   1      31.618  26.245  21.620  1.00  0.00    -0.462 OA
BRANCH   5   6
ATOM      6  C   UNL A   1      32.731  25.575  21.107  1.00  0.00     0.328 C 
ATOM      7  O   UNL A   1      33.011  25.645  19.910  1.00  0.00    -0.250 OA
BRANCH   6   8
ATOM      8  C   UNL A   1      33.812  24.841  22.207  1.00  0.00     0.189 C 
ATOM      9  C   UNL A   1      33.641  23.322  22.201  1.00  0.00     0.043 C 
BRANCH   8  10
ATOM     10  N   UNL A   1      34.125  25.214  23.625  1.00  0.00    -0.339 N 
ATOM     11  C   UNL A   1      33.505  25.198  24.882  1.00  0.00     0.254 C 
ATOM     12  O   UNL A   1      34.143  25.921  25.674  1.00  0.00    -0.269 OA
ATOM     13  H   UNL A   1      35.037  25.577  23.694  1.00  0.00     0.164 HD
BRANCH  11  14
ATOM     14  C   UNL A   1      32.290  24.453  25.510  1.00  0.00     0.063 A 
ATOM     15  C   UNL A   1      32.109  23.184  26.123  1.00  0.00     0.051 A 
ATOM     16  C   UNL A   1      30.876  22.862  26.789  1.00  0.00     0.027 A 
ATOM     17  C   UNL A   1      29.806  23.738  26.866  1.00  0.00     0.002 A 
ATOM     18  C   UNL A   1      31.116  25.283  25.551  1.00  0.00     0.016 A 
ATOM     19  C   UNL A   1      29.917  24.948  26.218  1.00  0.00     0.001 A 
BRANCH  15  20
ATOM     20  N   UNL A   1      33.111  22.242  26.437  1.00  0.00    -0.352 N 
ATOM     21  H   UNL A   1      33.226  21.971  27.376  1.00  0.00     0.167 HD
BRANCH  20  22
ATOM     22  C   UNL A   1      33.966  21.664  25.450  1.00  0.00     0.077 A 
ATOM     23  C   UNL A   1      33.352  18.232  25.116  1.00  0.00     0.046 C 
ATOM     24  C   UNL A   1      34.201  19.435  24.816  1.00  0.00    -0.030 A 
ATOM     25  C   UNL A   1      35.592  19.591  24.783  1.00  0.00     0.006 A 
ATOM     26  C   UNL A   1      33.503  20.597  24.704  1.00  0.00     0.069 A 
ATOM     27  C   UNL A   1      36.182  20.819  25.085  1.00  0.00     0.023 A 
ATOM     28  Cl  UNL A   1      32.061  20.607  23.776  1.00  0.00    -0.082 Cl
ATOM     29  C   UNL A   1      35.352  21.822  25.553  1.00  0.00     0.066 A 
ATOM     30  Cl  UNL A   1      36.032  23.181  26.358  1.00  0.00    -0.082 Cl
ENDBRANCH  20  22
ENDBRANCH  15  20
ENDBRANCH  11  14
ENDBRANCH   8  10
ENDBRANCH   6   8
ENDBRANCH   5   6
ENDBRANCH   4   5
ENDBRANCH   3   4
ENDBRANCH   2   3
ENDBRANCH   1   2
BRANCH   1  31
ATOM     31  C   UNL A   1      32.970  29.104  25.387  1.00  0.00     0.188 C 
BRANCH  31  32
ATOM     32  O   UNL A   1      33.609  29.924  26.356  1.00  0.00    -0.376 OA
BRANCH  32  33
ATOM     33  C   UNL A   1      32.750  30.881  26.948  1.00  0.00     0.202 C 
BRANCH  33  34
ATOM     34  C   UNL A   1      33.408  31.998  27.801  1.00  0.00     0.261 C 
BRANCH  34  35
ATOM     35  O   UNL A   1      34.858  32.003  27.876  1.00  0.00    -0.460 OA
BRANCH  35  36
ATOM     36  C   UNL A   1      35.400  31.799  29.112  1.00  0.00     0.338 C 
ATOM     37  O   UNL A   1      34.859  32.083  30.187  1.00  0.00    -0.246 OA
BRANCH  36  38
ATOM     38  C   UNL A   1      36.642  30.975  29.054  1.00  0.00     0.060 A 
ATOM     39  C   UNL A   1      37.308  30.680  30.257  1.00  0.00     0.016 A 
ATOM     40  C   UNL A   1      37.201  30.542  27.851  1.00  0.00     0.016 A 
ATOM     41  C   UNL A   1      38.502  29.947  30.264  1.00  0.00     0.010 A 
ATOM     42  C   UNL A   1      38.424  29.839  27.859  1.00  0.00     0.010 A 
ATOM     43  C   UNL A   1      39.087  29.537  29.066  1.00  0.00    -0.014 A 
BRANCH  43  44
ATOM     44  C   UNL A   1      40.499  29.059  29.070  1.00  0.00     0.031 A 
ATOM     45  C   UNL A   1      41.555  30.064  29.437  1.00  0.00     0.074 A 
ATOM     46  C   UNL A   1      40.862  27.779  28.856  1.00  0.00     0.049 A 
ATOM     47  N   UNL A   1      42.848  30.024  29.264  1.00  0.00    -0.248 NA
ATOM     48  C   UNL A   1      41.073  31.284  30.107  1.00  0.00     0.031 C 
ATOM     49  C   UNL A   1      39.950  26.647  28.711  1.00  0.00     0.029 A 
ATOM     50  N   UNL A   1      42.112  27.219  28.715  1.00  0.00    -0.354 N 
ATOM     51  C   UNL A   1      43.326  31.239  29.744  1.00  0.00     0.074 A 
ATOM     52  C   UNL A   1      42.191  31.979  30.244  1.00  0.00     0.031 C 
ATOM     53  C   UNL A   1      40.669  25.534  28.466  1.00  0.00     0.029 A 
ATOM     54  C   UNL A   1      42.084  25.890  28.352  1.00  0.00     0.049 A 
ATOM     55  H   UNL A   1      42.948  27.720  28.860  1.00  0.00     0.167 HD
ATOM     56  C   UNL A   1      44.598  31.700  29.739  1.00  0.00     0.037 A 
ATOM     57  C   UNL A   1      43.073  25.084  27.908  1.00  0.00     0.037 A 
ATOM     58  C   UNL A   1      45.714  30.934  29.256  1.00  0.00     0.049 A 
ATOM     59  C   UNL A   1      44.465  25.657  27.757  1.00  0.00     0.074 A 
ATOM     60  C   UNL A   1      47.039  31.313  29.148  1.00  0.00     0.029 A 
ATOM     61  N   UNL A   1      45.632  29.625  28.804  1.00  0.00    -0.354 N 
ATOM     62  N   UNL A   1      44.908  26.849  28.087  1.00  0.00    -0.248 NA
ATOM     63  C   UNL A   1      45.484  24.794  27.141  1.00  0.00     0.031 C 
ATOM     64  C   UNL A   1      47.747  30.250  28.577  1.00  0.00     0.029 A 
ATOM     65  C   UNL A   1      46.875  29.188  28.386  1.00  0.00     0.049 A 
ATOM     66  H   UNL A   1      44.808  29.085  28.783  1.00  0.00     0.167 HD
ATOM     67  C   UNL A   1      46.254  26.872  27.734  1.00  0.00     0.074 A 
ATOM     68  C   UNL A   1      46.560  25.568  27.182  1.00  0.00     0.031 C 
ATOM     69  C   UNL A   1      47.157  27.879  27.849  1.00  0.00     0.037 A 
BRANCH  56  70
ATOM     70  C   UNL A   1      44.818  33.122  30.171  1.00  0.00     0.058 A 
ATOM     71  C   UNL A   1      44.591  34.216  29.322  1.00  0.00     0.135 A 
ATOM     72  C   UNL A   1      45.284  33.389  31.470  1.00  0.00     0.135 A 
ATOM     73  F   UNL A   1      44.177  34.018  28.060  1.00  0.00    -0.206 F 
ATOM     74  C   UNL A   1      44.844  35.521  29.736  1.00  0.00     0.059 A 
ATOM     75  C   UNL A   1      45.513  34.686  31.915  1.00  0.00     0.059 A 
ATOM     76  F   UNL A   1      45.531  32.380  32.320  1.00  0.00    -0.206 F 
ATOM     77  C   UNL A   1      45.305  35.745  31.036  1.00  0.00     0.060 A 
BRANCH  77  78
ATOM     78  S   UNL A   1      45.628  37.443  31.558  1.00  0.00     0.124 S 
ATOM     79  O   UNL A   1      44.335  37.831  32.111  1.00  0.00    -0.237 OA
ATOM     80  O   UNL A   1      46.706  37.269  32.528  1.00  0.00    -0.237 OA
ATOM     81  O   UNL A   1      46.007  38.114  30.318  1.00  0.00    -0.744 OA
ENDBRANCH  77  78
ENDBRANCH  56  70
BRANCH  57  82
ATOM     82  C   UNL A   1      42.780  23.686  27.468  1.00  0.00     0.058 A 
ATOM     83  C   UNL A   1      42.702  22.626  28.385  1.00  0.00     0.135 A 
ATOM     84  C   UNL A   1      42.608  23.374  26.108  1.00  0.00     0.135 A 
ATOM     85  F   UNL A   1      42.889  22.857  29.694  1.00  0.00    -0.206 F 
ATOM     86  C   UNL A   1      42.466  21.315  27.974  1.00  0.00     0.059 A 
ATOM     87  C   UNL A   1      42.339  22.077  25.675  1.00  0.00     0.059 A 
ATOM     88  F   UNL A   1      42.686  24.340  25.180  1.00  0.00    -0.206 F 
ATOM     89  C   UNL A   1      42.278  21.052  26.616  1.00  0.00     0.060 A 
BRANCH  89  90
ATOM     90  S   UNL A   1      41.919  19.358  26.098  1.00  0.00     0.124 S 
ATOM     91  O   UNL A   1      40.483  19.422  25.852  1.00  0.00    -0.237 OA
ATOM     92  O   UNL A   1      42.764  19.215  24.917  1.00  0.00    -0.237 OA
ATOM     93  O   UNL A   1      42.326  18.561  27.252  1.00  0.00    -0.744 OA
ENDBRANCH  89  90
ENDBRANCH  57  82
BRANCH  69  94
ATOM     94  C   UNL A   1      48.566  27.613  27.399  1.00  0.00     0.058 A 
ATOM     95  C   UNL A   1      48.982  27.877  26.085  1.00  0.00     0.135 A 
ATOM     96  C   UNL A   1      49.535  27.176  28.318  1.00  0.00     0.135 A 
ATOM     97  F   UNL A   1      48.096  28.289  25.165  1.00  0.00    -0.206 F 
ATOM     98  C   UNL A   1      50.307  27.708  25.695  1.00  0.00     0.059 A 
ATOM     99  C   UNL A   1      50.870  27.031  27.959  1.00  0.00     0.059 A 
ATOM    100  F   UNL A   1      49.192  26.921  29.591  1.00  0.00    -0.206 F 
ATOM    101  C   UNL A   1      51.246  27.293  26.643  1.00  0.00     0.060 A 
BRANCH 101 102
ATOM    102  S   UNL A   1      52.972  27.140  26.137  1.00  0.00     0.124 S 
ATOM    103  O   UNL A   1      53.110  25.695  25.992  1.00  0.00    -0.237 OA
ATOM    104  O   UNL A   1      53.001  27.907  24.896  1.00  0.00    -0.237 OA
ATOM    105  O   UNL A   1      53.707  27.731  27.251  1.00  0.00    -0.744 OA
ENDBRANCH 101 102
ENDBRANCH  69  94
ENDBRANCH  43  44
ENDBRANCH  36  38
ENDBRANCH  35  36
ENDBRANCH  34  35
ENDBRANCH  33  34
ENDBRANCH  32  33
ENDBRANCH  31  32
ENDBRANCH   1  31
TORSDOF 24
ENDMDL
MODEL 3
REMARK VINA RESULT:     -11.1      2.219      3.531
REMARK SMILES Cc1ccc(Cl)c(Nc2ccccc2C(=O)N[C@@H](C)C(=O)OCCOCCOCCOC(=O)c2ccc(-c3c4nc(c(-c5c(F)cc(S(=O)(=O)[O-])cc5F)c5ccc([nH]5)c(-c5c(F)cc(S(=O)(=O)[O-])cc5F)c5nc(c(-c6c(F)cc(S(=O)(=O)[O-])cc6F)c6ccc3[nH]6)C=C5)C=C4)cc2)c1Cl
REMARK SMILES IDX 26 1 25 2 24 3 23 4 22 5 20 6 21 7 18 8 19 9 17 10 15 11
REMARK SMILES IDX 16 12 14 14 9 15 10 16 11 17 13 18 12 19 8 20 7 22 1 23 2 24
REMARK SMILES IDX 3 25 100 26 4 27 101 28 5 29 6 30 27 31 28 32 29 33 30 34
REMARK SMILES IDX 31 35 32 36 33 37 34 38 35 39 99 40 36 41 98 42 37 43 38 44
REMARK SMILES IDX 39 45 92 46 40 47 97 48 91 49 93 50 41 51 96 52 90 53 89 54
REMARK SMILES IDX 42 56 76 57 55 58 75 59 56 60 59 61 74 62 94 63 57 64 58 65
REMARK SMILES IDX 73 67 95 68 60 69 43 70 44 71 53 72 45 73 46 74 52 75 54 76
REMARK SMILES IDX 47 77 48 78 49 79 50 80 51 81 77 82 78 83 87 84 79 85 80 86
REMARK SMILES IDX 86 87 88 88 81 89 82 90 83 91 84 92 85 93 61 94 62 95 71 96
REMARK SMILES IDX 63 97 64 98 70 99 72 100 65 101 66 102 67 103 68 104 69 105
REMARK H PARENT 17 13 8 21 93 55 59 66
REMARK Flexibility Score: inf
ROOT
ATOM      1  C   UNL A   1      31.734  28.751  26.142  1.00  0.00     0.188 C 
ENDROOT
BRANCH   1   2
ATOM      2  O   UNL A   1      30.827  28.859  24.998  1.00  0.00    -0.376 OA
BRANCH   2   3
ATOM      3  C   UNL A   1      30.572  27.773  24.077  1.00  0.00     0.202 C 
BRANCH   3   4
ATOM      4  C   UNL A   1      31.521  27.551  22.703  1.00  0.00     0.261 C 
BRANCH   4   5
ATOM      5  O   UNL A   1      31.426  26.284  21.889  1.00  0.00    -0.462 OA
BRANCH   5   6
ATOM      6  C   UNL A   1      32.521  25.530  21.460  1.00  0.00     0.328 C 
ATOM      7  O   UNL A   1      33.276  25.958  20.587  1.00  0.00    -0.250 OA
BRANCH   6   8
ATOM      8  C   UNL A   1      32.912  24.107  22.321  1.00  0.00     0.189 C 
ATOM      9  C   UNL A   1      33.142  22.941  21.361  1.00  0.00     0.043 C 
BRANCH   8  10
ATOM     10  N   UNL A   1      32.255  23.519  23.533  1.00  0.00    -0.339 N 
ATOM     11  C   UNL A   1      32.044  22.260  24.113  1.00  0.00     0.254 C 
ATOM     12  O   UNL A   1      31.157  22.344  24.987  1.00  0.00    -0.269 OA
ATOM     13  H   UNL A   1      31.853  24.226  24.087  1.00  0.00     0.164 HD
BRANCH  11  14
ATOM     14  C   UNL A   1      32.692  20.851  23.971  1.00  0.00     0.063 A 
ATOM     15  C   UNL A   1      33.630  20.105  24.736  1.00  0.00     0.051 A 
ATOM     16  C   UNL A   1      33.885  18.723  24.435  1.00  0.00     0.027 A 
ATOM     17  C   UNL A   1      33.260  18.045  23.401  1.00  0.00     0.002 A 
ATOM     18  C   UNL A   1      32.142  20.117  22.863  1.00  0.00     0.016 A 
ATOM     19  C   UNL A   1      32.403  18.756  22.591  1.00  0.00     0.001 A 
BRANCH  15  20
ATOM     20  N   UNL A   1      34.174  20.456  25.990  1.00  0.00    -0.352 N 
ATOM     21  H   UNL A   1      33.824  20.013  26.796  1.00  0.00     0.167 HD
BRANCH  20  22
ATOM     22  C   UNL A   1      35.210  21.426  26.140  1.00  0.00     0.077 A 
ATOM     23  C   UNL A   1      33.953  24.671  25.743  1.00  0.00     0.046 C 
ATOM     24  C   UNL A   1      35.124  23.738  25.868  1.00  0.00    -0.030 A 
ATOM     25  C   UNL A   1      36.347  23.704  25.187  1.00  0.00     0.006 A 
ATOM     26  C   UNL A   1      34.898  22.663  26.671  1.00  0.00     0.069 A 
ATOM     27  C   UNL A   1      37.020  22.498  24.985  1.00  0.00     0.023 A 
ATOM     28  Cl  UNL A   1      34.136  22.911  28.187  1.00  0.00    -0.082 Cl
ATOM     29  C   UNL A   1      36.365  21.337  25.354  1.00  0.00     0.066 A 
ATOM     30  Cl  UNL A   1      36.907  19.823  24.744  1.00  0.00    -0.082 Cl
ENDBRANCH  20  22
ENDBRANCH  15  20
ENDBRANCH  11  14
ENDBRANCH   8  10
ENDBRANCH   6   8
ENDBRANCH   5   6
ENDBRANCH   4   5
ENDBRANCH   3   4
ENDBRANCH   2   3
ENDBRANCH   1   2
BRANCH   1  31
ATOM     31  C   UNL A   1      33.302  28.758  25.992  1.00  0.00     0.188 C 
BRANCH  31  32
ATOM     32  O   UNL A   1      34.055  29.648  26.805  1.00  0.00    -0.376 OA
BRANCH  32  33
ATOM     33  C   UNL A   1      33.323  30.780  27.240  1.00  0.00     0.202 C 
BRANCH  33  34
ATOM     34  C   UNL A   1      34.102  31.880  28.007  1.00  0.00     0.261 C 
BRANCH  34  35
ATOM     35  O   UNL A   1      35.551  31.773  28.025  1.00  0.00    -0.460 OA
BRANCH  35  36
ATOM     36  C   UNL A   1      36.113  31.369  29.201  1.00  0.00     0.338 C 
ATOM     37  O   UNL A   1      35.594  31.481  30.318  1.00  0.00    -0.246 OA
BRANCH  36  38
ATOM     38  C   UNL A   1      37.344  30.554  28.988  1.00  0.00     0.060 A 
ATOM     39  C   UNL A   1      38.211  30.351  30.077  1.00  0.00     0.016 A 
ATOM     40  C   UNL A   1      37.699  30.043  27.739  1.00  0.00     0.016 A 
ATOM     41  C   UNL A   1      39.403  29.631  29.929  1.00  0.00     0.010 A 
ATOM     42  C   UNL A   1      38.920  29.354  27.585  1.00  0.00     0.010 A 
ATOM     43  C   UNL A   1      39.785  29.144  28.679  1.00  0.00    -0.014 A 
BRANCH  43  44
ATOM     44  C   UNL A   1      41.186  28.681  28.474  1.00  0.00     0.031 A 
ATOM     45  C   UNL A   1      42.267  29.723  28.563  1.00  0.00     0.074 A 
ATOM     46  C   UNL A   1      41.537  27.390  28.307  1.00  0.00     0.049 A 
ATOM     47  N   UNL A   1      43.510  29.679  28.169  1.00  0.00    -0.248 NA
ATOM     48  C   UNL A   1      41.880  30.991  29.203  1.00  0.00     0.031 C 
ATOM     49  C   UNL A   1      40.641  26.241  28.419  1.00  0.00     0.029 A 
ATOM     50  N   UNL A   1      42.756  26.830  27.994  1.00  0.00    -0.354 N 
ATOM     51  C   UNL A   1      44.036  30.935  28.454  1.00  0.00     0.074 A 
ATOM     52  C   UNL A   1      42.988  31.706  29.082  1.00  0.00     0.031 C 
ATOM     53  C   UNL A   1      41.333  25.118  28.145  1.00  0.00     0.029 A 
ATOM     54  C   UNL A   1      42.697  25.475  27.755  1.00  0.00     0.049 A 
ATOM     55  H   UNL A   1      43.592  27.350  27.947  1.00  0.00     0.167 HD
ATOM     56  C   UNL A   1      45.275  31.406  28.186  1.00  0.00     0.037 A 
ATOM     57  C   UNL A   1      43.612  24.642  27.212  1.00  0.00     0.037 A 
ATOM     58  C   UNL A   1      46.308  30.610  27.580  1.00  0.00     0.049 A 
ATOM     59  C   UNL A   1      44.942  25.213  26.770  1.00  0.00     0.074 A 
ATOM     60  C   UNL A   1      47.584  30.990  27.209  1.00  0.00     0.029 A 
ATOM     61  N   UNL A   1      46.179  29.266  27.260  1.00  0.00    -0.354 N 
ATOM     62  N   UNL A   1      45.407  26.433  26.917  1.00  0.00    -0.248 NA
ATOM     63  C   UNL A   1      45.858  24.308  26.059  1.00  0.00     0.031 C 
ATOM     64  C   UNL A   1      48.206  29.888  26.612  1.00  0.00     0.029 A 
ATOM     65  C   UNL A   1      47.340  28.806  26.667  1.00  0.00     0.049 A 
ATOM     66  H   UNL A   1      45.377  28.720  27.430  1.00  0.00     0.167 HD
ATOM     67  C   UNL A   1      46.670  26.436  26.331  1.00  0.00     0.074 A 
ATOM     68  C   UNL A   1      46.906  25.093  25.844  1.00  0.00     0.031 C 
ATOM     69  C   UNL A   1      47.554  27.458  26.200  1.00  0.00     0.037 A 
BRANCH  56  70
ATOM     70  C   UNL A   1      45.534  32.861  28.452  1.00  0.00     0.058 A 
ATOM     71  C   UNL A   1      46.148  33.320  29.628  1.00  0.00     0.135 A 
ATOM     72  C   UNL A   1      45.141  33.821  27.504  1.00  0.00     0.135 A 
ATOM     73  F   UNL A   1      46.514  32.450  30.583  1.00  0.00    -0.206 F 
ATOM     74  C   UNL A   1      46.337  34.678  29.866  1.00  0.00     0.059 A 
ATOM     75  C   UNL A   1      45.349  35.181  27.706  1.00  0.00     0.059 A 
ATOM     76  F   UNL A   1      44.537  33.439  26.367  1.00  0.00    -0.206 F 
ATOM     77  C   UNL A   1      45.934  35.601  28.897  1.00  0.00     0.060 A 
BRANCH  77  78
ATOM     78  S   UNL A   1      46.186  37.360  29.220  1.00  0.00     0.124 S 
ATOM     79  O   UNL A   1      47.087  37.730  28.134  1.00  0.00    -0.237 OA
ATOM     80  O   UNL A   1      44.828  37.890  29.126  1.00  0.00    -0.237 OA
ATOM     81  O   UNL A   1      46.772  37.380  30.557  1.00  0.00    -0.744 OA
ENDBRANCH  77  78
ENDBRANCH  56  70
BRANCH  57  82
ATOM     82  C   UNL A   1      43.280  23.209  26.949  1.00  0.00     0.058 A 
ATOM     83  C   UNL A   1      43.267  22.255  27.978  1.00  0.00     0.135 A 
ATOM     84  C   UNL A   1      43.003  22.755  25.647  1.00  0.00     0.135 A 
ATOM     85  F   UNL A   1      43.554  22.622  29.236  1.00  0.00    -0.206 F 
ATOM     86  C   UNL A   1      42.995  20.910  27.730  1.00  0.00     0.059 A 
ATOM     87  C   UNL A   1      42.697  21.423  25.378  1.00  0.00     0.059 A 
ATOM     88  F   UNL A   1      43.015  23.615  24.617  1.00  0.00    -0.206 F 
ATOM     89  C   UNL A   1      42.703  20.506  26.426  1.00  0.00     0.060 A 
BRANCH  89  90
ATOM     90  S   UNL A   1      42.297  18.771  26.123  1.00  0.00     0.124 S 
ATOM     91  O   UNL A   1      43.222  18.434  25.046  1.00  0.00    -0.237 OA
ATOM     92  O   UNL A   1      42.576  18.161  27.419  1.00  0.00    -0.237 OA
ATOM     93  O   UNL A   1      40.886  18.816  25.750  1.00  0.00    -0.744 OA
ENDBRANCH  89  90
ENDBRANCH  57  82
BRANCH  69  94
ATOM     94  C   UNL A   1      48.870  27.166  25.532  1.00  0.00     0.058 A 
ATOM     95  C   UNL A   1      49.023  27.251  24.140  1.00  0.00     0.135 A 
ATOM     96  C   UNL A   1      50.011  26.890  26.303  1.00  0.00     0.135 A 
ATOM     97  F   UNL A   1      47.963  27.504  23.357  1.00  0.00    -0.206 F 
ATOM     98  C   UNL A   1      50.261  27.062  23.534  1.00  0.00     0.059 A 
ATOM     99  C   UNL A   1      51.264  26.729  25.721  1.00  0.00     0.059 A 
ATOM    100  F   UNL A   1      49.921  26.810  27.640  1.00  0.00    -0.206 F 
ATOM    101  C   UNL A   1      51.378  26.810  24.334  1.00  0.00     0.060 A 
BRANCH 101 102
ATOM    102  S   UNL A   1      52.988  26.630  23.537  1.00  0.00     0.124 S 
ATOM    103  O   UNL A   1      53.597  27.928  23.806  1.00  0.00    -0.237 OA
ATOM    104  O   UNL A   1      53.565  25.498  24.256  1.00  0.00    -0.237 OA
ATOM    105  O   UNL A   1      52.650  26.373  22.141  1.00  0.00    -0.744 OA
ENDBRANCH 101 102
ENDBRANCH  69  94
ENDBRANCH  43  44
ENDBRANCH  36  38
ENDBRANCH  35  36
ENDBRANCH  34  35
ENDBRANCH  33  34
ENDBRANCH  32  33
ENDBRANCH  31  32
ENDBRANCH   1  31
TORSDOF 24
ENDMDL
