MODEL 1
REMARK VINA RESULT:     -10.6      0.000      0.000
REMARK SMILES CCOc1cc2nccc(Nc3ccc(C(=O)OCCOCCOCCOC(=O)c4ccc(-c5c6nc(c(-c7c(F)cc(S(=O)(=O)[O-])cc7F)c7ccc([nH]7)c(-c7c(F)cc(S(=O)(=O)[O-])cc7F)c7nc(c(-c8c(F)cc(S(=O)(=O)[O-])cc8F)c8ccc5[nH]8)C=C7)C=C6)cc4)cc3)c2cc1OCC
REMARK SMILES IDX 22 1 21 2 20 3 19 4 18 5 16 6 17 7 15 8 12 9 13 10 97 11
REMARK SMILES IDX 14 12 96 13 11 14 10 16 4 17 5 18 100 19 6 20 99 21 7 22
REMARK SMILES IDX 98 23 8 24 9 25 3 26 2 27 1 28 101 29 102 30 103 31 23 32
REMARK SMILES IDX 24 33 25 34 26 35 27 36 28 37 29 38 30 39 31 40 95 41 32 42
REMARK SMILES IDX 94 43 33 44 34 45 35 46 88 47 36 48 93 49 87 50 89 51 37 52
REMARK SMILES IDX 92 53 86 54 85 55 38 57 72 58 51 59 71 60 52 61 55 62 70 63
REMARK SMILES IDX 90 64 53 65 54 66 69 68 91 69 56 70 39 71 40 72 49 73 41 74
REMARK SMILES IDX 42 75 48 76 50 77 43 78 44 79 45 80 46 81 47 82 73 83 74 84
REMARK SMILES IDX 83 85 75 86 76 87 82 88 84 89 77 90 78 91 79 92 80 93 81 94
REMARK SMILES IDX 57 95 58 96 67 97 59 98 60 99 66 100 68 101 61 102 62 103
REMARK SMILES IDX 63 104 64 105 65 106
REMARK H PARENT 11 15 89 56 55 67
REMARK Flexibility Score: inf
ROOT
ATOM      1  C   UNL A   1      32.964  29.542  27.229  1.00  0.00     0.188 C 
ENDROOT
BRANCH   1   2
ATOM      2  O   UNL A   1      31.799  29.301  26.454  1.00  0.00    -0.376 OA
BRANCH   2   3
ATOM      3  C   UNL A   1      31.514  30.091  25.310  1.00  0.00     0.202 C 
BRANCH   3   4
ATOM      4  C   UNL A   1      30.675  29.566  24.131  1.00  0.00     0.261 C 
BRANCH   4   5
ATOM      5  O   UNL A   1      31.277  28.535  23.340  1.00  0.00    -0.460 OA
BRANCH   5   6
ATOM      6  C   UNL A   1      30.834  27.283  23.608  1.00  0.00     0.338 C 
ATOM      7  O   UNL A   1      29.722  26.838  23.384  1.00  0.00    -0.246 OA
BRANCH   6   8
ATOM      8  C   UNL A   1      31.945  26.436  24.087  1.00  0.00     0.060 A 
ATOM      9  C   UNL A   1      34.142  25.085  25.161  1.00  0.00     0.038 A 
ATOM     10  C   UNL A   1      33.070  25.450  25.983  1.00  0.00     0.027 A 
ATOM     11  C   UNL A   1      34.053  25.309  23.781  1.00  0.00     0.027 A 
ATOM     12  C   UNL A   1      31.982  26.137  25.453  1.00  0.00     0.018 A 
ATOM     13  C   UNL A   1      32.952  25.975  23.236  1.00  0.00     0.018 A 
BRANCH   9  14
ATOM     14  N   UNL A   1      35.337  24.660  25.767  1.00  0.00    -0.355 N 
ATOM     15  H   UNL A   1      35.728  25.282  26.422  1.00  0.00     0.167 HD
BRANCH  14  16
ATOM     16  C   UNL A   1      36.057  23.451  25.560  1.00  0.00     0.050 A 
ATOM     17  C   UNL A   1      34.047  19.799  24.791  1.00  0.00     0.163 A 
ATOM     18  C   UNL A   1      35.444  19.857  24.865  1.00  0.00     0.079 A 
ATOM     19  C   UNL A   1      33.313  20.978  24.902  1.00  0.00     0.161 A 
ATOM     20  C   UNL A   1      36.122  21.058  25.085  1.00  0.00     0.076 A 
ATOM     21  C   UNL A   1      33.974  22.180  25.131  1.00  0.00     0.063 A 
ATOM     22  N   UNL A   1      37.464  21.045  25.169  1.00  0.00    -0.256 NA
ATOM     23  C   UNL A   1      35.373  22.246  25.250  1.00  0.00     0.028 A 
ATOM     24  C   UNL A   1      38.093  22.205  25.449  1.00  0.00     0.114 A 
ATOM     25  C   UNL A   1      37.447  23.410  25.647  1.00  0.00     0.047 A 
BRANCH  17  26
ATOM     26  O   UNL A   1      33.381  18.605  24.780  1.00  0.00    -0.490 OA
BRANCH  26  27
ATOM     27  C   UNL A   1      34.128  17.485  24.299  1.00  0.00     0.226 C 
ATOM     28  C   UNL A   1      33.222  16.262  24.397  1.00  0.00     0.049 C 
ENDBRANCH  26  27
ENDBRANCH  17  26
BRANCH  19  29
ATOM     29  O   UNL A   1      31.956  21.125  24.842  1.00  0.00    -0.490 OA
BRANCH  29  30
ATOM     30  C   UNL A   1      31.427  22.426  25.079  1.00  0.00     0.226 C 
ATOM     31  C   UNL A   1      30.658  22.554  26.389  1.00  0.00     0.049 C 
ENDBRANCH  29  30
ENDBRANCH  19  29
ENDBRANCH  14  16
ENDBRANCH   9  14
ENDBRANCH   6   8
ENDBRANCH   5   6
ENDBRANCH   4   5
ENDBRANCH   3   4
ENDBRANCH   2   3
ENDBRANCH   1   2
BRANCH   1  32
ATOM     32  C   UNL A   1      33.555  30.966  27.303  1.00  0.00     0.188 C 
BRANCH  32  33
ATOM     33  O   UNL A   1      34.839  31.032  27.877  1.00  0.00    -0.376 OA
BRANCH  33  34
ATOM     34  C   UNL A   1      35.155  32.095  28.759  1.00  0.00     0.202 C 
BRANCH  34  35
ATOM     35  C   UNL A   1      35.080  32.030  30.302  1.00  0.00     0.261 C 
BRANCH  35  36
ATOM     36  O   UNL A   1      36.256  31.678  31.036  1.00  0.00    -0.460 OA
BRANCH  36  37
ATOM     37  C   UNL A   1      36.656  30.388  30.934  1.00  0.00     0.338 C 
ATOM     38  O   UNL A   1      35.965  29.396  31.065  1.00  0.00    -0.246 OA
BRANCH  37  39
ATOM     39  C   UNL A   1      38.049  30.362  30.443  1.00  0.00     0.060 A 
ATOM     40  C   UNL A   1      38.262  30.303  29.061  1.00  0.00     0.016 A 
ATOM     41  C   UNL A   1      39.126  30.332  31.331  1.00  0.00     0.016 A 
ATOM     42  C   UNL A   1      39.554  30.147  28.563  1.00  0.00     0.010 A 
ATOM     43  C   UNL A   1      40.421  30.161  30.829  1.00  0.00     0.010 A 
ATOM     44  C   UNL A   1      40.633  30.014  29.446  1.00  0.00    -0.014 A 
BRANCH  44  45
ATOM     45  C   UNL A   1      41.920  29.489  28.926  1.00  0.00     0.031 A 
ATOM     46  C   UNL A   1      43.089  30.434  28.822  1.00  0.00     0.074 A 
ATOM     47  C   UNL A   1      42.075  28.190  28.614  1.00  0.00     0.049 A 
ATOM     48  N   UNL A   1      44.316  30.203  28.433  1.00  0.00    -0.248 NA
ATOM     49  C   UNL A   1      42.833  31.831  29.208  1.00  0.00     0.031 C 
ATOM     50  C   UNL A   1      41.029  27.173  28.695  1.00  0.00     0.029 A 
ATOM     51  N   UNL A   1      43.178  27.509  28.164  1.00  0.00    -0.354 N 
ATOM     52  C   UNL A   1      44.977  31.423  28.525  1.00  0.00     0.074 A 
ATOM     53  C   UNL A   1      44.002  32.399  28.959  1.00  0.00     0.031 C 
ATOM     54  C   UNL A   1      41.538  25.996  28.291  1.00  0.00     0.029 A 
ATOM     55  C   UNL A   1      42.936  26.182  27.904  1.00  0.00     0.049 A 
ATOM     56  H   UNL A   1      44.058  27.932  28.039  1.00  0.00     0.167 HD
ATOM     57  C   UNL A   1      46.282  31.704  28.289  1.00  0.00     0.037 A 
ATOM     58  C   UNL A   1      43.747  25.231  27.398  1.00  0.00     0.037 A 
ATOM     59  C   UNL A   1      47.244  30.731  27.841  1.00  0.00     0.049 A 
ATOM     60  C   UNL A   1      45.184  25.568  27.095  1.00  0.00     0.074 A 
ATOM     61  C   UNL A   1      48.590  30.909  27.576  1.00  0.00     0.029 A 
ATOM     62  N   UNL A   1      46.959  29.397  27.579  1.00  0.00    -0.354 N 
ATOM     63  N   UNL A   1      45.807  26.718  27.214  1.00  0.00    -0.248 NA
ATOM     64  C   UNL A   1      46.035  24.473  26.609  1.00  0.00     0.031 C 
ATOM     65  C   UNL A   1      49.106  29.698  27.100  1.00  0.00     0.029 A 
ATOM     66  C   UNL A   1      48.099  28.746  27.135  1.00  0.00     0.049 A 
ATOM     67  H   UNL A   1      46.076  28.976  27.692  1.00  0.00     0.167 HD
ATOM     68  C   UNL A   1      47.128  26.479  26.845  1.00  0.00     0.074 A 
ATOM     69  C   UNL A   1      47.214  25.072  26.509  1.00  0.00     0.031 C 
ATOM     70  C   UNL A   1      48.174  27.344  26.797  1.00  0.00     0.037 A 
BRANCH  57  71
ATOM     71  C   UNL A   1      46.719  33.134  28.475  1.00  0.00     0.058 A 
ATOM     72  C   UNL A   1      47.078  33.643  29.736  1.00  0.00     0.135 A 
ATOM     73  C   UNL A   1      46.752  34.016  27.384  1.00  0.00     0.135 A 
ATOM     74  F   UNL A   1      47.049  32.850  30.820  1.00  0.00    -0.206 F 
ATOM     75  C   UNL A   1      47.398  34.985  29.915  1.00  0.00     0.059 A 
ATOM     76  C   UNL A   1      47.103  35.355  27.535  1.00  0.00     0.059 A 
ATOM     77  F   UNL A   1      46.422  33.587  26.155  1.00  0.00    -0.206 F 
ATOM     78  C   UNL A   1      47.399  35.835  28.809  1.00  0.00     0.060 A 
BRANCH  78  79
ATOM     79  S   UNL A   1      47.772  37.584  29.064  1.00  0.00     0.124 S 
ATOM     80  O   UNL A   1      49.016  37.727  28.314  1.00  0.00    -0.237 OA
ATOM     81  O   UNL A   1      46.603  38.240  28.485  1.00  0.00    -0.237 OA
ATOM     82  O   UNL A   1      47.897  37.698  30.513  1.00  0.00    -0.744 OA
ENDBRANCH  78  79
ENDBRANCH  57  71
BRANCH  58  83
ATOM     83  C   UNL A   1      43.204  23.869  27.148  1.00  0.00     0.058 A 
ATOM     84  C   UNL A   1      42.867  23.439  25.857  1.00  0.00     0.135 A 
ATOM     85  C   UNL A   1      43.056  22.953  28.202  1.00  0.00     0.135 A 
ATOM     86  F   UNL A   1      42.978  24.281  24.819  1.00  0.00    -0.206 F 
ATOM     87  C   UNL A   1      42.407  22.148  25.617  1.00  0.00     0.059 A 
ATOM     88  C   UNL A   1      42.623  21.650  27.984  1.00  0.00     0.059 A 
ATOM     89  F   UNL A   1      43.371  23.315  29.456  1.00  0.00    -0.206 F 
ATOM     90  C   UNL A   1      42.300  21.256  26.687  1.00  0.00     0.060 A 
BRANCH  90  91
ATOM     91  S   UNL A   1      41.793  19.555  26.350  1.00  0.00     0.124 S 
ATOM     92  O   UNL A   1      42.539  19.260  25.132  1.00  0.00    -0.237 OA
ATOM     93  O   UNL A   1      42.238  18.862  27.555  1.00  0.00    -0.237 OA
ATOM     94  O   UNL A   1      40.345  19.660  26.194  1.00  0.00    -0.744 OA
ENDBRANCH  90  91
ENDBRANCH  58  83
BRANCH  70  95
ATOM     95  C   UNL A   1      49.519  26.786  26.410  1.00  0.00     0.058 A 
ATOM     96  C   UNL A   1      50.335  26.096  27.323  1.00  0.00     0.135 A 
ATOM     97  C   UNL A   1      49.987  26.921  25.092  1.00  0.00     0.135 A 
ATOM     98  F   UNL A   1      49.939  25.936  28.595  1.00  0.00    -0.206 F 
ATOM     99  C   UNL A   1      51.581  25.598  26.952  1.00  0.00     0.059 A 
ATOM    100  C   UNL A   1      51.215  26.401  24.692  1.00  0.00     0.059 A 
ATOM    101  F   UNL A   1      49.244  27.556  24.172  1.00  0.00    -0.206 F 
ATOM    102  C   UNL A   1      52.014  25.759  25.635  1.00  0.00     0.060 A 
BRANCH 102 103
ATOM    103  S   UNL A   1      53.634  25.111  25.168  1.00  0.00     0.124 S 
ATOM    104  O   UNL A   1      53.423  23.673  25.297  1.00  0.00    -0.237 OA
ATOM    105  O   UNL A   1      53.788  25.608  23.805  1.00  0.00    -0.237 OA
ATOM    106  O   UNL A   1      54.535  25.704  26.151  1.00  0.00    -0.744 OA
ENDBRANCH 102 103
ENDBRANCH  70  95
ENDBRANCH  44  45
ENDBRANCH  37  39
ENDBRANCH  36  37
ENDBRANCH  35  36
ENDBRANCH  34  35
ENDBRANCH  33  34
ENDBRANCH  32  33
ENDBRANCH   1  32
TORSDOF 26
ENDMDL
MODEL 2
REMARK VINA RESULT:     -10.6      1.293      2.422
REMARK SMILES CCOc1cc2nccc(Nc3ccc(C(=O)OCCOCCOCCOC(=O)c4ccc(-c5c6nc(c(-c7c(F)cc(S(=O)(=O)[O-])cc7F)c7ccc([nH]7)c(-c7c(F)cc(S(=O)(=O)[O-])cc7F)c7nc(c(-c8c(F)cc(S(=O)(=O)[O-])cc8F)c8ccc5[nH]8)C=C7)C=C6)cc4)cc3)c2cc1OCC
REMARK SMILES IDX 22 1 21 2 20 3 19 4 18 5 16 6 17 7 15 8 12 9 13 10 97 11
REMARK SMILES IDX 14 12 96 13 11 14 10 16 4 17 5 18 100 19 6 20 99 21 7 22
REMARK SMILES IDX 98 23 8 24 9 25 3 26 2 27 1 28 101 29 102 30 103 31 23 32
REMARK SMILES IDX 24 33 25 34 26 35 27 36 28 37 29 38 30 39 31 40 95 41 32 42
REMARK SMILES IDX 94 43 33 44 34 45 35 46 88 47 36 48 93 49 87 50 89 51 37 52
REMARK SMILES IDX 92 53 86 54 85 55 38 57 72 58 51 59 71 60 52 61 55 62 70 63
REMARK SMILES IDX 90 64 53 65 54 66 69 68 91 69 56 70 39 71 40 72 49 73 41 74
REMARK SMILES IDX 42 75 48 76 50 77 43 78 44 79 45 80 46 81 47 82 73 83 74 84
REMARK SMILES IDX 83 85 75 86 76 87 82 88 84 89 77 90 78 91 79 92 80 93 81 94
REMARK SMILES IDX 57 95 58 96 67 97 59 98 60 99 66 100 68 101 61 102 62 103
REMARK SMILES IDX 63 104 64 105 65 106
REMARK H PARENT 11 15 89 56 55 67
REMARK Flexibility Score: inf
ROOT
ATOM      1  C   UNL A   1      33.363  30.536  27.329  1.00  0.00     0.188 C 
ENDROOT
BRANCH   1   2
ATOM      2  O   UNL A   1      32.138  30.433  26.616  1.00  0.00    -0.376 OA
BRANCH   2   3
ATOM      3  C   UNL A   1      32.114  29.926  25.290  1.00  0.00     0.202 C 
BRANCH   3   4
ATOM      4  C   UNL A   1      30.945  29.082  24.751  1.00  0.00     0.261 C 
BRANCH   4   5
ATOM      5  O   UNL A   1      31.266  27.744  24.355  1.00  0.00    -0.460 OA
BRANCH   5   6
ATOM      6  C   UNL A   1      30.214  27.018  23.905  1.00  0.00     0.338 C 
ATOM      7  O   UNL A   1      29.335  27.394  23.149  1.00  0.00    -0.246 OA
BRANCH   6   8
ATOM      8  C   UNL A   1      30.339  25.611  24.338  1.00  0.00     0.060 A 
ATOM      9  C   UNL A   1      30.840  23.037  25.302  1.00  0.00     0.038 A 
ATOM     10  C   UNL A   1      30.494  24.064  26.187  1.00  0.00     0.027 A 
ATOM     11  C   UNL A   1      30.827  23.287  23.924  1.00  0.00     0.027 A 
ATOM     12  C   UNL A   1      30.259  25.351  25.710  1.00  0.00     0.018 A 
ATOM     13  C   UNL A   1      30.567  24.570  23.434  1.00  0.00     0.018 A 
BRANCH   9  14
ATOM     14  N   UNL A   1      31.349  21.839  25.832  1.00  0.00    -0.355 N 
ATOM     15  H   UNL A   1      30.826  21.442  26.567  1.00  0.00     0.167 HD
BRANCH  14  16
ATOM     16  C   UNL A   1      32.518  21.123  25.451  1.00  0.00     0.050 A 
ATOM     17  C   UNL A   1      36.292  23.039  25.234  1.00  0.00     0.163 A 
ATOM     18  C   UNL A   1      36.148  21.682  24.920  1.00  0.00     0.079 A 
ATOM     19  C   UNL A   1      35.186  23.750  25.694  1.00  0.00     0.161 A 
ATOM     20  C   UNL A   1      34.917  21.029  25.017  1.00  0.00     0.076 A 
ATOM     21  C   UNL A   1      33.952  23.114  25.789  1.00  0.00     0.063 A 
ATOM     22  N   UNL A   1      34.838  19.730  24.679  1.00  0.00    -0.256 NA
ATOM     23  C   UNL A   1      33.783  21.765  25.435  1.00  0.00     0.028 A 
ATOM     24  C   UNL A   1      33.626  19.138  24.718  1.00  0.00     0.114 A 
ATOM     25  C   UNL A   1      32.461  19.779  25.091  1.00  0.00     0.047 A 
BRANCH  17  26
ATOM     26  O   UNL A   1      37.441  23.721  24.945  1.00  0.00    -0.490 OA
BRANCH  26  27
ATOM     27  C   UNL A   1      38.293  23.998  26.059  1.00  0.00     0.226 C 
ATOM     28  C   UNL A   1      38.947  22.681  26.466  1.00  0.00     0.049 C 
ENDBRANCH  26  27
ENDBRANCH  17  26
BRANCH  19  29
ATOM     29  O   UNL A   1      35.133  25.065  26.062  1.00  0.00    -0.490 OA
BRANCH  29  30
ATOM     30  C   UNL A   1      34.203  25.898  25.377  1.00  0.00     0.226 C 
ATOM     31  C   UNL A   1      33.727  27.095  26.192  1.00  0.00     0.049 C 
ENDBRANCH  29  30
ENDBRANCH  19  29
ENDBRANCH  14  16
ENDBRANCH   9  14
ENDBRANCH   6   8
ENDBRANCH   5   6
ENDBRANCH   4   5
ENDBRANCH   3   4
ENDBRANCH   2   3
ENDBRANCH   1   2
BRANCH   1  32
ATOM     32  C   UNL A   1      33.935  31.927  27.674  1.00  0.00     0.188 C 
BRANCH  32  33
ATOM     33  O   UNL A   1      34.972  31.907  28.627  1.00  0.00    -0.376 OA
BRANCH  33  34
ATOM     34  C   UNL A   1      34.850  32.681  29.807  1.00  0.00     0.202 C 
BRANCH  34  35
ATOM     35  C   UNL A   1      35.005  32.145  31.249  1.00  0.00     0.261 C 
BRANCH  35  36
ATOM     36  O   UNL A   1      36.164  31.377  31.579  1.00  0.00    -0.460 OA
BRANCH  36  37
ATOM     37  C   UNL A   1      37.348  32.033  31.519  1.00  0.00     0.338 C 
ATOM     38  O   UNL A   1      37.615  33.105  32.027  1.00  0.00    -0.246 OA
BRANCH  37  39
ATOM     39  C   UNL A   1      38.350  31.148  30.891  1.00  0.00     0.060 A 
ATOM     40  C   UNL A   1      39.285  30.515  31.718  1.00  0.00     0.016 A 
ATOM     41  C   UNL A   1      38.405  30.992  29.504  1.00  0.00     0.016 A 
ATOM     42  C   UNL A   1      40.323  29.776  31.155  1.00  0.00     0.010 A 
ATOM     43  C   UNL A   1      39.457  30.261  28.940  1.00  0.00     0.010 A 
ATOM     44  C   UNL A   1      40.449  29.695  29.762  1.00  0.00    -0.014 A 
BRANCH  44  45
ATOM     45  C   UNL A   1      41.737  29.230  29.188  1.00  0.00     0.031 A 
ATOM     46  C   UNL A   1      42.873  30.214  29.088  1.00  0.00     0.074 A 
ATOM     47  C   UNL A   1      41.921  27.949  28.823  1.00  0.00     0.049 A 
ATOM     48  N   UNL A   1      44.095  30.035  28.658  1.00  0.00    -0.248 NA
ATOM     49  C   UNL A   1      42.587  31.587  29.533  1.00  0.00     0.031 C 
ATOM     50  C   UNL A   1      40.908  26.898  28.893  1.00  0.00     0.029 A 
ATOM     51  N   UNL A   1      43.030  27.319  28.318  1.00  0.00    -0.354 N 
ATOM     52  C   UNL A   1      44.722  31.270  28.778  1.00  0.00     0.074 A 
ATOM     53  C   UNL A   1      43.731  32.200  29.275  1.00  0.00     0.031 C 
ATOM     54  C   UNL A   1      41.440  25.753  28.431  1.00  0.00     0.029 A 
ATOM     55  C   UNL A   1      42.822  25.996  28.014  1.00  0.00     0.049 A 
ATOM     56  H   UNL A   1      43.894  27.774  28.185  1.00  0.00     0.167 HD
ATOM     57  C   UNL A   1      46.011  31.601  28.517  1.00  0.00     0.037 A 
ATOM     58  C   UNL A   1      43.645  25.090  27.450  1.00  0.00     0.037 A 
ATOM     59  C   UNL A   1      46.989  30.675  28.007  1.00  0.00     0.049 A 
ATOM     60  C   UNL A   1      45.063  25.482  27.121  1.00  0.00     0.074 A 
ATOM     61  C   UNL A   1      48.321  30.904  27.712  1.00  0.00     0.029 A 
ATOM     62  N   UNL A   1      46.736  29.344  27.702  1.00  0.00    -0.354 N 
ATOM     63  N   UNL A   1      45.654  26.646  27.267  1.00  0.00    -0.248 NA
ATOM     64  C   UNL A   1      45.932  24.433  26.571  1.00  0.00     0.031 C 
ATOM     65  C   UNL A   1      48.859  29.728  27.177  1.00  0.00     0.029 A 
ATOM     66  C   UNL A   1      47.882  28.745  27.203  1.00  0.00     0.049 A 
ATOM     67  H   UNL A   1      45.870  28.892  27.823  1.00  0.00     0.167 HD
ATOM     68  C   UNL A   1      46.971  26.461  26.854  1.00  0.00     0.074 A 
ATOM     69  C   UNL A   1      47.089  25.071  26.463  1.00  0.00     0.031 C 
ATOM     70  C   UNL A   1      47.989  27.359  26.811  1.00  0.00     0.037 A 
BRANCH  57  71
ATOM     71  C   UNL A   1      46.410  33.035  28.746  1.00  0.00     0.058 A 
ATOM     72  C   UNL A   1      46.899  33.482  29.986  1.00  0.00     0.135 A 
ATOM     73  C   UNL A   1      46.276  33.984  27.720  1.00  0.00     0.135 A 
ATOM     74  F   UNL A   1      47.034  32.623  31.010  1.00  0.00    -0.206 F 
ATOM     75  C   UNL A   1      47.185  34.824  30.216  1.00  0.00     0.059 A 
ATOM     76  C   UNL A   1      46.589  35.326  27.918  1.00  0.00     0.059 A 
ATOM     77  F   UNL A   1      45.816  33.616  26.513  1.00  0.00    -0.206 F 
ATOM     78  C   UNL A   1      47.018  35.740  29.177  1.00  0.00     0.060 A 
BRANCH  78  79
ATOM     79  S   UNL A   1      47.349  37.485  29.502  1.00  0.00     0.124 S 
ATOM     80  O   UNL A   1      48.742  37.599  29.078  1.00  0.00    -0.237 OA
ATOM     81  O   UNL A   1      46.370  38.153  28.650  1.00  0.00    -0.237 OA
ATOM     82  O   UNL A   1      47.118  37.614  30.937  1.00  0.00    -0.744 OA
ENDBRANCH  78  79
ENDBRANCH  57  71
BRANCH  58  83
ATOM     83  C   UNL A   1      43.136  23.722  27.164  1.00  0.00     0.058 A 
ATOM     84  C   UNL A   1      42.694  23.357  25.885  1.00  0.00     0.135 A 
ATOM     85  C   UNL A   1      43.128  22.738  28.165  1.00  0.00     0.135 A 
ATOM     86  F   UNL A   1      42.670  24.265  24.898  1.00  0.00    -0.206 F 
ATOM     87  C   UNL A   1      42.266  22.063  25.605  1.00  0.00     0.059 A 
ATOM     88  C   UNL A   1      42.729  21.431  27.903  1.00  0.00     0.059 A 
ATOM     89  F   UNL A   1      43.548  23.036  29.404  1.00  0.00    -0.206 F 
ATOM     90  C   UNL A   1      42.298  21.103  26.619  1.00  0.00     0.060 A 
BRANCH  90  91
ATOM     91  S   UNL A   1      41.830  19.405  26.221  1.00  0.00     0.124 S 
ATOM     92  O   UNL A   1      42.677  19.128  25.066  1.00  0.00    -0.237 OA
ATOM     93  O   UNL A   1      42.176  18.699  27.451  1.00  0.00    -0.237 OA
ATOM     94  O   UNL A   1      40.400  19.505  25.945  1.00  0.00    -0.744 OA
ENDBRANCH  90  91
ENDBRANCH  58  83
BRANCH  70  95
ATOM     95  C   UNL A   1      49.339  26.857  26.366  1.00  0.00     0.058 A 
ATOM     96  C   UNL A   1      49.759  26.922  25.027  1.00  0.00     0.135 A 
ATOM     97  C   UNL A   1      50.240  26.329  27.306  1.00  0.00     0.135 A 
ATOM     98  F   UNL A   1      48.940  27.418  24.086  1.00  0.00    -0.206 F 
ATOM     99  C   UNL A   1      51.004  26.443  24.631  1.00  0.00     0.059 A 
ATOM    100  C   UNL A   1      51.503  25.874  26.937  1.00  0.00     0.059 A 
ATOM    101  F   UNL A   1      49.901  26.257  28.604  1.00  0.00    -0.206 F 
ATOM    102  C   UNL A   1      51.868  25.917  25.593  1.00  0.00     0.060 A 
BRANCH 102 103
ATOM    103  S   UNL A   1      53.480  25.295  25.067  1.00  0.00     0.124 S 
ATOM    104  O   UNL A   1      53.374  23.880  25.405  1.00  0.00    -0.237 OA
ATOM    105  O   UNL A   1      53.485  25.608  23.642  1.00  0.00    -0.237 OA
ATOM    106  O   UNL A   1      54.422  26.065  25.875  1.00  0.00    -0.744 OA
ENDBRANCH 102 103
ENDBRANCH  70  95
ENDBRANCH  44  45
ENDBRANCH  37  39
ENDBRANCH  36  37
ENDBRANCH  35  36
ENDBRANCH  34  35
ENDBRANCH  33  34
ENDBRANCH  32  33
ENDBRANCH   1  32
TORSDOF 26
ENDMDL
MODEL 3
REMARK VINA RESULT:     -10.2      1.391      8.141
REMARK SMILES CCOc1cc2nccc(Nc3ccc(C(=O)OCCOCCOCCOC(=O)c4ccc(-c5c6nc(c(-c7c(F)cc(S(=O)(=O)[O-])cc7F)c7ccc([nH]7)c(-c7c(F)cc(S(=O)(=O)[O-])cc7F)c7nc(c(-c8c(F)cc(S(=O)(=O)[O-])cc8F)c8ccc5[nH]8)C=C7)C=C6)cc4)cc3)c2cc1OCC
REMARK SMILES IDX 22 1 21 2 20 3 19 4 18 5 16 6 17 7 15 8 12 9 13 10 97 11
REMARK SMILES IDX 14 12 96 13 11 14 10 16 4 17 5 18 100 19 6 20 99 21 7 22
REMARK SMILES IDX 98 23 8 24 9 25 3 26 2 27 1 28 101 29 102 30 103 31 23 32
REMARK SMILES IDX 24 33 25 34 26 35 27 36 28 37 29 38 30 39 31 40 95 41 32 42
REMARK SMILES IDX 94 43 33 44 34 45 35 46 88 47 36 48 93 49 87 50 89 51 37 52
REMARK SMILES IDX 92 53 86 54 85 55 38 57 72 58 51 59 71 60 52 61 55 62 70 63
REMARK SMILES IDX 90 64 53 65 54 66 69 68 91 69 56 70 39 71 40 72 49 73 41 74
REMARK SMILES IDX 42 75 48 76 50 77 43 78 44 79 45 80 46 81 47 82 73 83 74 84
REMARK SMILES IDX 83 85 75 86 76 87 82 88 84 89 77 90 78 91 79 92 80 93 81 94
REMARK SMILES IDX 57 95 58 96 67 97 59 98 60 99 66 100 68 101 61 102 62 103
REMARK SMILES IDX 63 104 64 105 65 106
REMARK H PARENT 11 15 89 56 55 67
REMARK Flexibility Score: inf
ROOT
ATOM      1  C   UNL A   1      33.263  30.436  27.505  1.00  0.00     0.188 C 
ENDROOT
BRANCH   1   2
ATOM      2  O   UNL A   1      32.169  30.251  26.617  1.00  0.00    -0.376 OA
BRANCH   2   3
ATOM      3  C   UNL A   1      32.389  29.869  25.267  1.00  0.00     0.202 C 
BRANCH   3   4
ATOM      4  C   UNL A   1      31.352  29.072  24.455  1.00  0.00     0.261 C 
BRANCH   4   5
ATOM      5  O   UNL A   1      31.860  27.966  23.700  1.00  0.00    -0.460 OA
BRANCH   5   6
ATOM      6  C   UNL A   1      30.920  27.265  23.020  1.00  0.00     0.338 C 
ATOM      7  O   UNL A   1      30.280  27.645  22.056  1.00  0.00    -0.246 OA
BRANCH   6   8
ATOM      8  C   UNL A   1      30.864  25.873  23.511  1.00  0.00     0.060 A 
ATOM      9  C   UNL A   1      30.976  23.324  24.649  1.00  0.00     0.038 A 
ATOM     10  C   UNL A   1      30.443  24.395  25.374  1.00  0.00     0.027 A 
ATOM     11  C   UNL A   1      31.353  23.521  23.314  1.00  0.00     0.027 A 
ATOM     12  C   UNL A   1      30.401  25.669  24.814  1.00  0.00     0.018 A 
ATOM     13  C   UNL A   1      31.289  24.792  22.735  1.00  0.00     0.018 A 
BRANCH   9  14
ATOM     14  N   UNL A   1      31.271  22.132  25.333  1.00  0.00    -0.355 N 
ATOM     15  H   UNL A   1      30.633  21.877  26.039  1.00  0.00     0.167 HD
BRANCH  14  16
ATOM     16  C   UNL A   1      32.366  21.245  25.143  1.00  0.00     0.050 A 
ATOM     17  C   UNL A   1      36.367  22.642  25.242  1.00  0.00     0.163 A 
ATOM     18  C   UNL A   1      36.075  21.292  25.007  1.00  0.00     0.079 A 
ATOM     19  C   UNL A   1      35.324  23.523  25.519  1.00  0.00     0.161 A 
ATOM     20  C   UNL A   1      34.764  20.811  25.003  1.00  0.00     0.076 A 
ATOM     21  C   UNL A   1      34.012  23.059  25.510  1.00  0.00     0.063 A 
ATOM     22  N   UNL A   1      34.546  19.509  24.747  1.00  0.00    -0.256 NA
ATOM     23  C   UNL A   1      33.702  21.717  25.232  1.00  0.00     0.028 A 
ATOM     24  C   UNL A   1      33.268  19.081  24.683  1.00  0.00     0.114 A 
ATOM     25  C   UNL A   1      32.167  19.893  24.871  1.00  0.00     0.047 A 
BRANCH  17  26
ATOM     26  O   UNL A   1      37.622  23.146  25.045  1.00  0.00    -0.490 OA
BRANCH  26  27
ATOM     27  C   UNL A   1      38.579  22.837  26.061  1.00  0.00     0.226 C 
ATOM     28  C   UNL A   1      38.856  24.126  26.828  1.00  0.00     0.049 C 
ENDBRANCH  26  27
ENDBRANCH  17  26
BRANCH  19  29
ATOM     29  O   UNL A   1      35.410  24.860  25.786  1.00  0.00    -0.490 OA
BRANCH  29  30
ATOM     30  C   UNL A   1      34.461  25.715  25.157  1.00  0.00     0.226 C 
ATOM     31  C   UNL A   1      33.667  26.581  26.129  1.00  0.00     0.049 C 
ENDBRANCH  29  30
ENDBRANCH  19  29
ENDBRANCH  14  16
ENDBRANCH   9  14
ENDBRANCH   6   8
ENDBRANCH   5   6
ENDBRANCH   4   5
ENDBRANCH   3   4
ENDBRANCH   2   3
ENDBRANCH   1   2
BRANCH   1  32
ATOM     32  C   UNL A   1      33.924  31.825  27.627  1.00  0.00     0.188 C 
BRANCH  32  33
ATOM     33  O   UNL A   1      35.048  31.859  28.475  1.00  0.00    -0.376 OA
BRANCH  33  34
ATOM     34  C   UNL A   1      35.104  32.812  29.522  1.00  0.00     0.202 C 
BRANCH  34  35
ATOM     35  C   UNL A   1      35.570  32.525  30.968  1.00  0.00     0.261 C 
BRANCH  35  36
ATOM     36  O   UNL A   1      36.272  31.310  31.239  1.00  0.00    -0.460 OA
BRANCH  36  37
ATOM     37  C   UNL A   1      37.422  31.433  31.943  1.00  0.00     0.338 C 
ATOM     38  O   UNL A   1      37.552  31.911  33.054  1.00  0.00    -0.246 OA
BRANCH  37  39
ATOM     39  C   UNL A   1      38.496  30.714  31.227  1.00  0.00     0.060 A 
ATOM     40  C   UNL A   1      39.442  30.012  31.984  1.00  0.00     0.016 A 
ATOM     41  C   UNL A   1      38.605  30.781  29.836  1.00  0.00     0.016 A 
ATOM     42  C   UNL A   1      40.540  29.430  31.356  1.00  0.00     0.010 A 
ATOM     43  C   UNL A   1      39.717  30.207  29.209  1.00  0.00     0.010 A 
ATOM     44  C   UNL A   1      40.715  29.576  29.974  1.00  0.00    -0.014 A 
BRANCH  44  45
ATOM     45  C   UNL A   1      42.046  29.278  29.387  1.00  0.00     0.031 A 
ATOM     46  C   UNL A   1      42.291  27.899  28.833  1.00  0.00     0.074 A 
ATOM     47  C   UNL A   1      42.997  30.223  29.286  1.00  0.00     0.049 A 
ATOM     48  N   UNL A   1      43.353  27.414  28.242  1.00  0.00    -0.248 NA
ATOM     49  C   UNL A   1      41.185  26.937  28.965  1.00  0.00     0.031 C 
ATOM     50  C   UNL A   1      42.873  31.598  29.762  1.00  0.00     0.029 A 
ATOM     51  N   UNL A   1      44.257  30.162  28.747  1.00  0.00    -0.354 N 
ATOM     52  C   UNL A   1      43.044  26.093  27.936  1.00  0.00     0.074 A 
ATOM     53  C   UNL A   1      41.716  25.840  28.450  1.00  0.00     0.031 C 
ATOM     54  C   UNL A   1      44.021  32.250  29.509  1.00  0.00     0.029 A 
ATOM     55  C   UNL A   1      44.966  31.332  28.872  1.00  0.00     0.049 A 
ATOM     56  H   UNL A   1      44.619  29.355  28.314  1.00  0.00     0.167 HD
ATOM     57  C   UNL A   1      43.789  25.176  27.272  1.00  0.00     0.037 A 
ATOM     58  C   UNL A   1      46.236  31.623  28.526  1.00  0.00     0.037 A 
ATOM     59  C   UNL A   1      45.118  25.429  26.777  1.00  0.00     0.049 A 
ATOM     60  C   UNL A   1      47.071  30.580  27.829  1.00  0.00     0.074 A 
ATOM     61  C   UNL A   1      45.959  24.573  26.088  1.00  0.00     0.029 A 
ATOM     62  N   UNL A   1      45.807  26.625  26.932  1.00  0.00    -0.354 N 
ATOM     63  N   UNL A   1      46.759  29.343  27.517  1.00  0.00    -0.248 NA
ATOM     64  C   UNL A   1      48.424  30.979  27.416  1.00  0.00     0.031 C 
ATOM     65  C   UNL A   1      47.175  25.231  25.875  1.00  0.00     0.029 A 
ATOM     66  C   UNL A   1      47.069  26.522  26.369  1.00  0.00     0.049 A 
ATOM     67  H   UNL A   1      45.451  27.428  27.376  1.00  0.00     0.167 HD
ATOM     68  C   UNL A   1      47.865  28.825  26.849  1.00  0.00     0.074 A 
ATOM     69  C   UNL A   1      48.848  29.889  26.792  1.00  0.00     0.031 C 
ATOM     70  C   UNL A   1      48.045  27.586  26.322  1.00  0.00     0.037 A 
BRANCH  57  71
ATOM     71  C   UNL A   1      43.187  23.808  27.085  1.00  0.00     0.058 A 
ATOM     72  C   UNL A   1      43.133  22.870  28.132  1.00  0.00     0.135 A 
ATOM     73  C   UNL A   1      42.681  23.418  25.836  1.00  0.00     0.135 A 
ATOM     74  F   UNL A   1      43.617  23.182  29.346  1.00  0.00    -0.206 F 
ATOM     75  C   UNL A   1      42.654  21.580  27.930  1.00  0.00     0.059 A 
ATOM     76  C   UNL A   1      42.164  22.143  25.621  1.00  0.00     0.059 A 
ATOM     77  F   UNL A   1      42.703  24.271  24.799  1.00  0.00    -0.206 F 
ATOM     78  C   UNL A   1      42.180  21.223  26.668  1.00  0.00     0.060 A 
BRANCH  78  79
ATOM     79  S   UNL A   1      41.602  19.532  26.408  1.00  0.00     0.124 S 
ATOM     80  O   UNL A   1      41.971  18.902  27.672  1.00  0.00    -0.237 OA
ATOM     81  O   UNL A   1      40.172  19.721  26.187  1.00  0.00    -0.237 OA
ATOM     82  O   UNL A   1      42.360  19.089  25.243  1.00  0.00    -0.744 OA
ENDBRANCH  78  79
ENDBRANCH  57  71
BRANCH  58  83
ATOM     83  C   UNL A   1      46.786  32.969  28.840  1.00  0.00     0.058 A 
ATOM     84  C   UNL A   1      47.492  33.214  30.027  1.00  0.00     0.135 A 
ATOM     85  C   UNL A   1      46.652  34.028  27.929  1.00  0.00     0.135 A 
ATOM     86  F   UNL A   1      47.635  32.238  30.936  1.00  0.00    -0.206 F 
ATOM     87  C   UNL A   1      48.049  34.460  30.298  1.00  0.00     0.059 A 
ATOM     88  C   UNL A   1      47.223  35.274  28.165  1.00  0.00     0.059 A 
ATOM     89  F   UNL A   1      45.991  33.843  26.776  1.00  0.00    -0.206 F 
ATOM     90  C   UNL A   1      47.919  35.481  29.354  1.00  0.00     0.060 A 
BRANCH  90  91
ATOM     91  S   UNL A   1      48.728  37.064  29.673  1.00  0.00     0.124 S 
ATOM     92  O   UNL A   1      49.170  37.445  28.337  1.00  0.00    -0.237 OA
ATOM     93  O   UNL A   1      47.637  37.854  30.235  1.00  0.00    -0.237 OA
ATOM     94  O   UNL A   1      49.789  36.716  30.614  1.00  0.00    -0.744 OA
ENDBRANCH  90  91
ENDBRANCH  58  83
BRANCH  70  95
ATOM     95  C   UNL A   1      49.338  27.321  25.596  1.00  0.00     0.058 A 
ATOM     96  C   UNL A   1      49.470  27.503  24.209  1.00  0.00     0.135 A 
ATOM     97  C   UNL A   1      50.476  26.905  26.308  1.00  0.00     0.135 A 
ATOM     98  F   UNL A   1      48.417  27.900  23.477  1.00  0.00    -0.206 F 
ATOM     99  C   UNL A   1      50.668  27.241  23.551  1.00  0.00     0.059 A 
ATOM    100  C   UNL A   1      51.693  26.670  25.675  1.00  0.00     0.059 A 
ATOM    101  F   UNL A   1      50.416  26.731  27.638  1.00  0.00    -0.206 F 
ATOM    102  C   UNL A   1      51.774  26.821  24.293  1.00  0.00     0.060 A 
BRANCH 102 103
ATOM    103  S   UNL A   1      53.323  26.483  23.428  1.00  0.00     0.124 S 
ATOM    104  O   UNL A   1      52.840  26.071  22.113  1.00  0.00    -0.237 OA
ATOM    105  O   UNL A   1      53.998  27.775  23.478  1.00  0.00    -0.237 OA
ATOM    106  O   UNL A   1      53.937  25.429  24.229  1.00  0.00    -0.744 OA
ENDBRANCH 102 103
ENDBRANCH  70  95
ENDBRANCH  44  45
ENDBRANCH  37  39
ENDBRANCH  36  37
ENDBRANCH  35  36
ENDBRANCH  34  35
ENDBRANCH  33  34
ENDBRANCH  32  33
ENDBRANCH   1  32
TORSDOF 26
ENDMDL
