MODEL 1
REMARK VINA RESULT:      -8.8      0.000      0.000
REMARK SMILES O=C(NCc1ccsc1)NC[C@H]1CC[C@@H](C(=O)OCCOCCOCCOC(=O)c2ccc(-c3c4nc(c(-c5c(F)cc(S(=O)(=O)[O-])cc5F)c5ccc([nH]5)c(-c5c(F)cc(S(=O)(=O)[O-])cc5F)c5nc(c(-c6c(F)cc(S(=O)(=O)[O-])cc6F)c6ccc3[nH]6)C=C5)C=C4)cc2)CC1
REMARK SMILES IDX 22 1 21 2 20 3 19 4 18 5 16 6 17 7 15 8 12 9 13 10 97 11
REMARK SMILES IDX 14 12 96 13 11 14 10 15 1 16 2 17 3 18 4 21 5 22 6 23 9 24
REMARK SMILES IDX 7 25 8 26 23 27 24 28 25 29 26 30 27 31 28 32 29 33 30 34
REMARK SMILES IDX 31 35 95 36 32 37 94 38 33 39 34 40 35 41 88 42 36 43 93 44
REMARK SMILES IDX 87 45 89 46 37 47 92 48 86 49 85 50 38 52 72 53 51 54 71 55
REMARK SMILES IDX 52 56 55 57 70 58 90 59 53 60 54 61 69 63 91 64 56 65 39 66
REMARK SMILES IDX 40 67 49 68 41 69 42 70 48 71 50 72 43 73 44 74 45 75 46 76
REMARK SMILES IDX 47 77 73 78 74 79 83 80 75 81 76 82 82 83 84 84 77 85 78 86
REMARK SMILES IDX 79 87 80 88 81 89 57 90 58 91 67 92 59 93 60 94 66 95 68 96
REMARK SMILES IDX 61 97 62 98 63 99 64 100 65 101
REMARK H PARENT 3 19 10 20 89 51 55 62
REMARK Flexibility Score: inf
ROOT
ATOM      1  C   UNL A   1      35.283  32.874  28.470  1.00  0.00     0.188 C 
ENDROOT
BRANCH   1   2
ATOM      2  O   UNL A   1      35.704  31.753  27.707  1.00  0.00    -0.376 OA
BRANCH   2   3
ATOM      3  C   UNL A   1      34.895  30.585  27.735  1.00  0.00     0.202 C 
BRANCH   3   4
ATOM      4  C   UNL A   1      33.437  30.694  27.260  1.00  0.00     0.261 C 
BRANCH   4   5
ATOM      5  O   UNL A   1      32.724  29.450  27.051  1.00  0.00    -0.463 OA
BRANCH   5   6
ATOM      6  C   UNL A   1      33.185  28.662  26.044  1.00  0.00     0.309 C 
ATOM      7  O   UNL A   1      33.864  27.655  26.224  1.00  0.00    -0.252 OA
BRANCH   6   8
ATOM      8  C   UNL A   1      32.893  29.162  24.624  1.00  0.00     0.099 C 
ATOM      9  C   UNL A   1      31.146  27.198  23.202  1.00  0.00     0.008 C 
ATOM     10  C   UNL A   1      30.647  28.047  24.382  1.00  0.00     0.006 C 
ATOM     11  C   UNL A   1      32.678  27.061  23.178  1.00  0.00     0.006 C 
ATOM     12  C   UNL A   1      31.384  29.378  24.505  1.00  0.00     0.015 C 
ATOM     13  C   UNL A   1      33.370  28.403  23.383  1.00  0.00     0.015 C 
BRANCH   9  14
ATOM     14  C   UNL A   1      30.474  25.818  23.235  1.00  0.00     0.121 C 
BRANCH  14  15
ATOM     15  N   UNL A   1      31.456  24.753  23.216  1.00  0.00    -0.338 N 
ATOM     16  O   UNL A   1      30.669  23.647  25.047  1.00  0.00    -0.249 OA
ATOM     17  C   UNL A   1      31.479  23.754  24.131  1.00  0.00     0.315 C 
ATOM     18  N   UNL A   1      32.451  22.823  24.007  1.00  0.00    -0.334 N 
ATOM     19  H   UNL A   1      32.450  22.140  24.716  1.00  0.00     0.165 HD
ATOM     20  H   UNL A   1      32.139  24.756  22.506  1.00  0.00     0.165 HD
BRANCH  18  21
ATOM     21  C   UNL A   1      33.492  22.652  23.020  1.00  0.00     0.154 C 
BRANCH  21  22
ATOM     22  C   UNL A   1      34.773  22.341  23.724  1.00  0.00    -0.018 A 
ATOM     23  C   UNL A   1      36.039  22.954  23.428  1.00  0.00     0.017 A 
ATOM     24  C   UNL A   1      34.906  21.430  24.757  1.00  0.00     0.070 A 
ATOM     25  C   UNL A   1      37.056  22.489  24.230  1.00  0.00     0.065 A 
ATOM     26  S   UNL A   1      36.505  21.327  25.354  1.00  0.00    -0.152 S 
ENDBRANCH  21  22
ENDBRANCH  18  21
ENDBRANCH  14  15
ENDBRANCH   9  14
ENDBRANCH   6   8
ENDBRANCH   5   6
ENDBRANCH   4   5
ENDBRANCH   3   4
ENDBRANCH   2   3
ENDBRANCH   1   2
BRANCH   1  27
ATOM     27  C   UNL A   1      35.138  34.226  27.761  1.00  0.00     0.188 C 
BRANCH  27  28
ATOM     28  O   UNL A   1      34.939  35.325  28.624  1.00  0.00    -0.376 OA
BRANCH  28  29
ATOM     29  C   UNL A   1      33.742  36.066  28.457  1.00  0.00     0.202 C 
BRANCH  29  30
ATOM     30  C   UNL A   1      32.896  36.124  29.740  1.00  0.00     0.261 C 
BRANCH  30  31
ATOM     31  O   UNL A   1      32.965  34.955  30.583  1.00  0.00    -0.460 OA
BRANCH  31  32
ATOM     32  C   UNL A   1      32.858  35.149  31.921  1.00  0.00     0.338 C 
ATOM     33  O   UNL A   1      31.857  35.506  32.522  1.00  0.00    -0.246 OA
BRANCH  32  34
ATOM     34  C   UNL A   1      34.070  34.574  32.566  1.00  0.00     0.060 A 
ATOM     35  C   UNL A   1      35.184  35.406  32.767  1.00  0.00     0.016 A 
ATOM     36  C   UNL A   1      34.092  33.259  33.033  1.00  0.00     0.016 A 
ATOM     37  C   UNL A   1      36.331  34.914  33.400  1.00  0.00     0.010 A 
ATOM     38  C   UNL A   1      35.249  32.762  33.647  1.00  0.00     0.010 A 
ATOM     39  C   UNL A   1      36.388  33.575  33.803  1.00  0.00    -0.014 A 
BRANCH  39  40
ATOM     40  C   UNL A   1      37.688  32.958  34.183  1.00  0.00     0.031 A 
ATOM     41  C   UNL A   1      38.172  33.150  35.597  1.00  0.00     0.074 A 
ATOM     42  C   UNL A   1      38.433  32.249  33.315  1.00  0.00     0.049 A 
ATOM     43  N   UNL A   1      39.304  32.792  36.148  1.00  0.00    -0.248 NA
ATOM     44  C   UNL A   1      37.251  33.845  36.513  1.00  0.00     0.031 C 
ATOM     45  C   UNL A   1      38.071  31.951  31.931  1.00  0.00     0.029 A 
ATOM     46  N   UNL A   1      39.668  31.663  33.471  1.00  0.00    -0.354 N 
ATOM     47  C   UNL A   1      39.239  33.235  37.464  1.00  0.00     0.074 A 
ATOM     48  C   UNL A   1      37.968  33.906  37.624  1.00  0.00     0.031 C 
ATOM     49  C   UNL A   1      39.070  31.255  31.359  1.00  0.00     0.029 A 
ATOM     50  C   UNL A   1      40.161  31.091  32.322  1.00  0.00     0.049 A 
ATOM     51  H   UNL A   1      40.154  31.655  34.328  1.00  0.00     0.167 HD
ATOM     52  C   UNL A   1      40.151  33.092  38.455  1.00  0.00     0.037 A 
ATOM     53  C   UNL A   1      41.361  30.525  32.068  1.00  0.00     0.037 A 
ATOM     54  C   UNL A   1      41.415  32.421  38.299  1.00  0.00     0.049 A 
ATOM     55  C   UNL A   1      42.391  30.431  33.168  1.00  0.00     0.074 A 
ATOM     56  C   UNL A   1      42.395  32.204  39.252  1.00  0.00     0.029 A 
ATOM     57  N   UNL A   1      41.882  31.869  37.115  1.00  0.00    -0.354 N 
ATOM     58  N   UNL A   1      42.307  30.831  34.416  1.00  0.00    -0.248 NA
ATOM     59  C   UNL A   1      43.678  29.805  32.828  1.00  0.00     0.031 C 
ATOM     60  C   UNL A   1      43.478  31.574  38.632  1.00  0.00     0.029 A 
ATOM     61  C   UNL A   1      43.146  31.337  37.307  1.00  0.00     0.049 A 
ATOM     62  H   UNL A   1      41.387  31.857  36.264  1.00  0.00     0.167 HD
ATOM     63  C   UNL A   1      43.516  30.480  35.013  1.00  0.00     0.074 A 
ATOM     64  C   UNL A   1      44.309  29.825  33.994  1.00  0.00     0.031 C 
ATOM     65  C   UNL A   1      43.928  30.678  36.291  1.00  0.00     0.037 A 
BRANCH  52  66
ATOM     66  C   UNL A   1      39.831  33.701  39.792  1.00  0.00     0.058 A 
ATOM     67  C   UNL A   1      40.281  34.981  40.152  1.00  0.00     0.135 A 
ATOM     68  C   UNL A   1      39.029  33.006  40.712  1.00  0.00     0.135 A 
ATOM     69  F   UNL A   1      41.069  35.681  39.321  1.00  0.00    -0.206 F 
ATOM     70  C   UNL A   1      39.963  35.542  41.385  1.00  0.00     0.059 A 
ATOM     71  C   UNL A   1      38.673  33.560  41.937  1.00  0.00     0.059 A 
ATOM     72  F   UNL A   1      38.576  31.775  40.420  1.00  0.00    -0.206 F 
ATOM     73  C   UNL A   1      39.157  34.824  42.270  1.00  0.00     0.060 A 
BRANCH  73  74
ATOM     74  S   UNL A   1      38.740  35.574  43.857  1.00  0.00     0.124 S 
ATOM     75  O   UNL A   1      39.279  36.921  43.694  1.00  0.00    -0.237 OA
ATOM     76  O   UNL A   1      37.285  35.473  43.877  1.00  0.00    -0.237 OA
ATOM     77  O   UNL A   1      39.436  34.733  44.826  1.00  0.00    -0.744 OA
ENDBRANCH  73  74
ENDBRANCH  52  66
BRANCH  53  78
ATOM     78  C   UNL A   1      41.671  30.018  30.701  1.00  0.00     0.058 A 
ATOM     79  C   UNL A   1      42.391  30.794  29.781  1.00  0.00     0.135 A 
ATOM     80  C   UNL A   1      41.241  28.748  30.284  1.00  0.00     0.135 A 
ATOM     81  F   UNL A   1      42.806  32.024  30.121  1.00  0.00    -0.206 F 
ATOM     82  C   UNL A   1      42.666  30.336  28.494  1.00  0.00     0.059 A 
ATOM     83  C   UNL A   1      41.529  28.255  29.014  1.00  0.00     0.059 A 
ATOM     84  F   UNL A   1      40.548  27.963  31.124  1.00  0.00    -0.206 F 
ATOM     85  C   UNL A   1      42.235  29.062  28.123  1.00  0.00     0.060 A 
BRANCH  85  86
ATOM     86  S   UNL A   1      42.649  28.455  26.472  1.00  0.00     0.124 S 
ATOM     87  O   UNL A   1      42.932  27.049  26.737  1.00  0.00    -0.237 OA
ATOM     88  O   UNL A   1      41.421  28.730  25.731  1.00  0.00    -0.237 OA
ATOM     89  O   UNL A   1      43.798  29.270  26.092  1.00  0.00    -0.744 OA
ENDBRANCH  85  86
ENDBRANCH  53  78
BRANCH  65  90
ATOM     90  C   UNL A   1      45.281  30.146  36.687  1.00  0.00     0.058 A 
ATOM     91  C   UNL A   1      46.444  30.928  36.605  1.00  0.00     0.135 A 
ATOM     92  C   UNL A   1      45.405  28.851  37.220  1.00  0.00     0.135 A 
ATOM     93  F   UNL A   1      46.386  32.172  36.102  1.00  0.00    -0.206 F 
ATOM     94  C   UNL A   1      47.682  30.439  37.013  1.00  0.00     0.059 A 
ATOM     95  C   UNL A   1      46.626  28.352  37.663  1.00  0.00     0.059 A 
ATOM     96  F   UNL A   1      44.324  28.061  37.336  1.00  0.00    -0.206 F 
ATOM     97  C   UNL A   1      47.763  29.150  37.543  1.00  0.00     0.060 A 
BRANCH  97  98
ATOM     98  S   UNL A   1      49.369  28.541  38.099  1.00  0.00     0.124 S 
ATOM     99  O   UNL A   1      49.509  29.212  39.388  1.00  0.00    -0.237 OA
ATOM    100  O   UNL A   1      49.153  27.099  38.156  1.00  0.00    -0.237 OA
ATOM    101  O   UNL A   1      50.285  28.991  37.056  1.00  0.00    -0.744 OA
ENDBRANCH  97  98
ENDBRANCH  65  90
ENDBRANCH  39  40
ENDBRANCH  32  34
ENDBRANCH  31  32
ENDBRANCH  30  31
ENDBRANCH  29  30
ENDBRANCH  28  29
ENDBRANCH  27  28
ENDBRANCH   1  27
TORSDOF 24
ENDMDL
MODEL 2
REMARK VINA RESULT:      -8.7      5.929     10.685
REMARK SMILES O=C(NCc1ccsc1)NC[C@H]1CC[C@@H](C(=O)OCCOCCOCCOC(=O)c2ccc(-c3c4nc(c(-c5c(F)cc(S(=O)(=O)[O-])cc5F)c5ccc([nH]5)c(-c5c(F)cc(S(=O)(=O)[O-])cc5F)c5nc(c(-c6c(F)cc(S(=O)(=O)[O-])cc6F)c6ccc3[nH]6)C=C5)C=C4)cc2)CC1
REMARK SMILES IDX 22 1 21 2 20 3 19 4 18 5 16 6 17 7 15 8 12 9 13 10 97 11
REMARK SMILES IDX 14 12 96 13 11 14 10 15 1 16 2 17 3 18 4 21 5 22 6 23 9 24
REMARK SMILES IDX 7 25 8 26 23 27 24 28 25 29 26 30 27 31 28 32 29 33 30 34
REMARK SMILES IDX 31 35 95 36 32 37 94 38 33 39 34 40 35 41 88 42 36 43 93 44
REMARK SMILES IDX 87 45 89 46 37 47 92 48 86 49 85 50 38 52 72 53 51 54 71 55
REMARK SMILES IDX 52 56 55 57 70 58 90 59 53 60 54 61 69 63 91 64 56 65 39 66
REMARK SMILES IDX 40 67 49 68 41 69 42 70 48 71 50 72 43 73 44 74 45 75 46 76
REMARK SMILES IDX 47 77 73 78 74 79 83 80 75 81 76 82 82 83 84 84 77 85 78 86
REMARK SMILES IDX 79 87 80 88 81 89 57 90 58 91 67 92 59 93 60 94 66 95 68 96
REMARK SMILES IDX 61 97 62 98 63 99 64 100 65 101
REMARK H PARENT 3 19 10 20 89 51 55 62
REMARK Flexibility Score: inf
ROOT
ATOM      1  C   UNL A   1      33.991  33.442  28.090  1.00  0.00     0.188 C 
ENDROOT
BRANCH   1   2
ATOM      2  O   UNL A   1      33.073  32.467  27.618  1.00  0.00    -0.376 OA
BRANCH   2   3
ATOM      3  C   UNL A   1      33.585  31.196  27.241  1.00  0.00     0.202 C 
BRANCH   3   4
ATOM      4  C   UNL A   1      32.618  30.001  27.205  1.00  0.00     0.261 C 
BRANCH   4   5
ATOM      5  O   UNL A   1      31.766  29.888  26.039  1.00  0.00    -0.463 OA
BRANCH   5   6
ATOM      6  C   UNL A   1      32.091  28.907  25.156  1.00  0.00     0.309 C 
ATOM      7  O   UNL A   1      33.103  28.926  24.461  1.00  0.00    -0.252 OA
BRANCH   6   8
ATOM      8  C   UNL A   1      31.052  27.793  24.989  1.00  0.00     0.099 C 
ATOM      9  C   UNL A   1      32.424  25.139  24.890  1.00  0.00     0.008 C 
ATOM     10  C   UNL A   1      32.366  25.995  26.166  1.00  0.00     0.006 C 
ATOM     11  C   UNL A   1      32.204  25.968  23.612  1.00  0.00     0.006 C 
ATOM     12  C   UNL A   1      31.131  26.890  26.221  1.00  0.00     0.015 C 
ATOM     13  C   UNL A   1      31.008  26.904  23.743  1.00  0.00     0.015 C 
BRANCH   9  14
ATOM     14  C   UNL A   1      33.761  24.387  24.829  1.00  0.00     0.121 C 
BRANCH  14  15
ATOM     15  N   UNL A   1      33.567  22.958  24.964  1.00  0.00    -0.338 N 
ATOM     16  O   UNL A   1      33.279  22.528  22.743  1.00  0.00    -0.249 OA
ATOM     17  C   UNL A   1      33.334  22.141  23.907  1.00  0.00     0.315 C 
ATOM     18  N   UNL A   1      33.165  20.826  24.166  1.00  0.00    -0.334 N 
ATOM     19  H   UNL A   1      32.961  20.280  23.373  1.00  0.00     0.165 HD
ATOM     20  H   UNL A   1      33.606  22.560  25.864  1.00  0.00     0.165 HD
BRANCH  18  21
ATOM     21  C   UNL A   1      33.231  20.078  25.400  1.00  0.00     0.154 C 
BRANCH  21  22
ATOM     22  C   UNL A   1      33.305  18.622  25.073  1.00  0.00    -0.018 A 
ATOM     23  C   UNL A   1      34.120  18.058  24.031  1.00  0.00     0.017 A 
ATOM     24  C   UNL A   1      32.607  17.626  25.733  1.00  0.00     0.070 A 
ATOM     25  C   UNL A   1      34.004  16.689  23.947  1.00  0.00     0.065 A 
ATOM     26  S   UNL A   1      32.933  16.063  25.121  1.00  0.00    -0.152 S 
ENDBRANCH  21  22
ENDBRANCH  18  21
ENDBRANCH  14  15
ENDBRANCH   9  14
ENDBRANCH   6   8
ENDBRANCH   5   6
ENDBRANCH   4   5
ENDBRANCH   3   4
ENDBRANCH   2   3
ENDBRANCH   1   2
BRANCH   1  27
ATOM     27  C   UNL A   1      35.484  33.092  28.102  1.00  0.00     0.188 C 
BRANCH  27  28
ATOM     28  O   UNL A   1      36.029  32.882  29.387  1.00  0.00    -0.376 OA
BRANCH  28  29
ATOM     29  C   UNL A   1      35.292  32.054  30.272  1.00  0.00     0.202 C 
BRANCH  29  30
ATOM     30  C   UNL A   1      36.002  31.846  31.620  1.00  0.00     0.261 C 
BRANCH  30  31
ATOM     31  O   UNL A   1      36.996  30.802  31.643  1.00  0.00    -0.460 OA
BRANCH  31  32
ATOM     32  C   UNL A   1      37.880  30.811  32.672  1.00  0.00     0.338 C 
ATOM     33  O   UNL A   1      37.608  30.735  33.859  1.00  0.00    -0.246 OA
BRANCH  32  34
ATOM     34  C   UNL A   1      39.245  30.631  32.106  1.00  0.00     0.060 A 
ATOM     35  C   UNL A   1      39.475  31.005  30.772  1.00  0.00     0.016 A 
ATOM     36  C   UNL A   1      40.304  30.169  32.890  1.00  0.00     0.016 A 
ATOM     37  C   UNL A   1      40.751  30.882  30.211  1.00  0.00     0.010 A 
ATOM     38  C   UNL A   1      41.575  30.027  32.321  1.00  0.00     0.010 A 
ATOM     39  C   UNL A   1      41.801  30.350  30.970  1.00  0.00    -0.014 A 
BRANCH  39  40
ATOM     40  C   UNL A   1      43.065  29.922  30.310  1.00  0.00     0.031 A 
ATOM     41  C   UNL A   1      43.091  28.567  29.652  1.00  0.00     0.074 A 
ATOM     42  C   UNL A   1      44.165  30.696  30.285  1.00  0.00     0.049 A 
ATOM     43  N   UNL A   1      44.088  27.930  29.092  1.00  0.00    -0.248 NA
ATOM     44  C   UNL A   1      41.817  27.828  29.629  1.00  0.00     0.031 C 
ATOM     45  C   UNL A   1      44.270  32.042  30.845  1.00  0.00     0.029 A 
ATOM     46  N   UNL A   1      45.419  30.445  29.779  1.00  0.00    -0.354 N 
ATOM     47  C   UNL A   1      43.567  26.712  28.669  1.00  0.00     0.074 A 
ATOM     48  C   UNL A   1      42.174  26.689  29.056  1.00  0.00     0.031 C 
ATOM     49  C   UNL A   1      45.527  32.490  30.669  1.00  0.00     0.029 A 
ATOM     50  C   UNL A   1      46.327  31.451  30.019  1.00  0.00     0.049 A 
ATOM     51  H   UNL A   1      45.647  29.621  29.289  1.00  0.00     0.167 HD
ATOM     52  C   UNL A   1      44.189  25.705  28.012  1.00  0.00     0.037 A 
ATOM     53  C   UNL A   1      47.653  31.515  29.769  1.00  0.00     0.037 A 
ATOM     54  C   UNL A   1      45.575  25.727  27.622  1.00  0.00     0.049 A 
ATOM     55  C   UNL A   1      48.343  30.354  29.093  1.00  0.00     0.074 A 
ATOM     56  C   UNL A   1      46.287  24.764  26.930  1.00  0.00     0.029 A 
ATOM     57  N   UNL A   1      46.462  26.758  27.898  1.00  0.00    -0.354 N 
ATOM     58  N   UNL A   1      47.834  29.219  28.675  1.00  0.00    -0.248 NA
ATOM     59  C   UNL A   1      49.788  30.485  28.849  1.00  0.00     0.031 C 
ATOM     60  C   UNL A   1      47.618  25.184  26.840  1.00  0.00     0.029 A 
ATOM     61  C   UNL A   1      47.720  26.441  27.415  1.00  0.00     0.049 A 
ATOM     62  H   UNL A   1      46.230  27.592  28.367  1.00  0.00     0.167 HD
ATOM     63  C   UNL A   1      48.888  28.516  28.096  1.00  0.00     0.074 A 
ATOM     64  C   UNL A   1      50.060  29.358  28.206  1.00  0.00     0.031 C 
ATOM     65  C   UNL A   1      48.883  27.287  27.521  1.00  0.00     0.037 A 
BRANCH  52  66
ATOM     66  C   UNL A   1      43.384  24.474  27.698  1.00  0.00     0.058 A 
ATOM     67  C   UNL A   1      43.222  23.436  28.628  1.00  0.00     0.135 A 
ATOM     68  C   UNL A   1      42.733  24.351  26.459  1.00  0.00     0.135 A 
ATOM     69  F   UNL A   1      43.838  23.490  29.820  1.00  0.00    -0.206 F 
ATOM     70  C   UNL A   1      42.459  22.310  28.334  1.00  0.00     0.059 A 
ATOM     71  C   UNL A   1      41.941  23.249  26.155  1.00  0.00     0.059 A 
ATOM     72  F   UNL A   1      42.860  25.313  25.530  1.00  0.00    -0.206 F 
ATOM     73  C   UNL A   1      41.821  22.227  27.095  1.00  0.00     0.060 A 
BRANCH  73  74
ATOM     74  S   UNL A   1      40.821  20.767  26.737  1.00  0.00     0.124 S 
ATOM     75  O   UNL A   1      41.617  20.116  25.702  1.00  0.00    -0.237 OA
ATOM     76  O   UNL A   1      40.786  20.090  28.029  1.00  0.00    -0.237 OA
ATOM     77  O   UNL A   1      39.548  21.326  26.291  1.00  0.00    -0.744 OA
ENDBRANCH  73  74
ENDBRANCH  52  66
BRANCH  53  78
ATOM     78  C   UNL A   1      48.432  32.717  30.182  1.00  0.00     0.058 A 
ATOM     79  C   UNL A   1      49.002  32.814  31.459  1.00  0.00     0.135 A 
ATOM     80  C   UNL A   1      48.610  33.801  29.307  1.00  0.00     0.135 A 
ATOM     81  F   UNL A   1      48.843  31.815  32.342  1.00  0.00    -0.206 F 
ATOM     82  C   UNL A   1      49.712  33.943  31.860  1.00  0.00     0.059 A 
ATOM     83  C   UNL A   1      49.340  34.928  29.673  1.00  0.00     0.059 A 
ATOM     84  F   UNL A   1      48.084  33.762  28.072  1.00  0.00    -0.206 F 
ATOM     85  C   UNL A   1      49.881  34.992  30.956  1.00  0.00     0.060 A 
BRANCH  85  86
ATOM     86  S   UNL A   1      50.854  36.427  31.467  1.00  0.00     0.124 S 
ATOM     87  O   UNL A   1      51.093  36.135  32.876  1.00  0.00    -0.237 OA
ATOM     88  O   UNL A   1      52.017  36.334  30.590  1.00  0.00    -0.237 OA
ATOM     89  O   UNL A   1      49.963  37.551  31.199  1.00  0.00    -0.744 OA
ENDBRANCH  85  86
ENDBRANCH  53  78
BRANCH  65  90
ATOM     90  C   UNL A   1      50.170  26.782  26.921  1.00  0.00     0.058 A 
ATOM     91  C   UNL A   1      51.144  26.126  27.690  1.00  0.00     0.135 A 
ATOM     92  C   UNL A   1      50.402  26.900  25.539  1.00  0.00     0.135 A 
ATOM     93  F   UNL A   1      50.977  25.985  29.015  1.00  0.00    -0.206 F 
ATOM     94  C   UNL A   1      52.311  25.626  27.117  1.00  0.00     0.059 A 
ATOM     95  C   UNL A   1      51.547  26.382  24.940  1.00  0.00     0.059 A 
ATOM     96  F   UNL A   1      49.500  27.506  24.751  1.00  0.00    -0.206 F 
ATOM     97  C   UNL A   1      52.502  25.757  25.740  1.00  0.00     0.060 A 
BRANCH  97  98
ATOM     98  S   UNL A   1      54.004  25.077  25.005  1.00  0.00     0.124 S 
ATOM     99  O   UNL A   1      53.644  23.672  24.844  1.00  0.00    -0.237 OA
ATOM    100  O   UNL A   1      54.124  25.846  23.771  1.00  0.00    -0.237 OA
ATOM    101  O   UNL A   1      55.030  25.350  26.009  1.00  0.00    -0.744 OA
ENDBRANCH  97  98
ENDBRANCH  65  90
ENDBRANCH  39  40
ENDBRANCH  32  34
ENDBRANCH  31  32
ENDBRANCH  30  31
ENDBRANCH  29  30
ENDBRANCH  28  29
ENDBRANCH  27  28
ENDBRANCH   1  27
TORSDOF 24
ENDMDL
MODEL 3
REMARK VINA RESULT:      -8.7      5.815      7.303
REMARK SMILES O=C(NCc1ccsc1)NC[C@H]1CC[C@@H](C(=O)OCCOCCOCCOC(=O)c2ccc(-c3c4nc(c(-c5c(F)cc(S(=O)(=O)[O-])cc5F)c5ccc([nH]5)c(-c5c(F)cc(S(=O)(=O)[O-])cc5F)c5nc(c(-c6c(F)cc(S(=O)(=O)[O-])cc6F)c6ccc3[nH]6)C=C5)C=C4)cc2)CC1
REMARK SMILES IDX 22 1 21 2 20 3 19 4 18 5 16 6 17 7 15 8 12 9 13 10 97 11
REMARK SMILES IDX 14 12 96 13 11 14 10 15 1 16 2 17 3 18 4 21 5 22 6 23 9 24
REMARK SMILES IDX 7 25 8 26 23 27 24 28 25 29 26 30 27 31 28 32 29 33 30 34
REMARK SMILES IDX 31 35 95 36 32 37 94 38 33 39 34 40 35 41 88 42 36 43 93 44
REMARK SMILES IDX 87 45 89 46 37 47 92 48 86 49 85 50 38 52 72 53 51 54 71 55
REMARK SMILES IDX 52 56 55 57 70 58 90 59 53 60 54 61 69 63 91 64 56 65 39 66
REMARK SMILES IDX 40 67 49 68 41 69 42 70 48 71 50 72 43 73 44 74 45 75 46 76
REMARK SMILES IDX 47 77 73 78 74 79 83 80 75 81 76 82 82 83 84 84 77 85 78 86
REMARK SMILES IDX 79 87 80 88 81 89 57 90 58 91 67 92 59 93 60 94 66 95 68 96
REMARK SMILES IDX 61 97 62 98 63 99 64 100 65 101
REMARK H PARENT 3 19 10 20 89 51 55 62
REMARK Flexibility Score: inf
ROOT
ATOM      1  C   UNL A   1      33.275  35.163  29.251  1.00  0.00     0.188 C 
ENDROOT
BRANCH   1   2
ATOM      2  O   UNL A   1      32.489  34.051  28.849  1.00  0.00    -0.376 OA
BRANCH   2   3
ATOM      3  C   UNL A   1      32.803  33.423  27.612  1.00  0.00     0.202 C 
BRANCH   3   4
ATOM      4  C   UNL A   1      31.690  32.658  26.878  1.00  0.00     0.261 C 
BRANCH   4   5
ATOM      5  O   UNL A   1      31.701  31.214  27.003  1.00  0.00    -0.463 OA
BRANCH   5   6
ATOM      6  C   UNL A   1      31.800  30.516  25.841  1.00  0.00     0.309 C 
ATOM      7  O   UNL A   1      30.874  30.384  25.046  1.00  0.00    -0.252 OA
BRANCH   6   8
ATOM      8  C   UNL A   1      33.133  29.795  25.612  1.00  0.00     0.099 C 
ATOM      9  C   UNL A   1      32.716  26.838  25.750  1.00  0.00     0.008 C 
ATOM     10  C   UNL A   1      32.157  27.701  24.607  1.00  0.00     0.006 C 
ATOM     11  C   UNL A   1      33.015  27.657  27.017  1.00  0.00     0.006 C 
ATOM     12  C   UNL A   1      32.996  28.949  24.345  1.00  0.00     0.015 C 
ATOM     13  C   UNL A   1      33.785  28.933  26.698  1.00  0.00     0.015 C 
BRANCH   9  14
ATOM     14  C   UNL A   1      31.741  25.692  26.058  1.00  0.00     0.121 C 
BRANCH  14  15
ATOM     15  N   UNL A   1      32.411  24.408  26.025  1.00  0.00    -0.338 N 
ATOM     16  O   UNL A   1      31.021  23.357  27.495  1.00  0.00    -0.249 OA
ATOM     17  C   UNL A   1      32.000  23.342  26.755  1.00  0.00     0.315 C 
ATOM     18  N   UNL A   1      32.714  22.201  26.639  1.00  0.00    -0.334 N 
ATOM     19  H   UNL A   1      32.400  21.467  27.216  1.00  0.00     0.165 HD
ATOM     20  H   UNL A   1      33.202  24.305  25.447  1.00  0.00     0.165 HD
BRANCH  18  21
ATOM     21  C   UNL A   1      33.856  21.865  25.821  1.00  0.00     0.154 C 
BRANCH  21  22
ATOM     22  C   UNL A   1      33.636  20.513  25.223  1.00  0.00    -0.018 A 
ATOM     23  C   UNL A   1      34.682  19.586  24.889  1.00  0.00     0.017 A 
ATOM     24  C   UNL A   1      32.397  19.974  24.922  1.00  0.00     0.070 A 
ATOM     25  C   UNL A   1      34.202  18.411  24.356  1.00  0.00     0.065 A 
ATOM     26  S   UNL A   1      32.497  18.398  24.266  1.00  0.00    -0.152 S 
ENDBRANCH  21  22
ENDBRANCH  18  21
ENDBRANCH  14  15
ENDBRANCH   9  14
ENDBRANCH   6   8
ENDBRANCH   5   6
ENDBRANCH   4   5
ENDBRANCH   3   4
ENDBRANCH   2   3
ENDBRANCH   1   2
BRANCH   1  27
ATOM     27  C   UNL A   1      32.876  35.914  30.527  1.00  0.00     0.188 C 
BRANCH  27  28
ATOM     28  O   UNL A   1      33.513  35.458  31.701  1.00  0.00    -0.376 OA
BRANCH  28  29
ATOM     29  C   UNL A   1      34.885  35.115  31.598  1.00  0.00     0.202 C 
BRANCH  29  30
ATOM     30  C   UNL A   1      35.397  34.337  32.822  1.00  0.00     0.261 C 
BRANCH  30  31
ATOM     31  O   UNL A   1      35.093  32.928  32.834  1.00  0.00    -0.460 OA
BRANCH  31  32
ATOM     32  C   UNL A   1      35.019  32.300  31.634  1.00  0.00     0.338 C 
ATOM     33  O   UNL A   1      34.033  32.224  30.918  1.00  0.00    -0.246 OA
BRANCH  32  34
ATOM     34  C   UNL A   1      36.404  31.977  31.197  1.00  0.00     0.060 A 
ATOM     35  C   UNL A   1      37.235  31.258  32.073  1.00  0.00     0.016 A 
ATOM     36  C   UNL A   1      36.864  32.311  29.922  1.00  0.00     0.016 A 
ATOM     37  C   UNL A   1      38.534  30.905  31.689  1.00  0.00     0.010 A 
ATOM     38  C   UNL A   1      38.171  31.977  29.548  1.00  0.00     0.010 A 
ATOM     39  C   UNL A   1      39.026  31.302  30.440  1.00  0.00    -0.014 A 
BRANCH  39  40
ATOM     40  C   UNL A   1      40.482  31.216  30.143  1.00  0.00     0.031 A 
ATOM     41  C   UNL A   1      41.340  32.408  30.478  1.00  0.00     0.074 A 
ATOM     42  C   UNL A   1      41.044  30.124  29.593  1.00  0.00     0.049 A 
ATOM     43  N   UNL A   1      42.610  32.617  30.239  1.00  0.00    -0.248 NA
ATOM     44  C   UNL A   1      40.670  33.519  31.176  1.00  0.00     0.031 C 
ATOM     45  C   UNL A   1      40.344  28.887  29.254  1.00  0.00     0.029 A 
ATOM     46  N   UNL A   1      42.343  29.891  29.202  1.00  0.00    -0.354 N 
ATOM     47  C   UNL A   1      42.884  33.885  30.737  1.00  0.00     0.074 A 
ATOM     48  C   UNL A   1      41.646  34.408  31.271  1.00  0.00     0.031 C 
ATOM     49  C   UNL A   1      41.217  28.033  28.688  1.00  0.00     0.029 A 
ATOM     50  C   UNL A   1      42.529  28.675  28.589  1.00  0.00     0.049 A 
ATOM     51  H   UNL A   1      43.073  30.537  29.349  1.00  0.00     0.167 HD
ATOM     52  C   UNL A   1      44.061  34.555  30.755  1.00  0.00     0.037 A 
ATOM     53  C   UNL A   1      43.622  28.151  27.992  1.00  0.00     0.037 A 
ATOM     54  C   UNL A   1      45.295  34.035  30.227  1.00  0.00     0.049 A 
ATOM     55  C   UNL A   1      44.909  28.939  27.966  1.00  0.00     0.074 A 
ATOM     56  C   UNL A   1      46.545  34.630  30.223  1.00  0.00     0.029 A 
ATOM     57  N   UNL A   1      45.437  32.805  29.601  1.00  0.00    -0.354 N 
ATOM     58  N   UNL A   1      45.162  30.127  28.462  1.00  0.00    -0.248 NA
ATOM     59  C   UNL A   1      46.063  28.314  27.300  1.00  0.00     0.031 C 
ATOM     60  C   UNL A   1      47.428  33.787  29.542  1.00  0.00     0.029 A 
ATOM     61  C   UNL A   1      46.746  32.636  29.181  1.00  0.00     0.049 A 
ATOM     62  H   UNL A   1      44.713  32.150  29.473  1.00  0.00     0.167 HD
ATOM     63  C   UNL A   1      46.507  30.377  28.195  1.00  0.00     0.074 A 
ATOM     64  C   UNL A   1      47.017  29.213  27.503  1.00  0.00     0.031 C 
ATOM     65  C   UNL A   1      47.251  31.470  28.499  1.00  0.00     0.037 A 
BRANCH  52  66
ATOM     66  C   UNL A   1      44.066  35.941  31.337  1.00  0.00     0.058 A 
ATOM     67  C   UNL A   1      43.920  37.084  30.535  1.00  0.00     0.135 A 
ATOM     68  C   UNL A   1      44.182  36.125  32.725  1.00  0.00     0.135 A 
ATOM     69  F   UNL A   1      43.826  36.969  29.201  1.00  0.00    -0.206 F 
ATOM     70  C   UNL A   1      43.908  38.361  31.087  1.00  0.00     0.059 A 
ATOM     71  C   UNL A   1      44.142  37.391  33.301  1.00  0.00     0.059 A 
ATOM     72  F   UNL A   1      44.330  35.067  33.537  1.00  0.00    -0.206 F 
ATOM     73  C   UNL A   1      44.017  38.504  32.471  1.00  0.00     0.060 A 
BRANCH  73  74
ATOM     74  S   UNL A   1      43.982  40.168  33.171  1.00  0.00     0.124 S 
ATOM     75  O   UNL A   1      45.119  40.790  32.500  1.00  0.00    -0.237 OA
ATOM     76  O   UNL A   1      42.665  40.648  32.765  1.00  0.00    -0.237 OA
ATOM     77  O   UNL A   1      44.147  39.939  34.604  1.00  0.00    -0.744 OA
ENDBRANCH  73  74
ENDBRANCH  52  66
BRANCH  53  78
ATOM     78  C   UNL A   1      43.547  26.810  27.345  1.00  0.00     0.058 A 
ATOM     79  C   UNL A   1      43.828  25.637  28.060  1.00  0.00     0.135 A 
ATOM     80  C   UNL A   1      43.203  26.677  25.989  1.00  0.00     0.135 A 
ATOM     81  F   UNL A   1      44.183  25.709  29.353  1.00  0.00    -0.206 F 
ATOM     82  C   UNL A   1      43.782  24.383  27.457  1.00  0.00     0.059 A 
ATOM     83  C   UNL A   1      43.122  25.433  25.370  1.00  0.00     0.059 A 
ATOM     84  F   UNL A   1      42.925  27.767  25.257  1.00  0.00    -0.206 F 
ATOM     85  C   UNL A   1      43.421  24.291  26.112  1.00  0.00     0.060 A 
BRANCH  85  86
ATOM     86  S   UNL A   1      43.307  22.654  25.356  1.00  0.00     0.124 S 
ATOM     87  O   UNL A   1      43.495  22.968  23.944  1.00  0.00    -0.237 OA
ATOM     88  O   UNL A   1      44.406  21.943  26.002  1.00  0.00    -0.237 OA
ATOM     89  O   UNL A   1      41.971  22.203  25.730  1.00  0.00    -0.744 OA
ENDBRANCH  85  86
ENDBRANCH  53  78
BRANCH  65  90
ATOM     90  C   UNL A   1      48.712  31.455  28.132  1.00  0.00     0.058 A 
ATOM     91  C   UNL A   1      49.658  30.724  28.868  1.00  0.00     0.135 A 
ATOM     92  C   UNL A   1      49.162  32.133  26.985  1.00  0.00     0.135 A 
ATOM     93  F   UNL A   1      49.286  30.059  29.973  1.00  0.00    -0.206 F 
ATOM     94  C   UNL A   1      50.999  30.684  28.495  1.00  0.00     0.059 A 
ATOM     95  C   UNL A   1      50.491  32.082  26.576  1.00  0.00     0.059 A 
ATOM     96  F   UNL A   1      48.300  32.838  26.235  1.00  0.00    -0.206 F 
ATOM     97  C   UNL A   1      51.406  31.364  27.346  1.00  0.00     0.060 A 
BRANCH  97  98
ATOM     98  S   UNL A   1      53.141  31.277  26.855  1.00  0.00     0.124 S 
ATOM     99  O   UNL A   1      53.045  30.638  25.546  1.00  0.00    -0.237 OA
ATOM    100  O   UNL A   1      53.535  32.682  26.847  1.00  0.00    -0.237 OA
ATOM    101  O   UNL A   1      53.753  30.467  27.905  1.00  0.00    -0.744 OA
ENDBRANCH  97  98
ENDBRANCH  65  90
ENDBRANCH  39  40
ENDBRANCH  32  34
ENDBRANCH  31  32
ENDBRANCH  30  31
ENDBRANCH  29  30
ENDBRANCH  28  29
ENDBRANCH  27  28
ENDBRANCH   1  27
TORSDOF 24
ENDMDL
