MODEL 1
REMARK VINA RESULT:     -10.5      0.000      0.000
REMARK SMILES Cc1cs/c(=N\S(=O)(=O)c2ccc(/C=C/C(=O)OCCOCCOCCOC(=O)c3ccc(-c4c5nc(c(-c6c(F)cc(S(=O)(=O)[O-])cc6F)c6ccc([nH]6)c(-c6c(F)cc(S(=O)(=O)[O-])cc6F)c6nc(c(-c7c(F)cc(S(=O)(=O)[O-])cc7F)c7ccc4[nH]7)C=C6)C=C5)cc3)cc2)[nH]1
REMARK SMILES IDX 22 1 21 2 20 3 19 4 18 5 16 6 17 7 15 8 14 9 13 10 10 11
REMARK SMILES IDX 11 12 97 13 12 14 96 15 7 16 8 17 9 18 6 19 1 20 2 21 3 22
REMARK SMILES IDX 98 23 4 24 5 25 23 27 24 28 25 29 26 30 27 31 28 32 29 33
REMARK SMILES IDX 30 34 31 35 95 36 32 37 94 38 33 39 34 40 35 41 88 42 36 43
REMARK SMILES IDX 93 44 87 45 89 46 37 47 92 48 86 49 85 50 38 52 72 53 51 54
REMARK SMILES IDX 71 55 52 56 55 57 70 58 90 59 53 60 54 61 69 63 91 64 56 65
REMARK SMILES IDX 39 66 40 67 49 68 41 69 42 70 48 71 50 72 43 73 44 74 45 75
REMARK SMILES IDX 46 76 47 77 73 78 74 79 83 80 75 81 76 82 82 83 84 84 77 85
REMARK SMILES IDX 78 86 79 87 80 88 81 89 57 90 58 91 67 92 59 93 60 94 66 95
REMARK SMILES IDX 68 96 61 97 62 98 63 99 64 100 65 101
REMARK H PARENT 98 26 89 51 55 62
REMARK Flexibility Score: inf
ROOT
ATOM      1  C   UNL A   1      35.505  22.234  24.482  1.00  0.00     0.188 C 
ENDROOT
BRANCH   1   2
ATOM      2  O   UNL A   1      34.752  21.843  25.612  1.00  0.00    -0.376 OA
BRANCH   2   3
ATOM      3  C   UNL A   1      34.080  20.595  25.637  1.00  0.00     0.202 C 
BRANCH   3   4
ATOM      4  C   UNL A   1      32.692  20.348  25.018  1.00  0.00     0.261 C 
BRANCH   4   5
ATOM      5  O   UNL A   1      32.650  19.637  23.775  1.00  0.00    -0.460 OA
BRANCH   5   6
ATOM      6  C   UNL A   1      32.236  20.368  22.710  1.00  0.00     0.330 C 
ATOM      7  O   UNL A   1      31.887  19.926  21.626  1.00  0.00    -0.247 OA
BRANCH   6   8
ATOM      8  C   UNL A   1      32.136  21.811  23.008  1.00  0.00     0.094 C 
ATOM      9  C   UNL A   1      32.719  22.812  22.328  1.00  0.00     0.015 C 
BRANCH   9  10
ATOM     10  C   UNL A   1      32.508  24.229  22.675  1.00  0.00    -0.025 A 
ATOM     11  C   UNL A   1      31.921  26.920  23.226  1.00  0.00     0.089 A 
ATOM     12  C   UNL A   1      31.914  25.981  24.260  1.00  0.00     0.023 A 
ATOM     13  C   UNL A   1      32.289  26.543  21.933  1.00  0.00     0.023 A 
ATOM     14  C   UNL A   1      32.217  24.645  23.984  1.00  0.00     0.009 A 
ATOM     15  C   UNL A   1      32.588  25.201  21.665  1.00  0.00     0.009 A 
BRANCH  11  16
ATOM     16  S   UNL A   1      31.399  28.586  23.606  1.00  0.00     0.285 S 
ATOM     17  O   UNL A   1      32.614  29.340  23.800  1.00  0.00    -0.199 OA
ATOM     18  O   UNL A   1      30.416  28.430  24.668  1.00  0.00    -0.199 OA
BRANCH  16  19
ATOM     19  N   UNL A   1      30.651  29.114  22.273  1.00  0.00    -0.130 NA
ATOM     20  C   UNL A   1      27.656  32.419  20.373  1.00  0.00     0.065 C 
ATOM     21  C   UNL A   1      28.410  31.772  21.482  1.00  0.00     0.024 A 
ATOM     22  C   UNL A   1      28.421  32.173  22.765  1.00  0.00     0.089 A 
ATOM     23  N   UNL A   1      29.197  30.661  21.255  1.00  0.00    -0.334 N 
ATOM     24  S   UNL A   1      29.441  31.143  23.747  1.00  0.00    -0.104 S 
ATOM     25  C   UNL A   1      29.871  30.138  22.334  1.00  0.00     0.199 A 
ATOM     26  H   UNL A   1      29.273  30.260  20.359  1.00  0.00     0.169 HD
ENDBRANCH  16  19
ENDBRANCH  11  16
ENDBRANCH   9  10
ENDBRANCH   6   8
ENDBRANCH   5   6
ENDBRANCH   4   5
ENDBRANCH   3   4
ENDBRANCH   2   3
ENDBRANCH   1   2
BRANCH   1  27
ATOM     27  C   UNL A   1      37.041  22.132  24.527  1.00  0.00     0.188 C 
BRANCH  27  28
ATOM     28  O   UNL A   1      37.610  21.332  25.537  1.00  0.00    -0.376 OA
BRANCH  28  29
ATOM     29  C   UNL A   1      38.862  21.676  26.108  1.00  0.00     0.202 C 
BRANCH  29  30
ATOM     30  C   UNL A   1      39.388  23.098  26.397  1.00  0.00     0.261 C 
BRANCH  30  31
ATOM     31  O   UNL A   1      40.503  23.256  27.275  1.00  0.00    -0.460 OA
BRANCH  31  32
ATOM     32  C   UNL A   1      41.370  24.244  26.945  1.00  0.00     0.338 C 
ATOM     33  O   UNL A   1      42.148  24.260  26.010  1.00  0.00    -0.246 OA
BRANCH  32  34
ATOM     34  C   UNL A   1      41.106  25.406  27.814  1.00  0.00     0.060 A 
ATOM     35  C   UNL A   1      42.075  26.414  27.905  1.00  0.00     0.016 A 
ATOM     36  C   UNL A   1      39.929  25.481  28.558  1.00  0.00     0.016 A 
ATOM     37  C   UNL A   1      41.871  27.500  28.755  1.00  0.00     0.010 A 
ATOM     38  C   UNL A   1      39.736  26.559  29.425  1.00  0.00     0.010 A 
ATOM     39  C   UNL A   1      40.716  27.562  29.545  1.00  0.00    -0.014 A 
BRANCH  39  40
ATOM     40  C   UNL A   1      40.600  28.593  30.606  1.00  0.00     0.031 A 
ATOM     41  C   UNL A   1      41.493  28.493  31.812  1.00  0.00     0.074 A 
ATOM     42  C   UNL A   1      39.724  29.607  30.492  1.00  0.00     0.049 A 
ATOM     43  N   UNL A   1      41.526  29.240  32.884  1.00  0.00    -0.248 NA
ATOM     44  C   UNL A   1      42.479  27.400  31.808  1.00  0.00     0.031 C 
ATOM     45  C   UNL A   1      38.833  29.832  29.355  1.00  0.00     0.029 A 
ATOM     46  N   UNL A   1      39.431  30.633  31.356  1.00  0.00    -0.354 N 
ATOM     47  C   UNL A   1      42.527  28.705  33.687  1.00  0.00     0.074 A 
ATOM     48  C   UNL A   1      43.056  27.553  32.990  1.00  0.00     0.031 C 
ATOM     49  C   UNL A   1      38.081  30.920  29.598  1.00  0.00     0.029 A 
ATOM     50  C   UNL A   1      38.411  31.447  30.922  1.00  0.00     0.049 A 
ATOM     51  H   UNL A   1      39.906  30.772  32.207  1.00  0.00     0.167 HD
ATOM     52  C   UNL A   1      42.969  29.140  34.891  1.00  0.00     0.037 A 
ATOM     53  C   UNL A   1      37.798  32.479  31.535  1.00  0.00     0.037 A 
ATOM     54  C   UNL A   1      42.433  30.287  35.578  1.00  0.00     0.049 A 
ATOM     55  C   UNL A   1      38.258  32.902  32.907  1.00  0.00     0.074 A 
ATOM     56  C   UNL A   1      42.824  30.820  36.793  1.00  0.00     0.029 A 
ATOM     57  N   UNL A   1      41.385  31.071  35.118  1.00  0.00    -0.354 N 
ATOM     58  N   UNL A   1      39.221  32.403  33.646  1.00  0.00    -0.248 NA
ATOM     59  C   UNL A   1      37.549  34.029  33.529  1.00  0.00     0.031 C 
ATOM     60  C   UNL A   1      41.975  31.890  37.096  1.00  0.00     0.029 A 
ATOM     61  C   UNL A   1      41.096  32.066  36.039  1.00  0.00     0.049 A 
ATOM     62  H   UNL A   1      40.914  30.941  34.263  1.00  0.00     0.167 HD
ATOM     63  C   UNL A   1      39.254  33.176  34.804  1.00  0.00     0.074 A 
ATOM     64  C   UNL A   1      38.221  34.181  34.663  1.00  0.00     0.031 C 
ATOM     65  C   UNL A   1      40.069  33.067  35.884  1.00  0.00     0.037 A 
BRANCH  52  66
ATOM     66  C   UNL A   1      44.066  28.355  35.557  1.00  0.00     0.058 A 
ATOM     67  C   UNL A   1      43.792  27.321  36.467  1.00  0.00     0.135 A 
ATOM     68  C   UNL A   1      45.411  28.620  35.255  1.00  0.00     0.135 A 
ATOM     69  F   UNL A   1      42.525  27.038  36.808  1.00  0.00    -0.206 F 
ATOM     70  C   UNL A   1      44.813  26.596  37.073  1.00  0.00     0.059 A 
ATOM     71  C   UNL A   1      46.447  27.887  35.826  1.00  0.00     0.059 A 
ATOM     72  F   UNL A   1      45.731  29.599  34.395  1.00  0.00    -0.206 F 
ATOM     73  C   UNL A   1      46.139  26.886  36.744  1.00  0.00     0.060 A 
BRANCH  73  74
ATOM     74  S   UNL A   1      47.451  25.930  37.533  1.00  0.00     0.124 S 
ATOM     75  O   UNL A   1      46.739  24.711  37.908  1.00  0.00    -0.237 OA
ATOM     76  O   UNL A   1      48.425  25.789  36.456  1.00  0.00    -0.237 OA
ATOM     77  O   UNL A   1      47.869  26.777  38.646  1.00  0.00    -0.744 OA
ENDBRANCH  73  74
ENDBRANCH  52  66
BRANCH  53  78
ATOM     78  C   UNL A   1      36.670  33.180  30.861  1.00  0.00     0.058 A 
ATOM     79  C   UNL A   1      36.893  34.036  29.772  1.00  0.00     0.135 A 
ATOM     80  C   UNL A   1      35.346  33.015  31.299  1.00  0.00     0.135 A 
ATOM     81  F   UNL A   1      38.142  34.241  29.325  1.00  0.00    -0.206 F 
ATOM     82  C   UNL A   1      35.849  34.712  29.149  1.00  0.00     0.059 A 
ATOM     83  C   UNL A   1      34.282  33.657  30.675  1.00  0.00     0.059 A 
ATOM     84  F   UNL A   1      35.077  32.203  32.332  1.00  0.00    -0.206 F 
ATOM     85  C   UNL A   1      34.544  34.513  29.606  1.00  0.00     0.060 A 
BRANCH  85  86
ATOM     86  S   UNL A   1      33.192  35.360  28.761  1.00  0.00     0.124 S 
ATOM     87  O   UNL A   1      32.597  34.273  27.994  1.00  0.00    -0.237 OA
ATOM     88  O   UNL A   1      32.400  35.862  29.880  1.00  0.00    -0.237 OA
ATOM     89  O   UNL A   1      33.876  36.385  27.976  1.00  0.00    -0.744 OA
ENDBRANCH  85  86
ENDBRANCH  53  78
BRANCH  65  90
ATOM     90  C   UNL A   1      39.909  34.081  36.986  1.00  0.00     0.058 A 
ATOM     91  C   UNL A   1      40.544  35.332  36.944  1.00  0.00     0.135 A 
ATOM     92  C   UNL A   1      39.059  33.817  38.073  1.00  0.00     0.135 A 
ATOM     93  F   UNL A   1      41.371  35.636  35.931  1.00  0.00    -0.206 F 
ATOM     94  C   UNL A   1      40.364  36.273  37.953  1.00  0.00     0.059 A 
ATOM     95  C   UNL A   1      38.839  34.756  39.077  1.00  0.00     0.059 A 
ATOM     96  F   UNL A   1      38.415  32.642  38.160  1.00  0.00    -0.206 F 
ATOM     97  C   UNL A   1      39.507  35.977  39.014  1.00  0.00     0.060 A 
BRANCH  97  98
ATOM     98  S   UNL A   1      39.257  37.223  40.298  1.00  0.00     0.124 S 
ATOM     99  O   UNL A   1      38.542  36.458  41.315  1.00  0.00    -0.237 OA
ATOM    100  O   UNL A   1      40.625  37.603  40.635  1.00  0.00    -0.237 OA
ATOM    101  O   UNL A   1      38.474  38.254  39.623  1.00  0.00    -0.744 OA
ENDBRANCH  97  98
ENDBRANCH  65  90
ENDBRANCH  39  40
ENDBRANCH  32  34
ENDBRANCH  31  32
ENDBRANCH  30  31
ENDBRANCH  29  30
ENDBRANCH  28  29
ENDBRANCH  27  28
ENDBRANCH   1  27
TORSDOF 23
ENDMDL
MODEL 2
REMARK VINA RESULT:      -9.9      0.545      7.971
REMARK SMILES Cc1cs/c(=N\S(=O)(=O)c2ccc(/C=C/C(=O)OCCOCCOCCOC(=O)c3ccc(-c4c5nc(c(-c6c(F)cc(S(=O)(=O)[O-])cc6F)c6ccc([nH]6)c(-c6c(F)cc(S(=O)(=O)[O-])cc6F)c6nc(c(-c7c(F)cc(S(=O)(=O)[O-])cc7F)c7ccc4[nH]7)C=C6)C=C5)cc3)cc2)[nH]1
REMARK SMILES IDX 22 1 21 2 20 3 19 4 18 5 16 6 17 7 15 8 14 9 13 10 10 11
REMARK SMILES IDX 11 12 97 13 12 14 96 15 7 16 8 17 9 18 6 19 1 20 2 21 3 22
REMARK SMILES IDX 98 23 4 24 5 25 23 27 24 28 25 29 26 30 27 31 28 32 29 33
REMARK SMILES IDX 30 34 31 35 95 36 32 37 94 38 33 39 34 40 35 41 88 42 36 43
REMARK SMILES IDX 93 44 87 45 89 46 37 47 92 48 86 49 85 50 38 52 72 53 51 54
REMARK SMILES IDX 71 55 52 56 55 57 70 58 90 59 53 60 54 61 69 63 91 64 56 65
REMARK SMILES IDX 39 66 40 67 49 68 41 69 42 70 48 71 50 72 43 73 44 74 45 75
REMARK SMILES IDX 46 76 47 77 73 78 74 79 83 80 75 81 76 82 82 83 84 84 77 85
REMARK SMILES IDX 78 86 79 87 80 88 81 89 57 90 58 91 67 92 59 93 60 94 66 95
REMARK SMILES IDX 68 96 61 97 62 98 63 99 64 100 65 101
REMARK H PARENT 98 26 89 51 55 62
REMARK Flexibility Score: inf
ROOT
ATOM      1  C   UNL A   1      35.983  22.316  24.540  1.00  0.00     0.188 C 
ENDROOT
BRANCH   1   2
ATOM      2  O   UNL A   1      35.191  22.164  25.701  1.00  0.00    -0.376 OA
BRANCH   2   3
ATOM      3  C   UNL A   1      34.537  20.935  25.974  1.00  0.00     0.202 C 
BRANCH   3   4
ATOM      4  C   UNL A   1      33.055  20.658  25.664  1.00  0.00     0.261 C 
BRANCH   4   5
ATOM      5  O   UNL A   1      32.771  19.780  24.568  1.00  0.00    -0.460 OA
BRANCH   5   6
ATOM      6  C   UNL A   1      32.443  20.399  23.408  1.00  0.00     0.330 C 
ATOM      7  O   UNL A   1      32.147  19.850  22.357  1.00  0.00    -0.247 OA
BRANCH   6   8
ATOM      8  C   UNL A   1      32.365  21.868  23.542  1.00  0.00     0.094 C 
ATOM      9  C   UNL A   1      32.856  22.778  22.685  1.00  0.00     0.015 C 
BRANCH   9  10
ATOM     10  C   UNL A   1      32.675  24.228  22.884  1.00  0.00    -0.025 A 
ATOM     11  C   UNL A   1      32.115  26.954  23.263  1.00  0.00     0.089 A 
ATOM     12  C   UNL A   1      32.720  26.220  24.286  1.00  0.00     0.023 A 
ATOM     13  C   UNL A   1      31.853  26.360  22.027  1.00  0.00     0.023 A 
ATOM     14  C   UNL A   1      33.006  24.866  24.090  1.00  0.00     0.009 A 
ATOM     15  C   UNL A   1      32.141  25.002  21.841  1.00  0.00     0.009 A 
BRANCH  11  16
ATOM     16  S   UNL A   1      31.651  28.644  23.610  1.00  0.00     0.285 S 
ATOM     17  O   UNL A   1      32.891  29.363  23.774  1.00  0.00    -0.199 OA
ATOM     18  O   UNL A   1      30.674  28.544  24.684  1.00  0.00    -0.199 OA
BRANCH  16  19
ATOM     19  N   UNL A   1      30.906  29.166  22.273  1.00  0.00    -0.130 NA
ATOM     20  C   UNL A   1      27.753  32.330  20.387  1.00  0.00     0.065 C 
ATOM     21  C   UNL A   1      28.518  31.698  21.498  1.00  0.00     0.024 A 
ATOM     22  C   UNL A   1      28.468  32.057  22.792  1.00  0.00     0.089 A 
ATOM     23  N   UNL A   1      29.382  30.647  21.260  1.00  0.00    -0.334 N 
ATOM     24  S   UNL A   1      29.526  31.064  23.771  1.00  0.00    -0.104 S 
ATOM     25  C   UNL A   1      30.059  30.135  22.342  1.00  0.00     0.199 A 
ATOM     26  H   UNL A   1      29.508  30.281  20.355  1.00  0.00     0.169 HD
ENDBRANCH  16  19
ENDBRANCH  11  16
ENDBRANCH   9  10
ENDBRANCH   6   8
ENDBRANCH   5   6
ENDBRANCH   4   5
ENDBRANCH   3   4
ENDBRANCH   2   3
ENDBRANCH   1   2
BRANCH   1  27
ATOM     27  C   UNL A   1      37.486  21.989  24.605  1.00  0.00     0.188 C 
BRANCH  27  28
ATOM     28  O   UNL A   1      37.990  21.483  25.819  1.00  0.00    -0.376 OA
BRANCH  28  29
ATOM     29  C   UNL A   1      39.291  21.835  26.262  1.00  0.00     0.202 C 
BRANCH  29  30
ATOM     30  C   UNL A   1      40.043  23.150  25.968  1.00  0.00     0.261 C 
BRANCH  30  31
ATOM     31  O   UNL A   1      41.066  23.574  26.869  1.00  0.00    -0.460 OA
BRANCH  31  32
ATOM     32  C   UNL A   1      41.692  24.731  26.540  1.00  0.00     0.338 C 
ATOM     33  O   UNL A   1      42.286  24.979  25.507  1.00  0.00    -0.246 OA
BRANCH  32  34
ATOM     34  C   UNL A   1      41.392  25.735  27.577  1.00  0.00     0.060 A 
ATOM     35  C   UNL A   1      42.171  26.898  27.635  1.00  0.00     0.016 A 
ATOM     36  C   UNL A   1      40.376  25.512  28.506  1.00  0.00     0.016 A 
ATOM     37  C   UNL A   1      41.939  27.841  28.635  1.00  0.00     0.010 A 
ATOM     38  C   UNL A   1      40.160  26.449  29.520  1.00  0.00     0.010 A 
ATOM     39  C   UNL A   1      40.955  27.606  29.604  1.00  0.00    -0.014 A 
BRANCH  39  40
ATOM     40  C   UNL A   1      40.857  28.494  30.789  1.00  0.00     0.031 A 
ATOM     41  C   UNL A   1      39.818  29.581  30.794  1.00  0.00     0.074 A 
ATOM     42  C   UNL A   1      41.672  28.327  31.846  1.00  0.00     0.049 A 
ATOM     43  N   UNL A   1      39.591  30.507  31.688  1.00  0.00    -0.248 NA
ATOM     44  C   UNL A   1      38.917  29.631  29.631  1.00  0.00     0.031 C 
ATOM     45  C   UNL A   1      42.691  27.288  31.974  1.00  0.00     0.029 A 
ATOM     46  N   UNL A   1      41.776  29.046  33.012  1.00  0.00    -0.354 N 
ATOM     47  C   UNL A   1      38.529  31.256  31.195  1.00  0.00     0.074 A 
ATOM     48  C   UNL A   1      38.176  30.694  29.909  1.00  0.00     0.031 C 
ATOM     49  C   UNL A   1      43.329  27.444  33.147  1.00  0.00     0.029 A 
ATOM     50  C   UNL A   1      42.789  28.615  33.836  1.00  0.00     0.049 A 
ATOM     51  H   UNL A   1      41.182  29.798  33.236  1.00  0.00     0.167 HD
ATOM     52  C   UNL A   1      37.901  32.311  31.766  1.00  0.00     0.037 A 
ATOM     53  C   UNL A   1      43.243  29.125  34.998  1.00  0.00     0.037 A 
ATOM     54  C   UNL A   1      38.261  32.867  33.045  1.00  0.00     0.049 A 
ATOM     55  C   UNL A   1      42.575  30.344  35.582  1.00  0.00     0.074 A 
ATOM     56  C   UNL A   1      37.675  33.923  33.719  1.00  0.00     0.029 A 
ATOM     57  N   UNL A   1      39.307  32.419  33.840  1.00  0.00    -0.354 N 
ATOM     58  N   UNL A   1      41.556  31.030  35.118  1.00  0.00    -0.248 NA
ATOM     59  C   UNL A   1      43.117  30.860  36.847  1.00  0.00     0.031 C 
ATOM     60  C   UNL A   1      38.402  34.152  34.891  1.00  0.00     0.029 A 
ATOM     61  C   UNL A   1      39.402  33.196  34.982  1.00  0.00     0.049 A 
ATOM     62  H   UNL A   1      39.896  31.660  33.623  1.00  0.00     0.167 HD
ATOM     63  C   UNL A   1      41.315  32.036  36.050  1.00  0.00     0.074 A 
ATOM     64  C   UNL A   1      42.289  31.863  37.108  1.00  0.00     0.031 C 
ATOM     65  C   UNL A   1      40.372  33.011  36.034  1.00  0.00     0.037 A 
BRANCH  52  66
ATOM     66  C   UNL A   1      36.778  32.955  30.998  1.00  0.00     0.058 A 
ATOM     67  C   UNL A   1      35.435  32.800  31.376  1.00  0.00     0.135 A 
ATOM     68  C   UNL A   1      37.054  33.767  29.887  1.00  0.00     0.135 A 
ATOM     69  F   UNL A   1      35.111  32.019  32.419  1.00  0.00    -0.206 F 
ATOM     70  C   UNL A   1      34.404  33.406  30.664  1.00  0.00     0.059 A 
ATOM     71  C   UNL A   1      36.042  34.408  29.178  1.00  0.00     0.059 A 
ATOM     72  F   UNL A   1      38.320  33.949  29.478  1.00  0.00    -0.206 F 
ATOM     73  C   UNL A   1      34.718  34.209  29.566  1.00  0.00     0.060 A 
BRANCH  73  74
ATOM     74  S   UNL A   1      33.370  34.993  28.658  1.00  0.00     0.124 S 
ATOM     75  O   UNL A   1      32.558  35.529  29.747  1.00  0.00    -0.237 OA
ATOM     76  O   UNL A   1      34.073  35.981  27.847  1.00  0.00    -0.237 OA
ATOM     77  O   UNL A   1      32.770  33.889  27.916  1.00  0.00    -0.744 OA
ENDBRANCH  73  74
ENDBRANCH  52  66
BRANCH  53  78
ATOM     78  C   UNL A   1      44.403  28.491  35.686  1.00  0.00     0.058 A 
ATOM     79  C   UNL A   1      44.219  27.457  36.615  1.00  0.00     0.135 A 
ATOM     80  C   UNL A   1      45.717  28.914  35.431  1.00  0.00     0.135 A 
ATOM     81  F   UNL A   1      42.982  27.028  36.906  1.00  0.00    -0.206 F 
ATOM     82  C   UNL A   1      45.295  26.873  37.279  1.00  0.00     0.059 A 
ATOM     83  C   UNL A   1      46.811  28.326  36.060  1.00  0.00     0.059 A 
ATOM     84  F   UNL A   1      45.949  29.895  34.546  1.00  0.00    -0.206 F 
ATOM     85  C   UNL A   1      46.588  27.312  36.991  1.00  0.00     0.060 A 
BRANCH  85  86
ATOM     86  S   UNL A   1      47.978  26.516  37.823  1.00  0.00     0.124 S 
ATOM     87  O   UNL A   1      49.095  26.908  36.972  1.00  0.00    -0.237 OA
ATOM     88  O   UNL A   1      47.935  27.132  39.147  1.00  0.00    -0.237 OA
ATOM     89  O   UNL A   1      47.625  25.099  37.788  1.00  0.00    -0.744 OA
ENDBRANCH  85  86
ENDBRANCH  53  78
BRANCH  65  90
ATOM     90  C   UNL A   1      40.313  33.947  37.212  1.00  0.00     0.058 A 
ATOM     91  C   UNL A   1      41.057  35.136  37.256  1.00  0.00     0.135 A 
ATOM     92  C   UNL A   1      39.452  33.676  38.290  1.00  0.00     0.135 A 
ATOM     93  F   UNL A   1      41.899  35.443  36.257  1.00  0.00    -0.206 F 
ATOM     94  C   UNL A   1      40.971  36.009  38.336  1.00  0.00     0.059 A 
ATOM     95  C   UNL A   1      39.326  34.550  39.365  1.00  0.00     0.059 A 
ATOM     96  F   UNL A   1      38.706  32.560  38.296  1.00  0.00    -0.206 F 
ATOM     97  C   UNL A   1      40.099  35.709  39.385  1.00  0.00     0.060 A 
BRANCH  97  98
ATOM     98  S   UNL A   1      39.973  36.869  40.764  1.00  0.00     0.124 S 
ATOM     99  O   UNL A   1      40.250  36.002  41.905  1.00  0.00    -0.237 OA
ATOM    100  O   UNL A   1      41.007  37.847  40.445  1.00  0.00    -0.237 OA
ATOM    101  O   UNL A   1      38.601  37.361  40.669  1.00  0.00    -0.744 OA
ENDBRANCH  97  98
ENDBRANCH  65  90
ENDBRANCH  39  40
ENDBRANCH  32  34
ENDBRANCH  31  32
ENDBRANCH  30  31
ENDBRANCH  29  30
ENDBRANCH  28  29
ENDBRANCH  27  28
ENDBRANCH   1  27
TORSDOF 23
ENDMDL
MODEL 3
REMARK VINA RESULT:      -9.5      6.359     12.896
REMARK SMILES Cc1cs/c(=N\S(=O)(=O)c2ccc(/C=C/C(=O)OCCOCCOCCOC(=O)c3ccc(-c4c5nc(c(-c6c(F)cc(S(=O)(=O)[O-])cc6F)c6ccc([nH]6)c(-c6c(F)cc(S(=O)(=O)[O-])cc6F)c6nc(c(-c7c(F)cc(S(=O)(=O)[O-])cc7F)c7ccc4[nH]7)C=C6)C=C5)cc3)cc2)[nH]1
REMARK SMILES IDX 22 1 21 2 20 3 19 4 18 5 16 6 17 7 15 8 14 9 13 10 10 11
REMARK SMILES IDX 11 12 97 13 12 14 96 15 7 16 8 17 9 18 6 19 1 20 2 21 3 22
REMARK SMILES IDX 98 23 4 24 5 25 23 27 24 28 25 29 26 30 27 31 28 32 29 33
REMARK SMILES IDX 30 34 31 35 95 36 32 37 94 38 33 39 34 40 35 41 88 42 36 43
REMARK SMILES IDX 93 44 87 45 89 46 37 47 92 48 86 49 85 50 38 52 72 53 51 54
REMARK SMILES IDX 71 55 52 56 55 57 70 58 90 59 53 60 54 61 69 63 91 64 56 65
REMARK SMILES IDX 39 66 40 67 49 68 41 69 42 70 48 71 50 72 43 73 44 74 45 75
REMARK SMILES IDX 46 76 47 77 73 78 74 79 83 80 75 81 76 82 82 83 84 84 77 85
REMARK SMILES IDX 78 86 79 87 80 88 81 89 57 90 58 91 67 92 59 93 60 94 66 95
REMARK SMILES IDX 68 96 61 97 62 98 63 99 64 100 65 101
REMARK H PARENT 98 26 89 51 55 62
REMARK Flexibility Score: inf
ROOT
ATOM      1  C   UNL A   1      34.400  35.291  28.566  1.00  0.00     0.188 C 
ENDROOT
BRANCH   1   2
ATOM      2  O   UNL A   1      34.742  34.270  27.651  1.00  0.00    -0.376 OA
BRANCH   2   3
ATOM      3  C   UNL A   1      34.810  32.917  28.069  1.00  0.00     0.202 C 
BRANCH   3   4
ATOM      4  C   UNL A   1      36.072  32.040  27.959  1.00  0.00     0.261 C 
BRANCH   4   5
ATOM      5  O   UNL A   1      35.878  30.649  27.677  1.00  0.00    -0.460 OA
BRANCH   5   6
ATOM      6  C   UNL A   1      36.446  29.800  28.567  1.00  0.00     0.330 C 
ATOM      7  O   UNL A   1      36.052  29.577  29.702  1.00  0.00    -0.247 OA
BRANCH   6   8
ATOM      8  C   UNL A   1      37.580  29.044  27.998  1.00  0.00     0.094 C 
ATOM      9  C   UNL A   1      38.585  28.472  28.681  1.00  0.00     0.015 C 
BRANCH   9  10
ATOM     10  C   UNL A   1      39.644  27.688  28.017  1.00  0.00    -0.025 A 
ATOM     11  C   UNL A   1      41.775  26.211  26.939  1.00  0.00     0.089 A 
ATOM     12  C   UNL A   1      40.547  25.588  27.176  1.00  0.00     0.023 A 
ATOM     13  C   UNL A   1      41.929  27.580  27.167  1.00  0.00     0.023 A 
ATOM     14  C   UNL A   1      39.486  26.330  27.703  1.00  0.00     0.009 A 
ATOM     15  C   UNL A   1      40.860  28.314  27.698  1.00  0.00     0.009 A 
BRANCH  11  16
ATOM     16  S   UNL A   1      43.136  25.192  26.389  1.00  0.00     0.285 S 
ATOM     17  O   UNL A   1      44.157  25.328  27.400  1.00  0.00    -0.199 OA
ATOM     18  O   UNL A   1      43.365  25.595  25.010  1.00  0.00    -0.199 OA
BRANCH  16  19
ATOM     19  N   UNL A   1      42.569  23.677  26.404  1.00  0.00    -0.130 NA
ATOM     20  C   UNL A   1      43.462  19.028  25.363  1.00  0.00     0.065 C 
ATOM     21  C   UNL A   1      43.793  20.479  25.414  1.00  0.00     0.024 A 
ATOM     22  C   UNL A   1      44.943  21.039  25.001  1.00  0.00     0.089 A 
ATOM     23  N   UNL A   1      42.896  21.396  25.924  1.00  0.00    -0.334 N 
ATOM     24  S   UNL A   1      44.932  22.772  25.243  1.00  0.00    -0.104 S 
ATOM     25  C   UNL A   1      43.292  22.713  25.947  1.00  0.00     0.199 A 
ATOM     26  H   UNL A   1      42.012  21.120  26.256  1.00  0.00     0.169 HD
ENDBRANCH  16  19
ENDBRANCH  11  16
ENDBRANCH   9  10
ENDBRANCH   6   8
ENDBRANCH   5   6
ENDBRANCH   4   5
ENDBRANCH   3   4
ENDBRANCH   2   3
ENDBRANCH   1   2
BRANCH   1  27
ATOM     27  C   UNL A   1      32.936  35.440  29.018  1.00  0.00     0.188 C 
BRANCH  27  28
ATOM     28  O   UNL A   1      32.651  35.225  30.380  1.00  0.00    -0.376 OA
BRANCH  28  29
ATOM     29  C   UNL A   1      33.383  35.908  31.385  1.00  0.00     0.202 C 
BRANCH  29  30
ATOM     30  C   UNL A   1      33.593  35.456  32.846  1.00  0.00     0.261 C 
BRANCH  30  31
ATOM     31  O   UNL A   1      34.796  34.768  33.188  1.00  0.00    -0.460 OA
BRANCH  31  32
ATOM     32  C   UNL A   1      34.811  33.443  32.903  1.00  0.00     0.338 C 
ATOM     33  O   UNL A   1      33.852  32.710  32.753  1.00  0.00    -0.246 OA
BRANCH  32  34
ATOM     34  C   UNL A   1      36.203  33.042  32.625  1.00  0.00     0.060 A 
ATOM     35  C   UNL A   1      37.207  33.423  33.524  1.00  0.00     0.016 A 
ATOM     36  C   UNL A   1      36.517  32.328  31.468  1.00  0.00     0.016 A 
ATOM     37  C   UNL A   1      38.537  33.097  33.261  1.00  0.00     0.010 A 
ATOM     38  C   UNL A   1      37.853  32.023  31.196  1.00  0.00     0.010 A 
ATOM     39  C   UNL A   1      38.871  32.425  32.079  1.00  0.00    -0.014 A 
BRANCH  39  40
ATOM     40  C   UNL A   1      40.295  32.275  31.691  1.00  0.00     0.031 A 
ATOM     41  C   UNL A   1      40.942  33.363  30.877  1.00  0.00     0.074 A 
ATOM     42  C   UNL A   1      41.004  31.195  32.066  1.00  0.00     0.049 A 
ATOM     43  N   UNL A   1      42.147  33.419  30.375  1.00  0.00    -0.248 NA
ATOM     44  C   UNL A   1      40.112  34.544  30.588  1.00  0.00     0.031 C 
ATOM     45  C   UNL A   1      40.501  30.095  32.885  1.00  0.00     0.029 A 
ATOM     46  N   UNL A   1      42.303  30.843  31.791  1.00  0.00    -0.354 N 
ATOM     47  C   UNL A   1      42.222  34.634  29.705  1.00  0.00     0.074 A 
ATOM     48  C   UNL A   1      40.929  35.270  29.838  1.00  0.00     0.031 C 
ATOM     49  C   UNL A   1      41.475  29.181  33.035  1.00  0.00     0.029 A 
ATOM     50  C   UNL A   1      42.658  29.613  32.293  1.00  0.00     0.049 A 
ATOM     51  H   UNL A   1      42.921  31.416  31.282  1.00  0.00     0.167 HD
ATOM     52  C   UNL A   1      43.274  35.172  29.044  1.00  0.00     0.037 A 
ATOM     53  C   UNL A   1      43.798  28.908  32.146  1.00  0.00     0.037 A 
ATOM     54  C   UNL A   1      44.556  34.529  28.912  1.00  0.00     0.049 A 
ATOM     55  C   UNL A   1      44.932  29.495  31.345  1.00  0.00     0.074 A 
ATOM     56  C   UNL A   1      45.692  35.000  28.279  1.00  0.00     0.029 A 
ATOM     57  N   UNL A   1      44.871  33.274  29.414  1.00  0.00    -0.354 N 
ATOM     58  N   UNL A   1      44.999  30.655  30.735  1.00  0.00    -0.248 NA
ATOM     59  C   UNL A   1      46.147  28.679  31.213  1.00  0.00     0.031 C 
ATOM     60  C   UNL A   1      46.674  34.007  28.346  1.00  0.00     0.029 A 
ATOM     61  C   UNL A   1      46.174  32.942  29.078  1.00  0.00     0.049 A 
ATOM     62  H   UNL A   1      44.259  32.703  29.932  1.00  0.00     0.167 HD
ATOM     63  C   UNL A   1      46.273  30.721  30.176  1.00  0.00     0.074 A 
ATOM     64  C   UNL A   1      46.945  29.488  30.528  1.00  0.00     0.031 C 
ATOM     65  C   UNL A   1      46.836  31.713  29.441  1.00  0.00     0.037 A 
BRANCH  52  66
ATOM     66  C   UNL A   1      43.074  36.510  28.385  1.00  0.00     0.058 A 
ATOM     67  C   UNL A   1      42.521  36.630  27.100  1.00  0.00     0.135 A 
ATOM     68  C   UNL A   1      43.411  37.692  29.064  1.00  0.00     0.135 A 
ATOM     69  F   UNL A   1      42.199  35.533  26.397  1.00  0.00    -0.206 F 
ATOM     70  C   UNL A   1      42.333  37.873  26.502  1.00  0.00     0.059 A 
ATOM     71  C   UNL A   1      43.203  38.946  28.497  1.00  0.00     0.059 A 
ATOM     72  F   UNL A   1      43.946  37.638  30.293  1.00  0.00    -0.206 F 
ATOM     73  C   UNL A   1      42.676  39.025  27.210  1.00  0.00     0.060 A 
BRANCH  73  74
ATOM     74  S   UNL A   1      42.419  40.629  26.422  1.00  0.00     0.124 S 
ATOM     75  O   UNL A   1      42.737  41.545  27.514  1.00  0.00    -0.237 OA
ATOM     76  O   UNL A   1      43.379  40.594  25.324  1.00  0.00    -0.237 OA
ATOM     77  O   UNL A   1      41.015  40.593  26.024  1.00  0.00    -0.744 OA
ENDBRANCH  73  74
ENDBRANCH  52  66
BRANCH  53  78
ATOM     78  C   UNL A   1      43.921  27.557  32.761  1.00  0.00     0.058 A 
ATOM     79  C   UNL A   1      43.776  26.393  31.993  1.00  0.00     0.135 A 
ATOM     80  C   UNL A   1      44.179  27.404  34.133  1.00  0.00     0.135 A 
ATOM     81  F   UNL A   1      43.512  26.484  30.680  1.00  0.00    -0.206 F 
ATOM     82  C   UNL A   1      43.867  25.126  32.562  1.00  0.00     0.059 A 
ATOM     83  C   UNL A   1      44.304  26.149  34.720  1.00  0.00     0.059 A 
ATOM     84  F   UNL A   1      44.333  28.485  34.913  1.00  0.00    -0.206 F 
ATOM     85  C   UNL A   1      44.136  25.014  33.927  1.00  0.00     0.060 A 
BRANCH  85  86
ATOM     86  S   UNL A   1      44.299  23.366  34.646  1.00  0.00     0.124 S 
ATOM     87  O   UNL A   1      42.959  22.825  34.448  1.00  0.00    -0.237 OA
ATOM     88  O   UNL A   1      45.354  22.778  33.825  1.00  0.00    -0.237 OA
ATOM     89  O   UNL A   1      44.671  23.638  36.032  1.00  0.00    -0.744 OA
ENDBRANCH  85  86
ENDBRANCH  53  78
BRANCH  65  90
ATOM     90  C   UNL A   1      48.264  31.532  28.999  1.00  0.00     0.058 A 
ATOM     91  C   UNL A   1      48.593  31.054  27.721  1.00  0.00     0.135 A 
ATOM     92  C   UNL A   1      49.321  31.898  29.851  1.00  0.00     0.135 A 
ATOM     93  F   UNL A   1      47.624  30.686  26.868  1.00  0.00    -0.206 F 
ATOM     94  C   UNL A   1      49.917  30.921  27.312  1.00  0.00     0.059 A 
ATOM     95  C   UNL A   1      50.650  31.803  29.451  1.00  0.00     0.059 A 
ATOM     96  F   UNL A   1      49.066  32.372  31.080  1.00  0.00    -0.206 F 
ATOM     97  C   UNL A   1      50.939  31.301  28.184  1.00  0.00     0.060 A 
BRANCH  97  98
ATOM     98  S   UNL A   1      52.650  31.155  27.626  1.00  0.00     0.124 S 
ATOM     99  O   UNL A   1      52.865  29.713  27.709  1.00  0.00    -0.237 OA
ATOM    100  O   UNL A   1      52.589  31.711  26.279  1.00  0.00    -0.237 OA
ATOM    101  O   UNL A   1      53.394  31.955  28.595  1.00  0.00    -0.744 OA
ENDBRANCH  97  98
ENDBRANCH  65  90
ENDBRANCH  39  40
ENDBRANCH  32  34
ENDBRANCH  31  32
ENDBRANCH  30  31
ENDBRANCH  29  30
ENDBRANCH  28  29
ENDBRANCH  27  28
ENDBRANCH   1  27
TORSDOF 23
ENDMDL
