MODEL 1
REMARK VINA RESULT:      -9.7      0.000      0.000
REMARK SMILES O=C(OCCOCCOCCOC(=O)[C@@H](F)Oc1ccc(F)c(Cl)c1)c1ccc(-c2c3nc(c(-c4c(F)cc(S(=O)(=O)[O-])cc4F)c4ccc([nH]4)c(-c4c(F)cc(S(=O)(=O)[O-])cc4F)c4nc(c(-c5c(F)cc(S(=O)(=O)[O-])cc5F)c5ccc2[nH]5)C=C4)C=C3)cc1
REMARK SMILES IDX 7 1 6 2 5 3 4 4 3 5 2 6 1 7 26 8 27 9 91 10 28 11 90 12
REMARK SMILES IDX 29 13 30 14 31 15 84 16 32 17 89 18 83 19 85 20 33 21 88 22
REMARK SMILES IDX 82 23 81 24 34 26 68 27 47 28 67 29 48 30 51 31 66 32 86 33
REMARK SMILES IDX 49 34 50 35 65 37 87 38 52 39 35 40 36 41 45 42 37 43 38 44
REMARK SMILES IDX 44 45 46 46 39 47 40 48 41 49 42 50 43 51 69 52 70 53 79 54
REMARK SMILES IDX 71 55 72 56 78 57 80 58 73 59 74 60 75 61 76 62 77 63 53 64
REMARK SMILES IDX 54 65 63 66 55 67 56 68 62 69 64 70 57 71 58 72 59 73 60 74
REMARK SMILES IDX 61 75 8 76 9 77 10 78 11 79 12 80 13 81 14 82 15 83 16 84
REMARK SMILES IDX 17 85 18 86 19 87 25 88 20 89 23 90 21 91 24 92 22 93
REMARK H PARENT 85 25 51 36
REMARK Flexibility Score: inf
ROOT
ATOM      1  C   UNL A   1      38.549  21.811  25.412  1.00  0.00     0.188 C 
ENDROOT
BRANCH   1   2
ATOM      2  O   UNL A   1      39.287  20.729  25.987  1.00  0.00    -0.376 OA
BRANCH   2   3
ATOM      3  C   UNL A   1      40.438  21.111  26.751  1.00  0.00     0.202 C 
BRANCH   3   4
ATOM      4  C   UNL A   1      40.371  22.432  27.546  1.00  0.00     0.261 C 
BRANCH   4   5
ATOM      5  O   UNL A   1      41.069  23.535  26.946  1.00  0.00    -0.460 OA
BRANCH   5   6
ATOM      6  C   UNL A   1      40.618  24.795  26.727  1.00  0.00     0.338 C 
ATOM      7  O   UNL A   1      40.265  25.105  25.591  1.00  0.00    -0.246 OA
BRANCH   6   8
ATOM      8  C   UNL A   1      40.560  25.840  27.792  1.00  0.00     0.060 A 
ATOM      9  C   UNL A   1      39.571  25.913  28.771  1.00  0.00     0.016 A 
ATOM     10  C   UNL A   1      41.632  26.743  27.874  1.00  0.00     0.016 A 
ATOM     11  C   UNL A   1      39.579  26.897  29.749  1.00  0.00     0.010 A 
ATOM     12  C   UNL A   1      41.683  27.703  28.890  1.00  0.00     0.010 A 
ATOM     13  C   UNL A   1      40.639  27.792  29.817  1.00  0.00    -0.014 A 
BRANCH  13  14
ATOM     14  C   UNL A   1      40.588  28.849  30.842  1.00  0.00     0.031 A 
ATOM     15  C   UNL A   1      41.604  28.814  31.938  1.00  0.00     0.074 A 
ATOM     16  C   UNL A   1      39.689  29.844  30.718  1.00  0.00     0.049 A 
ATOM     17  N   UNL A   1      41.720  29.598  32.973  1.00  0.00    -0.248 NA
ATOM     18  C   UNL A   1      42.628  27.755  31.865  1.00  0.00     0.031 C 
ATOM     19  C   UNL A   1      38.724  29.959  29.622  1.00  0.00     0.029 A 
ATOM     20  N   UNL A   1      39.438  30.944  31.493  1.00  0.00    -0.354 N 
ATOM     21  C   UNL A   1      42.784  29.090  33.706  1.00  0.00     0.074 A 
ATOM     22  C   UNL A   1      43.305  27.952  32.987  1.00  0.00     0.031 C 
ATOM     23  C   UNL A   1      37.998  31.075  29.788  1.00  0.00     0.029 A 
ATOM     24  C   UNL A   1      38.396  31.722  31.033  1.00  0.00     0.049 A 
ATOM     25  H   UNL A   1      39.953  31.161  32.303  1.00  0.00     0.167 HD
ATOM     26  C   UNL A   1      43.249  29.533  34.893  1.00  0.00     0.037 A 
ATOM     27  C   UNL A   1      37.816  32.808  31.586  1.00  0.00     0.037 A 
ATOM     28  C   UNL A   1      42.707  30.685  35.561  1.00  0.00     0.049 A 
ATOM     29  C   UNL A   1      38.368  33.267  32.916  1.00  0.00     0.074 A 
ATOM     30  C   UNL A   1      43.084  31.235  36.772  1.00  0.00     0.029 A 
ATOM     31  N   UNL A   1      41.662  31.458  35.071  1.00  0.00    -0.354 N 
ATOM     32  N   UNL A   1      39.400  32.801  33.585  1.00  0.00    -0.248 NA
ATOM     33  C   UNL A   1      37.673  34.374  33.583  1.00  0.00     0.031 C 
ATOM     34  C   UNL A   1      42.225  32.305  37.040  1.00  0.00     0.029 A 
ATOM     35  C   UNL A   1      41.350  32.455  35.974  1.00  0.00     0.049 A 
ATOM     36  H   UNL A   1      41.212  31.316  34.207  1.00  0.00     0.167 HD
ATOM     37  C   UNL A   1      39.474  33.556  34.747  1.00  0.00     0.074 A 
ATOM     38  C   UNL A   1      38.423  34.551  34.660  1.00  0.00     0.031 C 
ATOM     39  C   UNL A   1      40.300  33.430  35.814  1.00  0.00     0.037 A 
BRANCH  26  40
ATOM     40  C   UNL A   1      44.317  28.732  35.575  1.00  0.00     0.058 A 
ATOM     41  C   UNL A   1      44.027  27.678  36.452  1.00  0.00     0.135 A 
ATOM     42  C   UNL A   1      45.669  29.013  35.311  1.00  0.00     0.135 A 
ATOM     43  F   UNL A   1      42.754  27.392  36.768  1.00  0.00    -0.206 F 
ATOM     44  C   UNL A   1      45.038  26.926  37.042  1.00  0.00     0.059 A 
ATOM     45  C   UNL A   1      46.695  28.262  35.873  1.00  0.00     0.059 A 
ATOM     46  F   UNL A   1      46.001  30.029  34.499  1.00  0.00    -0.206 F 
ATOM     47  C   UNL A   1      46.370  27.220  36.738  1.00  0.00     0.060 A 
BRANCH  47  48
ATOM     48  S   UNL A   1      47.668  26.205  37.474  1.00  0.00     0.124 S 
ATOM     49  O   UNL A   1      47.195  24.859  37.170  1.00  0.00    -0.237 OA
ATOM     50  O   UNL A   1      48.853  26.640  36.742  1.00  0.00    -0.237 OA
ATOM     51  O   UNL A   1      47.634  26.578  38.885  1.00  0.00    -0.744 OA
ENDBRANCH  47  48
ENDBRANCH  26  40
BRANCH  27  52
ATOM     52  C   UNL A   1      36.653  33.496  30.939  1.00  0.00     0.058 A 
ATOM     53  C   UNL A   1      35.341  33.323  31.412  1.00  0.00     0.135 A 
ATOM     54  C   UNL A   1      36.810  34.327  29.816  1.00  0.00     0.135 A 
ATOM     55  F   UNL A   1      35.104  32.488  32.434  1.00  0.00    -0.206 F 
ATOM     56  C   UNL A   1      34.246  33.952  30.823  1.00  0.00     0.059 A 
ATOM     57  C   UNL A   1      35.737  34.988  29.222  1.00  0.00     0.059 A 
ATOM     58  F   UNL A   1      38.026  34.517  29.280  1.00  0.00    -0.206 F 
ATOM     59  C   UNL A   1      34.455  34.788  29.729  1.00  0.00     0.060 A 
BRANCH  59  60
ATOM     60  S   UNL A   1      33.030  35.598  28.972  1.00  0.00     0.124 S 
ATOM     61  O   UNL A   1      32.309  36.083  30.143  1.00  0.00    -0.237 OA
ATOM     62  O   UNL A   1      33.666  36.619  28.145  1.00  0.00    -0.237 OA
ATOM     63  O   UNL A   1      32.382  34.517  28.236  1.00  0.00    -0.744 OA
ENDBRANCH  59  60
ENDBRANCH  27  52
BRANCH  39  64
ATOM     64  C   UNL A   1      40.081  34.380  36.954  1.00  0.00     0.058 A 
ATOM     65  C   UNL A   1      40.775  35.597  37.021  1.00  0.00     0.135 A 
ATOM     66  C   UNL A   1      39.116  34.109  37.935  1.00  0.00     0.135 A 
ATOM     67  F   UNL A   1      41.714  35.894  36.108  1.00  0.00    -0.206 F 
ATOM     68  C   UNL A   1      40.530  36.512  38.036  1.00  0.00     0.059 A 
ATOM     69  C   UNL A   1      38.831  35.024  38.940  1.00  0.00     0.059 A 
ATOM     70  F   UNL A   1      38.419  32.962  37.902  1.00  0.00    -0.206 F 
ATOM     71  C   UNL A   1      39.549  36.220  38.986  1.00  0.00     0.060 A 
BRANCH  71  72
ATOM     72  S   UNL A   1      39.193  37.449  40.256  1.00  0.00     0.124 S 
ATOM     73  O   UNL A   1      38.658  36.616  41.328  1.00  0.00    -0.237 OA
ATOM     74  O   UNL A   1      40.508  38.032  40.501  1.00  0.00    -0.237 OA
ATOM     75  O   UNL A   1      38.230  38.336  39.610  1.00  0.00    -0.744 OA
ENDBRANCH  71  72
ENDBRANCH  39  64
ENDBRANCH  13  14
ENDBRANCH   6   8
ENDBRANCH   5   6
ENDBRANCH   4   5
ENDBRANCH   3   4
ENDBRANCH   2   3
ENDBRANCH   1   2
BRANCH   1  76
ATOM     76  C   UNL A   1      37.052  21.761  25.729  1.00  0.00     0.188 C 
BRANCH  76  77
ATOM     77  O   UNL A   1      36.427  23.012  26.024  1.00  0.00    -0.376 OA
BRANCH  77  78
ATOM     78  C   UNL A   1      35.423  23.451  25.117  1.00  0.00     0.202 C 
BRANCH  78  79
ATOM     79  C   UNL A   1      34.093  22.697  25.144  1.00  0.00     0.261 C 
BRANCH  79  80
ATOM     80  O   UNL A   1      33.697  22.146  23.883  1.00  0.00    -0.458 OA
BRANCH  80  81
ATOM     81  C   UNL A   1      32.352  22.000  23.667  1.00  0.00     0.381 C 
ATOM     82  O   UNL A   1      31.573  22.932  23.493  1.00  0.00    -0.244 OA
BRANCH  81  83
ATOM     83  C   UNL A   1      31.943  20.521  23.769  1.00  0.00     0.461 C 
ATOM     84  F   UNL A   1      32.415  19.757  22.735  1.00  0.00    -0.189 F 
BRANCH  83  85
ATOM     85  O   UNL A   1      32.266  19.866  24.991  1.00  0.00    -0.451 OA
BRANCH  85  86
ATOM     86  C   UNL A   1      33.096  18.780  24.944  1.00  0.00     0.125 A 
ATOM     87  C   UNL A   1      34.460  18.810  24.648  1.00  0.00     0.050 A 
ATOM     88  C   UNL A   1      32.508  17.553  25.271  1.00  0.00     0.070 A 
ATOM     89  C   UNL A   1      35.223  17.643  24.629  1.00  0.00     0.044 A 
ATOM     90  C   UNL A   1      33.273  16.382  25.249  1.00  0.00     0.080 A 
ATOM     91  C   UNL A   1      34.621  16.432  24.917  1.00  0.00     0.142 A 
ATOM     92  Cl  UNL A   1      32.574  14.874  25.671  1.00  0.00    -0.081 Cl
ATOM     93  F   UNL A   1      35.374  15.324  24.892  1.00  0.00    -0.205 F 
ENDBRANCH  85  86
ENDBRANCH  83  85
ENDBRANCH  81  83
ENDBRANCH  80  81
ENDBRANCH  79  80
ENDBRANCH  78  79
ENDBRANCH  77  78
ENDBRANCH  76  77
ENDBRANCH   1  76
TORSDOF 22
ENDMDL
MODEL 2
REMARK VINA RESULT:      -9.7      2.428      3.842
REMARK SMILES O=C(OCCOCCOCCOC(=O)[C@@H](F)Oc1ccc(F)c(Cl)c1)c1ccc(-c2c3nc(c(-c4c(F)cc(S(=O)(=O)[O-])cc4F)c4ccc([nH]4)c(-c4c(F)cc(S(=O)(=O)[O-])cc4F)c4nc(c(-c5c(F)cc(S(=O)(=O)[O-])cc5F)c5ccc2[nH]5)C=C4)C=C3)cc1
REMARK SMILES IDX 7 1 6 2 5 3 4 4 3 5 2 6 1 7 26 8 27 9 91 10 28 11 90 12
REMARK SMILES IDX 29 13 30 14 31 15 84 16 32 17 89 18 83 19 85 20 33 21 88 22
REMARK SMILES IDX 82 23 81 24 34 26 68 27 47 28 67 29 48 30 51 31 66 32 86 33
REMARK SMILES IDX 49 34 50 35 65 37 87 38 52 39 35 40 36 41 45 42 37 43 38 44
REMARK SMILES IDX 44 45 46 46 39 47 40 48 41 49 42 50 43 51 69 52 70 53 79 54
REMARK SMILES IDX 71 55 72 56 78 57 80 58 73 59 74 60 75 61 76 62 77 63 53 64
REMARK SMILES IDX 54 65 63 66 55 67 56 68 62 69 64 70 57 71 58 72 59 73 60 74
REMARK SMILES IDX 61 75 8 76 9 77 10 78 11 79 12 80 13 81 14 82 15 83 16 84
REMARK SMILES IDX 17 85 18 86 19 87 25 88 20 89 23 90 21 91 24 92 22 93
REMARK H PARENT 85 25 51 36
REMARK Flexibility Score: inf
ROOT
ATOM      1  C   UNL A   1      37.009  22.358  24.639  1.00  0.00     0.188 C 
ENDROOT
BRANCH   1   2
ATOM      2  O   UNL A   1      37.576  21.837  25.845  1.00  0.00    -0.376 OA
BRANCH   2   3
ATOM      3  C   UNL A   1      38.949  21.439  25.752  1.00  0.00     0.202 C 
BRANCH   3   4
ATOM      4  C   UNL A   1      39.996  22.272  26.520  1.00  0.00     0.261 C 
BRANCH   4   5
ATOM      5  O   UNL A   1      39.614  23.632  26.783  1.00  0.00    -0.460 OA
BRANCH   5   6
ATOM      6  C   UNL A   1      40.402  24.736  26.807  1.00  0.00     0.338 C 
ATOM      7  O   UNL A   1      41.234  24.883  25.914  1.00  0.00    -0.246 OA
BRANCH   6   8
ATOM      8  C   UNL A   1      40.334  25.766  27.885  1.00  0.00     0.060 A 
ATOM      9  C   UNL A   1      39.402  25.762  28.922  1.00  0.00     0.016 A 
ATOM     10  C   UNL A   1      41.342  26.743  27.914  1.00  0.00     0.016 A 
ATOM     11  C   UNL A   1      39.399  26.736  29.908  1.00  0.00     0.010 A 
ATOM     12  C   UNL A   1      41.384  27.697  28.936  1.00  0.00     0.010 A 
ATOM     13  C   UNL A   1      40.394  27.705  29.924  1.00  0.00    -0.014 A 
BRANCH  13  14
ATOM     14  C   UNL A   1      40.329  28.747  30.962  1.00  0.00     0.031 A 
ATOM     15  C   UNL A   1      41.309  28.680  32.089  1.00  0.00     0.074 A 
ATOM     16  C   UNL A   1      39.452  29.760  30.824  1.00  0.00     0.049 A 
ATOM     17  N   UNL A   1      41.406  29.447  33.137  1.00  0.00    -0.248 NA
ATOM     18  C   UNL A   1      42.317  27.604  32.032  1.00  0.00     0.031 C 
ATOM     19  C   UNL A   1      38.524  29.907  29.701  1.00  0.00     0.029 A 
ATOM     20  N   UNL A   1      39.196  30.854  31.607  1.00  0.00    -0.354 N 
ATOM     21  C   UNL A   1      42.438  28.910  33.896  1.00  0.00     0.074 A 
ATOM     22  C   UNL A   1      42.962  27.773  33.178  1.00  0.00     0.031 C 
ATOM     23  C   UNL A   1      37.812  31.034  29.860  1.00  0.00     0.029 A 
ATOM     24  C   UNL A   1      38.183  31.656  31.126  1.00  0.00     0.049 A 
ATOM     25  H   UNL A   1      39.689  31.050  32.435  1.00  0.00     0.167 HD
ATOM     26  C   UNL A   1      42.873  29.328  35.104  1.00  0.00     0.037 A 
ATOM     27  C   UNL A   1      37.604  32.745  31.677  1.00  0.00     0.037 A 
ATOM     28  C   UNL A   1      42.330  30.480  35.771  1.00  0.00     0.049 A 
ATOM     29  C   UNL A   1      38.122  33.176  33.029  1.00  0.00     0.074 A 
ATOM     30  C   UNL A   1      42.678  31.006  37.000  1.00  0.00     0.029 A 
ATOM     31  N   UNL A   1      41.315  31.278  35.259  1.00  0.00    -0.354 N 
ATOM     32  N   UNL A   1      39.124  32.681  33.723  1.00  0.00    -0.248 NA
ATOM     33  C   UNL A   1      37.426  34.285  33.690  1.00  0.00     0.031 C 
ATOM     34  C   UNL A   1      41.830  32.087  37.257  1.00  0.00     0.029 A 
ATOM     35  C   UNL A   1      40.992  32.268  36.167  1.00  0.00     0.049 A 
ATOM     36  H   UNL A   1      40.890  31.156  34.380  1.00  0.00     0.167 HD
ATOM     37  C   UNL A   1      39.175  33.419  34.898  1.00  0.00     0.074 A 
ATOM     38  C   UNL A   1      38.145  34.434  34.793  1.00  0.00     0.031 C 
ATOM     39  C   UNL A   1      39.965  33.263  35.988  1.00  0.00     0.037 A 
BRANCH  26  40
ATOM     40  C   UNL A   1      43.905  28.499  35.806  1.00  0.00     0.058 A 
ATOM     41  C   UNL A   1      45.281  28.732  35.670  1.00  0.00     0.135 A 
ATOM     42  C   UNL A   1      43.497  27.464  36.665  1.00  0.00     0.135 A 
ATOM     43  F   UNL A   1      45.726  29.682  34.833  1.00  0.00    -0.206 F 
ATOM     44  C   UNL A   1      46.217  27.970  36.363  1.00  0.00     0.059 A 
ATOM     45  C   UNL A   1      44.413  26.705  37.384  1.00  0.00     0.059 A 
ATOM     46  F   UNL A   1      42.192  27.184  36.811  1.00  0.00    -0.206 F 
ATOM     47  C   UNL A   1      45.773  26.964  37.226  1.00  0.00     0.060 A 
BRANCH  47  48
ATOM     48  S   UNL A   1      46.998  26.019  38.154  1.00  0.00     0.124 S 
ATOM     49  O   UNL A   1      46.261  25.702  39.373  1.00  0.00    -0.237 OA
ATOM     50  O   UNL A   1      47.260  24.894  37.262  1.00  0.00    -0.237 OA
ATOM     51  O   UNL A   1      48.103  26.958  38.315  1.00  0.00    -0.744 OA
ENDBRANCH  47  48
ENDBRANCH  26  40
BRANCH  27  52
ATOM     52  C   UNL A   1      36.474  33.462  31.003  1.00  0.00     0.058 A 
ATOM     53  C   UNL A   1      35.169  33.427  31.523  1.00  0.00     0.135 A 
ATOM     54  C   UNL A   1      36.655  34.183  29.810  1.00  0.00     0.135 A 
ATOM     55  F   UNL A   1      34.904  32.701  32.618  1.00  0.00    -0.206 F 
ATOM     56  C   UNL A   1      34.105  34.086  30.911  1.00  0.00     0.059 A 
ATOM     57  C   UNL A   1      35.615  34.872  29.190  1.00  0.00     0.059 A 
ATOM     58  F   UNL A   1      37.865  34.237  29.229  1.00  0.00    -0.206 F 
ATOM     59  C   UNL A   1      34.339  34.811  29.745  1.00  0.00     0.060 A 
BRANCH  59  60
ATOM     60  S   UNL A   1      32.953  35.661  28.958  1.00  0.00     0.124 S 
ATOM     61  O   UNL A   1      33.624  36.783  28.310  1.00  0.00    -0.237 OA
ATOM     62  O   UNL A   1      32.430  34.629  28.070  1.00  0.00    -0.237 OA
ATOM     63  O   UNL A   1      32.091  36.009  30.083  1.00  0.00    -0.744 OA
ENDBRANCH  59  60
ENDBRANCH  27  52
BRANCH  39  64
ATOM     64  C   UNL A   1      39.726  34.201  37.134  1.00  0.00     0.058 A 
ATOM     65  C   UNL A   1      38.926  33.820  38.222  1.00  0.00     0.135 A 
ATOM     66  C   UNL A   1      40.363  35.450  37.181  1.00  0.00     0.135 A 
ATOM     67  F   UNL A   1      38.290  32.638  38.216  1.00  0.00    -0.206 F 
ATOM     68  C   UNL A   1      38.754  34.656  39.317  1.00  0.00     0.059 A 
ATOM     69  C   UNL A   1      40.230  36.288  38.281  1.00  0.00     0.059 A 
ATOM     70  F   UNL A   1      41.146  35.850  36.166  1.00  0.00    -0.206 F 
ATOM     71  C   UNL A   1      39.417  35.884  39.340  1.00  0.00     0.060 A 
BRANCH  71  72
ATOM     72  S   UNL A   1      39.239  36.927  40.801  1.00  0.00     0.124 S 
ATOM     73  O   UNL A   1      38.544  36.031  41.718  1.00  0.00    -0.237 OA
ATOM     74  O   UNL A   1      40.627  37.229  41.137  1.00  0.00    -0.237 OA
ATOM     75  O   UNL A   1      38.457  38.060  40.316  1.00  0.00    -0.744 OA
ENDBRANCH  71  72
ENDBRANCH  39  64
ENDBRANCH  13  14
ENDBRANCH   6   8
ENDBRANCH   5   6
ENDBRANCH   4   5
ENDBRANCH   3   4
ENDBRANCH   2   3
ENDBRANCH   1   2
BRANCH   1  76
ATOM     76  C   UNL A   1      35.522  22.032  24.478  1.00  0.00     0.188 C 
BRANCH  76  77
ATOM     77  O   UNL A   1      35.148  20.669  24.683  1.00  0.00    -0.376 OA
BRANCH  77  78
ATOM     78  C   UNL A   1      33.814  20.433  25.118  1.00  0.00     0.202 C 
BRANCH  78  79
ATOM     79  C   UNL A   1      32.921  21.661  25.297  1.00  0.00     0.261 C 
BRANCH  79  80
ATOM     80  O   UNL A   1      31.805  21.718  24.401  1.00  0.00    -0.458 OA
BRANCH  80  81
ATOM     81  C   UNL A   1      31.888  22.613  23.366  1.00  0.00     0.381 C 
ATOM     82  O   UNL A   1      32.708  22.545  22.456  1.00  0.00    -0.244 OA
BRANCH  81  83
ATOM     83  C   UNL A   1      30.879  23.757  23.556  1.00  0.00     0.461 C 
ATOM     84  F   UNL A   1      30.833  24.231  24.840  1.00  0.00    -0.189 F 
BRANCH  83  85
ATOM     85  O   UNL A   1      31.022  24.868  22.676  1.00  0.00    -0.451 OA
BRANCH  85  86
ATOM     86  C   UNL A   1      31.620  26.002  23.155  1.00  0.00     0.125 A 
ATOM     87  C   UNL A   1      32.975  26.139  23.461  1.00  0.00     0.050 A 
ATOM     88  C   UNL A   1      30.785  27.115  23.296  1.00  0.00     0.070 A 
ATOM     89  C   UNL A   1      33.490  27.342  23.942  1.00  0.00     0.044 A 
ATOM     90  C   UNL A   1      31.300  28.321  23.782  1.00  0.00     0.080 A 
ATOM     91  C   UNL A   1      32.646  28.424  24.113  1.00  0.00     0.142 A 
ATOM     92  Cl  UNL A   1      30.296  29.701  23.938  1.00  0.00    -0.081 Cl
ATOM     93  F   UNL A   1      33.163  29.569  24.579  1.00  0.00    -0.205 F 
ENDBRANCH  85  86
ENDBRANCH  83  85
ENDBRANCH  81  83
ENDBRANCH  80  81
ENDBRANCH  79  80
ENDBRANCH  78  79
ENDBRANCH  77  78
ENDBRANCH  76  77
ENDBRANCH   1  76
TORSDOF 22
ENDMDL
MODEL 3
REMARK VINA RESULT:      -9.6      2.688      9.173
REMARK SMILES O=C(OCCOCCOCCOC(=O)[C@@H](F)Oc1ccc(F)c(Cl)c1)c1ccc(-c2c3nc(c(-c4c(F)cc(S(=O)(=O)[O-])cc4F)c4ccc([nH]4)c(-c4c(F)cc(S(=O)(=O)[O-])cc4F)c4nc(c(-c5c(F)cc(S(=O)(=O)[O-])cc5F)c5ccc2[nH]5)C=C4)C=C3)cc1
REMARK SMILES IDX 7 1 6 2 5 3 4 4 3 5 2 6 1 7 26 8 27 9 91 10 28 11 90 12
REMARK SMILES IDX 29 13 30 14 31 15 84 16 32 17 89 18 83 19 85 20 33 21 88 22
REMARK SMILES IDX 82 23 81 24 34 26 68 27 47 28 67 29 48 30 51 31 66 32 86 33
REMARK SMILES IDX 49 34 50 35 65 37 87 38 52 39 35 40 36 41 45 42 37 43 38 44
REMARK SMILES IDX 44 45 46 46 39 47 40 48 41 49 42 50 43 51 69 52 70 53 79 54
REMARK SMILES IDX 71 55 72 56 78 57 80 58 73 59 74 60 75 61 76 62 77 63 53 64
REMARK SMILES IDX 54 65 63 66 55 67 56 68 62 69 64 70 57 71 58 72 59 73 60 74
REMARK SMILES IDX 61 75 8 76 9 77 10 78 11 79 12 80 13 81 14 82 15 83 16 84
REMARK SMILES IDX 17 85 18 86 19 87 25 88 20 89 23 90 21 91 24 92 22 93
REMARK H PARENT 85 25 51 36
REMARK Flexibility Score: inf
ROOT
ATOM      1  C   UNL A   1      37.520  21.627  25.269  1.00  0.00     0.188 C 
ENDROOT
BRANCH   1   2
ATOM      2  O   UNL A   1      37.333  23.010  24.955  1.00  0.00    -0.376 OA
BRANCH   2   3
ATOM      3  C   UNL A   1      37.998  23.931  25.829  1.00  0.00     0.202 C 
BRANCH   3   4
ATOM      4  C   UNL A   1      39.195  23.410  26.651  1.00  0.00     0.261 C 
BRANCH   4   5
ATOM      5  O   UNL A   1      40.437  24.091  26.410  1.00  0.00    -0.460 OA
BRANCH   5   6
ATOM      6  C   UNL A   1      40.672  25.427  26.397  1.00  0.00     0.338 C 
ATOM      7  O   UNL A   1      41.009  25.954  25.339  1.00  0.00    -0.246 OA
BRANCH   6   8
ATOM      8  C   UNL A   1      40.578  26.286  27.614  1.00  0.00     0.060 A 
ATOM      9  C   UNL A   1      39.713  26.049  28.680  1.00  0.00     0.016 A 
ATOM     10  C   UNL A   1      41.499  27.339  27.738  1.00  0.00     0.016 A 
ATOM     11  C   UNL A   1      39.682  26.871  29.796  1.00  0.00     0.010 A 
ATOM     12  C   UNL A   1      41.518  28.141  28.884  1.00  0.00     0.010 A 
ATOM     13  C   UNL A   1      40.589  27.918  29.907  1.00  0.00    -0.014 A 
BRANCH  13  14
ATOM     14  C   UNL A   1      40.495  28.795  31.086  1.00  0.00     0.031 A 
ATOM     15  C   UNL A   1      39.420  29.833  31.107  1.00  0.00     0.074 A 
ATOM     16  C   UNL A   1      41.321  28.585  32.129  1.00  0.00     0.049 A 
ATOM     17  N   UNL A   1      39.180  30.746  32.004  1.00  0.00    -0.248 NA
ATOM     18  C   UNL A   1      38.487  29.848  29.964  1.00  0.00     0.031 C 
ATOM     19  C   UNL A   1      42.340  27.535  32.184  1.00  0.00     0.029 A 
ATOM     20  N   UNL A   1      41.438  29.219  33.338  1.00  0.00    -0.354 N 
ATOM     21  C   UNL A   1      38.116  31.486  31.506  1.00  0.00     0.074 A 
ATOM     22  C   UNL A   1      37.729  30.899  30.245  1.00  0.00     0.031 C 
ATOM     23  C   UNL A   1      42.966  27.588  33.370  1.00  0.00     0.029 A 
ATOM     24  C   UNL A   1      42.443  28.713  34.135  1.00  0.00     0.049 A 
ATOM     25  H   UNL A   1      40.859  29.966  33.612  1.00  0.00     0.167 HD
ATOM     26  C   UNL A   1      37.546  32.578  32.057  1.00  0.00     0.037 A 
ATOM     27  C   UNL A   1      42.903  29.147  35.329  1.00  0.00     0.037 A 
ATOM     28  C   UNL A   1      37.955  33.114  33.326  1.00  0.00     0.049 A 
ATOM     29  C   UNL A   1      42.236  30.373  35.906  1.00  0.00     0.074 A 
ATOM     30  C   UNL A   1      37.463  34.220  33.993  1.00  0.00     0.029 A 
ATOM     31  N   UNL A   1      38.965  32.579  34.116  1.00  0.00    -0.354 N 
ATOM     32  N   UNL A   1      41.204  31.045  35.444  1.00  0.00    -0.248 NA
ATOM     33  C   UNL A   1      42.800  30.922  37.144  1.00  0.00     0.031 C 
ATOM     34  C   UNL A   1      38.218  34.387  35.157  1.00  0.00     0.029 A 
ATOM     35  C   UNL A   1      39.142  33.357  35.244  1.00  0.00     0.049 A 
ATOM     36  H   UNL A   1      39.477  31.766  33.903  1.00  0.00     0.167 HD
ATOM     37  C   UNL A   1      41.000  32.091  36.333  1.00  0.00     0.074 A 
ATOM     38  C   UNL A   1      41.974  31.927  37.394  1.00  0.00     0.031 C 
ATOM     39  C   UNL A   1      40.122  33.122  36.275  1.00  0.00     0.037 A 
BRANCH  26  40
ATOM     40  C   UNL A   1      36.502  33.305  31.262  1.00  0.00     0.058 A 
ATOM     41  C   UNL A   1      36.807  34.034  30.105  1.00  0.00     0.135 A 
ATOM     42  C   UNL A   1      35.156  33.236  31.659  1.00  0.00     0.135 A 
ATOM     43  F   UNL A   1      38.082  34.164  29.703  1.00  0.00    -0.206 F 
ATOM     44  C   UNL A   1      35.814  34.668  29.365  1.00  0.00     0.059 A 
ATOM     45  C   UNL A   1      34.144  33.844  30.924  1.00  0.00     0.059 A 
ATOM     46  F   UNL A   1      34.814  32.572  32.774  1.00  0.00    -0.206 F 
ATOM     47  C   UNL A   1      34.483  34.559  29.778  1.00  0.00     0.060 A 
BRANCH  47  48
ATOM     48  S   UNL A   1      33.202  35.347  28.780  1.00  0.00     0.124 S 
ATOM     49  O   UNL A   1      33.999  36.164  27.871  1.00  0.00    -0.237 OA
ATOM     50  O   UNL A   1      32.530  34.200  28.178  1.00  0.00    -0.237 OA
ATOM     51  O   UNL A   1      32.414  36.088  29.761  1.00  0.00    -0.744 OA
ENDBRANCH  47  48
ENDBRANCH  26  40
BRANCH  27  52
ATOM     52  C   UNL A   1      44.047  28.473  36.024  1.00  0.00     0.058 A 
ATOM     53  C   UNL A   1      43.840  27.398  36.904  1.00  0.00     0.135 A 
ATOM     54  C   UNL A   1      45.376  28.896  35.852  1.00  0.00     0.135 A 
ATOM     55  F   UNL A   1      42.593  26.985  37.175  1.00  0.00    -0.206 F 
ATOM     56  C   UNL A   1      44.890  26.760  37.561  1.00  0.00     0.059 A 
ATOM     57  C   UNL A   1      46.447  28.261  36.476  1.00  0.00     0.059 A 
ATOM     58  F   UNL A   1      45.656  29.940  35.054  1.00  0.00    -0.206 F 
ATOM     59  C   UNL A   1      46.193  27.197  37.337  1.00  0.00     0.060 A 
BRANCH  59  60
ATOM     60  S   UNL A   1      47.547  26.365  38.194  1.00  0.00     0.124 S 
ATOM     61  O   UNL A   1      48.089  27.446  39.010  1.00  0.00    -0.237 OA
ATOM     62  O   UNL A   1      46.845  25.308  38.916  1.00  0.00    -0.237 OA
ATOM     63  O   UNL A   1      48.404  25.908  37.104  1.00  0.00    -0.744 OA
ENDBRANCH  59  60
ENDBRANCH  27  52
BRANCH  39  64
ATOM     64  C   UNL A   1      40.197  34.135  37.379  1.00  0.00     0.058 A 
ATOM     65  C   UNL A   1      40.975  35.295  37.241  1.00  0.00     0.135 A 
ATOM     66  C   UNL A   1      39.426  33.985  38.541  1.00  0.00     0.135 A 
ATOM     67  F   UNL A   1      41.735  35.476  36.149  1.00  0.00    -0.206 F 
ATOM     68  C   UNL A   1      40.998  36.269  38.229  1.00  0.00     0.059 A 
ATOM     69  C   UNL A   1      39.410  34.962  39.527  1.00  0.00     0.059 A 
ATOM     70  F   UNL A   1      38.659  32.897  38.709  1.00  0.00    -0.206 F 
ATOM     71  C   UNL A   1      40.205  36.097  39.365  1.00  0.00     0.060 A 
BRANCH  71  72
ATOM     72  S   UNL A   1      40.192  37.405  40.607  1.00  0.00     0.124 S 
ATOM     73  O   UNL A   1      40.659  36.690  41.790  1.00  0.00    -0.237 OA
ATOM     74  O   UNL A   1      41.123  38.377  40.043  1.00  0.00    -0.237 OA
ATOM     75  O   UNL A   1      38.795  37.828  40.640  1.00  0.00    -0.744 OA
ENDBRANCH  71  72
ENDBRANCH  39  64
ENDBRANCH  13  14
ENDBRANCH   6   8
ENDBRANCH   5   6
ENDBRANCH   4   5
ENDBRANCH   3   4
ENDBRANCH   2   3
ENDBRANCH   1   2
BRANCH   1  76
ATOM     76  C   UNL A   1      36.243  20.795  25.126  1.00  0.00     0.188 C 
BRANCH  76  77
ATOM     77  O   UNL A   1      35.015  21.524  25.081  1.00  0.00    -0.376 OA
BRANCH  77  78
ATOM     78  C   UNL A   1      34.481  21.949  26.329  1.00  0.00     0.202 C 
BRANCH  78  79
ATOM     79  C   UNL A   1      32.965  21.845  26.501  1.00  0.00     0.261 C 
BRANCH  79  80
ATOM     80  O   UNL A   1      32.419  22.724  27.491  1.00  0.00    -0.458 OA
BRANCH  80  81
ATOM     81  C   UNL A   1      31.186  23.261  27.228  1.00  0.00     0.381 C 
ATOM     82  O   UNL A   1      30.129  22.816  27.665  1.00  0.00    -0.244 OA
BRANCH  81  83
ATOM     83  C   UNL A   1      31.303  24.432  26.239  1.00  0.00     0.461 C 
ATOM     84  F   UNL A   1      30.202  24.576  25.437  1.00  0.00    -0.189 F 
BRANCH  83  85
ATOM     85  O   UNL A   1      31.608  25.702  26.808  1.00  0.00    -0.451 OA
BRANCH  85  86
ATOM     86  C   UNL A   1      32.132  26.668  25.993  1.00  0.00     0.125 A 
ATOM     87  C   UNL A   1      32.986  26.445  24.911  1.00  0.00     0.050 A 
ATOM     88  C   UNL A   1      31.723  27.978  26.264  1.00  0.00     0.070 A 
ATOM     89  C   UNL A   1      33.464  27.500  24.136  1.00  0.00     0.044 A 
ATOM     90  C   UNL A   1      32.206  29.038  25.489  1.00  0.00     0.080 A 
ATOM     91  C   UNL A   1      33.081  28.794  24.439  1.00  0.00     0.142 A 
ATOM     92  Cl  UNL A   1      31.695  30.646  25.792  1.00  0.00    -0.081 Cl
ATOM     93  F   UNL A   1      33.555  29.793  23.681  1.00  0.00    -0.205 F 
ENDBRANCH  85  86
ENDBRANCH  83  85
ENDBRANCH  81  83
ENDBRANCH  80  81
ENDBRANCH  79  80
ENDBRANCH  78  79
ENDBRANCH  77  78
ENDBRANCH  76  77
ENDBRANCH   1  76
TORSDOF 22
ENDMDL
