MODEL 1
REMARK VINA RESULT:     -11.9      0.000      0.000
REMARK SMILES NS(=O)(=O)c1ccc(-c2coc(=O)n2-c2ccc(C(=O)OCCOCCOCCOC(=O)c3ccc(-c4c5nc(c(-c6c(F)cc(S(=O)(=O)[O-])cc6F)c6ccc([nH]6)c(-c6c(F)cc(S(=O)(=O)[O-])cc6F)c6nc(c(-c7c(F)cc(S(=O)(=O)[O-])cc7F)c7ccc4[nH]7)C=C6)C=C5)cc3)cc2)cc1
REMARK SMILES IDX 25 1 24 2 23 3 22 4 21 5 19 6 20 7 18 8 15 9 16 10 100 11
REMARK SMILES IDX 17 12 99 13 14 14 9 15 10 16 11 17 12 18 13 19 8 20 5 21
REMARK SMILES IDX 6 22 102 23 7 24 101 25 2 26 3 27 4 28 1 29 26 32 27 33
REMARK SMILES IDX 28 34 29 35 30 36 31 37 32 38 33 39 34 40 98 41 35 42 97 43
REMARK SMILES IDX 36 44 37 45 38 46 91 47 39 48 96 49 90 50 92 51 40 52 95 53
REMARK SMILES IDX 89 54 88 55 41 57 75 58 54 59 74 60 55 61 58 62 73 63 93 64
REMARK SMILES IDX 56 65 57 66 72 68 94 69 59 70 42 71 43 72 52 73 44 74 45 75
REMARK SMILES IDX 51 76 53 77 46 78 47 79 48 80 49 81 50 82 76 83 77 84 86 85
REMARK SMILES IDX 78 86 79 87 85 88 87 89 80 90 81 91 82 92 83 93 84 94 60 95
REMARK SMILES IDX 61 96 70 97 62 98 63 99 69 100 71 101 64 102 65 103 66 104
REMARK SMILES IDX 67 105 68 106
REMARK H PARENT 1 30 1 31 92 56 58 67
REMARK Flexibility Score: inf
ROOT
ATOM      1  C   UNL A   1      42.425  19.335  26.432  1.00  0.00     0.188 C 
ENDROOT
BRANCH   1   2
ATOM      2  O   UNL A   1      41.295  20.129  26.138  1.00  0.00    -0.376 OA
BRANCH   2   3
ATOM      3  C   UNL A   1      40.017  19.554  25.937  1.00  0.00     0.202 C 
BRANCH   3   4
ATOM      4  C   UNL A   1      38.907  20.151  25.047  1.00  0.00     0.261 C 
BRANCH   4   5
ATOM      5  O   UNL A   1      37.879  20.901  25.696  1.00  0.00    -0.460 OA
BRANCH   5   6
ATOM      6  C   UNL A   1      38.044  22.243  25.712  1.00  0.00     0.338 C 
ATOM      7  O   UNL A   1      39.063  22.858  25.977  1.00  0.00    -0.246 OA
BRANCH   6   8
ATOM      8  C   UNL A   1      36.828  22.897  25.184  1.00  0.00     0.060 A 
ATOM      9  C   UNL A   1      34.409  23.980  24.323  1.00  0.00     0.053 A 
ATOM     10  C   UNL A   1      34.794  24.138  25.656  1.00  0.00     0.028 A 
ATOM     11  C   UNL A   1      35.294  23.392  23.402  1.00  0.00     0.028 A 
ATOM     12  C   UNL A   1      35.985  23.558  26.093  1.00  0.00     0.018 A 
ATOM     13  C   UNL A   1      36.517  22.872  23.825  1.00  0.00     0.018 A 
BRANCH   9  14
ATOM     14  N   UNL A   1      33.065  24.190  23.957  1.00  0.00    -0.242 N 
ATOM     15  C   UNL A   1      32.138  23.218  23.691  1.00  0.00     0.095 A 
ATOM     16  C   UNL A   1      31.007  23.856  23.418  1.00  0.00     0.228 A 
ATOM     17  O   UNL A   1      31.101  25.246  23.502  1.00  0.00    -0.415 OA
ATOM     18  C   UNL A   1      32.427  25.419  23.901  1.00  0.00     0.424 A 
ATOM     19  O   UNL A   1      32.904  26.527  24.143  1.00  0.00    -0.223 OA
BRANCH  15  20
ATOM     20  C   UNL A   1      32.333  21.784  23.906  1.00  0.00     0.002 A 
ATOM     21  C   UNL A   1      32.813  19.062  24.360  1.00  0.00     0.082 A 
ATOM     22  C   UNL A   1      32.911  19.959  25.422  1.00  0.00     0.022 A 
ATOM     23  C   UNL A   1      32.470  19.508  23.079  1.00  0.00     0.022 A 
ATOM     24  C   UNL A   1      32.661  21.313  25.192  1.00  0.00     0.012 A 
ATOM     25  C   UNL A   1      32.226  20.867  22.855  1.00  0.00     0.012 A 
BRANCH  21  26
ATOM     26  S   UNL A   1      33.148  17.347  24.630  1.00  0.00     0.238 S 
ATOM     27  O   UNL A   1      32.121  16.795  25.483  1.00  0.00    -0.207 OA
ATOM     28  O   UNL A   1      34.556  17.195  24.906  1.00  0.00    -0.207 OA
BRANCH  26  29
ATOM     29  N   UNL A   1      32.884  16.656  23.122  1.00  0.00    -0.225 NA
ATOM     30  H   UNL A   1      32.375  17.312  22.531  1.00  0.00     0.137 HD
ATOM     31  H   UNL A   1      32.338  15.801  23.230  1.00  0.00     0.137 HD
ENDBRANCH  26  29
ENDBRANCH  21  26
ENDBRANCH  15  20
ENDBRANCH   9  14
ENDBRANCH   6   8
ENDBRANCH   5   6
ENDBRANCH   4   5
ENDBRANCH   3   4
ENDBRANCH   2   3
ENDBRANCH   1   2
BRANCH   1  32
ATOM     32  C   UNL A   1      43.318  18.780  25.302  1.00  0.00     0.188 C 
BRANCH  32  33
ATOM     33  O   UNL A   1      44.524  18.133  25.647  1.00  0.00    -0.376 OA
BRANCH  33  34
ATOM     34  C   UNL A   1      45.806  18.683  25.400  1.00  0.00     0.202 C 
BRANCH  34  35
ATOM     35  C   UNL A   1      46.119  19.903  24.536  1.00  0.00     0.261 C 
BRANCH  35  36
ATOM     36  O   UNL A   1      45.886  21.159  25.125  1.00  0.00    -0.460 OA
BRANCH  36  37
ATOM     37  C   UNL A   1      44.928  21.870  24.496  1.00  0.00     0.338 C 
ATOM     38  O   UNL A   1      44.841  22.086  23.298  1.00  0.00    -0.246 OA
BRANCH  37  39
ATOM     39  C   UNL A   1      44.037  22.441  25.503  1.00  0.00     0.060 A 
ATOM     40  C   UNL A   1      42.994  23.226  25.014  1.00  0.00     0.016 A 
ATOM     41  C   UNL A   1      44.538  22.562  26.806  1.00  0.00     0.016 A 
ATOM     42  C   UNL A   1      42.675  24.357  25.722  1.00  0.00     0.010 A 
ATOM     43  C   UNL A   1      44.242  23.706  27.493  1.00  0.00     0.010 A 
ATOM     44  C   UNL A   1      43.403  24.635  26.884  1.00  0.00    -0.014 A 
BRANCH  44  45
ATOM     45  C   UNL A   1      43.182  25.899  27.543  1.00  0.00     0.031 A 
ATOM     46  C   UNL A   1      44.258  26.851  27.215  1.00  0.00     0.074 A 
ATOM     47  C   UNL A   1      42.071  26.159  28.259  1.00  0.00     0.049 A 
ATOM     48  N   UNL A   1      45.248  27.190  27.971  1.00  0.00    -0.248 NA
ATOM     49  C   UNL A   1      44.418  27.248  25.805  1.00  0.00     0.031 C 
ATOM     50  C   UNL A   1      40.865  25.341  28.408  1.00  0.00     0.029 A 
ATOM     51  N   UNL A   1      41.752  27.291  28.941  1.00  0.00    -0.354 N 
ATOM     52  C   UNL A   1      45.985  28.083  27.205  1.00  0.00     0.074 A 
ATOM     53  C   UNL A   1      45.609  27.845  25.840  1.00  0.00     0.031 C 
ATOM     54  C   UNL A   1      39.870  26.100  28.927  1.00  0.00     0.029 A 
ATOM     55  C   UNL A   1      40.399  27.411  29.262  1.00  0.00     0.049 A 
ATOM     56  H   UNL A   1      42.420  27.970  29.188  1.00  0.00     0.167 HD
ATOM     57  C   UNL A   1      46.564  29.168  27.786  1.00  0.00     0.037 A 
ATOM     58  C   UNL A   1      39.792  28.556  29.681  1.00  0.00     0.037 A 
ATOM     59  C   UNL A   1      46.654  28.997  29.217  1.00  0.00     0.049 A 
ATOM     60  C   UNL A   1      40.874  29.446  30.197  1.00  0.00     0.074 A 
ATOM     61  C   UNL A   1      47.234  28.053  30.044  1.00  0.00     0.029 A 
ATOM     62  N   UNL A   1      45.730  29.660  29.990  1.00  0.00    -0.354 N 
ATOM     63  N   UNL A   1      41.573  29.180  31.269  1.00  0.00    -0.248 NA
ATOM     64  C   UNL A   1      41.515  30.340  29.242  1.00  0.00     0.031 C 
ATOM     65  C   UNL A   1      46.310  27.882  31.117  1.00  0.00     0.029 A 
ATOM     66  C   UNL A   1      45.263  28.785  30.937  1.00  0.00     0.049 A 
ATOM     67  H   UNL A   1      45.452  30.598  29.881  1.00  0.00     0.167 HD
ATOM     68  C   UNL A   1      42.880  29.498  30.928  1.00  0.00     0.074 A 
ATOM     69  C   UNL A   1      42.774  30.261  29.683  1.00  0.00     0.031 C 
ATOM     70  C   UNL A   1      43.939  28.862  31.512  1.00  0.00     0.037 A 
BRANCH  57  71
ATOM     71  C   UNL A   1      46.637  30.527  27.127  1.00  0.00     0.058 A 
ATOM     72  C   UNL A   1      47.878  31.192  27.097  1.00  0.00     0.135 A 
ATOM     73  C   UNL A   1      45.517  31.319  26.780  1.00  0.00     0.135 A 
ATOM     74  F   UNL A   1      49.011  30.542  27.411  1.00  0.00    -0.206 F 
ATOM     75  C   UNL A   1      47.988  32.554  26.825  1.00  0.00     0.059 A 
ATOM     76  C   UNL A   1      45.611  32.663  26.450  1.00  0.00     0.059 A 
ATOM     77  F   UNL A   1      44.259  30.868  26.831  1.00  0.00    -0.206 F 
ATOM     78  C   UNL A   1      46.845  33.283  26.513  1.00  0.00     0.060 A 
BRANCH  78  79
ATOM     79  S   UNL A   1      46.969  35.055  26.236  1.00  0.00     0.124 S 
ATOM     80  O   UNL A   1      47.347  35.530  27.561  1.00  0.00    -0.237 OA
ATOM     81  O   UNL A   1      48.003  35.123  25.208  1.00  0.00    -0.237 OA
ATOM     82  O   UNL A   1      45.627  35.420  25.792  1.00  0.00    -0.744 OA
ENDBRANCH  78  79
ENDBRANCH  57  71
BRANCH  58  83
ATOM     83  C   UNL A   1      38.451  29.087  29.298  1.00  0.00     0.058 A 
ATOM     84  C   UNL A   1      37.490  29.412  30.277  1.00  0.00     0.135 A 
ATOM     85  C   UNL A   1      38.191  29.574  28.002  1.00  0.00     0.135 A 
ATOM     86  F   UNL A   1      37.654  29.003  31.544  1.00  0.00    -0.206 F 
ATOM     87  C   UNL A   1      36.382  30.226  30.004  1.00  0.00     0.059 A 
ATOM     88  C   UNL A   1      37.091  30.379  27.704  1.00  0.00     0.059 A 
ATOM     89  F   UNL A   1      39.054  29.365  26.997  1.00  0.00    -0.206 F 
ATOM     90  C   UNL A   1      36.206  30.728  28.715  1.00  0.00     0.060 A 
BRANCH  90  91
ATOM     91  S   UNL A   1      34.901  31.942  28.394  1.00  0.00     0.124 S 
ATOM     92  O   UNL A   1      35.614  32.959  27.628  1.00  0.00    -0.237 OA
ATOM     93  O   UNL A   1      33.921  31.156  27.652  1.00  0.00    -0.237 OA
ATOM     94  O   UNL A   1      34.482  32.350  29.733  1.00  0.00    -0.744 OA
ENDBRANCH  90  91
ENDBRANCH  58  83
BRANCH  70  95
ATOM     95  C   UNL A   1      43.685  28.029  32.742  1.00  0.00     0.058 A 
ATOM     96  C   UNL A   1      43.574  26.626  32.763  1.00  0.00     0.135 A 
ATOM     97  C   UNL A   1      43.696  28.687  33.981  1.00  0.00     0.135 A 
ATOM     98  F   UNL A   1      43.665  25.910  31.632  1.00  0.00    -0.206 F 
ATOM     99  C   UNL A   1      43.424  25.919  33.960  1.00  0.00     0.059 A 
ATOM    100  C   UNL A   1      43.584  28.003  35.185  1.00  0.00     0.059 A 
ATOM    101  F   UNL A   1      43.864  30.019  34.033  1.00  0.00    -0.206 F 
ATOM    102  C   UNL A   1      43.428  26.619  35.168  1.00  0.00     0.060 A 
BRANCH 102 103
ATOM    103  S   UNL A   1      43.265  25.713  36.721  1.00  0.00     0.124 S 
ATOM    104  O   UNL A   1      42.219  24.747  36.404  1.00  0.00    -0.237 OA
ATOM    105  O   UNL A   1      44.603  25.161  36.908  1.00  0.00    -0.237 OA
ATOM    106  O   UNL A   1      42.887  26.747  37.683  1.00  0.00    -0.744 OA
ENDBRANCH 102 103
ENDBRANCH  70  95
ENDBRANCH  44  45
ENDBRANCH  37  39
ENDBRANCH  36  37
ENDBRANCH  35  36
ENDBRANCH  34  35
ENDBRANCH  33  34
ENDBRANCH  32  33
ENDBRANCH   1  32
TORSDOF 24
ENDMDL
MODEL 2
REMARK VINA RESULT:     -10.1      4.151      6.515
REMARK SMILES NS(=O)(=O)c1ccc(-c2coc(=O)n2-c2ccc(C(=O)OCCOCCOCCOC(=O)c3ccc(-c4c5nc(c(-c6c(F)cc(S(=O)(=O)[O-])cc6F)c6ccc([nH]6)c(-c6c(F)cc(S(=O)(=O)[O-])cc6F)c6nc(c(-c7c(F)cc(S(=O)(=O)[O-])cc7F)c7ccc4[nH]7)C=C6)C=C5)cc3)cc2)cc1
REMARK SMILES IDX 25 1 24 2 23 3 22 4 21 5 19 6 20 7 18 8 15 9 16 10 100 11
REMARK SMILES IDX 17 12 99 13 14 14 9 15 10 16 11 17 12 18 13 19 8 20 5 21
REMARK SMILES IDX 6 22 102 23 7 24 101 25 2 26 3 27 4 28 1 29 26 32 27 33
REMARK SMILES IDX 28 34 29 35 30 36 31 37 32 38 33 39 34 40 98 41 35 42 97 43
REMARK SMILES IDX 36 44 37 45 38 46 91 47 39 48 96 49 90 50 92 51 40 52 95 53
REMARK SMILES IDX 89 54 88 55 41 57 75 58 54 59 74 60 55 61 58 62 73 63 93 64
REMARK SMILES IDX 56 65 57 66 72 68 94 69 59 70 42 71 43 72 52 73 44 74 45 75
REMARK SMILES IDX 51 76 53 77 46 78 47 79 48 80 49 81 50 82 76 83 77 84 86 85
REMARK SMILES IDX 78 86 79 87 85 88 87 89 80 90 81 91 82 92 83 93 84 94 60 95
REMARK SMILES IDX 61 96 70 97 62 98 63 99 69 100 71 101 64 102 65 103 66 104
REMARK SMILES IDX 67 105 68 106
REMARK H PARENT 1 30 1 31 92 56 58 67
REMARK Flexibility Score: inf
ROOT
ATOM      1  C   UNL A   1      49.618  26.835  29.391  1.00  0.00     0.188 C 
ENDROOT
BRANCH   1   2
ATOM      2  O   UNL A   1      49.093  27.562  30.482  1.00  0.00    -0.376 OA
BRANCH   2   3
ATOM      3  C   UNL A   1      47.701  27.626  30.729  1.00  0.00     0.202 C 
BRANCH   3   4
ATOM      4  C   UNL A   1      46.829  26.441  31.197  1.00  0.00     0.261 C 
BRANCH   4   5
ATOM      5  O   UNL A   1      45.476  26.402  30.738  1.00  0.00    -0.460 OA
BRANCH   5   6
ATOM      6  C   UNL A   1      44.716  25.394  31.221  1.00  0.00     0.338 C 
ATOM      7  O   UNL A   1      44.597  25.051  32.385  1.00  0.00    -0.246 OA
BRANCH   6   8
ATOM      8  C   UNL A   1      43.882  24.840  30.133  1.00  0.00     0.060 A 
ATOM      9  C   UNL A   1      42.132  23.926  28.166  1.00  0.00     0.053 A 
ATOM     10  C   UNL A   1      42.523  25.267  28.165  1.00  0.00     0.028 A 
ATOM     11  C   UNL A   1      42.716  23.025  29.073  1.00  0.00     0.028 A 
ATOM     12  C   UNL A   1      43.366  25.729  29.177  1.00  0.00     0.018 A 
ATOM     13  C   UNL A   1      43.613  23.474  30.043  1.00  0.00     0.018 A 
BRANCH   9  14
ATOM     14  N   UNL A   1      40.998  23.532  27.430  1.00  0.00    -0.242 N 
ATOM     15  C   UNL A   1      40.971  22.619  26.411  1.00  0.00     0.095 A 
ATOM     16  C   UNL A   1      39.704  22.536  26.026  1.00  0.00     0.228 A 
ATOM     17  O   UNL A   1      38.832  23.347  26.754  1.00  0.00    -0.415 OA
ATOM     18  C   UNL A   1      39.695  23.933  27.682  1.00  0.00     0.424 A 
ATOM     19  O   UNL A   1      39.298  24.694  28.562  1.00  0.00    -0.223 OA
BRANCH  15  20
ATOM     20  C   UNL A   1      42.090  21.761  26.017  1.00  0.00     0.002 A 
ATOM     21  C   UNL A   1      44.237  20.081  25.374  1.00  0.00     0.082 A 
ATOM     22  C   UNL A   1      43.091  19.535  25.947  1.00  0.00     0.022 A 
ATOM     23  C   UNL A   1      44.319  21.454  25.112  1.00  0.00     0.022 A 
ATOM     24  C   UNL A   1      42.020  20.375  26.256  1.00  0.00     0.012 A 
ATOM     25  C   UNL A   1      43.244  22.290  25.430  1.00  0.00     0.012 A 
BRANCH  21  26
ATOM     26  S   UNL A   1      45.611  19.034  24.996  1.00  0.00     0.238 S 
ATOM     27  O   UNL A   1      45.373  17.724  25.554  1.00  0.00    -0.207 OA
ATOM     28  O   UNL A   1      46.827  19.774  25.236  1.00  0.00    -0.207 OA
BRANCH  26  29
ATOM     29  N   UNL A   1      45.501  18.830  23.333  1.00  0.00    -0.225 NA
ATOM     30  H   UNL A   1      44.525  18.892  23.046  1.00  0.00     0.137 HD
ATOM     31  H   UNL A   1      45.873  17.916  23.077  1.00  0.00     0.137 HD
ENDBRANCH  26  29
ENDBRANCH  21  26
ENDBRANCH  15  20
ENDBRANCH   9  14
ENDBRANCH   6   8
ENDBRANCH   5   6
ENDBRANCH   4   5
ENDBRANCH   3   4
ENDBRANCH   2   3
ENDBRANCH   1   2
BRANCH   1  32
ATOM     32  C   UNL A   1      48.783  26.614  28.112  1.00  0.00     0.188 C 
BRANCH  32  33
ATOM     33  O   UNL A   1      48.128  25.376  27.935  1.00  0.00    -0.376 OA
BRANCH  33  34
ATOM     34  C   UNL A   1      47.925  24.771  26.670  1.00  0.00     0.202 C 
BRANCH  34  35
ATOM     35  C   UNL A   1      46.601  24.248  26.117  1.00  0.00     0.261 C 
BRANCH  35  36
ATOM     36  O   UNL A   1      45.459  25.017  26.406  1.00  0.00    -0.460 OA
BRANCH  36  37
ATOM     37  C   UNL A   1      44.859  25.510  25.304  1.00  0.00     0.338 C 
ATOM     38  O   UNL A   1      44.635  24.917  24.261  1.00  0.00    -0.246 OA
BRANCH  37  39
ATOM     39  C   UNL A   1      44.595  26.931  25.516  1.00  0.00     0.060 A 
ATOM     40  C   UNL A   1      45.462  27.584  26.391  1.00  0.00     0.016 A 
ATOM     41  C   UNL A   1      43.301  27.390  25.239  1.00  0.00     0.016 A 
ATOM     42  C   UNL A   1      44.914  28.512  27.240  1.00  0.00     0.010 A 
ATOM     43  C   UNL A   1      42.751  28.291  26.108  1.00  0.00     0.010 A 
ATOM     44  C   UNL A   1      43.537  28.748  27.161  1.00  0.00    -0.014 A 
BRANCH  44  45
ATOM     45  C   UNL A   1      42.932  29.600  28.154  1.00  0.00     0.031 A 
ATOM     46  C   UNL A   1      43.785  30.772  28.423  1.00  0.00     0.074 A 
ATOM     47  C   UNL A   1      41.703  29.371  28.655  1.00  0.00     0.049 A 
ATOM     48  N   UNL A   1      44.551  30.953  29.446  1.00  0.00    -0.248 NA
ATOM     49  C   UNL A   1      44.040  31.705  27.311  1.00  0.00     0.031 C 
ATOM     50  C   UNL A   1      40.717  28.369  28.242  1.00  0.00     0.029 A 
ATOM     51  N   UNL A   1      41.032  30.079  29.602  1.00  0.00    -0.354 N 
ATOM     52  C   UNL A   1      45.153  32.183  29.221  1.00  0.00     0.074 A 
ATOM     53  C   UNL A   1      45.038  32.433  27.812  1.00  0.00     0.031 C 
ATOM     54  C   UNL A   1      39.509  28.688  28.763  1.00  0.00     0.029 A 
ATOM     55  C   UNL A   1      39.658  29.835  29.642  1.00  0.00     0.049 A 
ATOM     56  H   UNL A   1      41.478  30.711  30.210  1.00  0.00     0.167 HD
ATOM     57  C   UNL A   1      45.371  33.039  30.255  1.00  0.00     0.037 A 
ATOM     58  C   UNL A   1      38.744  30.608  30.291  1.00  0.00     0.037 A 
ATOM     59  C   UNL A   1      45.299  32.344  31.519  1.00  0.00     0.049 A 
ATOM     60  C   UNL A   1      39.500  31.397  31.308  1.00  0.00     0.074 A 
ATOM     61  C   UNL A   1      45.967  31.266  32.071  1.00  0.00     0.029 A 
ATOM     62  N   UNL A   1      44.146  32.490  32.254  1.00  0.00    -0.354 N 
ATOM     63  N   UNL A   1      40.087  30.858  32.344  1.00  0.00    -0.248 NA
ATOM     64  C   UNL A   1      40.036  32.686  30.890  1.00  0.00     0.031 C 
ATOM     65  C   UNL A   1      44.971  30.540  32.787  1.00  0.00     0.029 A 
ATOM     66  C   UNL A   1      43.774  31.251  32.709  1.00  0.00     0.049 A 
ATOM     67  H   UNL A   1      43.670  33.335  32.422  1.00  0.00     0.167 HD
ATOM     68  C   UNL A   1      41.314  31.500  32.430  1.00  0.00     0.074 A 
ATOM     69  C   UNL A   1      41.204  32.655  31.540  1.00  0.00     0.031 C 
ATOM     70  C   UNL A   1      42.403  30.875  32.971  1.00  0.00     0.037 A 
BRANCH  57  71
ATOM     71  C   UNL A   1      45.209  34.538  30.145  1.00  0.00     0.058 A 
ATOM     72  C   UNL A   1      43.992  35.047  29.650  1.00  0.00     0.135 A 
ATOM     73  C   UNL A   1      46.265  35.475  30.234  1.00  0.00     0.135 A 
ATOM     74  F   UNL A   1      42.920  34.248  29.518  1.00  0.00    -0.206 F 
ATOM     75  C   UNL A   1      43.860  36.359  29.201  1.00  0.00     0.059 A 
ATOM     76  C   UNL A   1      46.138  36.801  29.846  1.00  0.00     0.059 A 
ATOM     77  F   UNL A   1      47.506  35.145  30.609  1.00  0.00    -0.206 F 
ATOM     78  C   UNL A   1      44.945  37.225  29.293  1.00  0.00     0.060 A 
BRANCH  78  79
ATOM     79  S   UNL A   1      44.804  38.897  28.647  1.00  0.00     0.124 S 
ATOM     80  O   UNL A   1      45.776  39.608  29.469  1.00  0.00    -0.237 OA
ATOM     81  O   UNL A   1      45.166  38.705  27.246  1.00  0.00    -0.237 OA
ATOM     82  O   UNL A   1      43.405  39.233  28.888  1.00  0.00    -0.744 OA
ENDBRANCH  78  79
ENDBRANCH  57  71
BRANCH  58  83
ATOM     83  C   UNL A   1      37.381  31.012  29.836  1.00  0.00     0.058 A 
ATOM     84  C   UNL A   1      36.464  31.612  30.723  1.00  0.00     0.135 A 
ATOM     85  C   UNL A   1      37.056  31.103  28.468  1.00  0.00     0.135 A 
ATOM     86  F   UNL A   1      36.692  31.587  32.045  1.00  0.00    -0.206 F 
ATOM     87  C   UNL A   1      35.337  32.316  30.279  1.00  0.00     0.059 A 
ATOM     88  C   UNL A   1      35.936  31.791  28.002  1.00  0.00     0.059 A 
ATOM     89  F   UNL A   1      37.873  30.607  27.527  1.00  0.00    -0.206 F 
ATOM     90  C   UNL A   1      35.096  32.423  28.910  1.00  0.00     0.060 A 
BRANCH  90  91
ATOM     91  S   UNL A   1      33.766  33.498  28.313  1.00  0.00     0.124 S 
ATOM     92  O   UNL A   1      32.893  32.549  27.629  1.00  0.00    -0.237 OA
ATOM     93  O   UNL A   1      33.244  34.064  29.552  1.00  0.00    -0.237 OA
ATOM     94  O   UNL A   1      34.460  34.444  27.443  1.00  0.00    -0.744 OA
ENDBRANCH  90  91
ENDBRANCH  58  83
BRANCH  70  95
ATOM     95  C   UNL A   1      42.186  29.600  33.746  1.00  0.00     0.058 A 
ATOM     96  C   UNL A   1      42.269  28.301  33.210  1.00  0.00     0.135 A 
ATOM     97  C   UNL A   1      42.025  29.709  35.135  1.00  0.00     0.135 A 
ATOM     98  F   UNL A   1      42.532  28.107  31.909  1.00  0.00    -0.206 F 
ATOM     99  C   UNL A   1      42.140  27.165  34.016  1.00  0.00     0.059 A 
ATOM    100  C   UNL A   1      41.931  28.594  35.960  1.00  0.00     0.059 A 
ATOM    101  F   UNL A   1      42.004  30.920  35.717  1.00  0.00    -0.206 F 
ATOM    102  C   UNL A   1      41.968  27.324  35.392  1.00  0.00     0.060 A 
BRANCH 102 103
ATOM    103  S   UNL A   1      41.831  25.863  36.444  1.00  0.00     0.124 S 
ATOM    104  O   UNL A   1      40.404  25.567  36.373  1.00  0.00    -0.237 OA
ATOM    105  O   UNL A   1      42.711  24.908  35.779  1.00  0.00    -0.237 OA
ATOM    106  O   UNL A   1      42.304  26.333  37.745  1.00  0.00    -0.744 OA
ENDBRANCH 102 103
ENDBRANCH  70  95
ENDBRANCH  44  45
ENDBRANCH  37  39
ENDBRANCH  36  37
ENDBRANCH  35  36
ENDBRANCH  34  35
ENDBRANCH  33  34
ENDBRANCH  32  33
ENDBRANCH   1  32
TORSDOF 24
ENDMDL
MODEL 3
REMARK VINA RESULT:     -10.0      3.521      8.958
REMARK SMILES NS(=O)(=O)c1ccc(-c2coc(=O)n2-c2ccc(C(=O)OCCOCCOCCOC(=O)c3ccc(-c4c5nc(c(-c6c(F)cc(S(=O)(=O)[O-])cc6F)c6ccc([nH]6)c(-c6c(F)cc(S(=O)(=O)[O-])cc6F)c6nc(c(-c7c(F)cc(S(=O)(=O)[O-])cc7F)c7ccc4[nH]7)C=C6)C=C5)cc3)cc2)cc1
REMARK SMILES IDX 25 1 24 2 23 3 22 4 21 5 19 6 20 7 18 8 15 9 16 10 100 11
REMARK SMILES IDX 17 12 99 13 14 14 9 15 10 16 11 17 12 18 13 19 8 20 5 21
REMARK SMILES IDX 6 22 102 23 7 24 101 25 2 26 3 27 4 28 1 29 26 32 27 33
REMARK SMILES IDX 28 34 29 35 30 36 31 37 32 38 33 39 34 40 98 41 35 42 97 43
REMARK SMILES IDX 36 44 37 45 38 46 91 47 39 48 96 49 90 50 92 51 40 52 95 53
REMARK SMILES IDX 89 54 88 55 41 57 75 58 54 59 74 60 55 61 58 62 73 63 93 64
REMARK SMILES IDX 56 65 57 66 72 68 94 69 59 70 42 71 43 72 52 73 44 74 45 75
REMARK SMILES IDX 51 76 53 77 46 78 47 79 48 80 49 81 50 82 76 83 77 84 86 85
REMARK SMILES IDX 78 86 79 87 85 88 87 89 80 90 81 91 82 92 83 93 84 94 60 95
REMARK SMILES IDX 61 96 70 97 62 98 63 99 69 100 71 101 64 102 65 103 66 104
REMARK SMILES IDX 67 105 68 106
REMARK H PARENT 1 30 1 31 92 56 58 67
REMARK Flexibility Score: inf
ROOT
ATOM      1  C   UNL A   1      33.655  21.084  26.295  1.00  0.00     0.188 C 
ENDROOT
BRANCH   1   2
ATOM      2  O   UNL A   1      33.611  20.785  24.916  1.00  0.00    -0.376 OA
BRANCH   2   3
ATOM      3  C   UNL A   1      32.711  21.444  24.043  1.00  0.00     0.202 C 
BRANCH   3   4
ATOM      4  C   UNL A   1      31.429  22.180  24.484  1.00  0.00     0.261 C 
BRANCH   4   5
ATOM      5  O   UNL A   1      31.587  23.463  25.093  1.00  0.00    -0.460 OA
BRANCH   5   6
ATOM      6  C   UNL A   1      31.651  24.517  24.249  1.00  0.00     0.338 C 
ATOM      7  O   UNL A   1      31.180  24.592  23.126  1.00  0.00    -0.246 OA
BRANCH   6   8
ATOM      8  C   UNL A   1      32.244  25.676  24.949  1.00  0.00     0.060 A 
ATOM      9  C   UNL A   1      33.161  27.975  26.229  1.00  0.00     0.053 A 
ATOM     10  C   UNL A   1      32.115  27.246  26.798  1.00  0.00     0.028 A 
ATOM     11  C   UNL A   1      33.824  27.480  25.093  1.00  0.00     0.028 A 
ATOM     12  C   UNL A   1      31.630  26.119  26.131  1.00  0.00     0.018 A 
ATOM     13  C   UNL A   1      33.385  26.316  24.464  1.00  0.00     0.018 A 
BRANCH   9  14
ATOM     14  N   UNL A   1      33.392  29.300  26.646  1.00  0.00    -0.242 N 
ATOM     15  C   UNL A   1      32.739  30.416  26.196  1.00  0.00     0.095 A 
ATOM     16  C   UNL A   1      33.250  31.437  26.870  1.00  0.00     0.228 A 
ATOM     17  O   UNL A   1      34.230  31.077  27.796  1.00  0.00    -0.415 OA
ATOM     18  C   UNL A   1      34.256  29.688  27.658  1.00  0.00     0.424 A 
ATOM     19  O   UNL A   1      34.970  28.969  28.355  1.00  0.00    -0.223 OA
BRANCH  15  20
ATOM     20  C   UNL A   1      31.563  30.411  25.324  1.00  0.00     0.002 A 
ATOM     21  C   UNL A   1      29.385  30.401  23.562  1.00  0.00     0.082 A 
ATOM     22  C   UNL A   1      30.348  29.400  23.462  1.00  0.00     0.022 A 
ATOM     23  C   UNL A   1      29.494  31.400  24.536  1.00  0.00     0.022 A 
ATOM     24  C   UNL A   1      31.426  29.403  24.349  1.00  0.00     0.012 A 
ATOM     25  C   UNL A   1      30.580  31.400  25.418  1.00  0.00     0.012 A 
BRANCH  21  26
ATOM     26  S   UNL A   1      28.025  30.423  22.433  1.00  0.00     0.238 S 
ATOM     27  O   UNL A   1      26.878  29.813  23.065  1.00  0.00    -0.207 OA
ATOM     28  O   UNL A   1      28.505  30.019  21.133  1.00  0.00    -0.207 OA
BRANCH  26  29
ATOM     29  N   UNL A   1      27.644  32.054  22.312  1.00  0.00    -0.225 NA
ATOM     30  H   UNL A   1      27.627  32.470  23.242  1.00  0.00     0.137 HD
ATOM     31  H   UNL A   1      26.727  32.158  21.877  1.00  0.00     0.137 HD
ENDBRANCH  26  29
ENDBRANCH  21  26
ENDBRANCH  15  20
ENDBRANCH   9  14
ENDBRANCH   6   8
ENDBRANCH   5   6
ENDBRANCH   4   5
ENDBRANCH   3   4
ENDBRANCH   2   3
ENDBRANCH   1   2
BRANCH   1  32
ATOM     32  C   UNL A   1      34.541  22.230  26.829  1.00  0.00     0.188 C 
BRANCH  32  33
ATOM     33  O   UNL A   1      35.365  22.929  25.922  1.00  0.00    -0.376 OA
BRANCH  33  34
ATOM     34  C   UNL A   1      36.765  22.733  25.824  1.00  0.00     0.202 C 
BRANCH  34  35
ATOM     35  C   UNL A   1      37.480  21.405  25.582  1.00  0.00     0.261 C 
BRANCH  35  36
ATOM     36  O   UNL A   1      38.830  21.488  25.194  1.00  0.00    -0.460 OA
BRANCH  36  37
ATOM     37  C   UNL A   1      39.577  20.464  25.652  1.00  0.00     0.338 C 
ATOM     38  O   UNL A   1      39.302  19.275  25.607  1.00  0.00    -0.246 OA
BRANCH  37  39
ATOM     39  C   UNL A   1      40.757  21.011  26.318  1.00  0.00     0.060 A 
ATOM     40  C   UNL A   1      40.755  20.938  27.710  1.00  0.00     0.016 A 
ATOM     41  C   UNL A   1      41.521  21.942  25.602  1.00  0.00     0.016 A 
ATOM     42  C   UNL A   1      41.263  22.014  28.394  1.00  0.00     0.010 A 
ATOM     43  C   UNL A   1      41.996  23.027  26.285  1.00  0.00     0.010 A 
ATOM     44  C   UNL A   1      41.757  23.094  27.654  1.00  0.00    -0.014 A 
BRANCH  44  45
ATOM     45  C   UNL A   1      42.143  24.288  28.364  1.00  0.00     0.031 A 
ATOM     46  C   UNL A   1      41.093  25.318  28.259  1.00  0.00     0.074 A 
ATOM     47  C   UNL A   1      43.270  24.363  29.099  1.00  0.00     0.049 A 
ATOM     48  N   UNL A   1      41.104  26.360  27.497  1.00  0.00    -0.248 NA
ATOM     49  C   UNL A   1      39.773  25.013  28.838  1.00  0.00     0.031 C 
ATOM     50  C   UNL A   1      44.215  23.296  29.437  1.00  0.00     0.029 A 
ATOM     51  N   UNL A   1      43.756  25.426  29.793  1.00  0.00    -0.354 N 
ATOM     52  C   UNL A   1      39.893  26.990  27.745  1.00  0.00     0.074 A 
ATOM     53  C   UNL A   1      39.033  25.992  28.318  1.00  0.00     0.031 C 
ATOM     54  C   UNL A   1      45.011  23.710  30.452  1.00  0.00     0.029 A 
ATOM     55  C   UNL A   1      44.720  25.101  30.748  1.00  0.00     0.049 A 
ATOM     56  H   UNL A   1      43.453  26.349  29.635  1.00  0.00     0.167 HD
ATOM     57  C   UNL A   1      39.823  28.347  27.789  1.00  0.00     0.037 A 
ATOM     58  C   UNL A   1      45.144  25.927  31.745  1.00  0.00     0.037 A 
ATOM     59  C   UNL A   1      40.978  28.940  27.157  1.00  0.00     0.049 A 
ATOM     60  C   UNL A   1      44.792  27.316  31.325  1.00  0.00     0.074 A 
ATOM     61  C   UNL A   1      41.541  28.857  25.897  1.00  0.00     0.029 A 
ATOM     62  N   UNL A   1      41.964  29.431  27.980  1.00  0.00    -0.354 N 
ATOM     63  N   UNL A   1      45.347  27.921  30.308  1.00  0.00    -0.248 NA
ATOM     64  C   UNL A   1      43.479  27.816  31.706  1.00  0.00     0.031 C 
ATOM     65  C   UNL A   1      42.949  28.850  26.119  1.00  0.00     0.029 A 
ATOM     66  C   UNL A   1      43.174  29.016  27.486  1.00  0.00     0.049 A 
ATOM     67  H   UNL A   1      41.825  29.983  28.783  1.00  0.00     0.167 HD
ATOM     68  C   UNL A   1      44.297  28.554  29.657  1.00  0.00     0.074 A 
ATOM     69  C   UNL A   1      43.177  28.499  30.597  1.00  0.00     0.031 C 
ATOM     70  C   UNL A   1      44.339  28.792  28.311  1.00  0.00     0.037 A 
BRANCH  57  71
ATOM     71  C   UNL A   1      38.957  29.107  28.768  1.00  0.00     0.058 A 
ATOM     72  C   UNL A   1      38.096  30.103  28.269  1.00  0.00     0.135 A 
ATOM     73  C   UNL A   1      39.129  29.103  30.172  1.00  0.00     0.135 A 
ATOM     74  F   UNL A   1      37.860  30.206  26.951  1.00  0.00    -0.206 F 
ATOM     75  C   UNL A   1      37.518  31.070  29.090  1.00  0.00     0.059 A 
ATOM     76  C   UNL A   1      38.517  30.020  31.014  1.00  0.00     0.059 A 
ATOM     77  F   UNL A   1      39.969  28.275  30.804  1.00  0.00    -0.206 F 
ATOM     78  C   UNL A   1      37.746  31.025  30.462  1.00  0.00     0.060 A 
BRANCH  78  79
ATOM     79  S   UNL A   1      37.066  32.311  31.517  1.00  0.00     0.124 S 
ATOM     80  O   UNL A   1      38.266  32.808  32.180  1.00  0.00    -0.237 OA
ATOM     81  O   UNL A   1      36.454  33.205  30.540  1.00  0.00    -0.237 OA
ATOM     82  O   UNL A   1      36.128  31.586  32.369  1.00  0.00    -0.744 OA
ENDBRANCH  78  79
ENDBRANCH  57  71
BRANCH  58  83
ATOM     83  C   UNL A   1      45.441  25.586  33.167  1.00  0.00     0.058 A 
ATOM     84  C   UNL A   1      44.442  25.070  34.017  1.00  0.00     0.135 A 
ATOM     85  C   UNL A   1      46.764  25.466  33.637  1.00  0.00     0.135 A 
ATOM     86  F   UNL A   1      43.152  25.127  33.652  1.00  0.00    -0.206 F 
ATOM     87  C   UNL A   1      44.740  24.416  35.220  1.00  0.00     0.059 A 
ATOM     88  C   UNL A   1      47.085  24.827  34.835  1.00  0.00     0.059 A 
ATOM     89  F   UNL A   1      47.803  25.882  32.898  1.00  0.00    -0.206 F 
ATOM     90  C   UNL A   1      46.072  24.275  35.608  1.00  0.00     0.060 A 
BRANCH  90  91
ATOM     91  S   UNL A   1      46.485  23.259  37.049  1.00  0.00     0.124 S 
ATOM     92  O   UNL A   1      47.902  22.984  36.829  1.00  0.00    -0.237 OA
ATOM     93  O   UNL A   1      46.174  24.152  38.159  1.00  0.00    -0.237 OA
ATOM     94  O   UNL A   1      45.598  22.105  36.914  1.00  0.00    -0.744 OA
ENDBRANCH  90  91
ENDBRANCH  58  83
BRANCH  70  95
ATOM     95  C   UNL A   1      45.656  28.634  27.597  1.00  0.00     0.058 A 
ATOM     96  C   UNL A   1      46.680  29.600  27.561  1.00  0.00     0.135 A 
ATOM     97  C   UNL A   1      45.943  27.379  27.039  1.00  0.00     0.135 A 
ATOM     98  F   UNL A   1      46.530  30.787  28.167  1.00  0.00    -0.206 F 
ATOM     99  C   UNL A   1      47.911  29.342  26.948  1.00  0.00     0.059 A 
ATOM    100  C   UNL A   1      47.170  27.089  26.456  1.00  0.00     0.059 A 
ATOM    101  F   UNL A   1      45.031  26.394  27.098  1.00  0.00    -0.206 F 
ATOM    102  C   UNL A   1      48.144  28.082  26.395  1.00  0.00     0.060 A 
BRANCH 102 103
ATOM    103  S   UNL A   1      49.740  27.730  25.627  1.00  0.00     0.124 S 
ATOM    104  O   UNL A   1      49.421  27.811  24.206  1.00  0.00    -0.237 OA
ATOM    105  O   UNL A   1      50.586  28.799  26.149  1.00  0.00    -0.237 OA
ATOM    106  O   UNL A   1      50.068  26.393  26.116  1.00  0.00    -0.744 OA
ENDBRANCH 102 103
ENDBRANCH  70  95
ENDBRANCH  44  45
ENDBRANCH  37  39
ENDBRANCH  36  37
ENDBRANCH  35  36
ENDBRANCH  34  35
ENDBRANCH  33  34
ENDBRANCH  32  33
ENDBRANCH   1  32
TORSDOF 24
ENDMDL
