MODEL 1
REMARK VINA RESULT:      -7.9      0.000      0.000
REMARK SMILES CCCCCCNC(=O)Oc1cccc(-c2ccc([C@H](C)C(=O)OCCOCCOCCOC(=O)c3ccc(-c4c5nc(c(-c6c(F)cc(S(=O)(=O)[O-])cc6F)c6ccc([nH]6)c(-c6c(F)cc(S(=O)(=O)[O-])cc6F)c6nc(c(-c7c(F)cc(S(=O)(=O)[O-])cc7F)c7ccc4[nH]7)C=C6)C=C5)cc3)cc2F)c1
REMARK SMILES IDX 25 1 24 2 22 3 23 4 20 5 21 6 19 7 16 8 17 9 103 10 18 11
REMARK SMILES IDX 102 12 104 13 15 14 11 15 12 16 105 17 13 18 14 19 10 20
REMARK SMILES IDX 8 21 7 22 9 24 6 25 5 26 4 27 3 28 2 29 1 30 26 31 27 32
REMARK SMILES IDX 28 33 29 34 30 35 31 36 32 37 33 38 34 39 35 40 36 41 37 42
REMARK SMILES IDX 101 43 38 44 100 45 39 46 40 47 41 48 94 49 42 50 99 51
REMARK SMILES IDX 93 52 95 53 43 54 98 55 92 56 91 57 44 59 78 60 57 61 77 62
REMARK SMILES IDX 58 63 61 64 76 65 96 66 59 67 60 68 75 70 97 71 62 72 45 73
REMARK SMILES IDX 46 74 55 75 47 76 48 77 54 78 56 79 49 80 50 81 51 82 52 83
REMARK SMILES IDX 53 84 79 85 80 86 89 87 81 88 82 89 88 90 90 91 83 92 84 93
REMARK SMILES IDX 85 94 86 95 87 96 63 97 64 98 73 99 65 100 66 101 72 102
REMARK SMILES IDX 74 103 67 104 68 105 69 106 70 107 71 108
REMARK H PARENT 7 23 95 58 61 69
REMARK Flexibility Score: inf
ROOT
ATOM      1  C   UNL A   1      38.668  31.049  30.275  1.00  0.00     0.261 C 
ENDROOT
BRANCH   1   2
ATOM      2  O   UNL A   1      37.343  31.590  30.448  1.00  0.00    -0.463 OA
BRANCH   2   3
ATOM      3  C   UNL A   1      36.839  32.309  29.406  1.00  0.00     0.313 C 
ATOM      4  O   UNL A   1      37.532  32.918  28.597  1.00  0.00    -0.252 OA
BRANCH   3   5
ATOM      5  C   UNL A   1      35.303  32.389  29.396  1.00  0.00     0.126 C 
ATOM      6  C   UNL A   1      34.613  33.723  29.083  1.00  0.00     0.025 C 
BRANCH   5   7
ATOM      7  C   UNL A   1      34.747  31.346  28.458  1.00  0.00    -0.031 A 
ATOM      8  C   UNL A   1      33.709  29.447  26.697  1.00  0.00     0.018 A 
ATOM      9  C   UNL A   1      34.926  29.214  27.344  1.00  0.00     0.012 A 
ATOM     10  C   UNL A   1      33.039  30.656  26.915  1.00  0.00     0.131 A 
ATOM     11  C   UNL A   1      35.450  30.162  28.203  1.00  0.00     0.005 A 
ATOM     12  C   UNL A   1      33.540  31.598  27.796  1.00  0.00     0.044 A 
ATOM     13  F   UNL A   1      31.899  30.933  26.264  1.00  0.00    -0.206 F 
BRANCH   8  14
ATOM     14  C   UNL A   1      33.200  28.441  25.782  1.00  0.00    -0.012 A 
ATOM     15  C   UNL A   1      31.541  27.730  24.195  1.00  0.00     0.133 A 
ATOM     16  C   UNL A   1      32.266  26.571  23.925  1.00  0.00     0.047 A 
ATOM     17  C   UNL A   1      31.983  28.652  25.133  1.00  0.00     0.056 A 
ATOM     18  C   UNL A   1      33.475  26.350  24.581  1.00  0.00     0.004 A 
ATOM     19  C   UNL A   1      33.942  27.285  25.502  1.00  0.00     0.009 A 
BRANCH  15  20
ATOM     20  O   UNL A   1      30.290  27.867  23.582  1.00  0.00    -0.410 OA
BRANCH  20  21
ATOM     21  C   UNL A   1      29.270  27.013  23.960  1.00  0.00     0.412 C 
ATOM     22  N   UNL A   1      28.052  27.412  23.501  1.00  0.00    -0.321 N 
ATOM     23  H   UNL A   1      27.270  26.880  23.776  1.00  0.00     0.167 HD
ATOM     24  O   UNL A   1      29.386  25.989  24.638  1.00  0.00    -0.224 OA
BRANCH  22  25
ATOM     25  C   UNL A   1      27.809  28.554  22.645  1.00  0.00     0.119 C 
BRANCH  25  26
ATOM     26  C   UNL A   1      27.479  29.809  23.450  1.00  0.00     0.021 C 
BRANCH  26  27
ATOM     27  C   UNL A   1      28.493  30.947  23.299  1.00  0.00     0.002 C 
BRANCH  27  28
ATOM     28  C   UNL A   1      28.096  32.044  22.306  1.00  0.00    -0.000 C 
BRANCH  28  29
ATOM     29  C   UNL A   1      28.472  33.467  22.725  1.00  0.00    -0.003 C 
ATOM     30  C   UNL A   1      29.704  33.521  23.615  1.00  0.00     0.004 C 
ENDBRANCH  28  29
ENDBRANCH  27  28
ENDBRANCH  26  27
ENDBRANCH  25  26
ENDBRANCH  22  25
ENDBRANCH  20  21
ENDBRANCH  15  20
ENDBRANCH   8  14
ENDBRANCH   5   7
ENDBRANCH   3   5
ENDBRANCH   2   3
ENDBRANCH   1   2
BRANCH   1  31
ATOM     31  C   UNL A   1      38.768  29.750  29.460  1.00  0.00     0.202 C 
BRANCH  31  32
ATOM     32  O   UNL A   1      39.507  28.645  29.964  1.00  0.00    -0.376 OA
BRANCH  32  33
ATOM     33  C   UNL A   1      39.034  27.320  29.765  1.00  0.00     0.188 C 
BRANCH  33  34
ATOM     34  C   UNL A   1      39.510  26.537  28.535  1.00  0.00     0.188 C 
BRANCH  34  35
ATOM     35  O   UNL A   1      40.531  25.601  28.770  1.00  0.00    -0.376 OA
BRANCH  35  36
ATOM     36  C   UNL A   1      40.963  24.793  27.692  1.00  0.00     0.202 C 
BRANCH  36  37
ATOM     37  C   UNL A   1      42.091  25.244  26.743  1.00  0.00     0.261 C 
BRANCH  37  38
ATOM     38  O   UNL A   1      43.286  25.793  27.325  1.00  0.00    -0.460 OA
BRANCH  38  39
ATOM     39  C   UNL A   1      44.194  26.356  26.491  1.00  0.00     0.338 C 
ATOM     40  O   UNL A   1      44.598  25.893  25.440  1.00  0.00    -0.246 OA
BRANCH  39  41
ATOM     41  C   UNL A   1      44.406  27.759  26.942  1.00  0.00     0.060 A 
ATOM     42  C   UNL A   1      45.261  28.006  28.029  1.00  0.00     0.016 A 
ATOM     43  C   UNL A   1      43.801  28.825  26.275  1.00  0.00     0.016 A 
ATOM     44  C   UNL A   1      45.485  29.313  28.471  1.00  0.00     0.010 A 
ATOM     45  C   UNL A   1      44.003  30.131  26.738  1.00  0.00     0.010 A 
ATOM     46  C   UNL A   1      44.818  30.381  27.858  1.00  0.00    -0.014 A 
BRANCH  46  47
ATOM     47  C   UNL A   1      44.778  31.713  28.517  1.00  0.00     0.031 A 
ATOM     48  C   UNL A   1      45.854  32.706  28.160  1.00  0.00     0.074 A 
ATOM     49  C   UNL A   1      43.822  32.050  29.402  1.00  0.00     0.049 A 
ATOM     50  N   UNL A   1      46.097  33.889  28.660  1.00  0.00    -0.248 NA
ATOM     51  C   UNL A   1      46.788  32.301  27.095  1.00  0.00     0.031 C 
ATOM     52  C   UNL A   1      42.697  31.206  29.798  1.00  0.00     0.029 A 
ATOM     53  N   UNL A   1      43.660  33.196  30.143  1.00  0.00    -0.354 N 
ATOM     54  C   UNL A   1      47.218  34.361  27.984  1.00  0.00     0.074 A 
ATOM     55  C   UNL A   1      47.623  33.327  27.059  1.00  0.00     0.031 C 
ATOM     56  C   UNL A   1      41.970  31.856  30.726  1.00  0.00     0.029 A 
ATOM     57  C   UNL A   1      42.600  33.145  31.018  1.00  0.00     0.049 A 
ATOM     58  H   UNL A   1      44.248  33.981  30.057  1.00  0.00     0.167 HD
ATOM     59  C   UNL A   1      47.848  35.552  28.118  1.00  0.00     0.037 A 
ATOM     60  C   UNL A   1      42.202  34.022  31.964  1.00  0.00     0.037 A 
ATOM     61  C   UNL A   1      47.443  36.581  29.038  1.00  0.00     0.049 A 
ATOM     62  C   UNL A   1      42.968  35.311  32.151  1.00  0.00     0.074 A 
ATOM     63  C   UNL A   1      48.008  37.828  29.236  1.00  0.00     0.029 A 
ATOM     64  N   UNL A   1      46.379  36.480  29.923  1.00  0.00    -0.354 N 
ATOM     65  N   UNL A   1      44.013  35.755  31.494  1.00  0.00    -0.248 NA
ATOM     66  C   UNL A   1      42.497  36.221  33.207  1.00  0.00     0.031 C 
ATOM     67  C   UNL A   1      47.324  38.457  30.281  1.00  0.00     0.029 A 
ATOM     68  C   UNL A   1      46.289  37.630  30.688  1.00  0.00     0.049 A 
ATOM     69  H   UNL A   1      45.777  35.704  29.996  1.00  0.00     0.167 HD
ATOM     70  C   UNL A   1      44.303  37.006  32.034  1.00  0.00     0.074 A 
ATOM     71  C   UNL A   1      43.317  37.253  33.065  1.00  0.00     0.031 C 
ATOM     72  C   UNL A   1      45.294  37.873  31.704  1.00  0.00     0.037 A 
BRANCH  59  73
ATOM     73  C   UNL A   1      49.066  35.794  27.268  1.00  0.00     0.058 A 
ATOM     74  C   UNL A   1      50.352  35.419  27.688  1.00  0.00     0.135 A 
ATOM     75  C   UNL A   1      48.939  36.380  25.997  1.00  0.00     0.135 A 
ATOM     76  F   UNL A   1      50.536  34.875  28.902  1.00  0.00    -0.206 F 
ATOM     77  C   UNL A   1      51.471  35.640  26.891  1.00  0.00     0.059 A 
ATOM     78  C   UNL A   1      50.040  36.581  25.171  1.00  0.00     0.059 A 
ATOM     79  F   UNL A   1      47.733  36.763  25.546  1.00  0.00    -0.206 F 
ATOM     80  C   UNL A   1      51.304  36.220  25.632  1.00  0.00     0.060 A 
BRANCH  80  81
ATOM     81  S   UNL A   1      52.765  36.487  24.608  1.00  0.00     0.124 S 
ATOM     82  O   UNL A   1      52.802  37.944  24.527  1.00  0.00    -0.237 OA
ATOM     83  O   UNL A   1      53.821  35.870  25.403  1.00  0.00    -0.237 OA
ATOM     84  O   UNL A   1      52.439  35.800  23.362  1.00  0.00    -0.744 OA
ENDBRANCH  80  81
ENDBRANCH  59  73
BRANCH  60  85
ATOM     85  C   UNL A   1      41.030  33.711  32.831  1.00  0.00     0.058 A 
ATOM     86  C   UNL A   1      39.731  34.093  32.463  1.00  0.00     0.135 A 
ATOM     87  C   UNL A   1      41.188  33.043  34.056  1.00  0.00     0.135 A 
ATOM     88  F   UNL A   1      39.526  34.750  31.311  1.00  0.00    -0.206 F 
ATOM     89  C   UNL A   1      38.634  33.840  33.282  1.00  0.00     0.059 A 
ATOM     90  C   UNL A   1      40.103  32.752  34.879  1.00  0.00     0.059 A 
ATOM     91  F   UNL A   1      42.408  32.653  34.457  1.00  0.00    -0.206 F 
ATOM     92  C   UNL A   1      38.831  33.164  34.488  1.00  0.00     0.060 A 
BRANCH  92  93
ATOM     93  S   UNL A   1      37.394  32.804  35.522  1.00  0.00     0.124 S 
ATOM     94  O   UNL A   1      37.868  31.665  36.299  1.00  0.00    -0.237 OA
ATOM     95  O   UNL A   1      37.227  34.053  36.258  1.00  0.00    -0.237 OA
ATOM     96  O   UNL A   1      36.344  32.513  34.550  1.00  0.00    -0.744 OA
ENDBRANCH  92  93
ENDBRANCH  60  85
BRANCH  72  97
ATOM     97  C   UNL A   1      45.342  39.196  32.425  1.00  0.00     0.058 A 
ATOM     98  C   UNL A   1      46.166  39.405  33.543  1.00  0.00     0.135 A 
ATOM     99  C   UNL A   1      44.600  40.290  31.947  1.00  0.00     0.135 A 
ATOM    100  F   UNL A   1      46.895  38.397  34.045  1.00  0.00    -0.206 F 
ATOM    101  C   UNL A   1      46.234  40.644  34.173  1.00  0.00     0.059 A 
ATOM    102  C   UNL A   1      44.678  41.545  32.542  1.00  0.00     0.059 A 
ATOM    103  F   UNL A   1      43.806  40.151  30.874  1.00  0.00    -0.206 F 
ATOM    104  C   UNL A   1      45.489  41.710  33.663  1.00  0.00     0.060 A 
BRANCH 104 105
ATOM    105  S   UNL A   1      45.617  43.320  34.470  1.00  0.00     0.124 S 
ATOM    106  O   UNL A   1      46.785  43.132  35.323  1.00  0.00    -0.237 OA
ATOM    107  O   UNL A   1      45.798  44.223  33.337  1.00  0.00    -0.237 OA
ATOM    108  O   UNL A   1      44.344  43.452  35.171  1.00  0.00    -0.744 OA
ENDBRANCH 104 105
ENDBRANCH  72  97
ENDBRANCH  46  47
ENDBRANCH  39  41
ENDBRANCH  38  39
ENDBRANCH  37  38
ENDBRANCH  36  37
ENDBRANCH  35  36
ENDBRANCH  34  35
ENDBRANCH  33  34
ENDBRANCH  32  33
ENDBRANCH  31  32
ENDBRANCH   1  31
TORSDOF 29
ENDMDL
MODEL 2
REMARK VINA RESULT:      -7.6      6.780     13.669
REMARK SMILES CCCCCCNC(=O)Oc1cccc(-c2ccc([C@H](C)C(=O)OCCOCCOCCOC(=O)c3ccc(-c4c5nc(c(-c6c(F)cc(S(=O)(=O)[O-])cc6F)c6ccc([nH]6)c(-c6c(F)cc(S(=O)(=O)[O-])cc6F)c6nc(c(-c7c(F)cc(S(=O)(=O)[O-])cc7F)c7ccc4[nH]7)C=C6)C=C5)cc3)cc2F)c1
REMARK SMILES IDX 25 1 24 2 22 3 23 4 20 5 21 6 19 7 16 8 17 9 103 10 18 11
REMARK SMILES IDX 102 12 104 13 15 14 11 15 12 16 105 17 13 18 14 19 10 20
REMARK SMILES IDX 8 21 7 22 9 24 6 25 5 26 4 27 3 28 2 29 1 30 26 31 27 32
REMARK SMILES IDX 28 33 29 34 30 35 31 36 32 37 33 38 34 39 35 40 36 41 37 42
REMARK SMILES IDX 101 43 38 44 100 45 39 46 40 47 41 48 94 49 42 50 99 51
REMARK SMILES IDX 93 52 95 53 43 54 98 55 92 56 91 57 44 59 78 60 57 61 77 62
REMARK SMILES IDX 58 63 61 64 76 65 96 66 59 67 60 68 75 70 97 71 62 72 45 73
REMARK SMILES IDX 46 74 55 75 47 76 48 77 54 78 56 79 49 80 50 81 51 82 52 83
REMARK SMILES IDX 53 84 79 85 80 86 89 87 81 88 82 89 88 90 90 91 83 92 84 93
REMARK SMILES IDX 85 94 86 95 87 96 63 97 64 98 73 99 65 100 66 101 72 102
REMARK SMILES IDX 74 103 67 104 68 105 69 106 70 107 71 108
REMARK H PARENT 7 23 95 58 61 69
REMARK Flexibility Score: inf
ROOT
ATOM      1  C   UNL A   1      44.196  34.148  29.201  1.00  0.00     0.261 C 
ENDROOT
BRANCH   1   2
ATOM      2  O   UNL A   1      43.098  35.056  29.416  1.00  0.00    -0.463 OA
BRANCH   2   3
ATOM      3  C   UNL A   1      43.422  36.312  29.834  1.00  0.00     0.313 C 
ATOM      4  O   UNL A   1      42.985  37.337  29.320  1.00  0.00    -0.252 OA
BRANCH   3   5
ATOM      5  C   UNL A   1      44.487  36.338  30.943  1.00  0.00     0.126 C 
ATOM      6  C   UNL A   1      45.561  37.436  30.941  1.00  0.00     0.025 C 
BRANCH   5   7
ATOM      7  C   UNL A   1      43.813  36.350  32.293  1.00  0.00    -0.031 A 
ATOM      8  C   UNL A   1      42.550  36.406  34.780  1.00  0.00     0.018 A 
ATOM      9  C   UNL A   1      42.551  35.233  34.019  1.00  0.00     0.012 A 
ATOM     10  C   UNL A   1      43.157  37.557  34.265  1.00  0.00     0.131 A 
ATOM     11  C   UNL A   1      43.161  35.209  32.779  1.00  0.00     0.005 A 
ATOM     12  C   UNL A   1      43.796  37.534  33.038  1.00  0.00     0.044 A 
ATOM     13  F   UNL A   1      43.123  38.712  34.946  1.00  0.00    -0.206 F 
BRANCH   8  14
ATOM     14  C   UNL A   1      41.879  36.404  36.068  1.00  0.00    -0.012 A 
ATOM     15  C   UNL A   1      41.972  36.650  38.457  1.00  0.00     0.133 A 
ATOM     16  C   UNL A   1      40.587  36.526  38.544  1.00  0.00     0.047 A 
ATOM     17  C   UNL A   1      42.625  36.566  37.235  1.00  0.00     0.056 A 
ATOM     18  C   UNL A   1      39.840  36.351  37.382  1.00  0.00     0.004 A 
ATOM     19  C   UNL A   1      40.484  36.296  36.148  1.00  0.00     0.009 A 
BRANCH  15  20
ATOM     20  O   UNL A   1      42.691  36.732  39.655  1.00  0.00    -0.410 OA
BRANCH  20  21
ATOM     21  C   UNL A   1      43.160  37.968  40.063  1.00  0.00     0.412 C 
ATOM     22  N   UNL A   1      44.520  38.031  40.092  1.00  0.00    -0.321 N 
ATOM     23  H   UNL A   1      44.926  38.865  40.423  1.00  0.00     0.167 HD
ATOM     24  O   UNL A   1      42.474  38.943  40.380  1.00  0.00    -0.224 OA
BRANCH  22  25
ATOM     25  C   UNL A   1      45.419  36.975  39.678  1.00  0.00     0.119 C 
BRANCH  25  26
ATOM     26  C   UNL A   1      46.198  37.350  38.419  1.00  0.00     0.021 C 
BRANCH  26  27
ATOM     27  C   UNL A   1      46.547  36.168  37.510  1.00  0.00     0.002 C 
BRANCH  27  28
ATOM     28  C   UNL A   1      46.189  36.355  36.032  1.00  0.00    -0.000 C 
BRANCH  28  29
ATOM     29  C   UNL A   1      46.096  35.063  35.218  1.00  0.00    -0.003 C 
ATOM     30  C   UNL A   1      46.847  35.134  33.898  1.00  0.00     0.004 C 
ENDBRANCH  28  29
ENDBRANCH  27  28
ENDBRANCH  26  27
ENDBRANCH  25  26
ENDBRANCH  22  25
ENDBRANCH  20  21
ENDBRANCH  15  20
ENDBRANCH   8  14
ENDBRANCH   5   7
ENDBRANCH   3   5
ENDBRANCH   2   3
ENDBRANCH   1   2
BRANCH   1  31
ATOM     31  C   UNL A   1      44.083  33.226  27.976  1.00  0.00     0.202 C 
BRANCH  31  32
ATOM     32  O   UNL A   1      44.669  33.606  26.738  1.00  0.00    -0.376 OA
BRANCH  32  33
ATOM     33  C   UNL A   1      44.983  32.621  25.764  1.00  0.00     0.188 C 
BRANCH  33  34
ATOM     34  C   UNL A   1      45.963  31.500  26.130  1.00  0.00     0.188 C 
BRANCH  34  35
ATOM     35  O   UNL A   1      47.253  31.918  26.496  1.00  0.00    -0.376 OA
BRANCH  35  36
ATOM     36  C   UNL A   1      47.520  32.160  27.864  1.00  0.00     0.202 C 
BRANCH  36  37
ATOM     37  C   UNL A   1      48.431  31.228  28.688  1.00  0.00     0.261 C 
BRANCH  37  38
ATOM     38  O   UNL A   1      47.891  30.640  29.884  1.00  0.00    -0.460 OA
BRANCH  38  39
ATOM     39  C   UNL A   1      46.612  30.193  29.848  1.00  0.00     0.338 C 
ATOM     40  O   UNL A   1      46.106  29.516  28.971  1.00  0.00    -0.246 OA
BRANCH  39  41
ATOM     41  C   UNL A   1      46.013  30.440  31.188  1.00  0.00     0.060 A 
ATOM     42  C   UNL A   1      45.437  29.367  31.888  1.00  0.00     0.016 A 
ATOM     43  C   UNL A   1      46.056  31.708  31.769  1.00  0.00     0.016 A 
ATOM     44  C   UNL A   1      44.873  29.566  33.152  1.00  0.00     0.010 A 
ATOM     45  C   UNL A   1      45.465  31.913  33.022  1.00  0.00     0.010 A 
ATOM     46  C   UNL A   1      44.840  30.852  33.706  1.00  0.00    -0.014 A 
BRANCH  46  47
ATOM     47  C   UNL A   1      43.962  31.141  34.870  1.00  0.00     0.031 A 
ATOM     48  C   UNL A   1      42.539  31.554  34.591  1.00  0.00     0.074 A 
ATOM     49  C   UNL A   1      44.394  31.042  36.140  1.00  0.00     0.049 A 
ATOM     50  N   UNL A   1      41.608  31.950  35.418  1.00  0.00    -0.248 NA
ATOM     51  C   UNL A   1      42.115  31.519  33.181  1.00  0.00     0.031 C 
ATOM     52  C   UNL A   1      45.727  30.606  36.552  1.00  0.00     0.029 A 
ATOM     53  N   UNL A   1      43.752  31.321  37.323  1.00  0.00    -0.354 N 
ATOM     54  C   UNL A   1      40.496  32.226  34.630  1.00  0.00     0.074 A 
ATOM     55  C   UNL A   1      40.876  31.980  33.257  1.00  0.00     0.031 C 
ATOM     56  C   UNL A   1      45.810  30.667  37.893  1.00  0.00     0.029 A 
ATOM     57  C   UNL A   1      44.552  31.182  38.434  1.00  0.00     0.049 A 
ATOM     58  H   UNL A   1      42.808  31.596  37.371  1.00  0.00     0.167 HD
ATOM     59  C   UNL A   1      39.266  32.641  35.015  1.00  0.00     0.037 A 
ATOM     60  C   UNL A   1      44.306  31.464  39.730  1.00  0.00     0.037 A 
ATOM     61  C   UNL A   1      38.888  32.885  36.382  1.00  0.00     0.049 A 
ATOM     62  C   UNL A   1      42.951  32.003  40.129  1.00  0.00     0.074 A 
ATOM     63  C   UNL A   1      37.661  33.293  36.875  1.00  0.00     0.029 A 
ATOM     64  N   UNL A   1      39.734  32.755  37.474  1.00  0.00    -0.354 N 
ATOM     65  N   UNL A   1      41.902  32.242  39.379  1.00  0.00    -0.248 NA
ATOM     66  C   UNL A   1      42.747  32.307  41.554  1.00  0.00     0.031 C 
ATOM     67  C   UNL A   1      37.782  33.467  38.258  1.00  0.00     0.029 A 
ATOM     68  C   UNL A   1      39.064  33.102  38.636  1.00  0.00     0.049 A 
ATOM     69  H   UNL A   1      40.673  32.459  37.430  1.00  0.00     0.167 HD
ATOM     70  C   UNL A   1      40.906  32.692  40.242  1.00  0.00     0.074 A 
ATOM     71  C   UNL A   1      41.475  32.682  41.574  1.00  0.00     0.031 C 
ATOM     72  C   UNL A   1      39.635  33.076  39.960  1.00  0.00     0.037 A 
BRANCH  59  73
ATOM     73  C   UNL A   1      38.245  32.890  33.938  1.00  0.00     0.058 A 
ATOM     74  C   UNL A   1      38.115  34.141  33.313  1.00  0.00     0.135 A 
ATOM     75  C   UNL A   1      37.408  31.851  33.500  1.00  0.00     0.135 A 
ATOM     76  F   UNL A   1      38.874  35.176  33.705  1.00  0.00    -0.206 F 
ATOM     77  C   UNL A   1      37.174  34.359  32.311  1.00  0.00     0.059 A 
ATOM     78  C   UNL A   1      36.482  32.038  32.479  1.00  0.00     0.059 A 
ATOM     79  F   UNL A   1      37.486  30.635  34.066  1.00  0.00    -0.206 F 
ATOM     80  C   UNL A   1      36.363  33.299  31.900  1.00  0.00     0.060 A 
BRANCH  80  81
ATOM     81  S   UNL A   1      35.157  33.597  30.591  1.00  0.00     0.124 S 
ATOM     82  O   UNL A   1      34.496  34.806  31.074  1.00  0.00    -0.237 OA
ATOM     83  O   UNL A   1      36.006  33.765  29.417  1.00  0.00    -0.237 OA
ATOM     84  O   UNL A   1      34.337  32.389  30.601  1.00  0.00    -0.744 OA
ENDBRANCH  80  81
ENDBRANCH  59  73
BRANCH  60  85
ATOM     85  C   UNL A   1      45.369  31.267  40.756  1.00  0.00     0.058 A 
ATOM     86  C   UNL A   1      45.486  30.058  41.459  1.00  0.00     0.135 A 
ATOM     87  C   UNL A   1      46.276  32.292  41.070  1.00  0.00     0.135 A 
ATOM     88  F   UNL A   1      44.632  29.053  41.212  1.00  0.00    -0.206 F 
ATOM     89  C   UNL A   1      46.452  29.876  42.445  1.00  0.00     0.059 A 
ATOM     90  C   UNL A   1      47.270  32.123  42.031  1.00  0.00     0.059 A 
ATOM     91  F   UNL A   1      46.211  33.468  40.428  1.00  0.00    -0.206 F 
ATOM     92  C   UNL A   1      47.343  30.915  42.721  1.00  0.00     0.060 A 
BRANCH  92  93
ATOM     93  S   UNL A   1      48.619  30.652  43.973  1.00  0.00     0.124 S 
ATOM     94  O   UNL A   1      49.462  29.652  43.329  1.00  0.00    -0.237 OA
ATOM     95  O   UNL A   1      49.197  31.985  44.105  1.00  0.00    -0.237 OA
ATOM     96  O   UNL A   1      47.861  30.187  45.132  1.00  0.00    -0.744 OA
ENDBRANCH  92  93
ENDBRANCH  60  85
BRANCH  72  97
ATOM     97  C   UNL A   1      38.746  33.472  41.111  1.00  0.00     0.058 A 
ATOM     98  C   UNL A   1      37.848  32.571  41.702  1.00  0.00     0.135 A 
ATOM     99  C   UNL A   1      38.846  34.758  41.671  1.00  0.00     0.135 A 
ATOM    100  F   UNL A   1      37.708  31.331  41.208  1.00  0.00    -0.206 F 
ATOM    101  C   UNL A   1      37.063  32.936  42.793  1.00  0.00     0.059 A 
ATOM    102  C   UNL A   1      38.095  35.134  42.781  1.00  0.00     0.059 A 
ATOM    103  F   UNL A   1      39.698  35.657  41.154  1.00  0.00    -0.206 F 
ATOM    104  C   UNL A   1      37.197  34.219  43.328  1.00  0.00     0.060 A 
BRANCH 104 105
ATOM    105  S   UNL A   1      36.199  34.667  44.765  1.00  0.00     0.124 S 
ATOM    106  O   UNL A   1      34.845  34.524  44.241  1.00  0.00    -0.237 OA
ATOM    107  O   UNL A   1      36.607  33.669  45.750  1.00  0.00    -0.237 OA
ATOM    108  O   UNL A   1      36.617  36.034  45.058  1.00  0.00    -0.744 OA
ENDBRANCH 104 105
ENDBRANCH  72  97
ENDBRANCH  46  47
ENDBRANCH  39  41
ENDBRANCH  38  39
ENDBRANCH  37  38
ENDBRANCH  36  37
ENDBRANCH  35  36
ENDBRANCH  34  35
ENDBRANCH  33  34
ENDBRANCH  32  33
ENDBRANCH  31  32
ENDBRANCH   1  31
TORSDOF 29
ENDMDL
MODEL 3
REMARK VINA RESULT:      -7.5      6.464     12.943
REMARK SMILES CCCCCCNC(=O)Oc1cccc(-c2ccc([C@H](C)C(=O)OCCOCCOCCOC(=O)c3ccc(-c4c5nc(c(-c6c(F)cc(S(=O)(=O)[O-])cc6F)c6ccc([nH]6)c(-c6c(F)cc(S(=O)(=O)[O-])cc6F)c6nc(c(-c7c(F)cc(S(=O)(=O)[O-])cc7F)c7ccc4[nH]7)C=C6)C=C5)cc3)cc2F)c1
REMARK SMILES IDX 25 1 24 2 22 3 23 4 20 5 21 6 19 7 16 8 17 9 103 10 18 11
REMARK SMILES IDX 102 12 104 13 15 14 11 15 12 16 105 17 13 18 14 19 10 20
REMARK SMILES IDX 8 21 7 22 9 24 6 25 5 26 4 27 3 28 2 29 1 30 26 31 27 32
REMARK SMILES IDX 28 33 29 34 30 35 31 36 32 37 33 38 34 39 35 40 36 41 37 42
REMARK SMILES IDX 101 43 38 44 100 45 39 46 40 47 41 48 94 49 42 50 99 51
REMARK SMILES IDX 93 52 95 53 43 54 98 55 92 56 91 57 44 59 78 60 57 61 77 62
REMARK SMILES IDX 58 63 61 64 76 65 96 66 59 67 60 68 75 70 97 71 62 72 45 73
REMARK SMILES IDX 46 74 55 75 47 76 48 77 54 78 56 79 49 80 50 81 51 82 52 83
REMARK SMILES IDX 53 84 79 85 80 86 89 87 81 88 82 89 88 90 90 91 83 92 84 93
REMARK SMILES IDX 85 94 86 95 87 96 63 97 64 98 73 99 65 100 66 101 72 102
REMARK SMILES IDX 74 103 67 104 68 105 69 106 70 107 71 108
REMARK H PARENT 7 23 95 58 61 69
REMARK Flexibility Score: inf
ROOT
ATOM      1  C   UNL A   1      38.778  32.650  29.676  1.00  0.00     0.261 C 
ENDROOT
BRANCH   1   2
ATOM      2  O   UNL A   1      37.580  32.113  29.079  1.00  0.00    -0.463 OA
BRANCH   2   3
ATOM      3  C   UNL A   1      36.902  31.183  29.809  1.00  0.00     0.313 C 
ATOM      4  O   UNL A   1      36.466  31.385  30.938  1.00  0.00    -0.252 OA
BRANCH   3   5
ATOM      5  C   UNL A   1      36.831  29.801  29.136  1.00  0.00     0.126 C 
ATOM      6  C   UNL A   1      36.223  29.669  27.733  1.00  0.00     0.025 C 
BRANCH   5   7
ATOM      7  C   UNL A   1      38.206  29.180  29.107  1.00  0.00    -0.031 A 
ATOM      8  C   UNL A   1      40.735  28.003  29.079  1.00  0.00     0.018 A 
ATOM      9  C   UNL A   1      40.128  28.391  27.881  1.00  0.00     0.012 A 
ATOM     10  C   UNL A   1      40.046  28.177  30.284  1.00  0.00     0.131 A 
ATOM     11  C   UNL A   1      38.868  28.958  27.892  1.00  0.00     0.005 A 
ATOM     12  C   UNL A   1      38.796  28.771  30.308  1.00  0.00     0.044 A 
ATOM     13  F   UNL A   1      40.578  27.761  31.443  1.00  0.00    -0.206 F 
BRANCH   8  14
ATOM     14  C   UNL A   1      42.049  27.387  29.029  1.00  0.00    -0.012 A 
ATOM     15  C   UNL A   1      43.428  25.471  28.578  1.00  0.00     0.133 A 
ATOM     16  C   UNL A   1      44.580  26.220  28.810  1.00  0.00     0.047 A 
ATOM     17  C   UNL A   1      42.167  26.035  28.709  1.00  0.00     0.056 A 
ATOM     18  C   UNL A   1      44.467  27.567  29.143  1.00  0.00     0.004 A 
ATOM     19  C   UNL A   1      43.206  28.150  29.246  1.00  0.00     0.009 A 
BRANCH  15  20
ATOM     20  O   UNL A   1      43.585  24.102  28.336  1.00  0.00    -0.410 OA
BRANCH  20  21
ATOM     21  C   UNL A   1      43.340  23.214  29.369  1.00  0.00     0.412 C 
ATOM     22  N   UNL A   1      42.375  22.303  29.062  1.00  0.00    -0.321 N 
ATOM     23  H   UNL A   1      42.111  21.671  29.770  1.00  0.00     0.167 HD
ATOM     24  O   UNL A   1      43.899  23.198  30.468  1.00  0.00    -0.224 OA
BRANCH  22  25
ATOM     25  C   UNL A   1      41.704  22.187  27.785  1.00  0.00     0.119 C 
BRANCH  25  26
ATOM     26  C   UNL A   1      42.568  21.468  26.751  1.00  0.00     0.021 C 
BRANCH  26  27
ATOM     27  C   UNL A   1      41.917  20.228  26.131  1.00  0.00     0.002 C 
BRANCH  27  28
ATOM     28  C   UNL A   1      42.525  18.889  26.564  1.00  0.00    -0.000 C 
BRANCH  28  29
ATOM     29  C   UNL A   1      43.918  18.598  26.005  1.00  0.00    -0.003 C 
ATOM     30  C   UNL A   1      44.094  19.062  24.568  1.00  0.00     0.004 C 
ENDBRANCH  28  29
ENDBRANCH  27  28
ENDBRANCH  26  27
ENDBRANCH  25  26
ENDBRANCH  22  25
ENDBRANCH  20  21
ENDBRANCH  15  20
ENDBRANCH   8  14
ENDBRANCH   5   7
ENDBRANCH   3   5
ENDBRANCH   2   3
ENDBRANCH   1   2
BRANCH   1  31
ATOM     31  C   UNL A   1      38.732  34.135  30.068  1.00  0.00     0.202 C 
BRANCH  31  32
ATOM     32  O   UNL A   1      39.370  34.582  31.258  1.00  0.00    -0.376 OA
BRANCH  32  33
ATOM     33  C   UNL A   1      39.945  33.642  32.156  1.00  0.00     0.188 C 
BRANCH  33  34
ATOM     34  C   UNL A   1      41.235  34.014  32.895  1.00  0.00     0.188 C 
BRANCH  34  35
ATOM     35  O   UNL A   1      41.364  33.487  34.191  1.00  0.00    -0.376 OA
BRANCH  35  36
ATOM     36  C   UNL A   1      40.846  34.233  35.275  1.00  0.00     0.202 C 
BRANCH  36  37
ATOM     37  C   UNL A   1      40.983  33.747  36.732  1.00  0.00     0.261 C 
BRANCH  37  38
ATOM     38  O   UNL A   1      40.927  32.332  36.981  1.00  0.00    -0.460 OA
BRANCH  38  39
ATOM     39  C   UNL A   1      41.895  31.788  37.759  1.00  0.00     0.338 C 
ATOM     40  O   UNL A   1      41.906  31.744  38.976  1.00  0.00    -0.246 OA
BRANCH  39  41
ATOM     41  C   UNL A   1      42.805  31.017  36.869  1.00  0.00     0.060 A 
ATOM     42  C   UNL A   1      44.194  31.154  37.027  1.00  0.00     0.016 A 
ATOM     43  C   UNL A   1      42.295  30.136  35.915  1.00  0.00     0.016 A 
ATOM     44  C   UNL A   1      45.074  30.436  36.211  1.00  0.00     0.010 A 
ATOM     45  C   UNL A   1      43.178  29.440  35.078  1.00  0.00     0.010 A 
ATOM     46  C   UNL A   1      44.570  29.612  35.197  1.00  0.00    -0.014 A 
BRANCH  46  47
ATOM     47  C   UNL A   1      45.468  29.117  34.121  1.00  0.00     0.031 A 
ATOM     48  C   UNL A   1      46.279  27.877  34.397  1.00  0.00     0.074 A 
ATOM     49  C   UNL A   1      45.571  29.734  32.930  1.00  0.00     0.049 A 
ATOM     50  N   UNL A   1      47.199  27.302  33.668  1.00  0.00    -0.248 NA
ATOM     51  C   UNL A   1      46.016  27.198  35.678  1.00  0.00     0.031 C 
ATOM     52  C   UNL A   1      44.809  30.909  32.513  1.00  0.00     0.029 A 
ATOM     53  N   UNL A   1      46.379  29.459  31.852  1.00  0.00    -0.354 N 
ATOM     54  C   UNL A   1      47.635  26.206  34.407  1.00  0.00     0.074 A 
ATOM     55  C   UNL A   1      46.900  26.213  35.651  1.00  0.00     0.031 C 
ATOM     56  C   UNL A   1      45.201  31.267  31.277  1.00  0.00     0.029 A 
ATOM     57  C   UNL A   1      46.268  30.371  30.829  1.00  0.00     0.049 A 
ATOM     58  H   UNL A   1      46.983  28.681  31.816  1.00  0.00     0.167 HD
ATOM     59  C   UNL A   1      48.560  25.275  34.075  1.00  0.00     0.037 A 
ATOM     60  C   UNL A   1      46.966  30.486  29.679  1.00  0.00     0.037 A 
ATOM     61  C   UNL A   1      49.291  25.270  32.835  1.00  0.00     0.049 A 
ATOM     62  C   UNL A   1      48.050  29.482  29.364  1.00  0.00     0.074 A 
ATOM     63  C   UNL A   1      50.237  24.359  32.399  1.00  0.00     0.029 A 
ATOM     64  N   UNL A   1      49.166  26.224  31.836  1.00  0.00    -0.354 N 
ATOM     65  N   UNL A   1      48.440  28.440  30.060  1.00  0.00    -0.248 NA
ATOM     66  C   UNL A   1      48.787  29.667  28.104  1.00  0.00     0.031 C 
ATOM     67  C   UNL A   1      50.729  24.796  31.165  1.00  0.00     0.029 A 
ATOM     68  C   UNL A   1      50.039  25.941  30.799  1.00  0.00     0.049 A 
ATOM     69  H   UNL A   1      48.547  26.991  31.861  1.00  0.00     0.167 HD
ATOM     70  C   UNL A   1      49.442  27.830  29.309  1.00  0.00     0.074 A 
ATOM     71  C   UNL A   1      49.591  28.612  28.100  1.00  0.00     0.031 C 
ATOM     72  C   UNL A   1      50.170  26.720  29.592  1.00  0.00     0.037 A 
BRANCH  59  73
ATOM     73  C   UNL A   1      48.859  24.200  35.084  1.00  0.00     0.058 A 
ATOM     74  C   UNL A   1      49.937  24.299  35.978  1.00  0.00     0.135 A 
ATOM     75  C   UNL A   1      48.031  23.069  35.180  1.00  0.00     0.135 A 
ATOM     76  F   UNL A   1      50.773  25.347  35.917  1.00  0.00    -0.206 F 
ATOM     77  C   UNL A   1      50.200  23.302  36.913  1.00  0.00     0.059 A 
ATOM     78  C   UNL A   1      48.257  22.075  36.129  1.00  0.00     0.059 A 
ATOM     79  F   UNL A   1      46.989  22.920  34.347  1.00  0.00    -0.206 F 
ATOM     80  C   UNL A   1      49.352  22.195  36.982  1.00  0.00     0.060 A 
BRANCH  80  81
ATOM     81  S   UNL A   1      49.701  20.919  38.209  1.00  0.00     0.124 S 
ATOM     82  O   UNL A   1      50.879  20.277  37.635  1.00  0.00    -0.237 OA
ATOM     83  O   UNL A   1      49.933  21.704  39.417  1.00  0.00    -0.237 OA
ATOM     84  O   UNL A   1      48.486  20.109  38.215  1.00  0.00    -0.744 OA
ENDBRANCH  80  81
ENDBRANCH  59  73
BRANCH  60  85
ATOM     85  C   UNL A   1      46.684  31.608  28.739  1.00  0.00     0.058 A 
ATOM     86  C   UNL A   1      45.858  31.428  27.619  1.00  0.00     0.135 A 
ATOM     87  C   UNL A   1      47.251  32.878  28.931  1.00  0.00     0.135 A 
ATOM     88  F   UNL A   1      45.306  30.229  27.378  1.00  0.00    -0.206 F 
ATOM     89  C   UNL A   1      45.618  32.458  26.714  1.00  0.00     0.059 A 
ATOM     90  C   UNL A   1      47.001  33.933  28.056  1.00  0.00     0.059 A 
ATOM     91  F   UNL A   1      48.048  33.107  29.986  1.00  0.00    -0.206 F 
ATOM     92  C   UNL A   1      46.192  33.710  26.945  1.00  0.00     0.060 A 
BRANCH  92  93
ATOM     93  S   UNL A   1      45.837  35.051  25.787  1.00  0.00     0.124 S 
ATOM     94  O   UNL A   1      45.402  34.314  24.607  1.00  0.00    -0.237 OA
ATOM     95  O   UNL A   1      44.799  35.796  26.492  1.00  0.00    -0.237 OA
ATOM     96  O   UNL A   1      47.120  35.738  25.665  1.00  0.00    -0.744 OA
ENDBRANCH  92  93
ENDBRANCH  60  85
BRANCH  72  97
ATOM     97  C   UNL A   1      51.165  26.247  28.562  1.00  0.00     0.058 A 
ATOM     98  C   UNL A   1      50.780  25.473  27.456  1.00  0.00     0.135 A 
ATOM     99  C   UNL A   1      52.513  26.633  28.652  1.00  0.00     0.135 A 
ATOM    100  F   UNL A   1      49.506  25.073  27.320  1.00  0.00    -0.206 F 
ATOM    101  C   UNL A   1      51.701  25.080  26.489  1.00  0.00     0.059 A 
ATOM    102  C   UNL A   1      53.444  26.278  27.680  1.00  0.00     0.059 A 
ATOM    103  F   UNL A   1      52.935  27.385  29.681  1.00  0.00    -0.206 F 
ATOM    104  C   UNL A   1      53.030  25.491  26.607  1.00  0.00     0.060 A 
BRANCH 104 105
ATOM    105  S   UNL A   1      54.205  25.003  25.325  1.00  0.00     0.124 S 
ATOM    106  O   UNL A   1      55.377  24.650  26.119  1.00  0.00    -0.237 OA
ATOM    107  O   UNL A   1      53.517  23.888  24.680  1.00  0.00    -0.237 OA
ATOM    108  O   UNL A   1      54.339  26.206  24.510  1.00  0.00    -0.744 OA
ENDBRANCH 104 105
ENDBRANCH  72  97
ENDBRANCH  46  47
ENDBRANCH  39  41
ENDBRANCH  38  39
ENDBRANCH  37  38
ENDBRANCH  36  37
ENDBRANCH  35  36
ENDBRANCH  34  35
ENDBRANCH  33  34
ENDBRANCH  32  33
ENDBRANCH  31  32
ENDBRANCH   1  31
TORSDOF 29
ENDMDL
