MODEL 1
REMARK VINA RESULT:      -9.7      0.000      0.000
REMARK SMILES CO[C@H]1C[C@@H](C(=O)OCCOCCOCCOC(=O)c2ccc(-c3c4nc(c(-c5c(F)cc(S(=O)(=O)[O-])cc5F)c5ccc([nH]5)c(-c5c(F)cc(S(=O)(=O)[O-])cc5F)c5nc(c(-c6c(F)cc(S(=O)(=O)[O-])cc6F)c6ccc3[nH]6)C=C5)C=C4)cc2)N(C(=O)Nc2cc(C)cc(F)c2)C1
REMARK SMILES IDX 13 1 12 2 11 3 10 4 9 5 8 6 6 7 7 8 5 9 3 10 4 11 98 12
REMARK SMILES IDX 86 13 2 14 1 15 87 16 88 17 89 18 90 20 91 21 97 22 92 23
REMARK SMILES IDX 95 24 93 25 94 26 96 27 14 28 15 29 16 30 17 31 18 32 19 33
REMARK SMILES IDX 20 34 21 35 85 36 22 37 84 38 23 39 24 40 25 41 78 42 26 43
REMARK SMILES IDX 83 44 77 45 79 46 27 47 82 48 76 49 75 50 28 52 62 53 41 54
REMARK SMILES IDX 61 55 42 56 45 57 60 58 80 59 43 60 44 61 59 63 81 64 46 65
REMARK SMILES IDX 29 66 30 67 39 68 31 69 32 70 38 71 40 72 33 73 34 74 35 75
REMARK SMILES IDX 36 76 37 77 63 78 64 79 73 80 65 81 66 82 72 83 74 84 67 85
REMARK SMILES IDX 68 86 69 87 70 88 71 89 47 90 48 91 57 92 49 93 50 94 56 95
REMARK SMILES IDX 58 96 51 97 52 98 53 99 54 100 55 101
REMARK H PARENT 89 19 79 51 45 62
REMARK Flexibility Score: inf
ROOT
ATOM      1  C   UNL A   1      42.298  22.427  25.837  1.00  0.00     0.188 C 
ENDROOT
BRANCH   1   2
ATOM      2  C   UNL A   1      41.604  22.109  27.219  1.00  0.00     0.188 C 
BRANCH   2   3
ATOM      3  O   UNL A   1      40.174  21.875  27.255  1.00  0.00    -0.376 OA
BRANCH   3   4
ATOM      4  C   UNL A   1      39.377  21.533  26.082  1.00  0.00     0.202 C 
BRANCH   4   5
ATOM      5  C   UNL A   1      37.808  22.271  25.517  1.00  0.00     0.261 C 
BRANCH   5   6
ATOM      6  O   UNL A   1      35.929  21.594  25.864  1.00  0.00    -0.462 OA
BRANCH   6   7
ATOM      7  C   UNL A   1      34.589  21.848  26.498  1.00  0.00     0.329 C 
ATOM      8  O   UNL A   1      34.269  21.461  27.626  1.00  0.00    -0.250 OA
BRANCH   7   9
ATOM      9  C   UNL A   1      33.497  22.341  25.545  1.00  0.00     0.199 C 
ATOM     10  C   UNL A   1      32.185  20.697  24.165  1.00  0.00     0.140 C 
ATOM     11  C   UNL A   1      32.362  21.230  25.592  1.00  0.00     0.071 C 
ATOM     12  C   UNL A   1      32.709  21.834  23.313  1.00  0.00     0.154 C 
ATOM     13  N   UNL A   1      33.767  22.468  24.088  1.00  0.00    -0.308 N 
BRANCH  10  14
ATOM     14  O   UNL A   1      32.969  19.537  23.868  1.00  0.00    -0.380 OA
ATOM     15  C   UNL A   1      32.692  18.396  24.669  1.00  0.00     0.195 C 
ENDBRANCH  10  14
BRANCH  13  16
ATOM     16  C   UNL A   1      34.550  23.356  23.406  1.00  0.00     0.322 C 
ATOM     17  O   UNL A   1      35.525  22.972  22.751  1.00  0.00    -0.248 OA
ATOM     18  N   UNL A   1      34.289  24.683  23.386  1.00  0.00    -0.308 N 
ATOM     19  H   UNL A   1      34.929  25.244  22.891  1.00  0.00     0.171 HD
BRANCH  18  20
ATOM     20  C   UNL A   1      33.226  25.350  23.978  1.00  0.00     0.046 A 
ATOM     21  C   UNL A   1      33.728  26.339  25.380  1.00  0.00     0.029 A 
ATOM     22  C   UNL A   1      31.686  25.748  23.115  1.00  0.00     0.065 A 
ATOM     23  C   UNL A   1      32.785  27.742  25.887  1.00  0.00    -0.046 A 
ATOM     24  C   UNL A   1      30.739  27.246  23.702  1.00  0.00     0.125 A 
ATOM     25  C   UNL A   1      33.036  28.411  27.201  1.00  0.00     0.044 C 
ATOM     26  C   UNL A   1      31.323  28.226  25.045  1.00  0.00     0.042 A 
ATOM     27  F   UNL A   1      29.556  27.682  23.296  1.00  0.00    -0.207 F 
ENDBRANCH  18  20
ENDBRANCH  13  16
ENDBRANCH   7   9
ENDBRANCH   6   7
ENDBRANCH   5   6
ENDBRANCH   4   5
ENDBRANCH   3   4
ENDBRANCH   2   3
ENDBRANCH   1   2
BRANCH   1  28
ATOM     28  O   UNL A   1      43.234  21.603  25.138  1.00  0.00    -0.376 OA
BRANCH  28  29
ATOM     29  C   UNL A   1      44.280  22.139  24.360  1.00  0.00     0.202 C 
BRANCH  29  30
ATOM     30  C   UNL A   1      45.693  21.729  24.764  1.00  0.00     0.261 C 
BRANCH  30  31
ATOM     31  O   UNL A   1      46.394  22.687  25.564  1.00  0.00    -0.460 OA
BRANCH  31  32
ATOM     32  C   UNL A   1      46.650  23.900  25.003  1.00  0.00     0.338 C 
ATOM     33  O   UNL A   1      46.881  24.139  23.833  1.00  0.00    -0.246 OA
BRANCH  32  34
ATOM     34  C   UNL A   1      46.404  24.918  26.064  1.00  0.00     0.060 A 
ATOM     35  C   UNL A   1      47.495  25.558  26.683  1.00  0.00     0.016 A 
ATOM     36  C   UNL A   1      45.101  25.341  26.342  1.00  0.00     0.016 A 
ATOM     37  C   UNL A   1      47.279  26.592  27.600  1.00  0.00     0.010 A 
ATOM     38  C   UNL A   1      44.884  26.344  27.286  1.00  0.00     0.010 A 
ATOM     39  C   UNL A   1      45.969  26.944  27.951  1.00  0.00    -0.014 A 
BRANCH  39  40
ATOM     40  C   UNL A   1      45.707  27.683  29.211  1.00  0.00     0.031 A 
ATOM     41  C   UNL A   1      45.685  26.869  30.478  1.00  0.00     0.074 A 
ATOM     42  C   UNL A   1      45.463  29.006  29.248  1.00  0.00     0.049 A 
ATOM     43  N   UNL A   1      45.343  27.220  31.689  1.00  0.00    -0.248 NA
ATOM     44  C   UNL A   1      46.094  25.458  30.353  1.00  0.00     0.031 C 
ATOM     45  C   UNL A   1      45.504  29.914  28.105  1.00  0.00     0.029 A 
ATOM     46  N   UNL A   1      45.109  29.811  30.305  1.00  0.00    -0.354 N 
ATOM     47  C   UNL A   1      45.471  26.069  32.461  1.00  0.00     0.074 A 
ATOM     48  C   UNL A   1      45.906  25.008  31.583  1.00  0.00     0.031 C 
ATOM     49  C   UNL A   1      45.159  31.149  28.517  1.00  0.00     0.029 A 
ATOM     50  C   UNL A   1      44.836  31.111  29.944  1.00  0.00     0.049 A 
ATOM     51  H   UNL A   1      45.055  29.487  31.233  1.00  0.00     0.167 HD
ATOM     52  C   UNL A   1      45.246  25.912  33.784  1.00  0.00     0.037 A 
ATOM     53  C   UNL A   1      44.352  32.135  30.677  1.00  0.00     0.037 A 
ATOM     54  C   UNL A   1      44.826  26.972  34.658  1.00  0.00     0.049 A 
ATOM     55  C   UNL A   1      44.051  31.919  32.144  1.00  0.00     0.074 A 
ATOM     56  C   UNL A   1      44.605  26.922  36.022  1.00  0.00     0.029 A 
ATOM     57  N   UNL A   1      44.558  28.271  34.253  1.00  0.00    -0.354 N 
ATOM     58  N   UNL A   1      44.203  30.837  32.871  1.00  0.00    -0.248 NA
ATOM     59  C   UNL A   1      43.512  33.066  32.892  1.00  0.00     0.031 C 
ATOM     60  C   UNL A   1      44.146  28.176  36.433  1.00  0.00     0.029 A 
ATOM     61  C   UNL A   1      44.141  29.024  35.337  1.00  0.00     0.049 A 
ATOM     62  H   UNL A   1      44.649  28.606  33.332  1.00  0.00     0.167 HD
ATOM     63  C   UNL A   1      43.811  31.183  34.161  1.00  0.00     0.074 A 
ATOM     64  C   UNL A   1      43.423  32.576  34.120  1.00  0.00     0.031 C 
ATOM     65  C   UNL A   1      43.777  30.418  35.282  1.00  0.00     0.037 A 
BRANCH  52  66
ATOM     66  C   UNL A   1      45.409  24.534  34.360  1.00  0.00     0.058 A 
ATOM     67  C   UNL A   1      44.336  23.635  34.457  1.00  0.00     0.135 A 
ATOM     68  C   UNL A   1      46.673  24.096  34.789  1.00  0.00     0.135 A 
ATOM     69  F   UNL A   1      43.102  24.012  34.087  1.00  0.00    -0.206 F 
ATOM     70  C   UNL A   1      44.508  22.354  34.971  1.00  0.00     0.059 A 
ATOM     71  C   UNL A   1      46.873  22.811  35.279  1.00  0.00     0.059 A 
ATOM     72  F   UNL A   1      47.731  24.922  34.729  1.00  0.00    -0.206 F 
ATOM     73  C   UNL A   1      45.781  21.949  35.374  1.00  0.00     0.060 A 
BRANCH  73  74
ATOM     74  S   UNL A   1      45.994  20.273  36.008  1.00  0.00     0.124 S 
ATOM     75  O   UNL A   1      45.033  19.530  35.196  1.00  0.00    -0.237 OA
ATOM     76  O   UNL A   1      47.401  20.009  35.726  1.00  0.00    -0.237 OA
ATOM     77  O   UNL A   1      45.653  20.398  37.423  1.00  0.00    -0.744 OA
ENDBRANCH  73  74
ENDBRANCH  52  66
BRANCH  53  78
ATOM     78  C   UNL A   1      44.075  33.455  30.041  1.00  0.00     0.058 A 
ATOM     79  C   UNL A   1      42.821  33.750  29.484  1.00  0.00     0.135 A 
ATOM     80  C   UNL A   1      45.076  34.435  29.940  1.00  0.00     0.135 A 
ATOM     81  F   UNL A   1      41.835  32.841  29.535  1.00  0.00    -0.206 F 
ATOM     82  C   UNL A   1      42.576  34.954  28.829  1.00  0.00     0.059 A 
ATOM     83  C   UNL A   1      44.846  35.657  29.316  1.00  0.00     0.059 A 
ATOM     84  F   UNL A   1      46.293  34.210  30.457  1.00  0.00    -0.206 F 
ATOM     85  C   UNL A   1      43.596  35.902  28.749  1.00  0.00     0.060 A 
BRANCH  85  86
ATOM     86  S   UNL A   1      43.266  37.470  27.914  1.00  0.00     0.124 S 
ATOM     87  O   UNL A   1      43.451  38.427  28.998  1.00  0.00    -0.237 OA
ATOM     88  O   UNL A   1      44.286  37.484  26.869  1.00  0.00    -0.237 OA
ATOM     89  O   UNL A   1      41.895  37.314  27.437  1.00  0.00    -0.744 OA
ENDBRANCH  85  86
ENDBRANCH  53  78
BRANCH  65  90
ATOM     90  C   UNL A   1      43.356  31.072  36.571  1.00  0.00     0.058 A 
ATOM     91  C   UNL A   1      44.289  31.568  37.493  1.00  0.00     0.135 A 
ATOM     92  C   UNL A   1      41.992  31.271  36.848  1.00  0.00     0.135 A 
ATOM     93  F   UNL A   1      45.604  31.403  37.279  1.00  0.00    -0.206 F 
ATOM     94  C   UNL A   1      43.887  32.222  38.655  1.00  0.00     0.059 A 
ATOM     95  C   UNL A   1      41.569  31.949  37.988  1.00  0.00     0.059 A 
ATOM     96  F   UNL A   1      41.056  30.830  35.993  1.00  0.00    -0.206 F 
ATOM     97  C   UNL A   1      42.524  32.411  38.891  1.00  0.00     0.060 A 
BRANCH  97  98
ATOM     98  S   UNL A   1      42.017  33.298  40.380  1.00  0.00     0.124 S 
ATOM     99  O   UNL A   1      40.826  32.551  40.776  1.00  0.00    -0.237 OA
ATOM    100  O   UNL A   1      43.180  33.144  41.248  1.00  0.00    -0.237 OA
ATOM    101  O   UNL A   1      41.776  34.656  39.902  1.00  0.00    -0.744 OA
ENDBRANCH  97  98
ENDBRANCH  65  90
ENDBRANCH  39  40
ENDBRANCH  32  34
ENDBRANCH  31  32
ENDBRANCH  30  31
ENDBRANCH  29  30
ENDBRANCH  28  29
ENDBRANCH   1  28
TORSDOF 23
ENDMDL
MODEL 2
REMARK VINA RESULT:      -9.5      6.510     15.100
REMARK SMILES CO[C@H]1C[C@@H](C(=O)OCCOCCOCCOC(=O)c2ccc(-c3c4nc(c(-c5c(F)cc(S(=O)(=O)[O-])cc5F)c5ccc([nH]5)c(-c5c(F)cc(S(=O)(=O)[O-])cc5F)c5nc(c(-c6c(F)cc(S(=O)(=O)[O-])cc6F)c6ccc3[nH]6)C=C5)C=C4)cc2)N(C(=O)Nc2cc(C)cc(F)c2)C1
REMARK SMILES IDX 13 1 12 2 11 3 10 4 9 5 8 6 6 7 7 8 5 9 3 10 4 11 98 12
REMARK SMILES IDX 86 13 2 14 1 15 87 16 88 17 89 18 90 20 91 21 97 22 92 23
REMARK SMILES IDX 95 24 93 25 94 26 96 27 14 28 15 29 16 30 17 31 18 32 19 33
REMARK SMILES IDX 20 34 21 35 85 36 22 37 84 38 23 39 24 40 25 41 78 42 26 43
REMARK SMILES IDX 83 44 77 45 79 46 27 47 82 48 76 49 75 50 28 52 62 53 41 54
REMARK SMILES IDX 61 55 42 56 45 57 60 58 80 59 43 60 44 61 59 63 81 64 46 65
REMARK SMILES IDX 29 66 30 67 39 68 31 69 32 70 38 71 40 72 33 73 34 74 35 75
REMARK SMILES IDX 36 76 37 77 63 78 64 79 73 80 65 81 66 82 72 83 74 84 67 85
REMARK SMILES IDX 68 86 69 87 70 88 71 89 47 90 48 91 57 92 49 93 50 94 56 95
REMARK SMILES IDX 58 96 51 97 52 98 53 99 54 100 55 101
REMARK H PARENT 89 19 79 51 45 62
REMARK Flexibility Score: inf
ROOT
ATOM      1  C   UNL A   1      46.800  40.061  29.279  1.00  0.00     0.188 C 
ENDROOT
BRANCH   1   2
ATOM      2  C   UNL A   1      45.379  39.894  29.944  1.00  0.00     0.188 C 
BRANCH   2   3
ATOM      3  O   UNL A   1      44.281  39.380  29.147  1.00  0.00    -0.376 OA
BRANCH   3   4
ATOM      4  C   UNL A   1      44.221  39.471  27.693  1.00  0.00     0.202 C 
BRANCH   4   5
ATOM      5  C   UNL A   1      42.776  39.807  26.632  1.00  0.00     0.261 C 
BRANCH   5   6
ATOM      6  O   UNL A   1      42.462  41.424  25.449  1.00  0.00    -0.462 OA
BRANCH   6   7
ATOM      7  C   UNL A   1      42.569  42.027  24.076  1.00  0.00     0.329 C 
ATOM      8  O   UNL A   1      41.992  41.587  23.076  1.00  0.00    -0.250 OA
BRANCH   7   9
ATOM      9  C   UNL A   1      43.700  43.042  23.893  1.00  0.00     0.199 C 
ATOM     10  C   UNL A   1      44.303  43.862  21.592  1.00  0.00     0.140 C 
ATOM     11  C   UNL A   1      43.241  43.975  22.691  1.00  0.00     0.071 C 
ATOM     12  C   UNL A   1      45.533  43.417  22.356  1.00  0.00     0.154 C 
ATOM     13  N   UNL A   1      45.052  42.596  23.458  1.00  0.00    -0.308 N 
BRANCH  10  14
ATOM     14  O   UNL A   1      44.024  42.865  20.603  1.00  0.00    -0.380 OA
ATOM     15  C   UNL A   1      42.646  42.581  20.400  1.00  0.00     0.195 C 
ENDBRANCH  10  14
BRANCH  13  16
ATOM     16  C   UNL A   1      46.006  41.881  24.125  1.00  0.00     0.322 C 
ATOM     17  O   UNL A   1      46.324  40.745  23.756  1.00  0.00    -0.248 OA
ATOM     18  N   UNL A   1      46.668  42.381  25.194  1.00  0.00    -0.308 N 
ATOM     19  H   UNL A   1      47.316  41.777  25.624  1.00  0.00     0.171 HD
BRANCH  18  20
ATOM     20  C   UNL A   1      46.545  43.643  25.756  1.00  0.00     0.046 A 
ATOM     21  C   UNL A   1      45.441  43.667  27.162  1.00  0.00     0.029 A 
ATOM     22  C   UNL A   1      47.792  44.944  25.582  1.00  0.00     0.065 A 
ATOM     23  C   UNL A   1      45.599  44.894  28.421  1.00  0.00    -0.046 A 
ATOM     24  C   UNL A   1      47.905  46.209  26.950  1.00  0.00     0.125 A 
ATOM     25  C   UNL A   1      44.531  45.091  29.449  1.00  0.00     0.044 C 
ATOM     26  C   UNL A   1      46.835  46.138  28.349  1.00  0.00     0.042 A 
ATOM     27  F   UNL A   1      48.663  47.293  27.007  1.00  0.00    -0.207 F 
ENDBRANCH  18  20
ENDBRANCH  13  16
ENDBRANCH   7   9
ENDBRANCH   6   7
ENDBRANCH   5   6
ENDBRANCH   4   5
ENDBRANCH   3   4
ENDBRANCH   2   3
ENDBRANCH   1   2
BRANCH   1  28
ATOM     28  O   UNL A   1      47.771  39.035  29.062  1.00  0.00    -0.376 OA
BRANCH  28  29
ATOM     29  C   UNL A   1      49.078  39.312  28.615  1.00  0.00     0.202 C 
BRANCH  29  30
ATOM     30  C   UNL A   1      50.022  38.117  28.519  1.00  0.00     0.261 C 
BRANCH  30  31
ATOM     31  O   UNL A   1      49.375  36.840  28.477  1.00  0.00    -0.460 OA
BRANCH  31  32
ATOM     32  C   UNL A   1      49.267  36.235  27.263  1.00  0.00     0.338 C 
ATOM     33  O   UNL A   1      49.855  36.525  26.238  1.00  0.00    -0.246 OA
BRANCH  32  34
ATOM     34  C   UNL A   1      48.429  35.019  27.468  1.00  0.00     0.060 A 
ATOM     35  C   UNL A   1      48.474  34.342  28.701  1.00  0.00     0.016 A 
ATOM     36  C   UNL A   1      47.499  34.636  26.497  1.00  0.00     0.016 A 
ATOM     37  C   UNL A   1      47.614  33.266  28.947  1.00  0.00     0.010 A 
ATOM     38  C   UNL A   1      46.670  33.538  26.726  1.00  0.00     0.010 A 
ATOM     39  C   UNL A   1      46.754  32.822  27.934  1.00  0.00    -0.014 A 
BRANCH  39  40
ATOM     40  C   UNL A   1      46.182  31.453  27.986  1.00  0.00     0.031 A 
ATOM     41  C   UNL A   1      47.056  30.338  27.473  1.00  0.00     0.074 A 
ATOM     42  C   UNL A   1      44.940  31.193  28.431  1.00  0.00     0.049 A 
ATOM     43  N   UNL A   1      46.768  29.081  27.266  1.00  0.00    -0.248 NA
ATOM     44  C   UNL A   1      48.443  30.702  27.132  1.00  0.00     0.031 C 
ATOM     45  C   UNL A   1      44.015  32.171  29.000  1.00  0.00     0.029 A 
ATOM     46  N   UNL A   1      44.236  30.012  28.451  1.00  0.00    -0.354 N 
ATOM     47  C   UNL A   1      47.928  28.513  26.749  1.00  0.00     0.074 A 
ATOM     48  C   UNL A   1      48.918  29.561  26.658  1.00  0.00     0.031 C 
ATOM     49  C   UNL A   1      42.852  31.554  29.287  1.00  0.00     0.029 A 
ATOM     50  C   UNL A   1      42.938  30.148  28.888  1.00  0.00     0.049 A 
ATOM     51  H   UNL A   1      44.624  29.150  28.178  1.00  0.00     0.167 HD
ATOM     52  C   UNL A   1      48.149  27.231  26.382  1.00  0.00     0.037 A 
ATOM     53  C   UNL A   1      41.933  29.249  28.927  1.00  0.00     0.037 A 
ATOM     54  C   UNL A   1      47.167  26.187  26.486  1.00  0.00     0.049 A 
ATOM     55  C   UNL A   1      42.187  27.833  28.456  1.00  0.00     0.074 A 
ATOM     56  C   UNL A   1      47.304  24.847  26.173  1.00  0.00     0.029 A 
ATOM     57  N   UNL A   1      45.866  26.367  26.929  1.00  0.00    -0.354 N 
ATOM     58  N   UNL A   1      43.294  27.299  27.997  1.00  0.00    -0.248 NA
ATOM     59  C   UNL A   1      41.052  26.897  28.508  1.00  0.00     0.031 C 
ATOM     60  C   UNL A   1      46.068  24.227  26.371  1.00  0.00     0.029 A 
ATOM     61  C   UNL A   1      45.178  25.167  26.867  1.00  0.00     0.049 A 
ATOM     62  H   UNL A   1      45.486  27.220  27.239  1.00  0.00     0.167 HD
ATOM     63  C   UNL A   1      42.998  25.963  27.739  1.00  0.00     0.074 A 
ATOM     64  C   UNL A   1      41.611  25.767  28.100  1.00  0.00     0.031 C 
ATOM     65  C   UNL A   1      43.801  24.984  27.250  1.00  0.00     0.037 A 
BRANCH  52  66
ATOM     66  C   UNL A   1      49.490  26.894  25.797  1.00  0.00     0.058 A 
ATOM     67  C   UNL A   1      49.775  27.073  24.434  1.00  0.00     0.135 A 
ATOM     68  C   UNL A   1      50.520  26.417  26.626  1.00  0.00     0.135 A 
ATOM     69  F   UNL A   1      48.819  27.500  23.594  1.00  0.00    -0.206 F 
ATOM     70  C   UNL A   1      51.030  26.778  23.911  1.00  0.00     0.059 A 
ATOM     71  C   UNL A   1      51.789  26.144  26.129  1.00  0.00     0.059 A 
ATOM     72  F   UNL A   1      50.296  26.217  27.934  1.00  0.00    -0.206 F 
ATOM     73  C   UNL A   1      52.032  26.320  24.768  1.00  0.00     0.060 A 
BRANCH  73  74
ATOM     74  S   UNL A   1      53.664  25.974  24.079  1.00  0.00     0.124 S 
ATOM     75  O   UNL A   1      54.470  27.022  24.700  1.00  0.00    -0.237 OA
ATOM     76  O   UNL A   1      53.918  24.616  24.550  1.00  0.00    -0.237 OA
ATOM     77  O   UNL A   1      53.462  26.109  22.639  1.00  0.00    -0.744 OA
ENDBRANCH  73  74
ENDBRANCH  52  66
BRANCH  53  78
ATOM     78  C   UNL A   1      40.574  29.652  29.390  1.00  0.00     0.058 A 
ATOM     79  C   UNL A   1      39.518  29.838  28.484  1.00  0.00     0.135 A 
ATOM     80  C   UNL A   1      40.315  29.902  30.747  1.00  0.00     0.135 A 
ATOM     81  F   UNL A   1      39.717  29.633  27.173  1.00  0.00    -0.206 F 
ATOM     82  C   UNL A   1      38.265  30.280  28.901  1.00  0.00     0.059 A 
ATOM     83  C   UNL A   1      39.063  30.316  31.192  1.00  0.00     0.059 A 
ATOM     84  F   UNL A   1      41.286  29.738  31.659  1.00  0.00    -0.206 F 
ATOM     85  C   UNL A   1      38.048  30.518  30.258  1.00  0.00     0.060 A 
BRANCH  85  86
ATOM     86  S   UNL A   1      36.415  31.074  30.795  1.00  0.00     0.124 S 
ATOM     87  O   UNL A   1      36.057  30.047  31.765  1.00  0.00    -0.237 OA
ATOM     88  O   UNL A   1      36.703  32.396  31.343  1.00  0.00    -0.237 OA
ATOM     89  O   UNL A   1      35.637  31.075  29.559  1.00  0.00    -0.744 OA
ENDBRANCH  85  86
ENDBRANCH  53  78
BRANCH  65  90
ATOM     90  C   UNL A   1      43.227  23.598  27.120  1.00  0.00     0.058 A 
ATOM     91  C   UNL A   1      43.037  22.765  28.232  1.00  0.00     0.135 A 
ATOM     92  C   UNL A   1      42.790  23.130  25.869  1.00  0.00     0.135 A 
ATOM     93  F   UNL A   1      43.437  23.162  29.450  1.00  0.00    -0.206 F 
ATOM     94  C   UNL A   1      42.452  21.507  28.107  1.00  0.00     0.059 A 
ATOM     95  C   UNL A   1      42.176  21.889  25.725  1.00  0.00     0.059 A 
ATOM     96  F   UNL A   1      42.934  23.892  24.772  1.00  0.00    -0.206 F 
ATOM     97  C   UNL A   1      42.021  21.081  26.850  1.00  0.00     0.060 A 
BRANCH  97  98
ATOM     98  S   UNL A   1      41.225  19.466  26.708  1.00  0.00     0.124 S 
ATOM     99  O   UNL A   1      41.048  19.101  28.111  1.00  0.00    -0.237 OA
ATOM    100  O   UNL A   1      40.003  19.782  25.976  1.00  0.00    -0.237 OA
ATOM    101  O   UNL A   1      42.200  18.668  25.971  1.00  0.00    -0.744 OA
ENDBRANCH  97  98
ENDBRANCH  65  90
ENDBRANCH  39  40
ENDBRANCH  32  34
ENDBRANCH  31  32
ENDBRANCH  30  31
ENDBRANCH  29  30
ENDBRANCH  28  29
ENDBRANCH   1  28
TORSDOF 23
ENDMDL
MODEL 3
REMARK VINA RESULT:      -9.4      4.289      6.666
REMARK SMILES CO[C@H]1C[C@@H](C(=O)OCCOCCOCCOC(=O)c2ccc(-c3c4nc(c(-c5c(F)cc(S(=O)(=O)[O-])cc5F)c5ccc([nH]5)c(-c5c(F)cc(S(=O)(=O)[O-])cc5F)c5nc(c(-c6c(F)cc(S(=O)(=O)[O-])cc6F)c6ccc3[nH]6)C=C5)C=C4)cc2)N(C(=O)Nc2cc(C)cc(F)c2)C1
REMARK SMILES IDX 13 1 12 2 11 3 10 4 9 5 8 6 6 7 7 8 5 9 3 10 4 11 98 12
REMARK SMILES IDX 86 13 2 14 1 15 87 16 88 17 89 18 90 20 91 21 97 22 92 23
REMARK SMILES IDX 95 24 93 25 94 26 96 27 14 28 15 29 16 30 17 31 18 32 19 33
REMARK SMILES IDX 20 34 21 35 85 36 22 37 84 38 23 39 24 40 25 41 78 42 26 43
REMARK SMILES IDX 83 44 77 45 79 46 27 47 82 48 76 49 75 50 28 52 62 53 41 54
REMARK SMILES IDX 61 55 42 56 45 57 60 58 80 59 43 60 44 61 59 63 81 64 46 65
REMARK SMILES IDX 29 66 30 67 39 68 31 69 32 70 38 71 40 72 33 73 34 74 35 75
REMARK SMILES IDX 36 76 37 77 63 78 64 79 73 80 65 81 66 82 72 83 74 84 67 85
REMARK SMILES IDX 68 86 69 87 70 88 71 89 47 90 48 91 57 92 49 93 50 94 56 95
REMARK SMILES IDX 58 96 51 97 52 98 53 99 54 100 55 101
REMARK H PARENT 89 19 79 51 45 62
REMARK Flexibility Score: inf
ROOT
ATOM      1  C   UNL A   1      43.073  23.631  27.421  1.00  0.00     0.188 C 
ENDROOT
BRANCH   1   2
ATOM      2  C   UNL A   1      41.660  23.201  26.866  1.00  0.00     0.188 C 
BRANCH   2   3
ATOM      3  O   UNL A   1      40.465  23.789  27.441  1.00  0.00    -0.376 OA
BRANCH   3   4
ATOM      4  C   UNL A   1      39.130  23.634  26.874  1.00  0.00     0.202 C 
BRANCH   4   5
ATOM      5  C   UNL A   1      38.503  22.312  25.785  1.00  0.00     0.261 C 
BRANCH   5   6
ATOM      6  O   UNL A   1      36.596  22.033  25.153  1.00  0.00    -0.462 OA
BRANCH   6   7
ATOM      7  C   UNL A   1      35.530  22.389  24.155  1.00  0.00     0.329 C 
ATOM      8  O   UNL A   1      35.743  22.973  23.087  1.00  0.00    -0.250 OA
BRANCH   7   9
ATOM      9  C   UNL A   1      34.091  22.284  24.668  1.00  0.00     0.199 C 
ATOM     10  C   UNL A   1      33.238  20.111  25.606  1.00  0.00     0.140 C 
ATOM     11  C   UNL A   1      34.158  21.299  25.913  1.00  0.00     0.071 C 
ATOM     12  C   UNL A   1      32.277  20.683  24.586  1.00  0.00     0.154 C 
ATOM     13  N   UNL A   1      33.031  21.669  23.824  1.00  0.00    -0.308 N 
BRANCH  10  14
ATOM     14  O   UNL A   1      33.900  18.996  24.998  1.00  0.00    -0.380 OA
ATOM     15  C   UNL A   1      33.042  18.011  24.440  1.00  0.00     0.195 C 
ENDBRANCH  10  14
BRANCH  13  16
ATOM     16  C   UNL A   1      32.430  22.124  22.685  1.00  0.00     0.322 C 
ATOM     17  O   UNL A   1      32.085  21.344  21.792  1.00  0.00    -0.248 OA
ATOM     18  N   UNL A   1      32.156  23.434  22.487  1.00  0.00    -0.308 N 
ATOM     19  H   UNL A   1      31.749  23.666  21.620  1.00  0.00     0.171 HD
BRANCH  18  20
ATOM     20  C   UNL A   1      32.379  24.491  23.357  1.00  0.00     0.046 A 
ATOM     21  C   UNL A   1      33.262  25.842  22.590  1.00  0.00     0.029 A 
ATOM     22  C   UNL A   1      31.371  24.808  24.827  1.00  0.00     0.065 A 
ATOM     23  C   UNL A   1      33.106  27.492  23.197  1.00  0.00    -0.046 A 
ATOM     24  C   UNL A   1      31.248  26.576  25.415  1.00  0.00     0.125 A 
ATOM     25  C   UNL A   1      34.033  28.575  22.745  1.00  0.00     0.044 C 
ATOM     26  C   UNL A   1      32.085  27.878  24.572  1.00  0.00     0.042 A 
ATOM     27  F   UNL A   1      30.655  27.041  26.503  1.00  0.00    -0.207 F 
ENDBRANCH  18  20
ENDBRANCH  13  16
ENDBRANCH   7   9
ENDBRANCH   6   7
ENDBRANCH   5   6
ENDBRANCH   4   5
ENDBRANCH   3   4
ENDBRANCH   2   3
ENDBRANCH   1   2
BRANCH   1  28
ATOM     28  O   UNL A   1      43.730  23.119  28.582  1.00  0.00    -0.376 OA
BRANCH  28  29
ATOM     29  C   UNL A   1      43.256  23.358  29.887  1.00  0.00     0.202 C 
BRANCH  29  30
ATOM     30  C   UNL A   1      44.312  23.392  30.988  1.00  0.00     0.261 C 
BRANCH  30  31
ATOM     31  O   UNL A   1      43.799  23.285  32.321  1.00  0.00    -0.460 OA
BRANCH  31  32
ATOM     32  C   UNL A   1      44.581  23.757  33.330  1.00  0.00     0.338 C 
ATOM     33  O   UNL A   1      45.598  23.256  33.773  1.00  0.00    -0.246 OA
BRANCH  32  34
ATOM     34  C   UNL A   1      44.064  25.114  33.668  1.00  0.00     0.060 A 
ATOM     35  C   UNL A   1      44.503  26.231  32.932  1.00  0.00     0.016 A 
ATOM     36  C   UNL A   1      43.043  25.260  34.611  1.00  0.00     0.016 A 
ATOM     37  C   UNL A   1      43.945  27.493  33.164  1.00  0.00     0.010 A 
ATOM     38  C   UNL A   1      42.516  26.525  34.872  1.00  0.00     0.010 A 
ATOM     39  C   UNL A   1      42.995  27.652  34.180  1.00  0.00    -0.014 A 
BRANCH  39  40
ATOM     40  C   UNL A   1      42.730  28.997  34.750  1.00  0.00     0.031 A 
ATOM     41  C   UNL A   1      43.531  29.384  35.966  1.00  0.00     0.074 A 
ATOM     42  C   UNL A   1      41.805  29.837  34.251  1.00  0.00     0.049 A 
ATOM     43  N   UNL A   1      43.410  30.422  36.749  1.00  0.00    -0.248 NA
ATOM     44  C   UNL A   1      44.609  28.457  36.358  1.00  0.00     0.031 C 
ATOM     45  C   UNL A   1      41.001  29.606  33.053  1.00  0.00     0.029 A 
ATOM     46  N   UNL A   1      41.375  31.058  34.715  1.00  0.00    -0.354 N 
ATOM     47  C   UNL A   1      44.377  30.259  37.736  1.00  0.00     0.074 A 
ATOM     48  C   UNL A   1      45.065  29.019  37.466  1.00  0.00     0.031 C 
ATOM     49  C   UNL A   1      40.153  30.640  32.892  1.00  0.00     0.029 A 
ATOM     50  C   UNL A   1      40.328  31.586  33.995  1.00  0.00     0.049 A 
ATOM     51  H   UNL A   1      41.778  31.511  35.491  1.00  0.00     0.167 HD
ATOM     52  C   UNL A   1      44.666  31.072  38.777  1.00  0.00     0.037 A 
ATOM     53  C   UNL A   1      39.581  32.686  34.224  1.00  0.00     0.037 A 
ATOM     54  C   UNL A   1      43.988  32.313  39.037  1.00  0.00     0.049 A 
ATOM     55  C   UNL A   1      39.884  33.551  35.429  1.00  0.00     0.074 A 
ATOM     56  C   UNL A   1      44.231  33.226  40.046  1.00  0.00     0.029 A 
ATOM     57  N   UNL A   1      42.933  32.810  38.288  1.00  0.00    -0.354 N 
ATOM     58  N   UNL A   1      40.818  33.405  36.339  1.00  0.00    -0.248 NA
ATOM     59  C   UNL A   1      39.031  34.731  35.638  1.00  0.00     0.031 C 
ATOM     60  C   UNL A   1      43.283  34.248  39.943  1.00  0.00     0.029 A 
ATOM     61  C   UNL A   1      42.491  34.003  38.832  1.00  0.00     0.049 A 
ATOM     62  H   UNL A   1      42.553  32.378  37.489  1.00  0.00     0.167 HD
ATOM     63  C   UNL A   1      40.685  34.488  37.204  1.00  0.00     0.074 A 
ATOM     64  C   UNL A   1      39.586  35.286  36.706  1.00  0.00     0.031 C 
ATOM     65  C   UNL A   1      41.407  34.797  38.311  1.00  0.00     0.037 A 
BRANCH  52  66
ATOM     66  C   UNL A   1      45.732  30.627  39.736  1.00  0.00     0.058 A 
ATOM     67  C   UNL A   1      45.426  29.981  40.944  1.00  0.00     0.135 A 
ATOM     68  C   UNL A   1      47.088  30.817  39.418  1.00  0.00     0.135 A 
ATOM     69  F   UNL A   1      44.147  29.800  41.308  1.00  0.00    -0.206 F 
ATOM     70  C   UNL A   1      46.426  29.554  41.811  1.00  0.00     0.059 A 
ATOM     71  C   UNL A   1      48.103  30.371  40.256  1.00  0.00     0.059 A 
ATOM     72  F   UNL A   1      47.434  31.439  38.279  1.00  0.00    -0.206 F 
ATOM     73  C   UNL A   1      47.762  29.748  41.455  1.00  0.00     0.060 A 
BRANCH  73  74
ATOM     74  S   UNL A   1      49.048  29.157  42.575  1.00  0.00     0.124 S 
ATOM     75  O   UNL A   1      49.266  30.332  43.415  1.00  0.00    -0.237 OA
ATOM     76  O   UNL A   1      48.397  28.024  43.226  1.00  0.00    -0.237 OA
ATOM     77  O   UNL A   1      50.149  28.815  41.680  1.00  0.00    -0.744 OA
ENDBRANCH  73  74
ENDBRANCH  52  66
BRANCH  53  78
ATOM     78  C   UNL A   1      38.442  33.028  33.325  1.00  0.00     0.058 A 
ATOM     79  C   UNL A   1      37.175  32.449  33.498  1.00  0.00     0.135 A 
ATOM     80  C   UNL A   1      38.609  33.910  32.246  1.00  0.00     0.135 A 
ATOM     81  F   UNL A   1      36.965  31.583  34.501  1.00  0.00    -0.206 F 
ATOM     82  C   UNL A   1      36.125  32.711  32.622  1.00  0.00     0.059 A 
ATOM     83  C   UNL A   1      37.567  34.210  31.374  1.00  0.00     0.059 A 
ATOM     84  F   UNL A   1      39.798  34.496  32.033  1.00  0.00    -0.206 F 
ATOM     85  C   UNL A   1      36.331  33.593  31.561  1.00  0.00     0.060 A 
BRANCH  85  86
ATOM     86  S   UNL A   1      34.959  33.942  30.438  1.00  0.00     0.124 S 
ATOM     87  O   UNL A   1      35.660  34.203  29.187  1.00  0.00    -0.237 OA
ATOM     88  O   UNL A   1      34.191  32.702  30.493  1.00  0.00    -0.237 OA
ATOM     89  O   UNL A   1      34.310  35.098  31.050  1.00  0.00    -0.744 OA
ENDBRANCH  85  86
ENDBRANCH  53  78
BRANCH  65  90
ATOM     90  C   UNL A   1      41.075  36.074  39.037  1.00  0.00     0.058 A 
ATOM     91  C   UNL A   1      40.016  36.154  39.953  1.00  0.00     0.135 A 
ATOM     92  C   UNL A   1      41.882  37.212  38.869  1.00  0.00     0.135 A 
ATOM     93  F   UNL A   1      39.212  35.097  40.151  1.00  0.00    -0.206 F 
ATOM     94  C   UNL A   1      39.753  37.323  40.661  1.00  0.00     0.059 A 
ATOM     95  C   UNL A   1      41.657  38.381  39.588  1.00  0.00     0.059 A 
ATOM     96  F   UNL A   1      42.920  37.186  38.016  1.00  0.00    -0.206 F 
ATOM     97  C   UNL A   1      40.583  38.430  40.475  1.00  0.00     0.060 A 
BRANCH  97  98
ATOM     98  S   UNL A   1      40.259  39.928  41.431  1.00  0.00     0.124 S 
ATOM     99  O   UNL A   1      39.368  39.424  42.473  1.00  0.00    -0.237 OA
ATOM    100  O   UNL A   1      41.596  40.313  41.872  1.00  0.00    -0.237 OA
ATOM    101  O   UNL A   1      39.644  40.826  40.460  1.00  0.00    -0.744 OA
ENDBRANCH  97  98
ENDBRANCH  65  90
ENDBRANCH  39  40
ENDBRANCH  32  34
ENDBRANCH  31  32
ENDBRANCH  30  31
ENDBRANCH  29  30
ENDBRANCH  28  29
ENDBRANCH   1  28
TORSDOF 23
ENDMDL
