MODEL 1
REMARK VINA RESULT:     -10.8      0.000      0.000
REMARK SMILES Cc1cc(F)ccc1-n1ccc(C)c(C(=O)OCCOCCOCCOC(=O)c2ccc(-c3c4nc(c(-c5c(F)cc(S(=O)(=O)[O-])cc5F)c5ccc([nH]5)c(-c5c(F)cc(S(=O)(=O)[O-])cc5F)c5nc(c(-c6c(F)cc(S(=O)(=O)[O-])cc6F)c6ccc3[nH]6)C=C5)C=C4)cc2)c1=O
REMARK SMILES IDX 22 1 21 2 20 3 19 4 18 5 17 6 15 7 16 8 14 9 9 10 10 11
REMARK SMILES IDX 95 12 11 13 96 14 12 15 13 16 8 17 1 18 2 19 3 20 4 21 7 22
REMARK SMILES IDX 5 23 6 24 23 25 24 26 25 27 26 28 27 29 28 30 29 31 30 32
REMARK SMILES IDX 94 33 31 34 93 35 32 36 33 37 34 38 87 39 35 40 92 41 86 42
REMARK SMILES IDX 88 43 36 44 91 45 85 46 84 47 37 49 71 50 50 51 70 52 51 53
REMARK SMILES IDX 54 54 69 55 89 56 52 57 53 58 68 60 90 61 55 62 38 63 39 64
REMARK SMILES IDX 48 65 40 66 41 67 47 68 49 69 42 70 43 71 44 72 45 73 46 74
REMARK SMILES IDX 72 75 73 76 82 77 74 78 75 79 81 80 83 81 76 82 77 83 78 84
REMARK SMILES IDX 79 85 80 86 56 87 57 88 66 89 58 90 59 91 65 92 67 93 60 94
REMARK SMILES IDX 61 95 62 96 63 97 64 98
REMARK H PARENT 88 48 54 59
REMARK Flexibility Score: inf
ROOT
ATOM      1  C   UNL A   1      40.564  20.819  26.562  1.00  0.00     0.188 C 
ENDROOT
BRANCH   1   2
ATOM      2  C   UNL A   1      39.381  21.743  26.199  1.00  0.00     0.188 C 
BRANCH   2   3
ATOM      3  O   UNL A   1      38.449  21.131  25.322  1.00  0.00    -0.376 OA
BRANCH   3   4
ATOM      4  C   UNL A   1      37.284  21.875  25.007  1.00  0.00     0.202 C 
BRANCH   4   5
ATOM      5  C   UNL A   1      37.095  23.184  25.782  1.00  0.00     0.261 C 
BRANCH   5   6
ATOM      6  O   UNL A   1      35.804  23.778  25.604  1.00  0.00    -0.459 OA
BRANCH   6   7
ATOM      7  C   UNL A   1      34.726  23.186  26.164  1.00  0.00     0.344 C 
ATOM      8  O   UNL A   1      34.616  22.843  27.328  1.00  0.00    -0.246 OA
BRANCH   7   9
ATOM      9  C   UNL A   1      33.639  23.148  25.154  1.00  0.00     0.128 A 
ATOM     10  N   UNL A   1      31.827  24.317  23.931  1.00  0.00    -0.283 N 
ATOM     11  C   UNL A   1      31.499  23.103  23.346  1.00  0.00     0.095 A 
ATOM     12  C   UNL A   1      32.844  24.399  24.906  1.00  0.00     0.270 A 
ATOM     13  C   UNL A   1      32.188  21.988  23.603  1.00  0.00     0.023 A 
ATOM     14  O   UNL A   1      33.106  25.418  25.547  1.00  0.00    -0.268 OA
ATOM     15  C   UNL A   1      33.313  22.000  24.520  1.00  0.00    -0.029 A 
ATOM     16  C   UNL A   1      33.988  20.664  24.688  1.00  0.00     0.045 C 
BRANCH  10  17
ATOM     17  C   UNL A   1      31.129  25.513  23.549  1.00  0.00     0.052 A 
ATOM     18  C   UNL A   1      32.936  26.184  21.839  1.00  0.00     0.047 C 
ATOM     19  C   UNL A   1      31.649  26.411  22.588  1.00  0.00    -0.024 A 
ATOM     20  C   UNL A   1      30.922  27.574  22.272  1.00  0.00     0.044 A 
ATOM     21  C   UNL A   1      29.686  27.815  22.859  1.00  0.00     0.123 A 
ATOM     22  C   UNL A   1      29.861  25.771  24.111  1.00  0.00     0.030 A 
ATOM     23  F   UNL A   1      29.004  28.919  22.528  1.00  0.00    -0.207 F 
ATOM     24  C   UNL A   1      29.145  26.921  23.769  1.00  0.00     0.041 A 
ENDBRANCH  10  17
ENDBRANCH   7   9
ENDBRANCH   6   7
ENDBRANCH   5   6
ENDBRANCH   4   5
ENDBRANCH   3   4
ENDBRANCH   2   3
ENDBRANCH   1   2
BRANCH   1  25
ATOM     25  O   UNL A   1      41.753  20.838  25.781  1.00  0.00    -0.376 OA
BRANCH  25  26
ATOM     26  C   UNL A   1      42.826  21.681  26.169  1.00  0.00     0.202 C 
BRANCH  26  27
ATOM     27  C   UNL A   1      42.850  23.104  25.602  1.00  0.00     0.261 C 
BRANCH  27  28
ATOM     28  O   UNL A   1      42.033  24.039  26.327  1.00  0.00    -0.460 OA
BRANCH  28  29
ATOM     29  C   UNL A   1      42.119  25.333  25.928  1.00  0.00     0.338 C 
ATOM     30  O   UNL A   1      42.313  25.747  24.796  1.00  0.00    -0.246 OA
BRANCH  29  31
ATOM     31  C   UNL A   1      41.738  26.213  27.053  1.00  0.00     0.060 A 
ATOM     32  C   UNL A   1      40.763  25.826  27.975  1.00  0.00     0.016 A 
ATOM     33  C   UNL A   1      42.381  27.451  27.181  1.00  0.00     0.016 A 
ATOM     34  C   UNL A   1      40.448  26.679  29.039  1.00  0.00     0.010 A 
ATOM     35  C   UNL A   1      42.049  28.311  28.230  1.00  0.00     0.010 A 
ATOM     36  C   UNL A   1      41.091  27.922  29.177  1.00  0.00    -0.014 A 
BRANCH  36  37
ATOM     37  C   UNL A   1      40.874  28.738  30.397  1.00  0.00     0.031 A 
ATOM     38  C   UNL A   1      41.736  28.587  31.613  1.00  0.00     0.074 A 
ATOM     39  C   UNL A   1      39.869  29.633  30.388  1.00  0.00     0.049 A 
ATOM     40  N   UNL A   1      41.727  29.293  32.715  1.00  0.00    -0.248 NA
ATOM     41  C   UNL A   1      42.730  27.504  31.598  1.00  0.00     0.031 C 
ATOM     42  C   UNL A   1      38.945  29.842  29.270  1.00  0.00     0.029 A 
ATOM     43  N   UNL A   1      39.458  30.534  31.336  1.00  0.00    -0.354 N 
ATOM     44  C   UNL A   1      42.734  28.768  33.515  1.00  0.00     0.074 A 
ATOM     45  C   UNL A   1      43.298  27.645  32.791  1.00  0.00     0.031 C 
ATOM     46  C   UNL A   1      38.089  30.825  29.590  1.00  0.00     0.029 A 
ATOM     47  C   UNL A   1      38.394  31.306  30.935  1.00  0.00     0.049 A 
ATOM     48  H   UNL A   1      39.884  30.620  32.219  1.00  0.00     0.167 HD
ATOM     49  C   UNL A   1      43.158  29.200  34.728  1.00  0.00     0.037 A 
ATOM     50  C   UNL A   1      37.744  32.300  31.571  1.00  0.00     0.037 A 
ATOM     51  C   UNL A   1      42.575  30.306  35.450  1.00  0.00     0.049 A 
ATOM     52  C   UNL A   1      38.209  32.732  32.932  1.00  0.00     0.074 A 
ATOM     53  C   UNL A   1      42.962  30.838  36.669  1.00  0.00     0.029 A 
ATOM     54  N   UNL A   1      41.476  31.043  35.029  1.00  0.00    -0.354 N 
ATOM     55  N   UNL A   1      39.210  32.272  33.644  1.00  0.00    -0.248 NA
ATOM     56  C   UNL A   1      37.464  33.824  33.572  1.00  0.00     0.031 C 
ATOM     57  C   UNL A   1      42.070  31.861  37.008  1.00  0.00     0.029 A 
ATOM     58  C   UNL A   1      41.156  32.005  35.978  1.00  0.00     0.049 A 
ATOM     59  H   UNL A   1      40.994  30.905  34.182  1.00  0.00     0.167 HD
ATOM     60  C   UNL A   1      39.229  33.035  34.807  1.00  0.00     0.074 A 
ATOM     61  C   UNL A   1      38.148  33.992  34.697  1.00  0.00     0.031 C 
ATOM     62  C   UNL A   1      40.071  32.948  35.867  1.00  0.00     0.037 A 
BRANCH  49  63
ATOM     63  C   UNL A   1      44.325  28.490  35.360  1.00  0.00     0.058 A 
ATOM     64  C   UNL A   1      44.132  27.400  36.223  1.00  0.00     0.135 A 
ATOM     65  C   UNL A   1      45.645  28.839  35.031  1.00  0.00     0.135 A 
ATOM     66  F   UNL A   1      42.891  27.029  36.577  1.00  0.00    -0.206 F 
ATOM     67  C   UNL A   1      45.206  26.689  36.749  1.00  0.00     0.059 A 
ATOM     68  C   UNL A   1      46.734  28.127  35.528  1.00  0.00     0.059 A 
ATOM     69  F   UNL A   1      45.886  29.872  34.208  1.00  0.00    -0.206 F 
ATOM     70  C   UNL A   1      46.504  27.058  36.392  1.00  0.00     0.060 A 
BRANCH  70  71
ATOM     71  S   UNL A   1      47.883  26.106  37.066  1.00  0.00     0.124 S 
ATOM     72  O   UNL A   1      48.901  27.140  37.222  1.00  0.00    -0.237 OA
ATOM     73  O   UNL A   1      47.320  25.578  38.304  1.00  0.00    -0.237 OA
ATOM     74  O   UNL A   1      48.152  25.114  36.028  1.00  0.00    -0.744 OA
ENDBRANCH  70  71
ENDBRANCH  49  63
BRANCH  50  75
ATOM     75  C   UNL A   1      36.612  32.981  30.894  1.00  0.00     0.058 A 
ATOM     76  C   UNL A   1      35.293  32.777  31.320  1.00  0.00     0.135 A 
ATOM     77  C   UNL A   1      36.832  33.880  29.839  1.00  0.00     0.135 A 
ATOM     78  F   UNL A   1      35.036  31.925  32.323  1.00  0.00    -0.206 F 
ATOM     79  C   UNL A   1      34.226  33.438  30.720  1.00  0.00     0.059 A 
ATOM     80  C   UNL A   1      35.784  34.570  29.239  1.00  0.00     0.059 A 
ATOM     81  F   UNL A   1      38.080  34.119  29.408  1.00  0.00    -0.206 F 
ATOM     82  C   UNL A   1      34.483  34.338  29.684  1.00  0.00     0.060 A 
BRANCH  82  83
ATOM     83  S   UNL A   1      33.096  35.237  28.959  1.00  0.00     0.124 S 
ATOM     84  O   UNL A   1      33.763  36.414  28.415  1.00  0.00    -0.237 OA
ATOM     85  O   UNL A   1      32.591  34.279  27.980  1.00  0.00    -0.237 OA
ATOM     86  O   UNL A   1      32.220  35.479  30.100  1.00  0.00    -0.744 OA
ENDBRANCH  82  83
ENDBRANCH  50  75
BRANCH  62  87
ATOM     87  C   UNL A   1      39.864  33.921  36.995  1.00  0.00     0.058 A 
ATOM     88  C   UNL A   1      39.173  33.559  38.163  1.00  0.00     0.135 A 
ATOM     89  C   UNL A   1      40.400  35.219  36.930  1.00  0.00     0.135 A 
ATOM     90  F   UNL A   1      38.634  32.334  38.274  1.00  0.00    -0.206 F 
ATOM     91  C   UNL A   1      39.003  34.453  39.215  1.00  0.00     0.059 A 
ATOM     92  C   UNL A   1      40.265  36.121  37.981  1.00  0.00     0.059 A 
ATOM     93  F   UNL A   1      41.076  35.616  35.840  1.00  0.00    -0.206 F 
ATOM     94  C   UNL A   1      39.555  35.732  39.116  1.00  0.00     0.060 A 
BRANCH  94  95
ATOM     95  S   UNL A   1      39.350  36.870  40.502  1.00  0.00     0.124 S 
ATOM     96  O   UNL A   1      38.361  36.170  41.315  1.00  0.00    -0.237 OA
ATOM     97  O   UNL A   1      40.699  36.929  41.058  1.00  0.00    -0.237 OA
ATOM     98  O   UNL A   1      38.886  38.100  39.868  1.00  0.00    -0.744 OA
ENDBRANCH  94  95
ENDBRANCH  62  87
ENDBRANCH  36  37
ENDBRANCH  29  31
ENDBRANCH  28  29
ENDBRANCH  27  28
ENDBRANCH  26  27
ENDBRANCH  25  26
ENDBRANCH   1  25
TORSDOF 21
ENDMDL
MODEL 2
REMARK VINA RESULT:     -10.7      6.261     11.917
REMARK SMILES Cc1cc(F)ccc1-n1ccc(C)c(C(=O)OCCOCCOCCOC(=O)c2ccc(-c3c4nc(c(-c5c(F)cc(S(=O)(=O)[O-])cc5F)c5ccc([nH]5)c(-c5c(F)cc(S(=O)(=O)[O-])cc5F)c5nc(c(-c6c(F)cc(S(=O)(=O)[O-])cc6F)c6ccc3[nH]6)C=C5)C=C4)cc2)c1=O
REMARK SMILES IDX 22 1 21 2 20 3 19 4 18 5 17 6 15 7 16 8 14 9 9 10 10 11
REMARK SMILES IDX 95 12 11 13 96 14 12 15 13 16 8 17 1 18 2 19 3 20 4 21 7 22
REMARK SMILES IDX 5 23 6 24 23 25 24 26 25 27 26 28 27 29 28 30 29 31 30 32
REMARK SMILES IDX 94 33 31 34 93 35 32 36 33 37 34 38 87 39 35 40 92 41 86 42
REMARK SMILES IDX 88 43 36 44 91 45 85 46 84 47 37 49 71 50 50 51 70 52 51 53
REMARK SMILES IDX 54 54 69 55 89 56 52 57 53 58 68 60 90 61 55 62 38 63 39 64
REMARK SMILES IDX 48 65 40 66 41 67 47 68 49 69 42 70 43 71 44 72 45 73 46 74
REMARK SMILES IDX 72 75 73 76 82 77 74 78 75 79 81 80 83 81 76 82 77 83 78 84
REMARK SMILES IDX 79 85 80 86 56 87 57 88 66 89 58 90 59 91 65 92 67 93 60 94
REMARK SMILES IDX 61 95 62 96 63 97 64 98
REMARK H PARENT 88 48 54 59
REMARK Flexibility Score: inf
ROOT
ATOM      1  C   UNL A   1      34.362  31.013  27.985  1.00  0.00     0.188 C 
ENDROOT
BRANCH   1   2
ATOM      2  C   UNL A   1      33.226  30.680  26.993  1.00  0.00     0.188 C 
BRANCH   2   3
ATOM      3  O   UNL A   1      33.586  29.679  26.056  1.00  0.00    -0.376 OA
BRANCH   3   4
ATOM      4  C   UNL A   1      32.688  29.457  24.981  1.00  0.00     0.202 C 
BRANCH   4   5
ATOM      5  C   UNL A   1      33.290  28.816  23.725  1.00  0.00     0.261 C 
BRANCH   5   6
ATOM      6  O   UNL A   1      33.506  27.405  23.845  1.00  0.00    -0.459 OA
BRANCH   6   7
ATOM      7  C   UNL A   1      32.489  26.559  23.563  1.00  0.00     0.344 C 
ATOM      8  O   UNL A   1      31.758  26.612  22.589  1.00  0.00    -0.246 OA
BRANCH   7   9
ATOM      9  C   UNL A   1      32.500  25.468  24.569  1.00  0.00     0.128 A 
ATOM     10  N   UNL A   1      33.374  23.273  25.320  1.00  0.00    -0.283 N 
ATOM     11  C   UNL A   1      32.472  23.324  26.373  1.00  0.00     0.095 A 
ATOM     12  C   UNL A   1      33.391  24.281  24.333  1.00  0.00     0.270 A 
ATOM     13  C   UNL A   1      31.656  24.367  26.552  1.00  0.00     0.023 A 
ATOM     14  O   UNL A   1      34.083  24.238  23.314  1.00  0.00    -0.268 OA
ATOM     15  C   UNL A   1      31.675  25.495  25.639  1.00  0.00    -0.029 A 
ATOM     16  C   UNL A   1      30.703  26.591  25.990  1.00  0.00     0.045 C 
BRANCH  10  17
ATOM     17  C   UNL A   1      34.307  22.185  25.223  1.00  0.00     0.052 A 
ATOM     18  C   UNL A   1      32.545  20.583  24.237  1.00  0.00     0.047 C 
ATOM     19  C   UNL A   1      33.926  20.910  24.741  1.00  0.00    -0.024 A 
ATOM     20  C   UNL A   1      34.886  19.883  24.689  1.00  0.00     0.044 A 
ATOM     21  C   UNL A   1      36.203  20.127  25.059  1.00  0.00     0.123 A 
ATOM     22  C   UNL A   1      35.655  22.411  25.570  1.00  0.00     0.030 A 
ATOM     23  F   UNL A   1      37.103  19.138  24.982  1.00  0.00    -0.207 F 
ATOM     24  C   UNL A   1      36.598  21.383  25.491  1.00  0.00     0.041 A 
ENDBRANCH  10  17
ENDBRANCH   7   9
ENDBRANCH   6   7
ENDBRANCH   5   6
ENDBRANCH   4   5
ENDBRANCH   3   4
ENDBRANCH   2   3
ENDBRANCH   1   2
BRANCH   1  25
ATOM     25  O   UNL A   1      35.046  32.258  27.898  1.00  0.00    -0.376 OA
BRANCH  25  26
ATOM     26  C   UNL A   1      35.204  33.048  29.065  1.00  0.00     0.202 C 
BRANCH  26  27
ATOM     27  C   UNL A   1      35.147  32.332  30.419  1.00  0.00     0.261 C 
BRANCH  27  28
ATOM     28  O   UNL A   1      36.430  31.922  30.921  1.00  0.00    -0.460 OA
BRANCH  28  29
ATOM     29  C   UNL A   1      36.686  30.590  30.874  1.00  0.00     0.338 C 
ATOM     30  O   UNL A   1      35.892  29.679  31.043  1.00  0.00    -0.246 OA
BRANCH  29  31
ATOM     31  C   UNL A   1      38.064  30.379  30.383  1.00  0.00     0.060 A 
ATOM     32  C   UNL A   1      39.131  30.222  31.268  1.00  0.00     0.016 A 
ATOM     33  C   UNL A   1      38.280  30.336  28.998  1.00  0.00     0.016 A 
ATOM     34  C   UNL A   1      40.417  30.002  30.762  1.00  0.00     0.010 A 
ATOM     35  C   UNL A   1      39.568  30.139  28.494  1.00  0.00     0.010 A 
ATOM     36  C   UNL A   1      40.643  29.953  29.375  1.00  0.00    -0.014 A 
BRANCH  36  37
ATOM     37  C   UNL A   1      41.972  29.551  28.852  1.00  0.00     0.031 A 
ATOM     38  C   UNL A   1      43.113  30.519  28.768  1.00  0.00     0.074 A 
ATOM     39  C   UNL A   1      42.135  28.278  28.447  1.00  0.00     0.049 A 
ATOM     40  N   UNL A   1      44.355  30.292  28.424  1.00  0.00    -0.248 NA
ATOM     41  C   UNL A   1      42.827  31.921  29.106  1.00  0.00     0.031 C 
ATOM     42  C   UNL A   1      41.084  27.258  28.453  1.00  0.00     0.029 A 
ATOM     43  N   UNL A   1      43.237  27.623  27.962  1.00  0.00    -0.354 N 
ATOM     44  C   UNL A   1      45.013  31.510  28.534  1.00  0.00     0.074 A 
ATOM     45  C   UNL A   1      44.015  32.488  28.926  1.00  0.00     0.031 C 
ATOM     46  C   UNL A   1      41.598  26.099  28.013  1.00  0.00     0.029 A 
ATOM     47  C   UNL A   1      43.007  26.296  27.683  1.00  0.00     0.049 A 
ATOM     48  H   UNL A   1      44.108  28.059  27.826  1.00  0.00     0.167 HD
ATOM     49  C   UNL A   1      46.329  31.778  28.347  1.00  0.00     0.037 A 
ATOM     50  C   UNL A   1      43.839  25.341  27.226  1.00  0.00     0.037 A 
ATOM     51  C   UNL A   1      47.309  30.801  27.936  1.00  0.00     0.049 A 
ATOM     52  C   UNL A   1      45.284  25.674  26.988  1.00  0.00     0.074 A 
ATOM     53  C   UNL A   1      48.672  30.973  27.755  1.00  0.00     0.029 A 
ATOM     54  N   UNL A   1      47.034  29.475  27.628  1.00  0.00    -0.354 N 
ATOM     55  N   UNL A   1      45.906  26.815  27.168  1.00  0.00    -0.248 NA
ATOM     56  C   UNL A   1      46.143  24.589  26.495  1.00  0.00     0.031 C 
ATOM     57  C   UNL A   1      49.211  29.768  27.292  1.00  0.00     0.029 A 
ATOM     58  C   UNL A   1      48.197  28.828  27.233  1.00  0.00     0.049 A 
ATOM     59  H   UNL A   1      46.146  29.055  27.682  1.00  0.00     0.167 HD
ATOM     60  C   UNL A   1      47.235  26.578  26.832  1.00  0.00     0.074 A 
ATOM     61  C   UNL A   1      47.328  25.184  26.450  1.00  0.00     0.031 C 
ATOM     62  C   UNL A   1      48.281  27.442  26.843  1.00  0.00     0.037 A 
BRANCH  49  63
ATOM     63  C   UNL A   1      46.805  33.183  28.600  1.00  0.00     0.058 A 
ATOM     64  C   UNL A   1      47.267  33.577  29.866  1.00  0.00     0.135 A 
ATOM     65  C   UNL A   1      46.886  34.115  27.553  1.00  0.00     0.135 A 
ATOM     66  F   UNL A   1      47.203  32.728  30.904  1.00  0.00    -0.206 F 
ATOM     67  C   UNL A   1      47.781  34.851  30.088  1.00  0.00     0.059 A 
ATOM     68  C   UNL A   1      47.419  35.388  27.748  1.00  0.00     0.059 A 
ATOM     69  F   UNL A   1      46.461  33.789  26.322  1.00  0.00    -0.206 F 
ATOM     70  C   UNL A   1      47.857  35.748  29.021  1.00  0.00     0.060 A 
BRANCH  70  71
ATOM     71  S   UNL A   1      48.552  37.387  29.327  1.00  0.00     0.124 S 
ATOM     72  O   UNL A   1      49.148  37.695  28.031  1.00  0.00    -0.237 OA
ATOM     73  O   UNL A   1      47.369  38.164  29.681  1.00  0.00    -0.237 OA
ATOM     74  O   UNL A   1      49.499  37.158  30.414  1.00  0.00    -0.744 OA
ENDBRANCH  70  71
ENDBRANCH  49  63
BRANCH  50  75
ATOM     75  C   UNL A   1      43.323  23.965  27.014  1.00  0.00     0.058 A 
ATOM     76  C   UNL A   1      43.077  23.115  28.101  1.00  0.00     0.135 A 
ATOM     77  C   UNL A   1      43.023  23.493  25.727  1.00  0.00     0.135 A 
ATOM     78  F   UNL A   1      43.351  23.523  29.348  1.00  0.00    -0.206 F 
ATOM     79  C   UNL A   1      42.557  21.838  27.919  1.00  0.00     0.059 A 
ATOM     80  C   UNL A   1      42.481  22.229  25.523  1.00  0.00     0.059 A 
ATOM     81  F   UNL A   1      43.227  24.278  24.658  1.00  0.00    -0.206 F 
ATOM     82  C   UNL A   1      42.257  21.406  26.626  1.00  0.00     0.060 A 
BRANCH  82  83
ATOM     83  S   UNL A   1      41.521  19.772  26.411  1.00  0.00     0.124 S 
ATOM     84  O   UNL A   1      42.264  19.265  25.263  1.00  0.00    -0.237 OA
ATOM     85  O   UNL A   1      41.813  19.136  27.692  1.00  0.00    -0.237 OA
ATOM     86  O   UNL A   1      40.112  20.067  26.171  1.00  0.00    -0.744 OA
ENDBRANCH  82  83
ENDBRANCH  50  75
BRANCH  62  87
ATOM     87  C   UNL A   1      49.625  26.902  26.438  1.00  0.00     0.058 A 
ATOM     88  C   UNL A   1      50.471  26.265  27.360  1.00  0.00     0.135 A 
ATOM     89  C   UNL A   1      50.056  26.981  25.102  1.00  0.00     0.135 A 
ATOM     90  F   UNL A   1      50.112  26.169  28.650  1.00  0.00    -0.206 F 
ATOM     91  C   UNL A   1      51.704  25.745  26.978  1.00  0.00     0.059 A 
ATOM     92  C   UNL A   1      51.274  26.445  24.693  1.00  0.00     0.059 A 
ATOM     93  F   UNL A   1      49.284  27.573  24.177  1.00  0.00    -0.206 F 
ATOM     94  C   UNL A   1      52.096  25.838  25.641  1.00  0.00     0.060 A 
BRANCH  94  95
ATOM     95  S   UNL A   1      53.686  25.132  25.157  1.00  0.00     0.124 S 
ATOM     96  O   UNL A   1      53.800  25.585  23.775  1.00  0.00    -0.237 OA
ATOM     97  O   UNL A   1      54.605  25.755  26.105  1.00  0.00    -0.237 OA
ATOM     98  O   UNL A   1      53.490  23.697  25.334  1.00  0.00    -0.744 OA
ENDBRANCH  94  95
ENDBRANCH  62  87
ENDBRANCH  36  37
ENDBRANCH  29  31
ENDBRANCH  28  29
ENDBRANCH  27  28
ENDBRANCH  26  27
ENDBRANCH  25  26
ENDBRANCH   1  25
TORSDOF 21
ENDMDL
MODEL 3
REMARK VINA RESULT:     -10.7      2.542      9.070
REMARK SMILES Cc1cc(F)ccc1-n1ccc(C)c(C(=O)OCCOCCOCCOC(=O)c2ccc(-c3c4nc(c(-c5c(F)cc(S(=O)(=O)[O-])cc5F)c5ccc([nH]5)c(-c5c(F)cc(S(=O)(=O)[O-])cc5F)c5nc(c(-c6c(F)cc(S(=O)(=O)[O-])cc6F)c6ccc3[nH]6)C=C5)C=C4)cc2)c1=O
REMARK SMILES IDX 22 1 21 2 20 3 19 4 18 5 17 6 15 7 16 8 14 9 9 10 10 11
REMARK SMILES IDX 95 12 11 13 96 14 12 15 13 16 8 17 1 18 2 19 3 20 4 21 7 22
REMARK SMILES IDX 5 23 6 24 23 25 24 26 25 27 26 28 27 29 28 30 29 31 30 32
REMARK SMILES IDX 94 33 31 34 93 35 32 36 33 37 34 38 87 39 35 40 92 41 86 42
REMARK SMILES IDX 88 43 36 44 91 45 85 46 84 47 37 49 71 50 50 51 70 52 51 53
REMARK SMILES IDX 54 54 69 55 89 56 52 57 53 58 68 60 90 61 55 62 38 63 39 64
REMARK SMILES IDX 48 65 40 66 41 67 47 68 49 69 42 70 43 71 44 72 45 73 46 74
REMARK SMILES IDX 72 75 73 76 82 77 74 78 75 79 81 80 83 81 76 82 77 83 78 84
REMARK SMILES IDX 79 85 80 86 56 87 57 88 66 89 58 90 59 91 65 92 67 93 60 94
REMARK SMILES IDX 61 95 62 96 63 97 64 98
REMARK H PARENT 88 48 54 59
REMARK Flexibility Score: inf
ROOT
ATOM      1  C   UNL A   1      34.840  30.494  28.161  1.00  0.00     0.188 C 
ENDROOT
BRANCH   1   2
ATOM      2  C   UNL A   1      35.424  29.383  27.261  1.00  0.00     0.188 C 
BRANCH   2   3
ATOM      3  O   UNL A   1      34.428  28.666  26.551  1.00  0.00    -0.376 OA
BRANCH   3   4
ATOM      4  C   UNL A   1      33.239  28.355  27.258  1.00  0.00     0.202 C 
BRANCH   4   5
ATOM      5  C   UNL A   1      31.930  28.811  26.603  1.00  0.00     0.261 C 
BRANCH   5   6
ATOM      6  O   UNL A   1      31.274  27.784  25.849  1.00  0.00    -0.459 OA
BRANCH   6   7
ATOM      7  C   UNL A   1      31.623  27.595  24.556  1.00  0.00     0.344 C 
ATOM      8  O   UNL A   1      31.891  28.467  23.748  1.00  0.00    -0.246 OA
BRANCH   7   9
ATOM      9  C   UNL A   1      31.763  26.136  24.322  1.00  0.00     0.128 A 
ATOM     10  N   UNL A   1      33.215  24.134  24.167  1.00  0.00    -0.283 N 
ATOM     11  C   UNL A   1      32.101  23.410  23.769  1.00  0.00     0.095 A 
ATOM     12  C   UNL A   1      33.134  25.525  24.388  1.00  0.00     0.270 A 
ATOM     13  C   UNL A   1      30.892  23.973  23.676  1.00  0.00     0.023 A 
ATOM     14  O   UNL A   1      34.105  26.244  24.628  1.00  0.00    -0.268 OA
ATOM     15  C   UNL A   1      30.697  25.378  23.980  1.00  0.00    -0.029 A 
ATOM     16  C   UNL A   1      29.274  25.850  23.837  1.00  0.00     0.045 C 
BRANCH  10  17
ATOM     17  C   UNL A   1      34.475  23.469  24.357  1.00  0.00     0.052 A 
ATOM     18  C   UNL A   1      33.988  22.963  26.837  1.00  0.00     0.047 C 
ATOM     19  C   UNL A   1      34.862  22.938  25.610  1.00  0.00    -0.024 A 
ATOM     20  C   UNL A   1      36.118  22.316  25.731  1.00  0.00     0.044 A 
ATOM     21  C   UNL A   1      36.948  22.179  24.626  1.00  0.00     0.123 A 
ATOM     22  C   UNL A   1      35.328  23.296  23.247  1.00  0.00     0.030 A 
ATOM     23  F   UNL A   1      38.131  21.565  24.763  1.00  0.00    -0.207 F 
ATOM     24  C   UNL A   1      36.562  22.656  23.384  1.00  0.00     0.041 A 
ENDBRANCH  10  17
ENDBRANCH   7   9
ENDBRANCH   6   7
ENDBRANCH   5   6
ENDBRANCH   4   5
ENDBRANCH   3   4
ENDBRANCH   2   3
ENDBRANCH   1   2
BRANCH   1  25
ATOM     25  O   UNL A   1      34.405  31.723  27.590  1.00  0.00    -0.376 OA
BRANCH  25  26
ATOM     26  C   UNL A   1      33.017  32.011  27.538  1.00  0.00     0.202 C 
BRANCH  26  27
ATOM     27  C   UNL A   1      32.601  33.483  27.433  1.00  0.00     0.261 C 
BRANCH  27  28
ATOM     28  O   UNL A   1      32.433  34.137  28.702  1.00  0.00    -0.460 OA
BRANCH  28  29
ATOM     29  C   UNL A   1      33.292  35.155  28.961  1.00  0.00     0.338 C 
ATOM     30  O   UNL A   1      33.111  36.345  28.755  1.00  0.00    -0.246 OA
BRANCH  29  31
ATOM     31  C   UNL A   1      34.440  34.635  29.732  1.00  0.00     0.060 A 
ATOM     32  C   UNL A   1      34.287  34.191  31.046  1.00  0.00     0.016 A 
ATOM     33  C   UNL A   1      35.697  34.594  29.112  1.00  0.00     0.016 A 
ATOM     34  C   UNL A   1      35.396  33.685  31.733  1.00  0.00     0.010 A 
ATOM     35  C   UNL A   1      36.807  34.110  29.808  1.00  0.00     0.010 A 
ATOM     36  C   UNL A   1      36.660  33.635  31.119  1.00  0.00    -0.014 A 
BRANCH  36  37
ATOM     37  C   UNL A   1      37.787  32.944  31.792  1.00  0.00     0.031 A 
ATOM     38  C   UNL A   1      38.335  33.419  33.103  1.00  0.00     0.074 A 
ATOM     39  C   UNL A   1      38.316  31.863  31.190  1.00  0.00     0.049 A 
ATOM     40  N   UNL A   1      39.251  32.865  33.855  1.00  0.00    -0.248 NA
ATOM     41  C   UNL A   1      37.795  34.677  33.637  1.00  0.00     0.031 C 
ATOM     42  C   UNL A   1      37.883  31.330  29.896  1.00  0.00     0.029 A 
ATOM     43  N   UNL A   1      39.321  31.017  31.582  1.00  0.00    -0.354 N 
ATOM     44  C   UNL A   1      39.378  33.683  34.971  1.00  0.00     0.074 A 
ATOM     45  C   UNL A   1      38.480  34.804  34.768  1.00  0.00     0.031 C 
ATOM     46  C   UNL A   1      38.604  30.235  29.611  1.00  0.00     0.029 A 
ATOM     47  C   UNL A   1      39.555  29.994  30.693  1.00  0.00     0.049 A 
ATOM     48  H   UNL A   1      39.825  31.130  32.420  1.00  0.00     0.167 HD
ATOM     49  C   UNL A   1      40.154  33.500  36.067  1.00  0.00     0.037 A 
ATOM     50  C   UNL A   1      40.428  28.970  30.748  1.00  0.00     0.037 A 
ATOM     51  C   UNL A   1      41.061  32.391  36.248  1.00  0.00     0.049 A 
ATOM     52  C   UNL A   1      41.306  28.813  31.956  1.00  0.00     0.074 A 
ATOM     53  C   UNL A   1      41.861  32.104  37.342  1.00  0.00     0.029 A 
ATOM     54  N   UNL A   1      41.299  31.393  35.312  1.00  0.00    -0.354 N 
ATOM     55  N   UNL A   1      41.361  29.556  33.035  1.00  0.00    -0.248 NA
ATOM     56  C   UNL A   1      42.233  27.674  31.959  1.00  0.00     0.031 C 
ATOM     57  C   UNL A   1      42.617  30.964  37.048  1.00  0.00     0.029 A 
ATOM     58  C   UNL A   1      42.253  30.507  35.793  1.00  0.00     0.049 A 
ATOM     59  H   UNL A   1      40.856  31.324  34.436  1.00  0.00     0.167 HD
ATOM     60  C   UNL A   1      42.312  28.960  33.857  1.00  0.00     0.074 A 
ATOM     61  C   UNL A   1      42.798  27.790  33.154  1.00  0.00     0.031 C 
ATOM     62  C   UNL A   1      42.740  29.350  35.084  1.00  0.00     0.037 A 
BRANCH  49  63
ATOM     63  C   UNL A   1      40.055  34.511  37.177  1.00  0.00     0.058 A 
ATOM     64  C   UNL A   1      40.767  35.720  37.125  1.00  0.00     0.135 A 
ATOM     65  C   UNL A   1      39.176  34.315  38.254  1.00  0.00     0.135 A 
ATOM     66  F   UNL A   1      41.629  35.955  36.122  1.00  0.00    -0.206 F 
ATOM     67  C   UNL A   1      40.621  36.694  38.108  1.00  0.00     0.059 A 
ATOM     68  C   UNL A   1      38.997  35.286  39.237  1.00  0.00     0.059 A 
ATOM     69  F   UNL A   1      38.468  33.178  38.351  1.00  0.00    -0.206 F 
ATOM     70  C   UNL A   1      39.729  36.468  39.158  1.00  0.00     0.060 A 
BRANCH  70  71
ATOM     71  S   UNL A   1      39.536  37.756  40.410  1.00  0.00     0.124 S 
ATOM     72  O   UNL A   1      40.923  38.146  40.642  1.00  0.00    -0.237 OA
ATOM     73  O   UNL A   1      38.709  38.739  39.718  1.00  0.00    -0.237 OA
ATOM     74  O   UNL A   1      38.886  37.061  41.517  1.00  0.00    -0.744 OA
ENDBRANCH  70  71
ENDBRANCH  49  63
BRANCH  50  75
ATOM     75  C   UNL A   1      40.471  27.989  29.634  1.00  0.00     0.058 A 
ATOM     76  C   UNL A   1      41.429  28.098  28.618  1.00  0.00     0.135 A 
ATOM     77  C   UNL A   1      39.584  26.902  29.590  1.00  0.00     0.135 A 
ATOM     78  F   UNL A   1      42.295  29.122  28.618  1.00  0.00    -0.206 F 
ATOM     79  C   UNL A   1      41.505  27.164  27.589  1.00  0.00     0.059 A 
ATOM     80  C   UNL A   1      39.656  25.943  28.585  1.00  0.00     0.059 A 
ATOM     81  F   UNL A   1      38.660  26.748  30.552  1.00  0.00    -0.206 F 
ATOM     82  C   UNL A   1      40.617  26.087  27.586  1.00  0.00     0.060 A 
BRANCH  82  83
ATOM     83  S   UNL A   1      40.770  24.848  26.282  1.00  0.00     0.124 S 
ATOM     84  O   UNL A   1      41.801  23.973  26.829  1.00  0.00    -0.237 OA
ATOM     85  O   UNL A   1      39.421  24.292  26.231  1.00  0.00    -0.237 OA
ATOM     86  O   UNL A   1      41.163  25.633  25.117  1.00  0.00    -0.744 OA
ENDBRANCH  82  83
ENDBRANCH  50  75
BRANCH  62  87
ATOM     87  C   UNL A   1      43.783  28.498  35.754  1.00  0.00     0.058 A 
ATOM     88  C   UNL A   1      45.155  28.724  35.560  1.00  0.00     0.135 A 
ATOM     89  C   UNL A   1      43.409  27.471  36.638  1.00  0.00     0.135 A 
ATOM     90  F   UNL A   1      45.567  29.688  34.721  1.00  0.00    -0.206 F 
ATOM     91  C   UNL A   1      46.118  27.951  36.199  1.00  0.00     0.059 A 
ATOM     92  C   UNL A   1      44.356  26.702  37.309  1.00  0.00     0.059 A 
ATOM     93  F   UNL A   1      42.111  27.216  36.866  1.00  0.00    -0.206 F 
ATOM     94  C   UNL A   1      45.709  26.943  37.074  1.00  0.00     0.060 A 
BRANCH  94  95
ATOM     95  S   UNL A   1      46.972  25.967  37.919  1.00  0.00     0.124 S 
ATOM     96  O   UNL A   1      46.971  24.739  37.131  1.00  0.00    -0.237 OA
ATOM     97  O   UNL A   1      48.158  26.807  37.782  1.00  0.00    -0.237 OA
ATOM     98  O   UNL A   1      46.453  25.842  39.278  1.00  0.00    -0.744 OA
ENDBRANCH  94  95
ENDBRANCH  62  87
ENDBRANCH  36  37
ENDBRANCH  29  31
ENDBRANCH  28  29
ENDBRANCH  27  28
ENDBRANCH  26  27
ENDBRANCH  25  26
ENDBRANCH   1  25
TORSDOF 21
ENDMDL
