MODEL 1
REMARK VINA RESULT:     -10.2      0.000      0.000
REMARK SMILES C[C@@H](C(=O)OCCOCCOCCOC(=O)c1ccc(-c2c3nc(c(-c4c(F)cc(S(=O)(=O)[O-])cc4F)c4ccc([nH]4)c(-c4c(F)cc(S(=O)(=O)[O-])cc4F)c4nc(c(-c5c(F)cc(S(=O)(=O)[O-])cc5F)c5ccc2[nH]5)C=C4)C=C3)cc1)c1ccc(C(=O)c2cccs2)cc1
REMARK SMILES IDX 9 1 8 2 7 3 6 4 5 5 3 6 4 7 2 8 1 9 83 10 84 11 95 12 85 13
REMARK SMILES IDX 94 14 86 15 87 16 88 17 89 18 90 19 93 20 91 21 92 22 10 23
REMARK SMILES IDX 11 24 12 25 13 26 14 27 15 28 16 29 17 30 18 31 82 32 19 33
REMARK SMILES IDX 81 34 20 35 21 36 22 37 75 38 23 39 80 40 74 41 76 42 24 43
REMARK SMILES IDX 79 44 73 45 72 46 25 48 59 49 38 50 58 51 39 52 42 53 57 54
REMARK SMILES IDX 77 55 40 56 41 57 56 59 78 60 43 61 26 62 27 63 36 64 28 65
REMARK SMILES IDX 29 66 35 67 37 68 30 69 31 70 32 71 33 72 34 73 60 74 61 75
REMARK SMILES IDX 70 76 62 77 63 78 69 79 71 80 64 81 65 82 66 83 67 84 68 85
REMARK SMILES IDX 44 86 45 87 54 88 46 89 47 90 53 91 55 92 48 93 49 94 50 95
REMARK SMILES IDX 51 96 52 97
REMARK H PARENT 76 47 42 58
REMARK Flexibility Score: inf
ROOT
ATOM      1  C   UNL A   1      42.055  19.961  26.327  1.00  0.00     0.188 C 
ENDROOT
BRANCH   1   2
ATOM      2  O   UNL A   1      40.768  20.235  26.875  1.00  0.00    -0.376 OA
BRANCH   2   3
ATOM      3  C   UNL A   1      39.676  20.430  25.982  1.00  0.00     0.202 C 
BRANCH   3   4
ATOM      4  C   UNL A   1      38.997  21.805  25.989  1.00  0.00     0.261 C 
BRANCH   4   5
ATOM      5  O   UNL A   1      37.751  21.825  25.267  1.00  0.00    -0.463 OA
BRANCH   5   6
ATOM      6  C   UNL A   1      36.937  22.874  25.553  1.00  0.00     0.313 C 
ATOM      7  O   UNL A   1      37.194  23.726  26.399  1.00  0.00    -0.252 OA
BRANCH   6   8
ATOM      8  C   UNL A   1      35.687  22.944  24.666  1.00  0.00     0.126 C 
ATOM      9  C   UNL A   1      35.985  22.827  23.167  1.00  0.00     0.025 C 
BRANCH   8  10
ATOM     10  C   UNL A   1      34.718  24.045  25.098  1.00  0.00    -0.034 A 
ATOM     11  C   UNL A   1      34.772  25.370  24.646  1.00  0.00     0.005 A 
ATOM     12  C   UNL A   1      33.652  23.692  25.942  1.00  0.00     0.005 A 
ATOM     13  C   UNL A   1      33.784  26.298  25.020  1.00  0.00     0.012 A 
ATOM     14  C   UNL A   1      32.661  24.611  26.304  1.00  0.00     0.012 A 
ATOM     15  C   UNL A   1      32.712  25.930  25.849  1.00  0.00     0.023 A 
BRANCH  15  16
ATOM     16  C   UNL A   1      31.626  26.938  26.116  1.00  0.00     0.202 C 
ATOM     17  O   UNL A   1      31.342  27.145  27.296  1.00  0.00    -0.288 OA
BRANCH  16  18
ATOM     18  C   UNL A   1      31.038  27.679  25.009  1.00  0.00     0.075 A 
ATOM     19  C   UNL A   1      30.972  29.040  24.771  1.00  0.00     0.024 A 
ATOM     20  S   UNL A   1      30.277  26.795  23.750  1.00  0.00    -0.140 S 
ATOM     21  C   UNL A   1      30.187  29.354  23.624  1.00  0.00     0.012 A 
ATOM     22  C   UNL A   1      29.757  28.223  22.969  1.00  0.00     0.065 A 
ENDBRANCH  16  18
ENDBRANCH  15  16
ENDBRANCH   8  10
ENDBRANCH   6   8
ENDBRANCH   5   6
ENDBRANCH   4   5
ENDBRANCH   3   4
ENDBRANCH   2   3
ENDBRANCH   1   2
BRANCH   1  23
ATOM     23  C   UNL A   1      43.084  21.101  26.262  1.00  0.00     0.188 C 
BRANCH  23  24
ATOM     24  O   UNL A   1      43.283  21.648  24.970  1.00  0.00    -0.376 OA
BRANCH  24  25
ATOM     25  C   UNL A   1      43.231  23.064  24.876  1.00  0.00     0.202 C 
BRANCH  25  26
ATOM     26  C   UNL A   1      42.996  23.765  26.222  1.00  0.00     0.261 C 
BRANCH  26  27
ATOM     27  O   UNL A   1      41.744  24.466  26.324  1.00  0.00    -0.460 OA
BRANCH  27  28
ATOM     28  C   UNL A   1      41.770  25.796  26.061  1.00  0.00     0.338 C 
ATOM     29  O   UNL A   1      41.655  26.329  24.976  1.00  0.00    -0.246 OA
BRANCH  28  30
ATOM     30  C   UNL A   1      41.728  26.505  27.359  1.00  0.00     0.060 A 
ATOM     31  C   UNL A   1      40.770  26.122  28.307  1.00  0.00     0.016 A 
ATOM     32  C   UNL A   1      42.637  27.525  27.643  1.00  0.00     0.016 A 
ATOM     33  C   UNL A   1      40.713  26.770  29.541  1.00  0.00     0.010 A 
ATOM     34  C   UNL A   1      42.562  28.191  28.870  1.00  0.00     0.010 A 
ATOM     35  C   UNL A   1      41.588  27.830  29.816  1.00  0.00    -0.014 A 
BRANCH  35  36
ATOM     36  C   UNL A   1      41.359  28.679  31.010  1.00  0.00     0.031 A 
ATOM     37  C   UNL A   1      40.232  29.674  30.970  1.00  0.00     0.074 A 
ATOM     38  C   UNL A   1      42.125  28.566  32.110  1.00  0.00     0.049 A 
ATOM     39  N   UNL A   1      39.871  30.559  31.861  1.00  0.00    -0.248 NA
ATOM     40  C   UNL A   1      39.403  29.670  29.753  1.00  0.00     0.031 C 
ATOM     41  C   UNL A   1      43.218  27.612  32.285  1.00  0.00     0.029 A 
ATOM     42  N   UNL A   1      42.096  29.267  33.291  1.00  0.00    -0.354 N 
ATOM     43  C   UNL A   1      38.781  31.222  31.313  1.00  0.00     0.074 A 
ATOM     44  C   UNL A   1      38.548  30.649  30.005  1.00  0.00     0.031 C 
ATOM     45  C   UNL A   1      43.755  27.789  33.507  1.00  0.00     0.029 A 
ATOM     46  C   UNL A   1      43.062  28.881  34.190  1.00  0.00     0.049 A 
ATOM     47  H   UNL A   1      41.444  29.981  33.476  1.00  0.00     0.167 HD
ATOM     48  C   UNL A   1      38.042  32.221  31.850  1.00  0.00     0.037 A 
ATOM     49  C   UNL A   1      43.357  29.367  35.414  1.00  0.00     0.037 A 
ATOM     50  C   UNL A   1      38.281  32.795  33.146  1.00  0.00     0.049 A 
ATOM     51  C   UNL A   1      42.548  30.517  35.967  1.00  0.00     0.074 A 
ATOM     52  C   UNL A   1      37.600  33.826  33.768  1.00  0.00     0.029 A 
ATOM     53  N   UNL A   1      39.280  32.390  34.018  1.00  0.00    -0.354 N 
ATOM     54  N   UNL A   1      41.520  31.137  35.438  1.00  0.00    -0.248 NA
ATOM     55  C   UNL A   1      42.952  31.044  37.279  1.00  0.00     0.031 C 
ATOM     56  C   UNL A   1      38.215  34.076  34.999  1.00  0.00     0.029 A 
ATOM     57  C   UNL A   1      39.249  33.168  35.164  1.00  0.00     0.049 A 
ATOM     58  H   UNL A   1      39.916  31.659  33.849  1.00  0.00     0.167 HD
ATOM     59  C   UNL A   1      41.141  32.105  36.362  1.00  0.00     0.074 A 
ATOM     60  C   UNL A   1      42.037  31.980  37.491  1.00  0.00     0.031 C 
ATOM     61  C   UNL A   1      40.145  33.022  36.282  1.00  0.00     0.037 A 
BRANCH  48  62
ATOM     62  C   UNL A   1      36.936  32.786  31.006  1.00  0.00     0.058 A 
ATOM     63  C   UNL A   1      37.185  33.709  29.979  1.00  0.00     0.135 A 
ATOM     64  C   UNL A   1      35.607  32.388  31.225  1.00  0.00     0.135 A 
ATOM     65  F   UNL A   1      38.435  34.140  29.746  1.00  0.00    -0.206 F 
ATOM     66  C   UNL A   1      36.151  34.240  29.215  1.00  0.00     0.059 A 
ATOM     67  C   UNL A   1      34.560  32.887  30.457  1.00  0.00     0.059 A 
ATOM     68  F   UNL A   1      35.315  31.512  32.200  1.00  0.00    -0.206 F 
ATOM     69  C   UNL A   1      34.841  33.824  29.464  1.00  0.00     0.060 A 
BRANCH  69  70
ATOM     70  S   UNL A   1      33.508  34.526  28.471  1.00  0.00     0.124 S 
ATOM     71  O   UNL A   1      34.192  35.630  27.804  1.00  0.00    -0.237 OA
ATOM     72  O   UNL A   1      33.130  33.405  27.615  1.00  0.00    -0.237 OA
ATOM     73  O   UNL A   1      32.511  34.915  29.465  1.00  0.00    -0.744 OA
ENDBRANCH  69  70
ENDBRANCH  48  62
BRANCH  49  74
ATOM     74  C   UNL A   1      44.472  28.785  36.211  1.00  0.00     0.058 A 
ATOM     75  C   UNL A   1      44.255  27.694  37.067  1.00  0.00     0.135 A 
ATOM     76  C   UNL A   1      45.770  29.318  36.158  1.00  0.00     0.135 A 
ATOM     77  F   UNL A   1      43.030  27.159  37.177  1.00  0.00    -0.206 F 
ATOM     78  C   UNL A   1      45.280  27.155  37.838  1.00  0.00     0.059 A 
ATOM     79  C   UNL A   1      46.820  28.770  36.889  1.00  0.00     0.059 A 
ATOM     80  F   UNL A   1      46.034  30.370  35.368  1.00  0.00    -0.206 F 
ATOM     81  C   UNL A   1      46.564  27.686  37.726  1.00  0.00     0.060 A 
BRANCH  81  82
ATOM     82  S   UNL A   1      47.907  26.885  38.627  1.00  0.00     0.124 S 
ATOM     83  O   UNL A   1      47.281  26.608  39.913  1.00  0.00    -0.237 OA
ATOM     84  O   UNL A   1      48.180  25.723  37.783  1.00  0.00    -0.237 OA
ATOM     85  O   UNL A   1      48.957  27.898  38.637  1.00  0.00    -0.744 OA
ENDBRANCH  81  82
ENDBRANCH  49  74
BRANCH  61  86
ATOM     86  C   UNL A   1      39.956  33.949  37.453  1.00  0.00     0.058 A 
ATOM     87  C   UNL A   1      40.560  35.215  37.494  1.00  0.00     0.135 A 
ATOM     88  C   UNL A   1      39.113  33.590  38.516  1.00  0.00     0.135 A 
ATOM     89  F   UNL A   1      41.380  35.605  36.506  1.00  0.00    -0.206 F 
ATOM     90  C   UNL A   1      40.349  36.086  38.558  1.00  0.00     0.059 A 
ATOM     91  C   UNL A   1      38.868  34.455  39.579  1.00  0.00     0.059 A 
ATOM     92  F   UNL A   1      38.501  32.394  38.522  1.00  0.00    -0.206 F 
ATOM     93  C   UNL A   1      39.500  35.698  39.596  1.00  0.00     0.060 A 
BRANCH  93  94
ATOM     94  S   UNL A   1      39.201  36.854  40.951  1.00  0.00     0.124 S 
ATOM     95  O   UNL A   1      38.524  36.001  41.922  1.00  0.00    -0.237 OA
ATOM     96  O   UNL A   1      40.552  37.274  41.309  1.00  0.00    -0.237 OA
ATOM     97  O   UNL A   1      38.372  37.888  40.338  1.00  0.00    -0.744 OA
ENDBRANCH  93  94
ENDBRANCH  61  86
ENDBRANCH  35  36
ENDBRANCH  28  30
ENDBRANCH  27  28
ENDBRANCH  26  27
ENDBRANCH  25  26
ENDBRANCH  24  25
ENDBRANCH  23  24
ENDBRANCH   1  23
TORSDOF 23
ENDMDL
MODEL 2
REMARK VINA RESULT:     -10.1      2.445      8.943
REMARK SMILES C[C@@H](C(=O)OCCOCCOCCOC(=O)c1ccc(-c2c3nc(c(-c4c(F)cc(S(=O)(=O)[O-])cc4F)c4ccc([nH]4)c(-c4c(F)cc(S(=O)(=O)[O-])cc4F)c4nc(c(-c5c(F)cc(S(=O)(=O)[O-])cc5F)c5ccc2[nH]5)C=C4)C=C3)cc1)c1ccc(C(=O)c2cccs2)cc1
REMARK SMILES IDX 9 1 8 2 7 3 6 4 5 5 3 6 4 7 2 8 1 9 83 10 84 11 95 12 85 13
REMARK SMILES IDX 94 14 86 15 87 16 88 17 89 18 90 19 93 20 91 21 92 22 10 23
REMARK SMILES IDX 11 24 12 25 13 26 14 27 15 28 16 29 17 30 18 31 82 32 19 33
REMARK SMILES IDX 81 34 20 35 21 36 22 37 75 38 23 39 80 40 74 41 76 42 24 43
REMARK SMILES IDX 79 44 73 45 72 46 25 48 59 49 38 50 58 51 39 52 42 53 57 54
REMARK SMILES IDX 77 55 40 56 41 57 56 59 78 60 43 61 26 62 27 63 36 64 28 65
REMARK SMILES IDX 29 66 35 67 37 68 30 69 31 70 32 71 33 72 34 73 60 74 61 75
REMARK SMILES IDX 70 76 62 77 63 78 69 79 71 80 64 81 65 82 66 83 67 84 68 85
REMARK SMILES IDX 44 86 45 87 54 88 46 89 47 90 53 91 55 92 48 93 49 94 50 95
REMARK SMILES IDX 51 96 52 97
REMARK H PARENT 76 47 42 58
REMARK Flexibility Score: inf
ROOT
ATOM      1  C   UNL A   1      37.363  21.250  24.789  1.00  0.00     0.188 C 
ENDROOT
BRANCH   1   2
ATOM      2  O   UNL A   1      36.079  21.850  24.931  1.00  0.00    -0.376 OA
BRANCH   2   3
ATOM      3  C   UNL A   1      35.936  22.943  25.833  1.00  0.00     0.202 C 
BRANCH   3   4
ATOM      4  C   UNL A   1      35.447  24.276  25.252  1.00  0.00     0.261 C 
BRANCH   4   5
ATOM      5  O   UNL A   1      34.580  24.113  24.113  1.00  0.00    -0.463 OA
BRANCH   5   6
ATOM      6  C   UNL A   1      33.447  24.862  24.141  1.00  0.00     0.313 C 
ATOM      7  O   UNL A   1      33.386  26.021  23.740  1.00  0.00    -0.252 OA
BRANCH   6   8
ATOM      8  C   UNL A   1      32.217  24.102  24.654  1.00  0.00     0.126 C 
ATOM      9  C   UNL A   1      31.885  24.385  26.123  1.00  0.00     0.025 C 
BRANCH   8  10
ATOM     10  C   UNL A   1      32.197  22.641  24.205  1.00  0.00    -0.034 A 
ATOM     11  C   UNL A   1      32.061  22.222  22.874  1.00  0.00     0.005 A 
ATOM     12  C   UNL A   1      32.410  21.649  25.177  1.00  0.00     0.005 A 
ATOM     13  C   UNL A   1      32.147  20.859  22.538  1.00  0.00     0.012 A 
ATOM     14  C   UNL A   1      32.510  20.294  24.840  1.00  0.00     0.012 A 
ATOM     15  C   UNL A   1      32.380  19.878  23.514  1.00  0.00     0.023 A 
BRANCH  15  16
ATOM     16  C   UNL A   1      32.579  18.452  23.073  1.00  0.00     0.202 C 
ATOM     17  O   UNL A   1      32.190  18.164  21.942  1.00  0.00    -0.288 OA
BRANCH  16  18
ATOM     18  C   UNL A   1      33.291  17.521  23.937  1.00  0.00     0.075 A 
ATOM     19  C   UNL A   1      34.539  16.940  23.799  1.00  0.00     0.024 A 
ATOM     20  S   UNL A   1      32.526  17.004  25.383  1.00  0.00    -0.140 S 
ATOM     21  C   UNL A   1      34.806  15.977  24.814  1.00  0.00     0.012 A 
ATOM     22  C   UNL A   1      33.796  15.921  25.748  1.00  0.00     0.065 A 
ENDBRANCH  16  18
ENDBRANCH  15  16
ENDBRANCH   8  10
ENDBRANCH   6   8
ENDBRANCH   5   6
ENDBRANCH   4   5
ENDBRANCH   3   4
ENDBRANCH   2   3
ENDBRANCH   1   2
BRANCH   1  23
ATOM     23  C   UNL A   1      38.484  21.673  25.754  1.00  0.00     0.188 C 
BRANCH  23  24
ATOM     24  O   UNL A   1      39.599  20.798  25.788  1.00  0.00    -0.376 OA
BRANCH  24  25
ATOM     25  C   UNL A   1      40.627  21.134  26.708  1.00  0.00     0.202 C 
BRANCH  25  26
ATOM     26  C   UNL A   1      41.637  22.154  26.163  1.00  0.00     0.261 C 
BRANCH  26  27
ATOM     27  O   UNL A   1      41.183  23.519  26.182  1.00  0.00    -0.460 OA
BRANCH  27  28
ATOM     28  C   UNL A   1      42.142  24.477  26.161  1.00  0.00     0.338 C 
ATOM     29  O   UNL A   1      43.043  24.591  25.355  1.00  0.00    -0.246 OA
BRANCH  28  30
ATOM     30  C   UNL A   1      41.763  25.505  27.156  1.00  0.00     0.060 A 
ATOM     31  C   UNL A   1      42.497  26.697  27.208  1.00  0.00     0.016 A 
ATOM     32  C   UNL A   1      40.682  25.300  28.014  1.00  0.00     0.016 A 
ATOM     33  C   UNL A   1      42.155  27.684  28.134  1.00  0.00     0.010 A 
ATOM     34  C   UNL A   1      40.357  26.279  28.957  1.00  0.00     0.010 A 
ATOM     35  C   UNL A   1      41.104  27.467  29.034  1.00  0.00    -0.014 A 
BRANCH  35  36
ATOM     36  C   UNL A   1      40.911  28.396  30.174  1.00  0.00     0.031 A 
ATOM     37  C   UNL A   1      41.814  28.253  31.368  1.00  0.00     0.074 A 
ATOM     38  C   UNL A   1      39.964  29.350  30.149  1.00  0.00     0.049 A 
ATOM     39  N   UNL A   1      41.804  28.906  32.500  1.00  0.00    -0.248 NA
ATOM     40  C   UNL A   1      42.869  27.230  31.270  1.00  0.00     0.031 C 
ATOM     41  C   UNL A   1      39.057  29.614  29.034  1.00  0.00     0.029 A 
ATOM     42  N   UNL A   1      39.609  30.277  31.099  1.00  0.00    -0.354 N 
ATOM     43  C   UNL A   1      42.842  28.370  33.252  1.00  0.00     0.074 A 
ATOM     44  C   UNL A   1      43.451  27.327  32.455  1.00  0.00     0.031 C 
ATOM     45  C   UNL A   1      38.250  30.638  29.365  1.00  0.00     0.029 A 
ATOM     46  C   UNL A   1      38.564  31.087  30.721  1.00  0.00     0.049 A 
ATOM     47  H   UNL A   1      40.061  30.353  31.970  1.00  0.00     0.167 HD
ATOM     48  C   UNL A   1      43.249  28.713  34.496  1.00  0.00     0.037 A 
ATOM     49  C   UNL A   1      37.930  32.064  31.402  1.00  0.00     0.037 A 
ATOM     50  C   UNL A   1      42.637  29.744  35.291  1.00  0.00     0.049 A 
ATOM     51  C   UNL A   1      38.372  32.391  32.809  1.00  0.00     0.074 A 
ATOM     52  C   UNL A   1      42.965  30.150  36.572  1.00  0.00     0.029 A 
ATOM     53  N   UNL A   1      41.570  30.528  34.882  1.00  0.00    -0.354 N 
ATOM     54  N   UNL A   1      39.355  31.877  33.510  1.00  0.00    -0.248 NA
ATOM     55  C   UNL A   1      37.607  33.424  33.524  1.00  0.00     0.031 C 
ATOM     56  C   UNL A   1      42.066  31.150  36.956  1.00  0.00     0.029 A 
ATOM     57  C   UNL A   1      41.210  31.400  35.895  1.00  0.00     0.049 A 
ATOM     58  H   UNL A   1      41.133  30.474  34.002  1.00  0.00     0.167 HD
ATOM     59  C   UNL A   1      39.340  32.540  34.733  1.00  0.00     0.074 A 
ATOM     60  C   UNL A   1      38.264  33.506  34.673  1.00  0.00     0.031 C 
ATOM     61  C   UNL A   1      40.141  32.362  35.814  1.00  0.00     0.037 A 
BRANCH  48  62
ATOM     62  C   UNL A   1      44.384  27.927  35.088  1.00  0.00     0.058 A 
ATOM     63  C   UNL A   1      45.716  28.354  34.981  1.00  0.00     0.135 A 
ATOM     64  C   UNL A   1      44.129  26.733  35.781  1.00  0.00     0.135 A 
ATOM     65  F   UNL A   1      46.014  29.476  34.307  1.00  0.00    -0.206 F 
ATOM     66  C   UNL A   1      46.761  27.610  35.518  1.00  0.00     0.059 A 
ATOM     67  C   UNL A   1      45.156  25.985  36.347  1.00  0.00     0.059 A 
ATOM     68  F   UNL A   1      42.872  26.278  35.906  1.00  0.00    -0.206 F 
ATOM     69  C   UNL A   1      46.470  26.424  36.197  1.00  0.00     0.060 A 
BRANCH  69  70
ATOM     70  S   UNL A   1      47.836  25.463  36.882  1.00  0.00     0.124 S 
ATOM     71  O   UNL A   1      48.703  25.320  35.717  1.00  0.00    -0.237 OA
ATOM     72  O   UNL A   1      48.335  26.337  37.940  1.00  0.00    -0.237 OA
ATOM     73  O   UNL A   1      47.192  24.236  37.340  1.00  0.00    -0.744 OA
ENDBRANCH  69  70
ENDBRANCH  48  62
BRANCH  49  74
ATOM     74  C   UNL A   1      36.800  32.810  30.781  1.00  0.00     0.058 A 
ATOM     75  C   UNL A   1      37.036  33.844  29.863  1.00  0.00     0.135 A 
ATOM     76  C   UNL A   1      35.464  32.526  31.107  1.00  0.00     0.135 A 
ATOM     77  F   UNL A   1      38.293  34.176  29.532  1.00  0.00    -0.206 F 
ATOM     78  C   UNL A   1      35.993  34.567  29.293  1.00  0.00     0.059 A 
ATOM     79  C   UNL A   1      34.403  33.208  30.519  1.00  0.00     0.059 A 
ATOM     80  F   UNL A   1      35.179  31.556  31.990  1.00  0.00    -0.206 F 
ATOM     81  C   UNL A   1      34.679  34.228  29.611  1.00  0.00     0.060 A 
BRANCH  81  82
ATOM     82  S   UNL A   1      33.339  35.082  28.756  1.00  0.00     0.124 S 
ATOM     83  O   UNL A   1      32.737  34.000  27.987  1.00  0.00    -0.237 OA
ATOM     84  O   UNL A   1      32.548  35.590  29.875  1.00  0.00    -0.237 OA
ATOM     85  O   UNL A   1      34.033  36.103  27.978  1.00  0.00    -0.744 OA
ENDBRANCH  81  82
ENDBRANCH  49  74
BRANCH  61  86
ATOM     86  C   UNL A   1      39.899  33.240  37.012  1.00  0.00     0.058 A 
ATOM     87  C   UNL A   1      40.634  34.417  37.222  1.00  0.00     0.135 A 
ATOM     88  C   UNL A   1      38.879  32.931  37.926  1.00  0.00     0.135 A 
ATOM     89  F   UNL A   1      41.623  34.755  36.381  1.00  0.00    -0.206 F 
ATOM     90  C   UNL A   1      40.379  35.249  38.308  1.00  0.00     0.059 A 
ATOM     91  C   UNL A   1      38.590  33.761  39.006  1.00  0.00     0.059 A 
ATOM     92  F   UNL A   1      38.139  31.823  37.766  1.00  0.00    -0.206 F 
ATOM     93  C   UNL A   1      39.353  34.914  39.194  1.00  0.00     0.060 A 
BRANCH  93  94
ATOM     94  S   UNL A   1      39.004  36.023  40.576  1.00  0.00     0.124 S 
ATOM     95  O   UNL A   1      40.312  36.116  41.215  1.00  0.00    -0.237 OA
ATOM     96  O   UNL A   1      38.540  37.230  39.899  1.00  0.00    -0.237 OA
ATOM     97  O   UNL A   1      37.984  35.307  41.336  1.00  0.00    -0.744 OA
ENDBRANCH  93  94
ENDBRANCH  61  86
ENDBRANCH  35  36
ENDBRANCH  28  30
ENDBRANCH  27  28
ENDBRANCH  26  27
ENDBRANCH  25  26
ENDBRANCH  24  25
ENDBRANCH  23  24
ENDBRANCH   1  23
TORSDOF 23
ENDMDL
MODEL 3
REMARK VINA RESULT:     -10.0      4.052     11.547
REMARK SMILES C[C@@H](C(=O)OCCOCCOCCOC(=O)c1ccc(-c2c3nc(c(-c4c(F)cc(S(=O)(=O)[O-])cc4F)c4ccc([nH]4)c(-c4c(F)cc(S(=O)(=O)[O-])cc4F)c4nc(c(-c5c(F)cc(S(=O)(=O)[O-])cc5F)c5ccc2[nH]5)C=C4)C=C3)cc1)c1ccc(C(=O)c2cccs2)cc1
REMARK SMILES IDX 9 1 8 2 7 3 6 4 5 5 3 6 4 7 2 8 1 9 83 10 84 11 95 12 85 13
REMARK SMILES IDX 94 14 86 15 87 16 88 17 89 18 90 19 93 20 91 21 92 22 10 23
REMARK SMILES IDX 11 24 12 25 13 26 14 27 15 28 16 29 17 30 18 31 82 32 19 33
REMARK SMILES IDX 81 34 20 35 21 36 22 37 75 38 23 39 80 40 74 41 76 42 24 43
REMARK SMILES IDX 79 44 73 45 72 46 25 48 59 49 38 50 58 51 39 52 42 53 57 54
REMARK SMILES IDX 77 55 40 56 41 57 56 59 78 60 43 61 26 62 27 63 36 64 28 65
REMARK SMILES IDX 29 66 35 67 37 68 30 69 31 70 32 71 33 72 34 73 60 74 61 75
REMARK SMILES IDX 70 76 62 77 63 78 69 79 71 80 64 81 65 82 66 83 67 84 68 85
REMARK SMILES IDX 44 86 45 87 54 88 46 89 47 90 53 91 55 92 48 93 49 94 50 95
REMARK SMILES IDX 51 96 52 97
REMARK H PARENT 76 47 42 58
REMARK Flexibility Score: inf
ROOT
ATOM      1  C   UNL A   1      32.796  35.850  30.483  1.00  0.00     0.188 C 
ENDROOT
BRANCH   1   2
ATOM      2  O   UNL A   1      32.724  37.158  31.044  1.00  0.00    -0.376 OA
BRANCH   2   3
ATOM      3  C   UNL A   1      33.608  37.489  32.110  1.00  0.00     0.202 C 
BRANCH   3   4
ATOM      4  C   UNL A   1      33.978  36.370  33.091  1.00  0.00     0.261 C 
BRANCH   4   5
ATOM      5  O   UNL A   1      35.304  35.848  32.882  1.00  0.00    -0.463 OA
BRANCH   5   6
ATOM      6  C   UNL A   1      35.424  34.504  33.032  1.00  0.00     0.313 C 
ATOM      7  O   UNL A   1      35.350  33.930  34.116  1.00  0.00    -0.252 OA
BRANCH   6   8
ATOM      8  C   UNL A   1      35.590  33.747  31.708  1.00  0.00     0.126 C 
ATOM      9  C   UNL A   1      35.012  32.327  31.732  1.00  0.00     0.025 C 
BRANCH   8  10
ATOM     10  C   UNL A   1      36.980  33.922  31.098  1.00  0.00    -0.034 A 
ATOM     11  C   UNL A   1      37.264  33.813  29.730  1.00  0.00     0.005 A 
ATOM     12  C   UNL A   1      38.033  34.297  31.950  1.00  0.00     0.005 A 
ATOM     13  C   UNL A   1      38.555  34.083  29.241  1.00  0.00     0.012 A 
ATOM     14  C   UNL A   1      39.313  34.578  31.462  1.00  0.00     0.012 A 
ATOM     15  C   UNL A   1      39.595  34.475  30.098  1.00  0.00     0.023 A 
BRANCH  15  16
ATOM     16  C   UNL A   1      40.920  34.863  29.498  1.00  0.00     0.202 C 
ATOM     17  O   UNL A   1      40.885  35.572  28.492  1.00  0.00    -0.288 OA
BRANCH  16  18
ATOM     18  C   UNL A   1      42.156  34.479  30.164  1.00  0.00     0.075 A 
ATOM     19  C   UNL A   1      43.060  35.233  30.889  1.00  0.00     0.024 A 
ATOM     20  S   UNL A   1      42.650  32.837  30.080  1.00  0.00    -0.140 S 
ATOM     21  C   UNL A   1      44.215  34.488  31.263  1.00  0.00     0.012 A 
ATOM     22  C   UNL A   1      44.116  33.166  30.894  1.00  0.00     0.065 A 
ENDBRANCH  16  18
ENDBRANCH  15  16
ENDBRANCH   8  10
ENDBRANCH   6   8
ENDBRANCH   5   6
ENDBRANCH   4   5
ENDBRANCH   3   4
ENDBRANCH   2   3
ENDBRANCH   1   2
BRANCH   1  23
ATOM     23  C   UNL A   1      33.092  35.711  28.980  1.00  0.00     0.188 C 
BRANCH  23  24
ATOM     24  O   UNL A   1      32.896  34.408  28.456  1.00  0.00    -0.376 OA
BRANCH  24  25
ATOM     25  C   UNL A   1      34.070  33.708  28.070  1.00  0.00     0.202 C 
BRANCH  25  26
ATOM     26  C   UNL A   1      33.896  32.183  28.032  1.00  0.00     0.261 C 
BRANCH  26  27
ATOM     27  O   UNL A   1      35.036  31.461  27.532  1.00  0.00    -0.460 OA
BRANCH  27  28
ATOM     28  C   UNL A   1      35.144  30.163  27.909  1.00  0.00     0.338 C 
ATOM     29  O   UNL A   1      34.457  29.233  27.533  1.00  0.00    -0.246 OA
BRANCH  28  30
ATOM     30  C   UNL A   1      36.399  30.028  28.680  1.00  0.00     0.060 A 
ATOM     31  C   UNL A   1      37.579  30.565  28.149  1.00  0.00     0.016 A 
ATOM     32  C   UNL A   1      36.405  29.396  29.925  1.00  0.00     0.016 A 
ATOM     33  C   UNL A   1      38.775  30.457  28.861  1.00  0.00     0.010 A 
ATOM     34  C   UNL A   1      37.608  29.267  30.624  1.00  0.00     0.010 A 
ATOM     35  C   UNL A   1      38.801  29.779  30.086  1.00  0.00    -0.014 A 
BRANCH  35  36
ATOM     36  C   UNL A   1      40.104  29.442  30.711  1.00  0.00     0.031 A 
ATOM     37  C   UNL A   1      40.915  28.329  30.106  1.00  0.00     0.074 A 
ATOM     38  C   UNL A   1      40.564  30.112  31.782  1.00  0.00     0.049 A 
ATOM     39  N   UNL A   1      42.050  27.818  30.502  1.00  0.00    -0.248 NA
ATOM     40  C   UNL A   1      40.364  27.707  28.890  1.00  0.00     0.031 C 
ATOM     41  C   UNL A   1      39.889  31.234  32.431  1.00  0.00     0.029 A 
ATOM     42  N   UNL A   1      41.713  29.939  32.514  1.00  0.00    -0.354 N 
ATOM     43  C   UNL A   1      42.348  26.811  29.592  1.00  0.00     0.074 A 
ATOM     44  C   UNL A   1      41.265  26.772  28.633  1.00  0.00     0.031 C 
ATOM     45  C   UNL A   1      40.642  31.651  33.466  1.00  0.00     0.029 A 
ATOM     46  C   UNL A   1      41.835  30.812  33.570  1.00  0.00     0.049 A 
ATOM     47  H   UNL A   1      42.386  29.252  32.304  1.00  0.00     0.167 HD
ATOM     48  C   UNL A   1      43.424  25.991  29.561  1.00  0.00     0.037 A 
ATOM     49  C   UNL A   1      42.795  30.907  34.514  1.00  0.00     0.037 A 
ATOM     50  C   UNL A   1      44.494  26.025  30.521  1.00  0.00     0.049 A 
ATOM     51  C   UNL A   1      43.958  29.944  34.485  1.00  0.00     0.074 A 
ATOM     52  C   UNL A   1      45.616  25.219  30.586  1.00  0.00     0.029 A 
ATOM     53  N   UNL A   1      44.573  26.910  31.586  1.00  0.00    -0.354 N 
ATOM     54  N   UNL A   1      44.228  28.995  33.620  1.00  0.00    -0.248 NA
ATOM     55  C   UNL A   1      44.942  30.056  35.573  1.00  0.00     0.031 C 
ATOM     56  C   UNL A   1      46.353  25.587  31.717  1.00  0.00     0.029 A 
ATOM     57  C   UNL A   1      45.713  26.654  32.328  1.00  0.00     0.049 A 
ATOM     58  H   UNL A   1      43.916  27.615  31.785  1.00  0.00     0.167 HD
ATOM     59  C   UNL A   1      45.420  28.418  34.045  1.00  0.00     0.074 A 
ATOM     60  C   UNL A   1      45.832  29.134  35.233  1.00  0.00     0.031 C 
ATOM     61  C   UNL A   1      46.111  27.384  33.504  1.00  0.00     0.037 A 
BRANCH  48  62
ATOM     62  C   UNL A   1      43.464  24.954  28.476  1.00  0.00     0.058 A 
ATOM     63  C   UNL A   1      42.984  23.651  28.678  1.00  0.00     0.135 A 
ATOM     64  C   UNL A   1      43.986  25.274  27.212  1.00  0.00     0.135 A 
ATOM     65  F   UNL A   1      42.500  23.287  29.876  1.00  0.00    -0.206 F 
ATOM     66  C   UNL A   1      43.043  22.692  27.672  1.00  0.00     0.059 A 
ATOM     67  C   UNL A   1      44.032  24.340  26.184  1.00  0.00     0.059 A 
ATOM     68  F   UNL A   1      44.464  26.506  26.970  1.00  0.00    -0.206 F 
ATOM     69  C   UNL A   1      43.572  23.046  26.428  1.00  0.00     0.060 A 
BRANCH  69  70
ATOM     70  S   UNL A   1      43.650  21.792  25.133  1.00  0.00     0.124 S 
ATOM     71  O   UNL A   1      42.547  20.914  25.513  1.00  0.00    -0.237 OA
ATOM     72  O   UNL A   1      43.444  22.578  23.921  1.00  0.00    -0.237 OA
ATOM     73  O   UNL A   1      44.986  21.224  25.289  1.00  0.00    -0.744 OA
ENDBRANCH  69  70
ENDBRANCH  48  62
BRANCH  49  74
ATOM     74  C   UNL A   1      42.707  31.942  35.581  1.00  0.00     0.058 A 
ATOM     75  C   UNL A   1      43.360  33.177  35.444  1.00  0.00     0.135 A 
ATOM     76  C   UNL A   1      41.994  31.716  36.769  1.00  0.00     0.135 A 
ATOM     77  F   UNL A   1      44.077  33.440  34.341  1.00  0.00    -0.206 F 
ATOM     78  C   UNL A   1      43.310  34.145  36.441  1.00  0.00     0.059 A 
ATOM     79  C   UNL A   1      41.895  32.685  37.763  1.00  0.00     0.059 A 
ATOM     80  F   UNL A   1      41.361  30.549  36.961  1.00  0.00    -0.206 F 
ATOM     81  C   UNL A   1      42.557  33.899  37.588  1.00  0.00     0.060 A 
BRANCH  81  82
ATOM     82  S   UNL A   1      42.389  35.219  38.807  1.00  0.00     0.124 S 
ATOM     83  O   UNL A   1      43.745  35.316  39.332  1.00  0.00    -0.237 OA
ATOM     84  O   UNL A   1      41.942  36.335  37.977  1.00  0.00    -0.237 OA
ATOM     85  O   UNL A   1      41.387  34.699  39.731  1.00  0.00    -0.744 OA
ENDBRANCH  81  82
ENDBRANCH  49  74
BRANCH  61  86
ATOM     86  C   UNL A   1      47.393  26.974  34.179  1.00  0.00     0.058 A 
ATOM     87  C   UNL A   1      47.416  25.996  35.184  1.00  0.00     0.135 A 
ATOM     88  C   UNL A   1      48.619  27.526  33.772  1.00  0.00     0.135 A 
ATOM     89  F   UNL A   1      46.271  25.442  35.614  1.00  0.00    -0.206 F 
ATOM     90  C   UNL A   1      48.608  25.590  35.776  1.00  0.00     0.059 A 
ATOM     91  C   UNL A   1      49.826  27.117  34.332  1.00  0.00     0.059 A 
ATOM     92  F   UNL A   1      48.655  28.458  32.806  1.00  0.00    -0.206 F 
ATOM     93  C   UNL A   1      49.809  26.155  35.342  1.00  0.00     0.060 A 
BRANCH  93  94
ATOM     94  S   UNL A   1      51.353  25.589  36.088  1.00  0.00     0.124 S 
ATOM     95  O   UNL A   1      52.167  26.799  36.032  1.00  0.00    -0.237 OA
ATOM     96  O   UNL A   1      50.924  25.174  37.420  1.00  0.00    -0.237 OA
ATOM     97  O   UNL A   1      51.779  24.506  35.207  1.00  0.00    -0.744 OA
ENDBRANCH  93  94
ENDBRANCH  61  86
ENDBRANCH  35  36
ENDBRANCH  28  30
ENDBRANCH  27  28
ENDBRANCH  26  27
ENDBRANCH  25  26
ENDBRANCH  24  25
ENDBRANCH  23  24
ENDBRANCH   1  23
TORSDOF 23
ENDMDL
