MODEL 1
REMARK VINA RESULT:     -10.4      0.000      0.000
REMARK SMILES C=C1c2ccccc2C(=O)N1[C@](C)(C(=O)OCCOCCOCCOC(=O)c1ccc(-c2c3nc(c(-c4c(F)cc(S(=O)(=O)[O-])cc4F)c4ccc([nH]4)c(-c4c(F)cc(S(=O)(=O)[O-])cc4F)c4nc(c(-c5c(F)cc(S(=O)(=O)[O-])cc5F)c5ccc2[nH]5)C=C4)C=C3)cc1)C(F)(F)F
REMARK SMILES IDX 21 1 20 2 19 3 18 4 17 5 16 6 14 7 15 8 12 9 13 10 11 11
REMARK SMILES IDX 1 12 2 13 3 14 4 15 8 16 9 17 5 18 7 19 10 20 6 21 94 22
REMARK SMILES IDX 95 23 96 24 97 25 22 26 23 27 24 28 25 29 26 30 27 31 28 32
REMARK SMILES IDX 29 33 93 34 30 35 92 36 31 37 32 38 33 39 86 40 34 41 91 42
REMARK SMILES IDX 85 43 87 44 35 45 90 46 84 47 83 48 36 50 70 51 49 52 69 53
REMARK SMILES IDX 50 54 53 55 68 56 88 57 51 58 52 59 67 61 89 62 54 63 37 64
REMARK SMILES IDX 38 65 47 66 39 67 40 68 46 69 48 70 41 71 42 72 43 73 44 74
REMARK SMILES IDX 45 75 71 76 72 77 81 78 73 79 74 80 80 81 82 82 75 83 76 84
REMARK SMILES IDX 77 85 78 86 79 87 55 88 56 89 65 90 57 91 58 92 64 93 66 94
REMARK SMILES IDX 59 95 60 96 61 97 62 98 63 99
REMARK H PARENT 87 49 53 60
REMARK Flexibility Score: inf
ROOT
ATOM      1  C   UNL A   1      34.368  23.201  23.099  1.00  0.00     0.188 C 
ENDROOT
BRANCH   1   2
ATOM      2  C   UNL A   1      33.706  22.078  23.914  1.00  0.00     0.188 C 
BRANCH   2   3
ATOM      3  O   UNL A   1      32.290  21.962  23.877  1.00  0.00    -0.376 OA
BRANCH   3   4
ATOM      4  C   UNL A   1      31.507  22.850  24.668  1.00  0.00     0.202 C 
BRANCH   4   5
ATOM      5  C   UNL A   1      30.858  24.084  24.019  1.00  0.00     0.261 C 
BRANCH   5   6
ATOM      6  O   UNL A   1      31.738  25.213  23.837  1.00  0.00    -0.461 OA
BRANCH   6   7
ATOM      7  C   UNL A   1      31.470  26.327  24.569  1.00  0.00     0.341 C 
ATOM      8  O   UNL A   1      30.526  26.391  25.353  1.00  0.00    -0.249 OA
BRANCH   7   9
ATOM      9  C   UNL A   1      32.384  27.539  24.265  1.00  0.00     0.238 C 
ATOM     10  C   UNL A   1      33.375  27.463  23.077  1.00  0.00     0.058 C 
BRANCH   9  11
ATOM     11  N   UNL A   1      31.392  28.591  23.950  1.00  0.00    -0.283 N 
ATOM     12  C   UNL A   1      31.633  30.356  25.659  1.00  0.00     0.038 C 
ATOM     13  C   UNL A   1      31.064  29.767  24.606  1.00  0.00     0.046 C 
ATOM     14  C   UNL A   1      29.911  30.331  23.894  1.00  0.00     0.010 A 
ATOM     15  C   UNL A   1      29.112  31.436  24.122  1.00  0.00     0.011 A 
ATOM     16  C   UNL A   1      29.627  29.503  22.813  1.00  0.00     0.049 A 
ATOM     17  C   UNL A   1      30.573  28.397  22.829  1.00  0.00     0.260 C 
ATOM     18  C   UNL A   1      28.041  31.676  23.248  1.00  0.00     0.001 A 
ATOM     19  C   UNL A   1      28.584  29.710  21.931  1.00  0.00     0.014 A 
ATOM     20  O   UNL A   1      30.581  27.499  22.014  1.00  0.00    -0.269 OA
ATOM     21  C   UNL A   1      27.780  30.821  22.161  1.00  0.00     0.001 A 
ENDBRANCH   9  11
BRANCH   9  22
ATOM     22  C   UNL A   1      33.232  27.625  25.542  1.00  0.00     0.422 C 
ATOM     23  F   UNL A   1      33.956  26.489  25.728  1.00  0.00    -0.168 F 
ATOM     24  F   UNL A   1      34.151  28.622  25.450  1.00  0.00    -0.168 F 
ATOM     25  F   UNL A   1      32.535  27.823  26.678  1.00  0.00    -0.168 F 
ENDBRANCH   9  22
ENDBRANCH   7   9
ENDBRANCH   6   7
ENDBRANCH   5   6
ENDBRANCH   4   5
ENDBRANCH   3   4
ENDBRANCH   2   3
ENDBRANCH   1   2
BRANCH   1  26
ATOM     26  O   UNL A   1      35.703  22.980  22.727  1.00  0.00    -0.376 OA
BRANCH  26  27
ATOM     27  C   UNL A   1      36.664  22.691  23.721  1.00  0.00     0.202 C 
BRANCH  27  28
ATOM     28  C   UNL A   1      36.941  23.592  24.943  1.00  0.00     0.261 C 
BRANCH  28  29
ATOM     29  O   UNL A   1      37.384  22.985  26.165  1.00  0.00    -0.460 OA
BRANCH  29  30
ATOM     30  C   UNL A   1      38.721  22.816  26.326  1.00  0.00     0.338 C 
ATOM     31  O   UNL A   1      39.384  21.864  25.956  1.00  0.00    -0.246 OA
BRANCH  30  32
ATOM     32  C   UNL A   1      39.285  24.105  26.808  1.00  0.00     0.060 A 
ATOM     33  C   UNL A   1      39.938  24.949  25.896  1.00  0.00     0.016 A 
ATOM     34  C   UNL A   1      39.151  24.488  28.143  1.00  0.00     0.016 A 
ATOM     35  C   UNL A   1      40.479  26.166  26.322  1.00  0.00     0.010 A 
ATOM     36  C   UNL A   1      39.719  25.692  28.573  1.00  0.00     0.010 A 
ATOM     37  C   UNL A   1      40.412  26.524  27.675  1.00  0.00    -0.014 A 
BRANCH  37  38
ATOM     38  C   UNL A   1      41.229  27.653  28.194  1.00  0.00     0.031 A 
ATOM     39  C   UNL A   1      40.510  28.821  28.816  1.00  0.00     0.074 A 
ATOM     40  C   UNL A   1      42.572  27.656  28.119  1.00  0.00     0.049 A 
ATOM     41  N   UNL A   1      40.986  29.960  29.247  1.00  0.00    -0.248 NA
ATOM     42  C   UNL A   1      39.052  28.682  28.968  1.00  0.00     0.031 C 
ATOM     43  C   UNL A   1      43.396  26.571  27.591  1.00  0.00     0.029 A 
ATOM     44  N   UNL A   1      43.481  28.625  28.474  1.00  0.00    -0.354 N 
ATOM     45  C   UNL A   1      39.889  30.677  29.709  1.00  0.00     0.074 A 
ATOM     46  C   UNL A   1      38.720  29.857  29.481  1.00  0.00     0.031 C 
ATOM     47  C   UNL A   1      44.688  26.942  27.637  1.00  0.00     0.029 A 
ATOM     48  C   UNL A   1      44.781  28.306  28.160  1.00  0.00     0.049 A 
ATOM     49  H   UNL A   1      43.225  29.469  28.912  1.00  0.00     0.167 HD
ATOM     50  C   UNL A   1      39.857  31.906  30.276  1.00  0.00     0.037 A 
ATOM     51  C   UNL A   1      45.910  29.040  28.256  1.00  0.00     0.037 A 
ATOM     52  C   UNL A   1      41.021  32.726  30.495  1.00  0.00     0.049 A 
ATOM     53  C   UNL A   1      45.840  30.444  28.809  1.00  0.00     0.074 A 
ATOM     54  C   UNL A   1      41.092  33.981  31.074  1.00  0.00     0.029 A 
ATOM     55  N   UNL A   1      42.316  32.378  30.136  1.00  0.00    -0.354 N 
ATOM     56  N   UNL A   1      44.800  31.106  29.258  1.00  0.00    -0.248 NA
ATOM     57  C   UNL A   1      47.099  31.201  28.866  1.00  0.00     0.031 C 
ATOM     58  C   UNL A   1      42.418  34.419  31.008  1.00  0.00     0.029 A 
ATOM     59  C   UNL A   1      43.187  33.409  30.453  1.00  0.00     0.049 A 
ATOM     60  H   UNL A   1      42.577  31.526  29.718  1.00  0.00     0.167 HD
ATOM     61  C   UNL A   1      45.286  32.341  29.683  1.00  0.00     0.074 A 
ATOM     62  C   UNL A   1      46.714  32.331  29.445  1.00  0.00     0.031 C 
ATOM     63  C   UNL A   1      44.611  33.387  30.223  1.00  0.00     0.037 A 
BRANCH  50  64
ATOM     64  C   UNL A   1      38.514  32.458  30.670  1.00  0.00     0.058 A 
ATOM     65  C   UNL A   1      37.747  33.243  29.793  1.00  0.00     0.135 A 
ATOM     66  C   UNL A   1      37.971  32.170  31.933  1.00  0.00     0.135 A 
ATOM     67  F   UNL A   1      38.226  33.566  28.581  1.00  0.00    -0.206 F 
ATOM     68  C   UNL A   1      36.504  33.744  30.164  1.00  0.00     0.059 A 
ATOM     69  C   UNL A   1      36.716  32.634  32.313  1.00  0.00     0.059 A 
ATOM     70  F   UNL A   1      38.661  31.427  32.812  1.00  0.00    -0.206 F 
ATOM     71  C   UNL A   1      35.996  33.432  31.426  1.00  0.00     0.060 A 
BRANCH  71  72
ATOM     72  S   UNL A   1      34.378  34.085  31.887  1.00  0.00     0.124 S 
ATOM     73  O   UNL A   1      34.742  35.352  32.514  1.00  0.00    -0.237 OA
ATOM     74  O   UNL A   1      33.705  34.187  30.597  1.00  0.00    -0.237 OA
ATOM     75  O   UNL A   1      33.845  33.070  32.792  1.00  0.00    -0.744 OA
ENDBRANCH  71  72
ENDBRANCH  50  64
BRANCH  51  76
ATOM     76  C   UNL A   1      47.212  28.476  27.800  1.00  0.00     0.058 A 
ATOM     77  C   UNL A   1      48.070  27.814  28.690  1.00  0.00     0.135 A 
ATOM     78  C   UNL A   1      47.636  28.609  26.467  1.00  0.00     0.135 A 
ATOM     79  F   UNL A   1      47.722  27.677  29.980  1.00  0.00    -0.206 F 
ATOM     80  C   UNL A   1      49.306  27.318  28.284  1.00  0.00     0.059 A 
ATOM     81  C   UNL A   1      48.853  28.094  26.029  1.00  0.00     0.059 A 
ATOM     82  F   UNL A   1      46.855  29.232  25.571  1.00  0.00    -0.206 F 
ATOM     83  C   UNL A   1      49.686  27.459  26.950  1.00  0.00     0.060 A 
BRANCH  83  84
ATOM     84  S   UNL A   1      51.272  26.772  26.425  1.00  0.00     0.124 S 
ATOM     85  O   UNL A   1      52.211  27.743  26.975  1.00  0.00    -0.237 OA
ATOM     86  O   UNL A   1      51.263  25.460  27.067  1.00  0.00    -0.237 OA
ATOM     87  O   UNL A   1      51.167  26.751  24.970  1.00  0.00    -0.744 OA
ENDBRANCH  83  84
ENDBRANCH  51  76
BRANCH  63  88
ATOM     88  C   UNL A   1      45.405  34.599  30.642  1.00  0.00     0.058 A 
ATOM     89  C   UNL A   1      45.616  35.685  29.779  1.00  0.00     0.135 A 
ATOM     90  C   UNL A   1      45.910  34.697  31.950  1.00  0.00     0.135 A 
ATOM     91  F   UNL A   1      45.159  35.645  28.517  1.00  0.00    -0.206 F 
ATOM     92  C   UNL A   1      46.320  36.815  30.189  1.00  0.00     0.059 A 
ATOM     93  C   UNL A   1      46.589  35.830  32.391  1.00  0.00     0.059 A 
ATOM     94  F   UNL A   1      45.729  33.694  32.823  1.00  0.00    -0.206 F 
ATOM     95  C   UNL A   1      46.800  36.879  31.499  1.00  0.00     0.060 A 
BRANCH  95  96
ATOM     96  S   UNL A   1      47.680  38.364  32.027  1.00  0.00     0.124 S 
ATOM     97  O   UNL A   1      47.196  39.351  31.067  1.00  0.00    -0.237 OA
ATOM     98  O   UNL A   1      47.212  38.533  33.399  1.00  0.00    -0.237 OA
ATOM     99  O   UNL A   1      49.086  37.995  31.891  1.00  0.00    -0.744 OA
ENDBRANCH  95  96
ENDBRANCH  63  88
ENDBRANCH  37  38
ENDBRANCH  30  32
ENDBRANCH  29  30
ENDBRANCH  28  29
ENDBRANCH  27  28
ENDBRANCH  26  27
ENDBRANCH   1  26
TORSDOF 22
ENDMDL
MODEL 2
REMARK VINA RESULT:     -10.3      0.702      8.035
REMARK SMILES C=C1c2ccccc2C(=O)N1[C@](C)(C(=O)OCCOCCOCCOC(=O)c1ccc(-c2c3nc(c(-c4c(F)cc(S(=O)(=O)[O-])cc4F)c4ccc([nH]4)c(-c4c(F)cc(S(=O)(=O)[O-])cc4F)c4nc(c(-c5c(F)cc(S(=O)(=O)[O-])cc5F)c5ccc2[nH]5)C=C4)C=C3)cc1)C(F)(F)F
REMARK SMILES IDX 21 1 20 2 19 3 18 4 17 5 16 6 14 7 15 8 12 9 13 10 11 11
REMARK SMILES IDX 1 12 2 13 3 14 4 15 8 16 9 17 5 18 7 19 10 20 6 21 94 22
REMARK SMILES IDX 95 23 96 24 97 25 22 26 23 27 24 28 25 29 26 30 27 31 28 32
REMARK SMILES IDX 29 33 93 34 30 35 92 36 31 37 32 38 33 39 86 40 34 41 91 42
REMARK SMILES IDX 85 43 87 44 35 45 90 46 84 47 83 48 36 50 70 51 49 52 69 53
REMARK SMILES IDX 50 54 53 55 68 56 88 57 51 58 52 59 67 61 89 62 54 63 37 64
REMARK SMILES IDX 38 65 47 66 39 67 40 68 46 69 48 70 41 71 42 72 43 73 44 74
REMARK SMILES IDX 45 75 71 76 72 77 81 78 73 79 74 80 80 81 82 82 75 83 76 84
REMARK SMILES IDX 77 85 78 86 79 87 55 88 56 89 65 90 57 91 58 92 64 93 66 94
REMARK SMILES IDX 59 95 60 96 61 97 62 98 63 99
REMARK H PARENT 87 49 53 60
REMARK Flexibility Score: inf
ROOT
ATOM      1  C   UNL A   1      34.507  22.273  24.110  1.00  0.00     0.188 C 
ENDROOT
BRANCH   1   2
ATOM      2  C   UNL A   1      33.325  21.597  24.823  1.00  0.00     0.188 C 
BRANCH   2   3
ATOM      3  O   UNL A   1      32.015  21.823  24.321  1.00  0.00    -0.376 OA
BRANCH   3   4
ATOM      4  C   UNL A   1      31.278  22.941  24.804  1.00  0.00     0.202 C 
BRANCH   4   5
ATOM      5  C   UNL A   1      30.849  24.053  23.832  1.00  0.00     0.261 C 
BRANCH   5   6
ATOM      6  O   UNL A   1      31.763  25.165  23.735  1.00  0.00    -0.461 OA
BRANCH   6   7
ATOM      7  C   UNL A   1      31.479  26.263  24.486  1.00  0.00     0.341 C 
ATOM      8  O   UNL A   1      30.513  26.312  25.245  1.00  0.00    -0.249 OA
BRANCH   7   9
ATOM      9  C   UNL A   1      32.406  27.477  24.238  1.00  0.00     0.238 C 
ATOM     10  C   UNL A   1      33.422  27.430  23.070  1.00  0.00     0.058 C 
BRANCH   9  11
ATOM     11  N   UNL A   1      31.428  28.544  23.933  1.00  0.00    -0.283 N 
ATOM     12  C   UNL A   1      31.654  30.264  25.689  1.00  0.00     0.038 C 
ATOM     13  C   UNL A   1      31.099  29.707  24.612  1.00  0.00     0.046 C 
ATOM     14  C   UNL A   1      29.961  30.298  23.897  1.00  0.00     0.010 A 
ATOM     15  C   UNL A   1      29.167  31.403  24.139  1.00  0.00     0.011 A 
ATOM     16  C   UNL A   1      29.688  29.499  22.791  1.00  0.00     0.049 A 
ATOM     17  C   UNL A   1      30.625  28.385  22.794  1.00  0.00     0.260 C 
ATOM     18  C   UNL A   1      28.113  31.673  23.254  1.00  0.00     0.001 A 
ATOM     19  C   UNL A   1      28.662  29.736  21.898  1.00  0.00     0.014 A 
ATOM     20  O   UNL A   1      30.640  27.507  21.958  1.00  0.00    -0.269 OA
ATOM     21  C   UNL A   1      27.863  30.847  22.142  1.00  0.00     0.001 A 
ENDBRANCH   9  11
BRANCH   9  22
ATOM     22  C   UNL A   1      33.227  27.520  25.535  1.00  0.00     0.422 C 
ATOM     23  F   UNL A   1      32.417  27.609  26.625  1.00  0.00    -0.168 F 
ATOM     24  F   UNL A   1      33.928  26.368  25.707  1.00  0.00    -0.168 F 
ATOM     25  F   UNL A   1      34.101  28.541  25.625  1.00  0.00    -0.168 F 
ENDBRANCH   9  22
ENDBRANCH   7   9
ENDBRANCH   6   7
ENDBRANCH   5   6
ENDBRANCH   4   5
ENDBRANCH   3   4
ENDBRANCH   2   3
ENDBRANCH   1   2
BRANCH   1  26
ATOM     26  O   UNL A   1      35.711  22.316  24.829  1.00  0.00    -0.376 OA
BRANCH  26  27
ATOM     27  C   UNL A   1      36.573  21.197  24.809  1.00  0.00     0.202 C 
BRANCH  27  28
ATOM     28  C   UNL A   1      38.006  21.199  25.381  1.00  0.00     0.261 C 
BRANCH  28  29
ATOM     29  O   UNL A   1      38.516  22.403  25.971  1.00  0.00    -0.460 OA
BRANCH  29  30
ATOM     30  C   UNL A   1      39.650  22.302  26.708  1.00  0.00     0.338 C 
ATOM     31  O   UNL A   1      40.383  21.332  26.787  1.00  0.00    -0.246 OA
BRANCH  30  32
ATOM     32  C   UNL A   1      39.987  23.661  27.208  1.00  0.00     0.060 A 
ATOM     33  C   UNL A   1      39.375  24.778  26.618  1.00  0.00     0.016 A 
ATOM     34  C   UNL A   1      40.883  23.831  28.264  1.00  0.00     0.016 A 
ATOM     35  C   UNL A   1      39.673  26.067  27.067  1.00  0.00     0.010 A 
ATOM     36  C   UNL A   1      41.203  25.125  28.693  1.00  0.00     0.010 A 
ATOM     37  C   UNL A   1      40.625  26.251  28.079  1.00  0.00    -0.014 A 
BRANCH  37  38
ATOM     38  C   UNL A   1      41.170  27.606  28.360  1.00  0.00     0.031 A 
ATOM     39  C   UNL A   1      42.645  27.833  28.159  1.00  0.00     0.074 A 
ATOM     40  C   UNL A   1      40.388  28.615  28.786  1.00  0.00     0.049 A 
ATOM     41  N   UNL A   1      43.371  28.887  28.429  1.00  0.00    -0.248 NA
ATOM     42  C   UNL A   1      43.403  26.713  27.576  1.00  0.00     0.031 C 
ATOM     43  C   UNL A   1      38.940  28.549  28.970  1.00  0.00     0.029 A 
ATOM     44  N   UNL A   1      40.716  29.898  29.160  1.00  0.00    -0.354 N 
ATOM     45  C   UNL A   1      44.669  28.554  28.062  1.00  0.00     0.074 A 
ATOM     46  C   UNL A   1      44.637  27.192  27.576  1.00  0.00     0.031 C 
ATOM     47  C   UNL A   1      38.506  29.731  29.443  1.00  0.00     0.029 A 
ATOM     48  C   UNL A   1      39.650  30.625  29.633  1.00  0.00     0.049 A 
ATOM     49  H   UNL A   1      41.629  30.260  29.096  1.00  0.00     0.167 HD
ATOM     50  C   UNL A   1      45.788  29.315  28.120  1.00  0.00     0.037 A 
ATOM     51  C   UNL A   1      39.606  31.857  30.183  1.00  0.00     0.037 A 
ATOM     52  C   UNL A   1      45.821  30.668  28.612  1.00  0.00     0.049 A 
ATOM     53  C   UNL A   1      40.882  32.656  30.321  1.00  0.00     0.074 A 
ATOM     54  C   UNL A   1      46.904  31.524  28.700  1.00  0.00     0.029 A 
ATOM     55  N   UNL A   1      44.725  31.359  29.110  1.00  0.00    -0.354 N 
ATOM     56  N   UNL A   1      42.101  32.339  29.955  1.00  0.00    -0.248 NA
ATOM     57  C   UNL A   1      40.773  33.982  30.949  1.00  0.00     0.031 C 
ATOM     58  C   UNL A   1      46.477  32.709  29.307  1.00  0.00     0.029 A 
ATOM     59  C   UNL A   1      45.114  32.619  29.535  1.00  0.00     0.049 A 
ATOM     60  H   UNL A   1      43.807  31.005  29.155  1.00  0.00     0.167 HD
ATOM     61  C   UNL A   1      42.896  33.438  30.276  1.00  0.00     0.074 A 
ATOM     62  C   UNL A   1      42.017  34.431  30.857  1.00  0.00     0.031 C 
ATOM     63  C   UNL A   1      44.230  33.608  30.103  1.00  0.00     0.037 A 
BRANCH  50  64
ATOM     64  C   UNL A   1      47.081  28.689  27.672  1.00  0.00     0.058 A 
ATOM     65  C   UNL A   1      47.953  28.059  28.574  1.00  0.00     0.135 A 
ATOM     66  C   UNL A   1      47.437  28.692  26.313  1.00  0.00     0.135 A 
ATOM     67  F   UNL A   1      47.673  28.043  29.887  1.00  0.00    -0.206 F 
ATOM     68  C   UNL A   1      49.144  27.479  28.148  1.00  0.00     0.059 A 
ATOM     69  C   UNL A   1      48.606  28.091  25.861  1.00  0.00     0.059 A 
ATOM     70  F   UNL A   1      46.642  29.284  25.407  1.00  0.00    -0.206 F 
ATOM     71  C   UNL A   1      49.461  27.498  26.789  1.00  0.00     0.060 A 
BRANCH  71  72
ATOM     72  S   UNL A   1      51.006  26.733  26.255  1.00  0.00     0.124 S 
ATOM     73  O   UNL A   1      51.281  25.826  27.365  1.00  0.00    -0.237 OA
ATOM     74  O   UNL A   1      50.621  26.099  24.999  1.00  0.00    -0.237 OA
ATOM     75  O   UNL A   1      51.921  27.864  26.130  1.00  0.00    -0.744 OA
ENDBRANCH  71  72
ENDBRANCH  50  64
BRANCH  51  76
ATOM     76  C   UNL A   1      38.313  32.416  30.668  1.00  0.00     0.058 A 
ATOM     77  C   UNL A   1      37.869  32.190  31.980  1.00  0.00     0.135 A 
ATOM     78  C   UNL A   1      37.481  33.168  29.821  1.00  0.00     0.135 A 
ATOM     79  F   UNL A   1      38.616  31.461  32.824  1.00  0.00    -0.206 F 
ATOM     80  C   UNL A   1      36.645  32.674  32.432  1.00  0.00     0.059 A 
ATOM     81  C   UNL A   1      36.267  33.689  30.260  1.00  0.00     0.059 A 
ATOM     82  F   UNL A   1      37.856  33.416  28.557  1.00  0.00    -0.206 F 
ATOM     83  C   UNL A   1      35.852  33.427  31.565  1.00  0.00     0.060 A 
BRANCH  83  84
ATOM     84  S   UNL A   1      34.286  34.086  32.177  1.00  0.00     0.124 S 
ATOM     85  O   UNL A   1      34.739  35.178  33.031  1.00  0.00    -0.237 OA
ATOM     86  O   UNL A   1      33.617  34.480  30.939  1.00  0.00    -0.237 OA
ATOM     87  O   UNL A   1      33.689  32.950  32.870  1.00  0.00    -0.744 OA
ENDBRANCH  83  84
ENDBRANCH  51  76
BRANCH  63  88
ATOM     88  C   UNL A   1      44.829  34.934  30.501  1.00  0.00     0.058 A 
ATOM     89  C   UNL A   1      44.867  36.027  29.622  1.00  0.00     0.135 A 
ATOM     90  C   UNL A   1      45.318  35.128  31.804  1.00  0.00     0.135 A 
ATOM     91  F   UNL A   1      44.418  35.900  28.364  1.00  0.00    -0.206 F 
ATOM     92  C   UNL A   1      45.389  37.258  30.012  1.00  0.00     0.059 A 
ATOM     93  C   UNL A   1      45.815  36.358  32.227  1.00  0.00     0.059 A 
ATOM     94  F   UNL A   1      45.296  34.122  32.693  1.00  0.00    -0.206 F 
ATOM     95  C   UNL A   1      45.858  37.414  31.319  1.00  0.00     0.060 A 
BRANCH  95  96
ATOM     96  S   UNL A   1      46.500  39.025  31.821  1.00  0.00     0.124 S 
ATOM     97  O   UNL A   1      45.283  39.829  31.861  1.00  0.00    -0.237 OA
ATOM     98  O   UNL A   1      47.107  38.730  33.116  1.00  0.00    -0.237 OA
ATOM     99  O   UNL A   1      47.442  39.365  30.758  1.00  0.00    -0.744 OA
ENDBRANCH  95  96
ENDBRANCH  63  88
ENDBRANCH  37  38
ENDBRANCH  30  32
ENDBRANCH  29  30
ENDBRANCH  28  29
ENDBRANCH  27  28
ENDBRANCH  26  27
ENDBRANCH   1  26
TORSDOF 22
ENDMDL
MODEL 3
REMARK VINA RESULT:     -10.3      3.267      9.005
REMARK SMILES C=C1c2ccccc2C(=O)N1[C@](C)(C(=O)OCCOCCOCCOC(=O)c1ccc(-c2c3nc(c(-c4c(F)cc(S(=O)(=O)[O-])cc4F)c4ccc([nH]4)c(-c4c(F)cc(S(=O)(=O)[O-])cc4F)c4nc(c(-c5c(F)cc(S(=O)(=O)[O-])cc5F)c5ccc2[nH]5)C=C4)C=C3)cc1)C(F)(F)F
REMARK SMILES IDX 21 1 20 2 19 3 18 4 17 5 16 6 14 7 15 8 12 9 13 10 11 11
REMARK SMILES IDX 1 12 2 13 3 14 4 15 8 16 9 17 5 18 7 19 10 20 6 21 94 22
REMARK SMILES IDX 95 23 96 24 97 25 22 26 23 27 24 28 25 29 26 30 27 31 28 32
REMARK SMILES IDX 29 33 93 34 30 35 92 36 31 37 32 38 33 39 86 40 34 41 91 42
REMARK SMILES IDX 85 43 87 44 35 45 90 46 84 47 83 48 36 50 70 51 49 52 69 53
REMARK SMILES IDX 50 54 53 55 68 56 88 57 51 58 52 59 67 61 89 62 54 63 37 64
REMARK SMILES IDX 38 65 47 66 39 67 40 68 46 69 48 70 41 71 42 72 43 73 44 74
REMARK SMILES IDX 45 75 71 76 72 77 81 78 73 79 74 80 80 81 82 82 75 83 76 84
REMARK SMILES IDX 77 85 78 86 79 87 55 88 56 89 65 90 57 91 58 92 64 93 66 94
REMARK SMILES IDX 59 95 60 96 61 97 62 98 63 99
REMARK H PARENT 87 49 53 60
REMARK Flexibility Score: inf
ROOT
ATOM      1  C   UNL A   1      35.250  32.379  27.924  1.00  0.00     0.188 C 
ENDROOT
BRANCH   1   2
ATOM      2  C   UNL A   1      35.293  30.844  27.999  1.00  0.00     0.188 C 
BRANCH   2   3
ATOM      3  O   UNL A   1      34.134  30.116  27.618  1.00  0.00    -0.376 OA
BRANCH   3   4
ATOM      4  C   UNL A   1      34.294  28.844  27.000  1.00  0.00     0.202 C 
BRANCH   4   5
ATOM      5  C   UNL A   1      33.913  28.658  25.521  1.00  0.00     0.261 C 
BRANCH   5   6
ATOM      6  O   UNL A   1      33.754  27.288  25.099  1.00  0.00    -0.461 OA
BRANCH   6   7
ATOM      7  C   UNL A   1      32.852  27.049  24.109  1.00  0.00     0.341 C 
ATOM      8  O   UNL A   1      32.654  27.842  23.192  1.00  0.00    -0.249 OA
BRANCH   7   9
ATOM      9  C   UNL A   1      32.028  25.751  24.282  1.00  0.00     0.238 C 
ATOM     10  C   UNL A   1      31.151  25.247  23.109  1.00  0.00     0.058 C 
BRANCH   9  11
ATOM     11  N   UNL A   1      33.092  24.747  24.504  1.00  0.00    -0.283 N 
ATOM     12  C   UNL A   1      32.816  23.888  26.802  1.00  0.00     0.038 C 
ATOM     13  C   UNL A   1      33.430  24.002  25.623  1.00  0.00     0.046 C 
ATOM     14  C   UNL A   1      34.659  23.276  25.282  1.00  0.00     0.010 A 
ATOM     15  C   UNL A   1      35.494  22.446  26.007  1.00  0.00     0.011 A 
ATOM     16  C   UNL A   1      34.980  23.571  23.961  1.00  0.00     0.049 A 
ATOM     17  C   UNL A   1      33.980  24.497  23.448  1.00  0.00     0.260 C 
ATOM     18  C   UNL A   1      36.637  21.933  25.374  1.00  0.00     0.001 A 
ATOM     19  C   UNL A   1      36.093  23.082  23.306  1.00  0.00     0.014 A 
ATOM     20  O   UNL A   1      33.986  24.947  22.323  1.00  0.00    -0.269 OA
ATOM     21  C   UNL A   1      36.933  22.248  24.034  1.00  0.00     0.001 A 
ENDBRANCH   9  11
BRANCH   9  22
ATOM     22  C   UNL A   1      31.068  26.133  25.418  1.00  0.00     0.422 C 
ATOM     23  F   UNL A   1      30.301  27.203  25.073  1.00  0.00    -0.168 F 
ATOM     24  F   UNL A   1      30.187  25.129  25.670  1.00  0.00    -0.168 F 
ATOM     25  F   UNL A   1      31.662  26.450  26.585  1.00  0.00    -0.168 F 
ENDBRANCH   9  22
ENDBRANCH   7   9
ENDBRANCH   6   7
ENDBRANCH   5   6
ENDBRANCH   4   5
ENDBRANCH   3   4
ENDBRANCH   2   3
ENDBRANCH   1   2
BRANCH   1  26
ATOM     26  O   UNL A   1      36.076  33.059  28.831  1.00  0.00    -0.376 OA
BRANCH  26  27
ATOM     27  C   UNL A   1      35.546  33.484  30.069  1.00  0.00     0.202 C 
BRANCH  27  28
ATOM     28  C   UNL A   1      35.492  32.603  31.335  1.00  0.00     0.261 C 
BRANCH  28  29
ATOM     29  O   UNL A   1      36.686  31.937  31.768  1.00  0.00    -0.460 OA
BRANCH  29  30
ATOM     30  C   UNL A   1      36.808  30.620  31.463  1.00  0.00     0.338 C 
ATOM     31  O   UNL A   1      35.909  29.801  31.402  1.00  0.00    -0.246 OA
BRANCH  30  32
ATOM     32  C   UNL A   1      38.192  30.396  30.970  1.00  0.00     0.060 A 
ATOM     33  C   UNL A   1      38.444  30.451  29.590  1.00  0.00     0.016 A 
ATOM     34  C   UNL A   1      39.238  30.157  31.862  1.00  0.00     0.016 A 
ATOM     35  C   UNL A   1      39.736  30.244  29.098  1.00  0.00     0.010 A 
ATOM     36  C   UNL A   1      40.525  29.919  31.365  1.00  0.00     0.010 A 
ATOM     37  C   UNL A   1      40.777  29.931  29.981  1.00  0.00    -0.014 A 
BRANCH  37  38
ATOM     38  C   UNL A   1      42.074  29.420  29.463  1.00  0.00     0.031 A 
ATOM     39  C   UNL A   1      43.229  30.382  29.371  1.00  0.00     0.074 A 
ATOM     40  C   UNL A   1      42.235  28.141  29.077  1.00  0.00     0.049 A 
ATOM     41  N   UNL A   1      44.422  30.207  28.864  1.00  0.00    -0.248 NA
ATOM     42  C   UNL A   1      43.002  31.727  29.927  1.00  0.00     0.031 C 
ATOM     43  C   UNL A   1      41.219  27.095  29.162  1.00  0.00     0.029 A 
ATOM     44  N   UNL A   1      43.320  27.511  28.515  1.00  0.00    -0.354 N 
ATOM     45  C   UNL A   1      45.082  31.419  29.026  1.00  0.00     0.074 A 
ATOM     46  C   UNL A   1      44.150  32.329  29.654  1.00  0.00     0.031 C 
ATOM     47  C   UNL A   1      41.721  25.957  28.650  1.00  0.00     0.029 A 
ATOM     48  C   UNL A   1      43.080  26.203  28.164  1.00  0.00     0.049 A 
ATOM     49  H   UNL A   1      44.188  27.955  28.375  1.00  0.00     0.167 HD
ATOM     50  C   UNL A   1      46.352  31.745  28.688  1.00  0.00     0.037 A 
ATOM     51  C   UNL A   1      43.855  25.319  27.501  1.00  0.00     0.037 A 
ATOM     52  C   UNL A   1      47.277  30.840  28.055  1.00  0.00     0.049 A 
ATOM     53  C   UNL A   1      45.238  25.731  27.052  1.00  0.00     0.074 A 
ATOM     54  C   UNL A   1      48.589  31.074  27.684  1.00  0.00     0.029 A 
ATOM     55  N   UNL A   1      46.986  29.533  27.690  1.00  0.00    -0.354 N 
ATOM     56  N   UNL A   1      45.859  26.874  27.227  1.00  0.00    -0.248 NA
ATOM     57  C   UNL A   1      46.024  24.731  26.315  1.00  0.00     0.031 C 
ATOM     58  C   UNL A   1      49.072  29.931  27.039  1.00  0.00     0.029 A 
ATOM     59  C   UNL A   1      48.084  28.960  27.069  1.00  0.00     0.049 A 
ATOM     60  H   UNL A   1      46.126  29.081  27.848  1.00  0.00     0.167 HD
ATOM     61  C   UNL A   1      47.119  26.717  26.652  1.00  0.00     0.074 A 
ATOM     62  C   UNL A   1      47.175  25.366  26.134  1.00  0.00     0.031 C 
ATOM     63  C   UNL A   1      48.136  27.609  26.565  1.00  0.00     0.037 A 
BRANCH  50  64
ATOM     64  C   UNL A   1      46.808  33.152  28.963  1.00  0.00     0.058 A 
ATOM     65  C   UNL A   1      47.441  33.506  30.166  1.00  0.00     0.135 A 
ATOM     66  C   UNL A   1      46.636  34.156  27.996  1.00  0.00     0.135 A 
ATOM     67  F   UNL A   1      47.613  32.591  31.134  1.00  0.00    -0.206 F 
ATOM     68  C   UNL A   1      47.863  34.809  30.410  1.00  0.00     0.059 A 
ATOM     69  C   UNL A   1      47.079  35.458  28.205  1.00  0.00     0.059 A 
ATOM     70  F   UNL A   1      46.034  33.875  26.830  1.00  0.00    -0.206 F 
ATOM     71  C   UNL A   1      47.680  35.777  29.422  1.00  0.00     0.060 A 
BRANCH  71  72
ATOM     72  S   UNL A   1      48.241  37.460  29.753  1.00  0.00     0.124 S 
ATOM     73  O   UNL A   1      49.447  37.532  28.933  1.00  0.00    -0.237 OA
ATOM     74  O   UNL A   1      47.113  38.261  29.290  1.00  0.00    -0.237 OA
ATOM     75  O   UNL A   1      48.464  37.468  31.196  1.00  0.00    -0.744 OA
ENDBRANCH  71  72
ENDBRANCH  50  64
BRANCH  51  76
ATOM     76  C   UNL A   1      43.342  23.953  27.197  1.00  0.00     0.058 A 
ATOM     77  C   UNL A   1      43.364  22.936  28.163  1.00  0.00     0.135 A 
ATOM     78  C   UNL A   1      42.840  23.630  25.925  1.00  0.00     0.135 A 
ATOM     79  F   UNL A   1      43.852  23.186  29.388  1.00  0.00    -0.206 F 
ATOM     80  C   UNL A   1      42.924  21.647  27.878  1.00  0.00     0.059 A 
ATOM     81  C   UNL A   1      42.365  22.357  25.626  1.00  0.00     0.059 A 
ATOM     82  F   UNL A   1      42.794  24.565  24.963  1.00  0.00    -0.206 F 
ATOM     83  C   UNL A   1      42.422  21.368  26.607  1.00  0.00     0.060 A 
BRANCH  83  84
ATOM     84  S   UNL A   1      41.813  19.702  26.263  1.00  0.00     0.124 S 
ATOM     85  O   UNL A   1      42.185  18.995  27.483  1.00  0.00    -0.237 OA
ATOM     86  O   UNL A   1      40.384  19.935  26.071  1.00  0.00    -0.237 OA
ATOM     87  O   UNL A   1      42.545  19.316  25.062  1.00  0.00    -0.744 OA
ENDBRANCH  83  84
ENDBRANCH  51  76
BRANCH  63  88
ATOM     88  C   UNL A   1      49.423  27.151  25.926  1.00  0.00     0.058 A 
ATOM     89  C   UNL A   1      49.703  27.377  24.569  1.00  0.00     0.135 A 
ATOM     90  C   UNL A   1      50.417  26.530  26.701  1.00  0.00     0.135 A 
ATOM     91  F   UNL A   1      48.789  27.964  23.779  1.00  0.00    -0.206 F 
ATOM     92  C   UNL A   1      50.910  26.983  23.998  1.00  0.00     0.059 A 
ATOM     93  C   UNL A   1      51.644  26.156  26.159  1.00  0.00     0.059 A 
ATOM     94  F   UNL A   1      50.212  26.299  28.007  1.00  0.00    -0.206 F 
ATOM     95  C   UNL A   1      51.876  26.375  24.803  1.00  0.00     0.060 A 
BRANCH  95  96
ATOM     96  S   UNL A   1      53.451  25.901  24.057  1.00  0.00     0.124 S 
ATOM     97  O   UNL A   1      54.303  27.026  24.426  1.00  0.00    -0.237 OA
ATOM     98  O   UNL A   1      53.745  24.637  24.726  1.00  0.00    -0.237 OA
ATOM     99  O   UNL A   1      53.136  25.792  22.635  1.00  0.00    -0.744 OA
ENDBRANCH  95  96
ENDBRANCH  63  88
ENDBRANCH  37  38
ENDBRANCH  30  32
ENDBRANCH  29  30
ENDBRANCH  28  29
ENDBRANCH  27  28
ENDBRANCH  26  27
ENDBRANCH   1  26
TORSDOF 22
ENDMDL
