MODEL 1
REMARK VINA RESULT:     -10.6      0.000      0.000
REMARK SMILES CC[NH+]1CCC2(CC1)OC[C@@H](C(=O)OCCOCCOCCOC(=O)c1ccc(-c3c4nc(c(-c5c(F)cc(S(=O)(=O)[O-])cc5F)c5ccc([nH]5)c(-c5c(F)cc(S(=O)(=O)[O-])cc5F)c5nc(c(-c6c(F)cc(S(=O)(=O)[O-])cc6F)c6ccc3[nH]6)C=C5)C=C4)cc1)N2C(=O)c1ccc(Cl)c([N+](=O)[O-])c1
REMARK SMILES IDX 18 1 17 2 16 3 15 4 14 5 12 6 13 7 11 8 3 9 4 10 8 11 5 13
REMARK SMILES IDX 7 14 6 15 9 16 92 17 10 18 2 19 1 20 93 21 94 22 95 23 96 24
REMARK SMILES IDX 104 25 97 26 100 27 98 28 99 29 101 30 102 31 103 32 19 33
REMARK SMILES IDX 20 34 21 35 22 36 23 37 24 38 25 39 26 40 27 41 91 42 28 43
REMARK SMILES IDX 90 44 29 45 30 46 31 47 84 48 32 49 89 50 83 51 85 52 33 53
REMARK SMILES IDX 88 54 82 55 81 56 34 58 68 59 47 60 67 61 48 62 51 63 66 64
REMARK SMILES IDX 86 65 49 66 50 67 65 69 87 70 52 71 35 72 36 73 45 74 37 75
REMARK SMILES IDX 38 76 44 77 46 78 39 79 40 80 41 81 42 82 43 83 69 84 70 85
REMARK SMILES IDX 79 86 71 87 72 88 78 89 80 90 73 91 74 92 75 93 76 94 77 95
REMARK SMILES IDX 53 96 54 97 63 98 55 99 56 100 62 101 64 102 57 103 58 104
REMARK SMILES IDX 59 105 60 106 61 107
REMARK H PARENT 3 12 85 57 51 68
REMARK Flexibility Score: inf
ROOT
ATOM      1  C   UNL A   1      34.858  32.588  27.683  1.00  0.00     0.188 C 
ENDROOT
BRANCH   1   2
ATOM      2  O   UNL A   1      34.641  31.224  27.354  1.00  0.00    -0.376 OA
BRANCH   2   3
ATOM      3  C   UNL A   1      33.367  30.637  27.557  1.00  0.00     0.202 C 
BRANCH   3   4
ATOM      4  C   UNL A   1      32.352  30.718  26.401  1.00  0.00     0.261 C 
BRANCH   4   5
ATOM      5  O   UNL A   1      31.890  29.472  25.803  1.00  0.00    -0.462 OA
BRANCH   5   6
ATOM      6  C   UNL A   1      32.845  28.806  25.106  1.00  0.00     0.331 C 
ATOM      7  O   UNL A   1      33.710  29.392  24.450  1.00  0.00    -0.250 OA
BRANCH   6   8
ATOM      8  C   UNL A   1      32.835  27.253  25.113  1.00  0.00     0.224 C 
ATOM      9  N   UNL A   1      32.999  22.194  24.190  1.00  0.00    -0.335 N 
ATOM     10  C   UNL A   1      32.056  22.952  24.991  1.00  0.00     0.267 C 
ATOM     11  C   UNL A   1      34.056  22.888  23.476  1.00  0.00     0.267 C 
ATOM     12  H   UNL A   1      32.371  22.041  23.401  1.00  0.00     0.348 HD
ATOM     13  C   UNL A   1      32.646  24.139  25.719  1.00  0.00     0.120 C 
ATOM     14  C   UNL A   1      34.614  24.129  24.137  1.00  0.00     0.120 C 
ATOM     15  C   UNL A   1      33.600  25.001  24.867  1.00  0.00     0.155 C 
ATOM     16  O   UNL A   1      34.429  25.648  25.868  1.00  0.00    -0.352 OA
ATOM     17  N   UNL A   1      32.957  26.130  24.142  1.00  0.00    -0.293 N 
ATOM     18  C   UNL A   1      34.031  26.997  26.022  1.00  0.00     0.200 C 
BRANCH   9  19
ATOM     19  C   UNL A   1      33.304  20.837  24.628  1.00  0.00     0.258 C 
ATOM     20  C   UNL A   1      32.610  19.731  23.843  1.00  0.00     0.071 C 
ENDBRANCH   9  19
BRANCH  17  21
ATOM     21  C   UNL A   1      31.959  25.992  23.165  1.00  0.00     0.257 C 
ATOM     22  O   UNL A   1      32.176  25.399  22.113  1.00  0.00    -0.269 OA
BRANCH  21  23
ATOM     23  C   UNL A   1      30.594  26.573  23.248  1.00  0.00     0.047 A 
ATOM     24  C   UNL A   1      29.533  25.935  23.888  1.00  0.00     0.016 A 
ATOM     25  C   UNL A   1      30.320  27.734  22.510  1.00  0.00     0.101 A 
ATOM     26  C   UNL A   1      28.259  26.541  23.898  1.00  0.00     0.028 A 
ATOM     27  C   UNL A   1      29.104  28.427  22.665  1.00  0.00     0.288 A 
ATOM     28  C   UNL A   1      28.047  27.813  23.336  1.00  0.00     0.118 A 
ATOM     29  Cl  UNL A   1      26.452  28.463  23.488  1.00  0.00    -0.077 Cl
BRANCH  27  30
ATOM     30  N   UNL A   1      29.069  29.829  22.224  1.00  0.00     0.064 N 
ATOM     31  O   UNL A   1      28.577  30.095  21.120  1.00  0.00    -0.258 OA
ATOM     32  O   UNL A   1      29.464  30.686  23.028  1.00  0.00    -0.258 OA
ENDBRANCH  27  30
ENDBRANCH  21  23
ENDBRANCH  17  21
ENDBRANCH   6   8
ENDBRANCH   5   6
ENDBRANCH   4   5
ENDBRANCH   3   4
ENDBRANCH   2   3
ENDBRANCH   1   2
BRANCH   1  33
ATOM     33  C   UNL A   1      35.781  32.959  28.838  1.00  0.00     0.188 C 
BRANCH  33  34
ATOM     34  O   UNL A   1      35.133  33.545  29.956  1.00  0.00    -0.376 OA
BRANCH  34  35
ATOM     35  C   UNL A   1      35.806  33.352  31.199  1.00  0.00     0.202 C 
BRANCH  35  36
ATOM     36  C   UNL A   1      35.371  32.010  31.782  1.00  0.00     0.261 C 
BRANCH  36  37
ATOM     37  O   UNL A   1      36.336  30.971  31.542  1.00  0.00    -0.460 OA
BRANCH  37  38
ATOM     38  C   UNL A   1      37.430  30.974  32.341  1.00  0.00     0.338 C 
ATOM     39  O   UNL A   1      37.449  31.199  33.544  1.00  0.00    -0.246 OA
BRANCH  38  40
ATOM     40  C   UNL A   1      38.584  30.478  31.549  1.00  0.00     0.060 A 
ATOM     41  C   UNL A   1      39.578  29.729  32.195  1.00  0.00     0.016 A 
ATOM     42  C   UNL A   1      38.669  30.703  30.172  1.00  0.00     0.016 A 
ATOM     43  C   UNL A   1      40.686  29.260  31.482  1.00  0.00     0.010 A 
ATOM     44  C   UNL A   1      39.778  30.236  29.460  1.00  0.00     0.010 A 
ATOM     45  C   UNL A   1      40.816  29.549  30.117  1.00  0.00    -0.014 A 
BRANCH  45  46
ATOM     46  C   UNL A   1      42.098  29.304  29.404  1.00  0.00     0.031 A 
ATOM     47  C   UNL A   1      42.330  27.942  28.799  1.00  0.00     0.074 A 
ATOM     48  C   UNL A   1      43.051  30.251  29.310  1.00  0.00     0.049 A 
ATOM     49  N   UNL A   1      43.399  27.461  28.220  1.00  0.00    -0.248 NA
ATOM     50  C   UNL A   1      41.206  26.993  28.869  1.00  0.00     0.031 C 
ATOM     51  C   UNL A   1      42.951  31.611  29.834  1.00  0.00     0.029 A 
ATOM     52  N   UNL A   1      44.310  30.197  28.758  1.00  0.00    -0.354 N 
ATOM     53  C   UNL A   1      43.087  26.149  27.880  1.00  0.00     0.074 A 
ATOM     54  C   UNL A   1      41.736  25.903  28.335  1.00  0.00     0.031 C 
ATOM     55  C   UNL A   1      44.109  32.255  29.601  1.00  0.00     0.029 A 
ATOM     56  C   UNL A   1      45.046  31.344  28.943  1.00  0.00     0.049 A 
ATOM     57  H   UNL A   1      44.652  29.410  28.274  1.00  0.00     0.167 HD
ATOM     58  C   UNL A   1      43.854  25.232  27.244  1.00  0.00     0.037 A 
ATOM     59  C   UNL A   1      46.334  31.617  28.647  1.00  0.00     0.037 A 
ATOM     60  C   UNL A   1      45.192  25.484  26.775  1.00  0.00     0.049 A 
ATOM     61  C   UNL A   1      47.182  30.566  27.969  1.00  0.00     0.074 A 
ATOM     62  C   UNL A   1      46.025  24.635  26.067  1.00  0.00     0.029 A 
ATOM     63  N   UNL A   1      45.896  26.661  26.972  1.00  0.00    -0.354 N 
ATOM     64  N   UNL A   1      46.855  29.349  27.605  1.00  0.00    -0.248 NA
ATOM     65  C   UNL A   1      48.573  30.928  27.657  1.00  0.00     0.031 C 
ATOM     66  C   UNL A   1      47.256  25.273  25.895  1.00  0.00     0.029 A 
ATOM     67  C   UNL A   1      47.168  26.547  26.432  1.00  0.00     0.049 A 
ATOM     68  H   UNL A   1      45.546  27.459  27.429  1.00  0.00     0.167 HD
ATOM     69  C   UNL A   1      47.988  28.814  26.995  1.00  0.00     0.074 A 
ATOM     70  C   UNL A   1      49.003  29.844  27.026  1.00  0.00     0.031 C 
ATOM     71  C   UNL A   1      48.170  27.582  26.456  1.00  0.00     0.037 A 
BRANCH  58  72
ATOM     72  C   UNL A   1      43.286  23.855  27.038  1.00  0.00     0.058 A 
ATOM     73  C   UNL A   1      42.839  23.412  25.784  1.00  0.00     0.135 A 
ATOM     74  C   UNL A   1      43.260  22.938  28.103  1.00  0.00     0.135 A 
ATOM     75  F   UNL A   1      42.825  24.252  24.736  1.00  0.00    -0.206 F 
ATOM     76  C   UNL A   1      42.373  22.114  25.595  1.00  0.00     0.059 A 
ATOM     77  C   UNL A   1      42.826  21.628  27.931  1.00  0.00     0.059 A 
ATOM     78  F   UNL A   1      43.672  23.311  29.326  1.00  0.00    -0.206 F 
ATOM     79  C   UNL A   1      42.378  21.227  26.673  1.00  0.00     0.060 A 
BRANCH  79  80
ATOM     80  S   UNL A   1      41.808  19.536  26.402  1.00  0.00     0.124 S 
ATOM     81  O   UNL A   1      42.233  18.883  27.637  1.00  0.00    -0.237 OA
ATOM     82  O   UNL A   1      40.368  19.716  26.245  1.00  0.00    -0.237 OA
ATOM     83  O   UNL A   1      42.520  19.124  25.198  1.00  0.00    -0.744 OA
ENDBRANCH  79  80
ENDBRANCH  58  72
BRANCH  59  84
ATOM     84  C   UNL A   1      46.927  32.934  29.017  1.00  0.00     0.058 A 
ATOM     85  C   UNL A   1      47.510  33.147  30.276  1.00  0.00     0.135 A 
ATOM     86  C   UNL A   1      46.891  34.020  28.127  1.00  0.00     0.135 A 
ATOM     87  F   UNL A   1      47.556  32.147  31.170  1.00  0.00    -0.206 F 
ATOM     88  C   UNL A   1      48.011  34.390  30.649  1.00  0.00     0.059 A 
ATOM     89  C   UNL A   1      47.414  35.264  28.465  1.00  0.00     0.059 A 
ATOM     90  F   UNL A   1      46.351  33.872  26.907  1.00  0.00    -0.206 F 
ATOM     91  C   UNL A   1      47.958  35.444  29.735  1.00  0.00     0.060 A 
BRANCH  91  92
ATOM     92  S   UNL A   1      48.638  37.047  30.219  1.00  0.00     0.124 S 
ATOM     93  O   UNL A   1      47.766  37.412  31.330  1.00  0.00    -0.237 OA
ATOM     94  O   UNL A   1      50.012  36.702  30.572  1.00  0.00    -0.237 OA
ATOM     95  O   UNL A   1      48.492  37.852  29.011  1.00  0.00    -0.744 OA
ENDBRANCH  91  92
ENDBRANCH  59  84
BRANCH  71  96
ATOM     96  C   UNL A   1      49.498  27.285  25.808  1.00  0.00     0.058 A 
ATOM     97  C   UNL A   1      50.603  26.832  26.546  1.00  0.00     0.135 A 
ATOM     98  C   UNL A   1      49.647  27.401  24.415  1.00  0.00     0.135 A 
ATOM     99  F   UNL A   1      50.517  26.705  27.879  1.00  0.00    -0.206 F 
ATOM    100  C   UNL A   1      51.815  26.531  25.932  1.00  0.00     0.059 A 
ATOM    101  C   UNL A   1      50.841  27.075  23.776  1.00  0.00     0.059 A 
ATOM    102  F   UNL A   1      48.621  27.817  23.657  1.00  0.00    -0.206 F 
ATOM    103  C   UNL A   1      51.924  26.654  24.544  1.00  0.00     0.060 A 
BRANCH 103 104
ATOM    104  S   UNL A   1      53.494  26.234  23.757  1.00  0.00     0.124 S 
ATOM    105  O   UNL A   1      53.915  25.076  24.540  1.00  0.00    -0.237 OA
ATOM    106  O   UNL A   1      53.090  25.956  22.382  1.00  0.00    -0.237 OA
ATOM    107  O   UNL A   1      54.299  27.438  23.937  1.00  0.00    -0.744 OA
ENDBRANCH 103 104
ENDBRANCH  71  96
ENDBRANCH  45  46
ENDBRANCH  38  40
ENDBRANCH  37  38
ENDBRANCH  36  37
ENDBRANCH  35  36
ENDBRANCH  34  35
ENDBRANCH  33  34
ENDBRANCH   1  33
TORSDOF 24
ENDMDL
MODEL 2
REMARK VINA RESULT:     -10.5      2.146      3.628
REMARK SMILES CC[NH+]1CCC2(CC1)OC[C@@H](C(=O)OCCOCCOCCOC(=O)c1ccc(-c3c4nc(c(-c5c(F)cc(S(=O)(=O)[O-])cc5F)c5ccc([nH]5)c(-c5c(F)cc(S(=O)(=O)[O-])cc5F)c5nc(c(-c6c(F)cc(S(=O)(=O)[O-])cc6F)c6ccc3[nH]6)C=C5)C=C4)cc1)N2C(=O)c1ccc(Cl)c([N+](=O)[O-])c1
REMARK SMILES IDX 18 1 17 2 16 3 15 4 14 5 12 6 13 7 11 8 3 9 4 10 8 11 5 13
REMARK SMILES IDX 7 14 6 15 9 16 92 17 10 18 2 19 1 20 93 21 94 22 95 23 96 24
REMARK SMILES IDX 104 25 97 26 100 27 98 28 99 29 101 30 102 31 103 32 19 33
REMARK SMILES IDX 20 34 21 35 22 36 23 37 24 38 25 39 26 40 27 41 91 42 28 43
REMARK SMILES IDX 90 44 29 45 30 46 31 47 84 48 32 49 89 50 83 51 85 52 33 53
REMARK SMILES IDX 88 54 82 55 81 56 34 58 68 59 47 60 67 61 48 62 51 63 66 64
REMARK SMILES IDX 86 65 49 66 50 67 65 69 87 70 52 71 35 72 36 73 45 74 37 75
REMARK SMILES IDX 38 76 44 77 46 78 39 79 40 80 41 81 42 82 43 83 69 84 70 85
REMARK SMILES IDX 79 86 71 87 72 88 78 89 80 90 73 91 74 92 75 93 76 94 77 95
REMARK SMILES IDX 53 96 54 97 63 98 55 99 56 100 62 101 64 102 57 103 58 104
REMARK SMILES IDX 59 105 60 106 61 107
REMARK H PARENT 3 12 85 57 51 68
REMARK Flexibility Score: inf
ROOT
ATOM      1  C   UNL A   1      33.022  31.281  27.479  1.00  0.00     0.188 C 
ENDROOT
BRANCH   1   2
ATOM      2  O   UNL A   1      33.116  29.974  26.932  1.00  0.00    -0.376 OA
BRANCH   2   3
ATOM      3  C   UNL A   1      32.524  28.876  27.605  1.00  0.00     0.202 C 
BRANCH   3   4
ATOM      4  C   UNL A   1      31.191  28.338  27.054  1.00  0.00     0.261 C 
BRANCH   4   5
ATOM      5  O   UNL A   1      30.995  26.893  27.018  1.00  0.00    -0.462 OA
BRANCH   5   6
ATOM      6  C   UNL A   1      31.346  26.318  25.841  1.00  0.00     0.331 C 
ATOM      7  O   UNL A   1      30.737  26.541  24.791  1.00  0.00    -0.250 OA
BRANCH   6   8
ATOM      8  C   UNL A   1      32.539  25.323  25.817  1.00  0.00     0.224 C 
ATOM      9  N   UNL A   1      36.010  21.613  25.005  1.00  0.00    -0.335 N 
ATOM     10  C   UNL A   1      35.486  22.123  26.258  1.00  0.00     0.267 C 
ATOM     11  C   UNL A   1      35.506  22.138  23.749  1.00  0.00     0.267 C 
ATOM     12  H   UNL A   1      35.482  20.740  25.016  1.00  0.00     0.348 HD
ATOM     13  C   UNL A   1      35.173  23.603  26.264  1.00  0.00     0.120 C 
ATOM     14  C   UNL A   1      35.105  23.598  23.741  1.00  0.00     0.120 C 
ATOM     15  C   UNL A   1      34.430  24.104  25.008  1.00  0.00     0.155 C 
ATOM     16  O   UNL A   1      34.764  25.517  24.981  1.00  0.00    -0.352 OA
ATOM     17  N   UNL A   1      32.945  24.082  25.100  1.00  0.00    -0.293 N 
ATOM     18  C   UNL A   1      33.657  26.280  25.421  1.00  0.00     0.200 C 
BRANCH   9  19
ATOM     19  C   UNL A   1      37.394  21.154  25.000  1.00  0.00     0.258 C 
ATOM     20  C   UNL A   1      37.579  19.656  24.792  1.00  0.00     0.071 C 
ENDBRANCH   9  19
BRANCH  17  21
ATOM     21  C   UNL A   1      32.169  22.929  25.289  1.00  0.00     0.257 C 
ATOM     22  O   UNL A   1      31.414  22.819  26.249  1.00  0.00    -0.269 OA
BRANCH  21  23
ATOM     23  C   UNL A   1      32.207  21.721  24.424  1.00  0.00     0.047 A 
ATOM     24  C   UNL A   1      31.998  21.764  23.046  1.00  0.00     0.016 A 
ATOM     25  C   UNL A   1      32.293  20.465  25.041  1.00  0.00     0.101 A 
ATOM     26  C   UNL A   1      32.023  20.567  22.299  1.00  0.00     0.028 A 
ATOM     27  C   UNL A   1      32.494  19.293  24.286  1.00  0.00     0.288 A 
ATOM     28  C   UNL A   1      32.324  19.333  22.903  1.00  0.00     0.118 A 
ATOM     29  Cl  UNL A   1      32.392  17.962  21.851  1.00  0.00    -0.077 Cl
BRANCH  27  30
ATOM     30  N   UNL A   1      33.014  18.116  24.998  1.00  0.00     0.064 N 
ATOM     31  O   UNL A   1      34.156  17.717  24.736  1.00  0.00    -0.258 OA
ATOM     32  O   UNL A   1      32.303  17.634  25.892  1.00  0.00    -0.258 OA
ENDBRANCH  27  30
ENDBRANCH  21  23
ENDBRANCH  17  21
ENDBRANCH   6   8
ENDBRANCH   5   6
ENDBRANCH   4   5
ENDBRANCH   3   4
ENDBRANCH   2   3
ENDBRANCH   1   2
BRANCH   1  33
ATOM     33  C   UNL A   1      34.147  31.830  28.349  1.00  0.00     0.188 C 
BRANCH  33  34
ATOM     34  O   UNL A   1      35.220  32.422  27.633  1.00  0.00    -0.376 OA
BRANCH  34  35
ATOM     35  C   UNL A   1      36.180  33.090  28.451  1.00  0.00     0.202 C 
BRANCH  35  36
ATOM     36  C   UNL A   1      35.810  32.862  29.914  1.00  0.00     0.261 C 
BRANCH  36  37
ATOM     37  O   UNL A   1      36.870  32.233  30.655  1.00  0.00    -0.460 OA
BRANCH  37  38
ATOM     38  C   UNL A   1      36.818  30.882  30.745  1.00  0.00     0.338 C 
ATOM     39  O   UNL A   1      35.834  30.212  31.028  1.00  0.00    -0.246 OA
BRANCH  38  40
ATOM     40  C   UNL A   1      38.112  30.335  30.264  1.00  0.00     0.060 A 
ATOM     41  C   UNL A   1      39.046  29.879  31.205  1.00  0.00     0.016 A 
ATOM     42  C   UNL A   1      38.391  30.224  28.899  1.00  0.00     0.016 A 
ATOM     43  C   UNL A   1      40.281  29.372  30.787  1.00  0.00     0.010 A 
ATOM     44  C   UNL A   1      39.626  29.720  28.482  1.00  0.00     0.010 A 
ATOM     45  C   UNL A   1      40.597  29.331  29.423  1.00  0.00    -0.014 A 
BRANCH  45  46
ATOM     46  C   UNL A   1      41.987  29.058  28.970  1.00  0.00     0.031 A 
ATOM     47  C   UNL A   1      42.309  27.685  28.435  1.00  0.00     0.074 A 
ATOM     48  C   UNL A   1      42.957  29.991  29.048  1.00  0.00     0.049 A 
ATOM     49  N   UNL A   1      43.461  27.182  28.076  1.00  0.00    -0.248 NA
ATOM     50  C   UNL A   1      41.177  26.753  28.300  1.00  0.00     0.031 C 
ATOM     51  C   UNL A   1      42.780  31.360  29.528  1.00  0.00     0.029 A 
ATOM     52  N   UNL A   1      44.296  29.912  28.746  1.00  0.00    -0.354 N 
ATOM     53  C   UNL A   1      43.198  25.869  27.697  1.00  0.00     0.074 A 
ATOM     54  C   UNL A   1      41.782  25.648  27.889  1.00  0.00     0.031 C 
ATOM     55  C   UNL A   1      43.971  31.985  29.513  1.00  0.00     0.029 A 
ATOM     56  C   UNL A   1      45.001  31.052  29.056  1.00  0.00     0.049 A 
ATOM     57  H   UNL A   1      44.711  29.114  28.345  1.00  0.00     0.167 HD
ATOM     58  C   UNL A   1      44.058  24.933  27.230  1.00  0.00     0.037 A 
ATOM     59  C   UNL A   1      46.327  31.303  29.007  1.00  0.00     0.037 A 
ATOM     60  C   UNL A   1      45.464  25.161  27.021  1.00  0.00     0.049 A 
ATOM     61  C   UNL A   1      47.272  30.232  28.515  1.00  0.00     0.074 A 
ATOM     62  C   UNL A   1      46.403  24.290  26.494  1.00  0.00     0.029 A 
ATOM     63  N   UNL A   1      46.137  26.331  27.336  1.00  0.00    -0.354 N 
ATOM     64  N   UNL A   1      47.001  29.014  28.109  1.00  0.00    -0.248 NA
ATOM     65  C   UNL A   1      48.702  30.570  28.470  1.00  0.00     0.031 C 
ATOM     66  C   UNL A   1      47.655  24.909  26.553  1.00  0.00     0.029 A 
ATOM     67  C   UNL A   1      47.486  26.191  27.049  1.00  0.00     0.049 A 
ATOM     68  H   UNL A   1      45.719  27.140  27.708  1.00  0.00     0.167 HD
ATOM     69  C   UNL A   1      48.221  28.456  27.732  1.00  0.00     0.074 A 
ATOM     70  C   UNL A   1      49.227  29.472  27.945  1.00  0.00     0.031 C 
ATOM     71  C   UNL A   1      48.482  27.214  27.251  1.00  0.00     0.037 A 
BRANCH  58  72
ATOM     72  C   UNL A   1      43.517  23.561  26.935  1.00  0.00     0.058 A 
ATOM     73  C   UNL A   1      43.380  23.079  25.624  1.00  0.00     0.135 A 
ATOM     74  C   UNL A   1      43.203  22.687  27.989  1.00  0.00     0.135 A 
ATOM     75  F   UNL A   1      43.649  23.877  24.578  1.00  0.00    -0.206 F 
ATOM     76  C   UNL A   1      42.937  21.785  25.368  1.00  0.00     0.059 A 
ATOM     77  C   UNL A   1      42.786  21.381  27.758  1.00  0.00     0.059 A 
ATOM     78  F   UNL A   1      43.312  23.098  29.263  1.00  0.00    -0.206 F 
ATOM     79  C   UNL A   1      42.650  20.940  26.443  1.00  0.00     0.060 A 
BRANCH  79  80
ATOM     80  S   UNL A   1      42.114  19.252  26.095  1.00  0.00     0.124 S 
ATOM     81  O   UNL A   1      42.582  18.546  27.284  1.00  0.00    -0.237 OA
ATOM     82  O   UNL A   1      40.668  19.404  25.977  1.00  0.00    -0.237 OA
ATOM     83  O   UNL A   1      42.810  18.921  24.856  1.00  0.00    -0.744 OA
ENDBRANCH  79  80
ENDBRANCH  58  72
BRANCH  59  84
ATOM     84  C   UNL A   1      46.859  32.618  29.468  1.00  0.00     0.058 A 
ATOM     85  C   UNL A   1      47.208  32.836  30.811  1.00  0.00     0.135 A 
ATOM     86  C   UNL A   1      46.999  33.695  28.578  1.00  0.00     0.135 A 
ATOM     87  F   UNL A   1      47.079  31.845  31.706  1.00  0.00    -0.206 F 
ATOM     88  C   UNL A   1      47.648  34.077  31.259  1.00  0.00     0.059 A 
ATOM     89  C   UNL A   1      47.468  34.937  28.996  1.00  0.00     0.059 A 
ATOM     90  F   UNL A   1      46.686  33.541  27.282  1.00  0.00    -0.206 F 
ATOM     91  C   UNL A   1      47.775  35.122  30.343  1.00  0.00     0.060 A 
BRANCH  91  92
ATOM     92  S   UNL A   1      48.376  36.722  30.929  1.00  0.00     0.124 S 
ATOM     93  O   UNL A   1      49.550  36.331  31.700  1.00  0.00    -0.237 OA
ATOM     94  O   UNL A   1      48.639  37.427  29.679  1.00  0.00    -0.237 OA
ATOM     95  O   UNL A   1      47.253  37.238  31.707  1.00  0.00    -0.744 OA
ENDBRANCH  91  92
ENDBRANCH  59  84
BRANCH  71  96
ATOM     96  C   UNL A   1      49.904  26.890  26.872  1.00  0.00     0.058 A 
ATOM     97  C   UNL A   1      50.859  26.497  27.823  1.00  0.00     0.135 A 
ATOM     98  C   UNL A   1      50.300  26.917  25.523  1.00  0.00     0.135 A 
ATOM     99  F   UNL A   1      50.536  26.456  29.125  1.00  0.00    -0.206 F 
ATOM    100  C   UNL A   1      52.161  26.170  27.456  1.00  0.00     0.059 A 
ATOM    101  C   UNL A   1      51.588  26.563  25.130  1.00  0.00     0.059 A 
ATOM    102  F   UNL A   1      49.426  27.271  24.568  1.00  0.00    -0.206 F 
ATOM    103  C   UNL A   1      52.516  26.204  26.106  1.00  0.00     0.060 A 
BRANCH 103 104
ATOM    104  S   UNL A   1      54.201  25.751  25.640  1.00  0.00     0.124 S 
ATOM    105  O   UNL A   1      54.697  27.003  25.077  1.00  0.00    -0.237 OA
ATOM    106  O   UNL A   1      54.783  25.357  26.919  1.00  0.00    -0.237 OA
ATOM    107  O   UNL A   1      54.010  24.665  24.683  1.00  0.00    -0.744 OA
ENDBRANCH 103 104
ENDBRANCH  71  96
ENDBRANCH  45  46
ENDBRANCH  38  40
ENDBRANCH  37  38
ENDBRANCH  36  37
ENDBRANCH  35  36
ENDBRANCH  34  35
ENDBRANCH  33  34
ENDBRANCH   1  33
TORSDOF 24
ENDMDL
MODEL 3
REMARK VINA RESULT:     -10.3      4.882      9.464
REMARK SMILES CC[NH+]1CCC2(CC1)OC[C@@H](C(=O)OCCOCCOCCOC(=O)c1ccc(-c3c4nc(c(-c5c(F)cc(S(=O)(=O)[O-])cc5F)c5ccc([nH]5)c(-c5c(F)cc(S(=O)(=O)[O-])cc5F)c5nc(c(-c6c(F)cc(S(=O)(=O)[O-])cc6F)c6ccc3[nH]6)C=C5)C=C4)cc1)N2C(=O)c1ccc(Cl)c([N+](=O)[O-])c1
REMARK SMILES IDX 18 1 17 2 16 3 15 4 14 5 12 6 13 7 11 8 3 9 4 10 8 11 5 13
REMARK SMILES IDX 7 14 6 15 9 16 92 17 10 18 2 19 1 20 93 21 94 22 95 23 96 24
REMARK SMILES IDX 104 25 97 26 100 27 98 28 99 29 101 30 102 31 103 32 19 33
REMARK SMILES IDX 20 34 21 35 22 36 23 37 24 38 25 39 26 40 27 41 91 42 28 43
REMARK SMILES IDX 90 44 29 45 30 46 31 47 84 48 32 49 89 50 83 51 85 52 33 53
REMARK SMILES IDX 88 54 82 55 81 56 34 58 68 59 47 60 67 61 48 62 51 63 66 64
REMARK SMILES IDX 86 65 49 66 50 67 65 69 87 70 52 71 35 72 36 73 45 74 37 75
REMARK SMILES IDX 38 76 44 77 46 78 39 79 40 80 41 81 42 82 43 83 69 84 70 85
REMARK SMILES IDX 79 86 71 87 72 88 78 89 80 90 73 91 74 92 75 93 76 94 77 95
REMARK SMILES IDX 53 96 54 97 63 98 55 99 56 100 62 101 64 102 57 103 58 104
REMARK SMILES IDX 59 105 60 106 61 107
REMARK H PARENT 3 12 85 57 51 68
REMARK Flexibility Score: inf
ROOT
ATOM      1  C   UNL A   1      33.684  27.798  25.090  1.00  0.00     0.188 C 
ENDROOT
BRANCH   1   2
ATOM      2  O   UNL A   1      34.015  26.872  24.065  1.00  0.00    -0.376 OA
BRANCH   2   3
ATOM      3  C   UNL A   1      33.910  25.479  24.303  1.00  0.00     0.202 C 
BRANCH   3   4
ATOM      4  C   UNL A   1      34.883  24.854  25.320  1.00  0.00     0.261 C 
BRANCH   4   5
ATOM      5  O   UNL A   1      35.914  23.952  24.821  1.00  0.00    -0.462 OA
BRANCH   5   6
ATOM      6  C   UNL A   1      35.471  23.068  23.892  1.00  0.00     0.331 C 
ATOM      7  O   UNL A   1      35.565  23.282  22.681  1.00  0.00    -0.250 OA
BRANCH   6   8
ATOM      8  C   UNL A   1      34.797  21.752  24.369  1.00  0.00     0.224 C 
ATOM      9  N   UNL A   1      32.318  17.290  25.017  1.00  0.00    -0.335 N 
ATOM     10  C   UNL A   1      32.288  18.486  25.839  1.00  0.00     0.267 C 
ATOM     11  C   UNL A   1      33.100  17.278  23.795  1.00  0.00     0.267 C 
ATOM     12  H   UNL A   1      31.399  17.427  24.597  1.00  0.00     0.348 HD
ATOM     13  C   UNL A   1      33.594  19.246  25.908  1.00  0.00     0.120 C 
ATOM     14  C   UNL A   1      34.374  18.095  23.801  1.00  0.00     0.120 C 
ATOM     15  C   UNL A   1      34.306  19.419  24.551  1.00  0.00     0.155 C 
ATOM     16  O   UNL A   1      35.692  19.615  24.938  1.00  0.00    -0.352 OA
ATOM     17  N   UNL A   1      33.956  20.659  23.806  1.00  0.00    -0.293 N 
ATOM     18  C   UNL A   1      36.036  20.982  24.813  1.00  0.00     0.200 C 
BRANCH   9  19
ATOM     19  C   UNL A   1      32.174  16.010  25.701  1.00  0.00     0.258 C 
ATOM     20  C   UNL A   1      33.225  14.965  25.348  1.00  0.00     0.071 C 
ENDBRANCH   9  19
BRANCH  17  21
ATOM     21  C   UNL A   1      32.671  20.986  23.350  1.00  0.00     0.257 C 
ATOM     22  O   UNL A   1      32.093  20.289  22.522  1.00  0.00    -0.269 OA
BRANCH  21  23
ATOM     23  C   UNL A   1      31.904  22.195  23.746  1.00  0.00     0.047 A 
ATOM     24  C   UNL A   1      31.344  23.078  22.823  1.00  0.00     0.016 A 
ATOM     25  C   UNL A   1      31.881  22.553  25.102  1.00  0.00     0.101 A 
ATOM     26  C   UNL A   1      30.654  24.220  23.281  1.00  0.00     0.028 A 
ATOM     27  C   UNL A   1      31.048  23.588  25.570  1.00  0.00     0.288 A 
ATOM     28  C   UNL A   1      30.453  24.454  24.654  1.00  0.00     0.118 A 
ATOM     29  Cl  UNL A   1      29.525  25.854  25.065  1.00  0.00    -0.077 Cl
BRANCH  27  30
ATOM     30  N   UNL A   1      30.742  23.605  27.008  1.00  0.00     0.064 N 
ATOM     31  O   UNL A   1      31.678  23.599  27.817  1.00  0.00    -0.258 OA
ATOM     32  O   UNL A   1      29.550  23.709  27.333  1.00  0.00    -0.258 OA
ENDBRANCH  27  30
ENDBRANCH  21  23
ENDBRANCH  17  21
ENDBRANCH   6   8
ENDBRANCH   5   6
ENDBRANCH   4   5
ENDBRANCH   3   4
ENDBRANCH   2   3
ENDBRANCH   1   2
BRANCH   1  33
ATOM     33  C   UNL A   1      32.588  27.466  26.096  1.00  0.00     0.188 C 
BRANCH  33  34
ATOM     34  O   UNL A   1      31.727  28.547  26.418  1.00  0.00    -0.376 OA
BRANCH  34  35
ATOM     35  C   UNL A   1      31.972  29.741  25.675  1.00  0.00     0.202 C 
BRANCH  35  36
ATOM     36  C   UNL A   1      32.161  30.892  26.660  1.00  0.00     0.261 C 
BRANCH  36  37
ATOM     37  O   UNL A   1      33.266  30.670  27.554  1.00  0.00    -0.460 OA
BRANCH  37  38
ATOM     38  C   UNL A   1      34.105  31.718  27.741  1.00  0.00     0.338 C 
ATOM     39  O   UNL A   1      33.807  32.903  27.690  1.00  0.00    -0.246 OA
BRANCH  38  40
ATOM     40  C   UNL A   1      35.413  31.187  28.200  1.00  0.00     0.060 A 
ATOM     41  C   UNL A   1      35.549  29.808  28.411  1.00  0.00     0.016 A 
ATOM     42  C   UNL A   1      36.516  32.028  28.376  1.00  0.00     0.016 A 
ATOM     43  C   UNL A   1      36.764  29.276  28.857  1.00  0.00     0.010 A 
ATOM     44  C   UNL A   1      37.729  31.498  28.825  1.00  0.00     0.010 A 
ATOM     45  C   UNL A   1      37.850  30.125  29.110  1.00  0.00    -0.014 A 
BRANCH  45  46
ATOM     46  C   UNL A   1      39.050  29.631  29.838  1.00  0.00     0.031 A 
ATOM     47  C   UNL A   1      39.397  30.269  31.159  1.00  0.00     0.074 A 
ATOM     48  C   UNL A   1      39.835  28.657  29.337  1.00  0.00     0.049 A 
ATOM     49  N   UNL A   1      40.440  30.081  31.925  1.00  0.00    -0.248 NA
ATOM     50  C   UNL A   1      38.442  31.263  31.678  1.00  0.00     0.031 C 
ATOM     51  C   UNL A   1      39.607  27.945  28.082  1.00  0.00     0.029 A 
ATOM     52  N   UNL A   1      41.004  28.119  29.820  1.00  0.00    -0.354 N 
ATOM     53  C   UNL A   1      40.281  30.948  33.001  1.00  0.00     0.074 A 
ATOM     54  C   UNL A   1      39.051  31.677  32.780  1.00  0.00     0.031 C 
ATOM     55  C   UNL A   1      40.618  27.081  27.880  1.00  0.00     0.029 A 
ATOM     56  C   UNL A   1      41.583  27.202  28.972  1.00  0.00     0.049 A 
ATOM     57  H   UNL A   1      41.391  28.366  30.691  1.00  0.00     0.167 HD
ATOM     58  C   UNL A   1      41.084  31.120  34.078  1.00  0.00     0.037 A 
ATOM     59  C   UNL A   1      42.768  26.561  29.052  1.00  0.00     0.037 A 
ATOM     60  C   UNL A   1      42.297  30.380  34.306  1.00  0.00     0.049 A 
ATOM     61  C   UNL A   1      43.664  26.795  30.245  1.00  0.00     0.074 A 
ATOM     62  C   UNL A   1      43.146  30.443  35.399  1.00  0.00     0.029 A 
ATOM     63  N   UNL A   1      42.842  29.454  33.431  1.00  0.00    -0.354 N 
ATOM     64  N   UNL A   1      43.474  27.577  31.281  1.00  0.00    -0.248 NA
ATOM     65  C   UNL A   1      44.935  26.055  30.283  1.00  0.00     0.031 C 
ATOM     66  C   UNL A   1      44.238  29.607  35.153  1.00  0.00     0.029 A 
ATOM     67  C   UNL A   1      44.035  28.967  33.941  1.00  0.00     0.049 A 
ATOM     68  H   UNL A   1      42.442  29.183  32.574  1.00  0.00     0.167 HD
ATOM     69  C   UNL A   1      44.583  27.398  32.105  1.00  0.00     0.074 A 
ATOM     70  C   UNL A   1      45.432  26.425  31.455  1.00  0.00     0.031 C 
ATOM     71  C   UNL A   1      44.870  27.986  33.294  1.00  0.00     0.037 A 
BRANCH  58  72
ATOM     72  C   UNL A   1      40.700  32.168  35.085  1.00  0.00     0.058 A 
ATOM     73  C   UNL A   1      39.836  31.893  36.156  1.00  0.00     0.135 A 
ATOM     74  C   UNL A   1      41.270  33.451  35.017  1.00  0.00     0.135 A 
ATOM     75  F   UNL A   1      39.250  30.689  36.260  1.00  0.00    -0.206 F 
ATOM     76  C   UNL A   1      39.539  32.856  37.117  1.00  0.00     0.059 A 
ATOM     77  C   UNL A   1      41.010  34.419  35.982  1.00  0.00     0.059 A 
ATOM     78  F   UNL A   1      42.100  33.769  34.011  1.00  0.00    -0.206 F 
ATOM     79  C   UNL A   1      40.138  34.114  37.025  1.00  0.00     0.060 A 
BRANCH  79  80
ATOM     80  S   UNL A   1      39.773  35.339  38.300  1.00  0.00     0.124 S 
ATOM     81  O   UNL A   1      41.005  35.320  39.083  1.00  0.00    -0.237 OA
ATOM     82  O   UNL A   1      39.541  36.546  37.513  1.00  0.00    -0.237 OA
ATOM     83  O   UNL A   1      38.596  34.795  38.969  1.00  0.00    -0.744 OA
ENDBRANCH  79  80
ENDBRANCH  58  72
BRANCH  59  84
ATOM     84  C   UNL A   1      43.206  25.653  27.953  1.00  0.00     0.058 A 
ATOM     85  C   UNL A   1      42.949  24.273  27.997  1.00  0.00     0.135 A 
ATOM     86  C   UNL A   1      43.921  26.144  26.849  1.00  0.00     0.135 A 
ATOM     87  F   UNL A   1      42.283  23.749  29.037  1.00  0.00    -0.206 F 
ATOM     88  C   UNL A   1      43.407  23.413  27.004  1.00  0.00     0.059 A 
ATOM     89  C   UNL A   1      44.361  25.308  25.827  1.00  0.00     0.059 A 
ATOM     90  F   UNL A   1      44.189  27.456  26.751  1.00  0.00    -0.206 F 
ATOM     91  C   UNL A   1      44.113  23.940  25.922  1.00  0.00     0.060 A 
BRANCH  91  92
ATOM     92  S   UNL A   1      44.678  22.818  24.624  1.00  0.00     0.124 S 
ATOM     93  O   UNL A   1      45.722  23.610  23.984  1.00  0.00    -0.237 OA
ATOM     94  O   UNL A   1      45.133  21.664  25.394  1.00  0.00    -0.237 OA
ATOM     95  O   UNL A   1      43.476  22.596  23.826  1.00  0.00    -0.744 OA
ENDBRANCH  91  92
ENDBRANCH  59  84
BRANCH  71  96
ATOM     96  C   UNL A   1      46.131  27.564  34.003  1.00  0.00     0.058 A 
ATOM     97  C   UNL A   1      47.349  28.241  33.828  1.00  0.00     0.135 A 
ATOM     98  C   UNL A   1      46.105  26.497  34.918  1.00  0.00     0.135 A 
ATOM     99  F   UNL A   1      47.432  29.266  32.964  1.00  0.00    -0.206 F 
ATOM    100  C   UNL A   1      48.499  27.860  34.512  1.00  0.00     0.059 A 
ATOM    101  C   UNL A   1      47.236  26.120  35.638  1.00  0.00     0.059 A 
ATOM    102  F   UNL A   1      44.966  25.821  35.137  1.00  0.00    -0.206 F 
ATOM    103  C   UNL A   1      48.433  26.799  35.417  1.00  0.00     0.060 A 
BRANCH 103 104
ATOM    104  S   UNL A   1      49.926  26.333  36.319  1.00  0.00     0.124 S 
ATOM    105  O   UNL A   1      49.418  25.298  37.215  1.00  0.00    -0.237 OA
ATOM    106  O   UNL A   1      50.805  25.870  35.250  1.00  0.00    -0.237 OA
ATOM    107  O   UNL A   1      50.336  27.576  36.966  1.00  0.00    -0.744 OA
ENDBRANCH 103 104
ENDBRANCH  71  96
ENDBRANCH  45  46
ENDBRANCH  38  40
ENDBRANCH  37  38
ENDBRANCH  36  37
ENDBRANCH  35  36
ENDBRANCH  34  35
ENDBRANCH  33  34
ENDBRANCH   1  33
TORSDOF 24
ENDMDL
