MODEL 1
REMARK VINA RESULT:     -11.0      0.000      0.000
REMARK SMILES COc1ccc(NC(=O)N[C@@H]2C=C[C@H](C(=O)OCCOCCOCCOC(=O)c3ccc(-c4c5nc(c(-c6c(F)cc(S(=O)(=O)[O-])cc6F)c6ccc([nH]6)c(-c6c(F)cc(S(=O)(=O)[O-])cc6F)c6nc(c(-c7c(F)cc(S(=O)(=O)[O-])cc7F)c7ccc4[nH]7)C=C6)C=C5)cc3)C2)c(C)c1
REMARK SMILES IDX 21 1 20 2 19 3 18 4 17 5 15 6 16 7 14 8 11 9 12 10 95 11
REMARK SMILES IDX 13 12 10 13 7 14 8 15 9 17 6 19 3 20 4 21 98 22 5 23 96 24
REMARK SMILES IDX 97 25 2 26 1 27 22 28 23 29 24 30 25 31 26 32 27 33 28 34
REMARK SMILES IDX 29 35 30 36 94 37 31 38 93 39 32 40 33 41 34 42 87 43 35 44
REMARK SMILES IDX 92 45 86 46 88 47 36 48 91 49 85 50 84 51 37 53 71 54 50 55
REMARK SMILES IDX 70 56 51 57 54 58 69 59 89 60 52 61 53 62 68 64 90 65 55 66
REMARK SMILES IDX 38 67 39 68 48 69 40 70 41 71 47 72 49 73 42 74 43 75 44 76
REMARK SMILES IDX 45 77 46 78 72 79 73 80 82 81 74 82 75 83 81 84 83 85 76 86
REMARK SMILES IDX 77 87 78 88 79 89 80 90 56 91 57 92 66 93 58 94 59 95 65 96
REMARK SMILES IDX 67 97 60 98 61 99 62 100 63 101 64 102
REMARK H PARENT 7 16 10 18 88 52 54 63
REMARK Flexibility Score: inf
ROOT
ATOM      1  C   UNL A   1      43.924  22.719  26.673  1.00  0.00     0.188 C 
ENDROOT
BRANCH   1   2
ATOM      2  O   UNL A   1      42.603  22.481  27.105  1.00  0.00    -0.376 OA
BRANCH   2   3
ATOM      3  C   UNL A   1      42.142  21.198  26.771  1.00  0.00     0.202 C 
BRANCH   3   4
ATOM      4  C   UNL A   1      40.646  20.834  26.700  1.00  0.00     0.261 C 
BRANCH   4   5
ATOM      5  O   UNL A   1      39.300  21.653  26.320  1.00  0.00    -0.463 OA
BRANCH   5   6
ATOM      6  C   UNL A   1      38.130  21.616  25.556  1.00  0.00     0.312 C 
ATOM      7  O   UNL A   1      37.980  20.580  24.935  1.00  0.00    -0.252 OA
BRANCH   6   8
ATOM      8  C   UNL A   1      37.152  22.910  25.051  1.00  0.00     0.124 C 
ATOM      9  C   UNL A   1      34.631  22.815  24.388  1.00  0.00     0.107 C 
ATOM     10  C   UNL A   1      35.592  22.980  23.211  1.00  0.00    -0.006 C 
ATOM     11  C   UNL A   1      35.707  23.263  25.510  1.00  0.00     0.048 C 
ATOM     12  C   UNL A   1      36.891  23.155  23.577  1.00  0.00    -0.014 C 
BRANCH   9  13
ATOM     13  N   UNL A   1      33.585  21.447  24.409  1.00  0.00    -0.332 N 
ATOM     14  N   UNL A   1      31.264  22.006  25.990  1.00  0.00    -0.308 N 
ATOM     15  C   UNL A   1      32.250  20.809  25.195  1.00  0.00     0.319 C 
ATOM     16  H   UNL A   1      30.656  21.731  26.714  1.00  0.00     0.171 HD
ATOM     17  O   UNL A   1      31.867  19.646  25.077  1.00  0.00    -0.248 OA
ATOM     18  H   UNL A   1      33.875  20.817  23.712  1.00  0.00     0.165 HD
BRANCH  14  19
ATOM     19  C   UNL A   1      31.350  24.034  25.424  1.00  0.00     0.046 A 
ATOM     20  C   UNL A   1      31.316  27.142  25.487  1.00  0.00     0.119 A 
ATOM     21  C   UNL A   1      32.136  26.481  26.327  1.00  0.00     0.048 A 
ATOM     22  C   UNL A   1      30.794  26.386  24.428  1.00  0.00     0.052 A 
ATOM     23  C   UNL A   1      32.130  25.098  26.274  1.00  0.00     0.030 A 
ATOM     24  C   UNL A   1      30.962  24.910  24.283  1.00  0.00    -0.024 A 
ATOM     25  C   UNL A   1      31.521  24.699  22.841  1.00  0.00     0.047 C 
BRANCH  20  26
ATOM     26  O   UNL A   1      31.171  28.499  25.567  1.00  0.00    -0.497 OA
ATOM     27  C   UNL A   1      32.417  29.224  25.487  1.00  0.00     0.278 C 
ENDBRANCH  20  26
ENDBRANCH  14  19
ENDBRANCH   9  13
ENDBRANCH   6   8
ENDBRANCH   5   6
ENDBRANCH   4   5
ENDBRANCH   3   4
ENDBRANCH   2   3
ENDBRANCH   1   2
BRANCH   1  28
ATOM     28  C   UNL A   1      44.039  23.750  25.546  1.00  0.00     0.188 C 
BRANCH  28  29
ATOM     29  O   UNL A   1      42.812  24.346  25.142  1.00  0.00    -0.376 OA
BRANCH  29  30
ATOM     30  C   UNL A   1      42.685  25.756  25.189  1.00  0.00     0.202 C 
BRANCH  30  31
ATOM     31  C   UNL A   1      44.045  26.451  25.224  1.00  0.00     0.261 C 
BRANCH  31  32
ATOM     32  O   UNL A   1      44.212  27.498  26.216  1.00  0.00    -0.460 OA
BRANCH  32  33
ATOM     33  C   UNL A   1      44.494  27.139  27.488  1.00  0.00     0.338 C 
ATOM     34  O   UNL A   1      45.375  26.356  27.811  1.00  0.00    -0.246 OA
BRANCH  33  35
ATOM     35  C   UNL A   1      43.620  27.850  28.449  1.00  0.00     0.060 A 
ATOM     36  C   UNL A   1      44.263  28.725  29.249  1.00  0.00     0.016 A 
ATOM     37  C   UNL A   1      42.299  27.513  28.794  1.00  0.00     0.016 A 
ATOM     38  C   UNL A   1      43.588  29.100  30.407  1.00  0.00     0.010 A 
ATOM     39  C   UNL A   1      41.708  27.885  30.064  1.00  0.00     0.010 A 
ATOM     40  C   UNL A   1      42.342  28.747  30.969  1.00  0.00    -0.014 A 
BRANCH  40  41
ATOM     41  C   UNL A   1      41.708  29.364  32.411  1.00  0.00     0.031 A 
ATOM     42  C   UNL A   1      41.459  28.280  33.907  1.00  0.00     0.074 A 
ATOM     43  C   UNL A   1      41.035  30.591  32.618  1.00  0.00     0.049 A 
ATOM     44  N   UNL A   1      41.580  29.518  35.024  1.00  0.00    -0.248 NA
ATOM     45  C   UNL A   1      42.570  26.630  34.761  1.00  0.00     0.031 C 
ATOM     46  C   UNL A   1      41.704  31.755  33.271  1.00  0.00     0.029 A 
ATOM     47  N   UNL A   1      40.010  31.319  31.973  1.00  0.00    -0.354 N 
ATOM     48  C   UNL A   1      42.706  29.120  36.356  1.00  0.00     0.074 A 
ATOM     49  C   UNL A   1      43.250  27.277  36.168  1.00  0.00     0.031 C 
ATOM     50  C   UNL A   1      41.040  32.914  33.023  1.00  0.00     0.029 A 
ATOM     51  C   UNL A   1      39.837  32.658  32.232  1.00  0.00     0.049 A 
ATOM     52  H   UNL A   1      39.415  30.864  31.333  1.00  0.00     0.167 HD
ATOM     53  C   UNL A   1      43.235  30.228  36.976  1.00  0.00     0.037 A 
ATOM     54  C   UNL A   1      38.650  33.348  32.063  1.00  0.00     0.037 A 
ATOM     55  C   UNL A   1      42.508  31.496  36.716  1.00  0.00     0.049 A 
ATOM     56  C   UNL A   1      38.220  33.609  33.481  1.00  0.00     0.074 A 
ATOM     57  C   UNL A   1      42.901  32.795  36.416  1.00  0.00     0.029 A 
ATOM     58  N   UNL A   1      41.107  31.544  36.670  1.00  0.00    -0.354 N 
ATOM     59  N   UNL A   1      39.065  33.439  34.452  1.00  0.00    -0.248 NA
ATOM     60  C   UNL A   1      36.895  33.955  33.976  1.00  0.00     0.031 C 
ATOM     61  C   UNL A   1      41.737  33.619  36.304  1.00  0.00     0.029 A 
ATOM     62  C   UNL A   1      40.622  32.845  36.571  1.00  0.00     0.049 A 
ATOM     63  H   UNL A   1      40.531  30.746  36.703  1.00  0.00     0.167 HD
ATOM     64  C   UNL A   1      38.451  33.450  35.644  1.00  0.00     0.074 A 
ATOM     65  C   UNL A   1      37.074  33.798  35.305  1.00  0.00     0.031 C 
ATOM     66  C   UNL A   1      39.187  33.150  36.752  1.00  0.00     0.037 A 
BRANCH  53  67
ATOM     67  C   UNL A   1      44.531  30.173  37.740  1.00  0.00     0.058 A 
ATOM     68  C   UNL A   1      44.649  30.715  39.036  1.00  0.00     0.135 A 
ATOM     69  C   UNL A   1      45.722  29.650  37.204  1.00  0.00     0.135 A 
ATOM     70  F   UNL A   1      43.625  31.359  39.614  1.00  0.00    -0.206 F 
ATOM     71  C   UNL A   1      45.828  30.627  39.782  1.00  0.00     0.059 A 
ATOM     72  C   UNL A   1      46.883  29.472  37.954  1.00  0.00     0.059 A 
ATOM     73  F   UNL A   1      45.826  29.365  35.900  1.00  0.00    -0.206 F 
ATOM     74  C   UNL A   1      46.924  29.956  39.252  1.00  0.00     0.060 A 
BRANCH  74  75
ATOM     75  S   UNL A   1      48.386  29.690  40.271  1.00  0.00     0.124 S 
ATOM     76  O   UNL A   1      47.794  29.388  41.570  1.00  0.00    -0.237 OA
ATOM     77  O   UNL A   1      49.043  28.578  39.594  1.00  0.00    -0.237 OA
ATOM     78  O   UNL A   1      49.090  30.967  40.186  1.00  0.00    -0.744 OA
ENDBRANCH  74  75
ENDBRANCH  53  67
BRANCH  54  79
ATOM     79  C   UNL A   1      37.697  33.092  30.877  1.00  0.00     0.058 A 
ATOM     80  C   UNL A   1      36.492  32.386  31.125  1.00  0.00     0.135 A 
ATOM     81  C   UNL A   1      37.740  33.730  29.615  1.00  0.00     0.135 A 
ATOM     82  F   UNL A   1      36.395  31.611  32.218  1.00  0.00    -0.206 F 
ATOM     83  C   UNL A   1      35.325  32.531  30.338  1.00  0.00     0.059 A 
ATOM     84  C   UNL A   1      36.571  33.909  28.809  1.00  0.00     0.059 A 
ATOM     85  F   UNL A   1      38.845  34.388  29.236  1.00  0.00    -0.206 F 
ATOM     86  C   UNL A   1      35.338  33.419  29.264  1.00  0.00     0.060 A 
BRANCH  86  87
ATOM     87  S   UNL A   1      33.781  34.355  28.845  1.00  0.00     0.124 S 
ATOM     88  O   UNL A   1      34.294  35.596  28.280  1.00  0.00    -0.237 OA
ATOM     89  O   UNL A   1      33.095  33.484  27.891  1.00  0.00    -0.237 OA
ATOM     90  O   UNL A   1      33.086  34.496  30.125  1.00  0.00    -0.744 OA
ENDBRANCH  86  87
ENDBRANCH  54  79
BRANCH  66  91
ATOM     91  C   UNL A   1      38.611  33.175  38.126  1.00  0.00     0.058 A 
ATOM     92  C   UNL A   1      38.910  34.175  39.064  1.00  0.00     0.135 A 
ATOM     93  C   UNL A   1      37.788  32.123  38.576  1.00  0.00     0.135 A 
ATOM     94  F   UNL A   1      39.823  35.124  38.809  1.00  0.00    -0.206 F 
ATOM     95  C   UNL A   1      38.307  34.212  40.314  1.00  0.00     0.059 A 
ATOM     96  C   UNL A   1      37.239  32.097  39.845  1.00  0.00     0.059 A 
ATOM     97  F   UNL A   1      37.461  31.083  37.797  1.00  0.00    -0.206 F 
ATOM     98  C   UNL A   1      37.464  33.170  40.688  1.00  0.00     0.060 A 
BRANCH  98  99
ATOM     99  S   UNL A   1      36.676  33.221  42.298  1.00  0.00     0.124 S 
ATOM    100  O   UNL A   1      37.815  33.386  43.194  1.00  0.00    -0.237 OA
ATOM    101  O   UNL A   1      35.805  34.384  42.155  1.00  0.00    -0.237 OA
ATOM    102  O   UNL A   1      35.995  31.933  42.385  1.00  0.00    -0.744 OA
ENDBRANCH  98  99
ENDBRANCH  66  91
ENDBRANCH  40  41
ENDBRANCH  33  35
ENDBRANCH  32  33
ENDBRANCH  31  32
ENDBRANCH  30  31
ENDBRANCH  29  30
ENDBRANCH  28  29
ENDBRANCH   1  28
TORSDOF 23
ENDMDL
MODEL 2
REMARK VINA RESULT:     -10.9      6.398     11.741
REMARK SMILES COc1ccc(NC(=O)N[C@@H]2C=C[C@H](C(=O)OCCOCCOCCOC(=O)c3ccc(-c4c5nc(c(-c6c(F)cc(S(=O)(=O)[O-])cc6F)c6ccc([nH]6)c(-c6c(F)cc(S(=O)(=O)[O-])cc6F)c6nc(c(-c7c(F)cc(S(=O)(=O)[O-])cc7F)c7ccc4[nH]7)C=C6)C=C5)cc3)C2)c(C)c1
REMARK SMILES IDX 21 1 20 2 19 3 18 4 17 5 15 6 16 7 14 8 11 9 12 10 95 11
REMARK SMILES IDX 13 12 10 13 7 14 8 15 9 17 6 19 3 20 4 21 98 22 5 23 96 24
REMARK SMILES IDX 97 25 2 26 1 27 22 28 23 29 24 30 25 31 26 32 27 33 28 34
REMARK SMILES IDX 29 35 30 36 94 37 31 38 93 39 32 40 33 41 34 42 87 43 35 44
REMARK SMILES IDX 92 45 86 46 88 47 36 48 91 49 85 50 84 51 37 53 71 54 50 55
REMARK SMILES IDX 70 56 51 57 54 58 69 59 89 60 52 61 53 62 68 64 90 65 55 66
REMARK SMILES IDX 38 67 39 68 48 69 40 70 41 71 47 72 49 73 42 74 43 75 44 76
REMARK SMILES IDX 45 77 46 78 72 79 73 80 82 81 74 82 75 83 81 84 83 85 76 86
REMARK SMILES IDX 77 87 78 88 79 89 80 90 56 91 57 92 66 93 58 94 59 95 65 96
REMARK SMILES IDX 67 97 60 98 61 99 62 100 63 101 64 102
REMARK H PARENT 7 16 10 18 88 52 54 63
REMARK Flexibility Score: inf
ROOT
ATOM      1  C   UNL A   1      34.704  32.344  30.972  1.00  0.00     0.188 C 
ENDROOT
BRANCH   1   2
ATOM      2  O   UNL A   1      35.938  31.827  30.526  1.00  0.00    -0.376 OA
BRANCH   2   3
ATOM      3  C   UNL A   1      36.438  32.502  29.402  1.00  0.00     0.202 C 
BRANCH   3   4
ATOM      4  C   UNL A   1      36.350  31.933  27.972  1.00  0.00     0.261 C 
BRANCH   4   5
ATOM      5  O   UNL A   1      35.387  30.852  27.243  1.00  0.00    -0.463 OA
BRANCH   5   6
ATOM      6  C   UNL A   1      34.105  30.293  27.249  1.00  0.00     0.312 C 
ATOM      7  O   UNL A   1      33.236  31.056  27.628  1.00  0.00    -0.252 OA
BRANCH   6   8
ATOM      8  C   UNL A   1      33.664  28.652  27.218  1.00  0.00     0.124 C 
ATOM      9  C   UNL A   1      32.056  27.484  25.529  1.00  0.00     0.107 C 
ATOM     10  C   UNL A   1      31.467  27.696  26.923  1.00  0.00    -0.006 C 
ATOM     11  C   UNL A   1      33.592  27.695  25.992  1.00  0.00     0.048 C 
ATOM     12  C   UNL A   1      32.355  28.190  27.829  1.00  0.00    -0.014 C 
BRANCH   9  13
ATOM     13  N   UNL A   1      31.249  28.187  24.181  1.00  0.00    -0.332 N 
ATOM     14  N   UNL A   1      32.298  27.120  21.738  1.00  0.00    -0.308 N 
ATOM     15  C   UNL A   1      31.345  28.356  22.515  1.00  0.00     0.319 C 
ATOM     16  H   UNL A   1      32.668  27.286  20.841  1.00  0.00     0.171 HD
ATOM     17  O   UNL A   1      30.664  29.142  21.859  1.00  0.00    -0.248 OA
ATOM     18  H   UNL A   1      30.448  28.658  24.502  1.00  0.00     0.165 HD
BRANCH  14  19
ATOM     19  C   UNL A   1      32.666  25.275  22.686  1.00  0.00     0.046 A 
ATOM     20  C   UNL A   1      34.071  22.747  23.827  1.00  0.00     0.119 A 
ATOM     21  C   UNL A   1      34.535  23.965  24.173  1.00  0.00     0.048 A 
ATOM     22  C   UNL A   1      32.793  22.727  23.251  1.00  0.00     0.052 A 
ATOM     23  C   UNL A   1      33.887  25.070  23.651  1.00  0.00     0.030 A 
ATOM     24  C   UNL A   1      32.021  23.945  22.868  1.00  0.00    -0.024 A 
ATOM     25  C   UNL A   1      30.625  23.779  23.547  1.00  0.00     0.047 C 
BRANCH  20  26
ATOM     26  O   UNL A   1      34.733  21.610  24.198  1.00  0.00    -0.497 OA
ATOM     27  C   UNL A   1      35.799  21.838  25.144  1.00  0.00     0.278 C 
ENDBRANCH  20  26
ENDBRANCH  14  19
ENDBRANCH   9  13
ENDBRANCH   6   8
ENDBRANCH   5   6
ENDBRANCH   4   5
ENDBRANCH   3   4
ENDBRANCH   2   3
ENDBRANCH   1   2
BRANCH   1  28
ATOM     28  C   UNL A   1      34.390  33.751  30.453  1.00  0.00     0.188 C 
BRANCH  28  29
ATOM     29  O   UNL A   1      33.641  34.572  31.341  1.00  0.00    -0.376 OA
BRANCH  29  30
ATOM     30  C   UNL A   1      33.905  34.498  32.732  1.00  0.00     0.202 C 
BRANCH  30  31
ATOM     31  C   UNL A   1      35.025  35.449  33.152  1.00  0.00     0.261 C 
BRANCH  31  32
ATOM     32  O   UNL A   1      35.915  34.979  34.198  1.00  0.00    -0.460 OA
BRANCH  32  33
ATOM     33  C   UNL A   1      36.694  33.904  33.944  1.00  0.00     0.338 C 
ATOM     34  O   UNL A   1      36.356  32.742  34.120  1.00  0.00    -0.246 OA
BRANCH  33  35
ATOM     35  C   UNL A   1      38.002  34.314  33.383  1.00  0.00     0.060 A 
ATOM     36  C   UNL A   1      38.118  34.144  32.050  1.00  0.00     0.016 A 
ATOM     37  C   UNL A   1      39.181  34.579  34.104  1.00  0.00     0.016 A 
ATOM     38  C   UNL A   1      39.418  34.120  31.551  1.00  0.00     0.010 A 
ATOM     39  C   UNL A   1      40.498  34.451  33.514  1.00  0.00     0.010 A 
ATOM     40  C   UNL A   1      40.694  34.220  32.146  1.00  0.00    -0.014 A 
BRANCH  40  41
ATOM     41  C   UNL A   1      42.167  34.187  31.314  1.00  0.00     0.031 A 
ATOM     42  C   UNL A   1      43.563  33.074  31.851  1.00  0.00     0.074 A 
ATOM     43  C   UNL A   1      42.661  35.115  30.368  1.00  0.00     0.049 A 
ATOM     44  N   UNL A   1      44.267  32.957  30.339  1.00  0.00    -0.248 NA
ATOM     45  C   UNL A   1      43.650  31.076  32.677  1.00  0.00     0.031 C 
ATOM     46  C   UNL A   1      42.666  34.821  28.904  1.00  0.00     0.029 A 
ATOM     47  N   UNL A   1      42.748  36.522  30.262  1.00  0.00    -0.354 N 
ATOM     48  C   UNL A   1      44.626  31.264  29.889  1.00  0.00     0.074 A 
ATOM     49  C   UNL A   1      44.272  30.136  31.416  1.00  0.00     0.031 C 
ATOM     50  C   UNL A   1      42.805  35.955  28.169  1.00  0.00     0.029 A 
ATOM     51  C   UNL A   1      42.962  37.117  29.042  1.00  0.00     0.049 A 
ATOM     52  H   UNL A   1      42.656  37.080  31.069  1.00  0.00     0.167 HD
ATOM     53  C   UNL A   1      44.698  31.061  28.531  1.00  0.00     0.037 A 
ATOM     54  C   UNL A   1      43.523  38.369  28.861  1.00  0.00     0.037 A 
ATOM     55  C   UNL A   1      44.859  32.295  27.722  1.00  0.00     0.049 A 
ATOM     56  C   UNL A   1      44.874  38.040  28.288  1.00  0.00     0.074 A 
ATOM     57  C   UNL A   1      44.287  32.767  26.547  1.00  0.00     0.029 A 
ATOM     58  N   UNL A   1      45.696  33.342  28.138  1.00  0.00    -0.354 N 
ATOM     59  N   UNL A   1      45.113  36.843  27.846  1.00  0.00    -0.248 NA
ATOM     60  C   UNL A   1      46.063  38.880  28.234  1.00  0.00     0.031 C 
ATOM     61  C   UNL A   1      44.869  34.032  26.221  1.00  0.00     0.029 A 
ATOM     62  C   UNL A   1      45.829  34.333  27.170  1.00  0.00     0.049 A 
ATOM     63  H   UNL A   1      46.139  33.372  29.017  1.00  0.00     0.167 HD
ATOM     64  C   UNL A   1      46.423  36.652  27.630  1.00  0.00     0.074 A 
ATOM     65  C   UNL A   1      46.995  37.973  27.870  1.00  0.00     0.031 C 
ATOM     66  C   UNL A   1      46.845  35.399  27.292  1.00  0.00     0.037 A 
BRANCH  53  67
ATOM     67  C   UNL A   1      44.485  29.704  27.913  1.00  0.00     0.058 A 
ATOM     68  C   UNL A   1      43.204  29.255  27.537  1.00  0.00     0.135 A 
ATOM     69  C   UNL A   1      45.520  28.768  27.731  1.00  0.00     0.135 A 
ATOM     70  F   UNL A   1      42.112  29.997  27.774  1.00  0.00    -0.206 F 
ATOM     71  C   UNL A   1      42.992  28.022  26.914  1.00  0.00     0.059 A 
ATOM     72  C   UNL A   1      45.353  27.572  27.037  1.00  0.00     0.059 A 
ATOM     73  F   UNL A   1      46.721  28.947  28.296  1.00  0.00    -0.206 F 
ATOM     74  C   UNL A   1      44.082  27.209  26.620  1.00  0.00     0.060 A 
BRANCH  74  75
ATOM     75  S   UNL A   1      43.837  25.700  25.667  1.00  0.00     0.124 S 
ATOM     76  O   UNL A   1      45.064  25.642  24.878  1.00  0.00    -0.237 OA
ATOM     77  O   UNL A   1      43.700  24.689  26.709  1.00  0.00    -0.237 OA
ATOM     78  O   UNL A   1      42.619  25.976  24.911  1.00  0.00    -0.744 OA
ENDBRANCH  74  75
ENDBRANCH  53  67
BRANCH  54  79
ATOM     79  C   UNL A   1      43.215  39.564  29.788  1.00  0.00     0.058 A 
ATOM     80  C   UNL A   1      44.078  39.797  30.889  1.00  0.00     0.135 A 
ATOM     81  C   UNL A   1      42.336  40.636  29.508  1.00  0.00     0.135 A 
ATOM     82  F   UNL A   1      44.844  38.795  31.350  1.00  0.00    -0.206 F 
ATOM     83  C   UNL A   1      44.266  41.070  31.478  1.00  0.00     0.059 A 
ATOM     84  C   UNL A   1      42.516  41.939  30.072  1.00  0.00     0.059 A 
ATOM     85  F   UNL A   1      41.434  40.522  28.523  1.00  0.00    -0.206 F 
ATOM     86  C   UNL A   1      43.584  42.167  30.954  1.00  0.00     0.060 A 
BRANCH  86  87
ATOM     87  S   UNL A   1      44.415  43.835  30.957  1.00  0.00     0.124 S 
ATOM     88  O   UNL A   1      45.675  43.566  31.637  1.00  0.00    -0.237 OA
ATOM     89  O   UNL A   1      44.540  44.166  29.539  1.00  0.00    -0.237 OA
ATOM     90  O   UNL A   1      43.488  44.701  31.688  1.00  0.00    -0.744 OA
ENDBRANCH  86  87
ENDBRANCH  54  79
BRANCH  66  91
ATOM     91  C   UNL A   1      48.272  35.091  26.990  1.00  0.00     0.058 A 
ATOM     92  C   UNL A   1      49.272  35.061  27.972  1.00  0.00     0.135 A 
ATOM     93  C   UNL A   1      48.695  34.898  25.660  1.00  0.00     0.135 A 
ATOM     94  F   UNL A   1      49.019  35.410  29.243  1.00  0.00    -0.206 F 
ATOM     95  C   UNL A   1      50.582  34.706  27.674  1.00  0.00     0.059 A 
ATOM     96  C   UNL A   1      50.010  34.621  25.329  1.00  0.00     0.059 A 
ATOM     97  F   UNL A   1      47.850  34.946  24.622  1.00  0.00    -0.206 F 
ATOM     98  C   UNL A   1      50.935  34.477  26.348  1.00  0.00     0.060 A 
BRANCH  98  99
ATOM     99  S   UNL A   1      52.621  34.008  25.962  1.00  0.00     0.124 S 
ATOM    100  O   UNL A   1      52.559  33.792  24.520  1.00  0.00    -0.237 OA
ATOM    101  O   UNL A   1      53.356  35.192  26.398  1.00  0.00    -0.237 OA
ATOM    102  O   UNL A   1      52.833  32.807  26.764  1.00  0.00    -0.744 OA
ENDBRANCH  98  99
ENDBRANCH  66  91
ENDBRANCH  40  41
ENDBRANCH  33  35
ENDBRANCH  32  33
ENDBRANCH  31  32
ENDBRANCH  30  31
ENDBRANCH  29  30
ENDBRANCH  28  29
ENDBRANCH   1  28
TORSDOF 23
ENDMDL
MODEL 3
REMARK VINA RESULT:     -10.9      6.389     11.757
REMARK SMILES COc1ccc(NC(=O)N[C@@H]2C=C[C@H](C(=O)OCCOCCOCCOC(=O)c3ccc(-c4c5nc(c(-c6c(F)cc(S(=O)(=O)[O-])cc6F)c6ccc([nH]6)c(-c6c(F)cc(S(=O)(=O)[O-])cc6F)c6nc(c(-c7c(F)cc(S(=O)(=O)[O-])cc7F)c7ccc4[nH]7)C=C6)C=C5)cc3)C2)c(C)c1
REMARK SMILES IDX 21 1 20 2 19 3 18 4 17 5 15 6 16 7 14 8 11 9 12 10 95 11
REMARK SMILES IDX 13 12 10 13 7 14 8 15 9 17 6 19 3 20 4 21 98 22 5 23 96 24
REMARK SMILES IDX 97 25 2 26 1 27 22 28 23 29 24 30 25 31 26 32 27 33 28 34
REMARK SMILES IDX 29 35 30 36 94 37 31 38 93 39 32 40 33 41 34 42 87 43 35 44
REMARK SMILES IDX 92 45 86 46 88 47 36 48 91 49 85 50 84 51 37 53 71 54 50 55
REMARK SMILES IDX 70 56 51 57 54 58 69 59 89 60 52 61 53 62 68 64 90 65 55 66
REMARK SMILES IDX 38 67 39 68 48 69 40 70 41 71 47 72 49 73 42 74 43 75 44 76
REMARK SMILES IDX 45 77 46 78 72 79 73 80 82 81 74 82 75 83 81 84 83 85 76 86
REMARK SMILES IDX 77 87 78 88 79 89 80 90 56 91 57 92 66 93 58 94 59 95 65 96
REMARK SMILES IDX 67 97 60 98 61 99 62 100 63 101 64 102
REMARK H PARENT 7 16 10 18 88 52 54 63
REMARK Flexibility Score: inf
ROOT
ATOM      1  C   UNL A   1      34.604  32.814  30.222  1.00  0.00     0.188 C 
ENDROOT
BRANCH   1   2
ATOM      2  O   UNL A   1      35.215  32.074  29.189  1.00  0.00    -0.376 OA
BRANCH   2   3
ATOM      3  C   UNL A   1      34.526  32.165  27.970  1.00  0.00     0.202 C 
BRANCH   3   4
ATOM      4  C   UNL A   1      33.256  31.349  27.659  1.00  0.00     0.261 C 
BRANCH   4   5
ATOM      5  O   UNL A   1      32.962  29.781  27.372  1.00  0.00    -0.463 OA
BRANCH   5   6
ATOM      6  C   UNL A   1      33.485  28.618  26.798  1.00  0.00     0.312 C 
ATOM      7  O   UNL A   1      34.605  28.338  27.184  1.00  0.00    -0.252 OA
BRANCH   6   8
ATOM      8  C   UNL A   1      32.984  27.815  25.387  1.00  0.00     0.124 C 
ATOM      9  C   UNL A   1      31.503  25.674  25.234  1.00  0.00     0.107 C 
ATOM     10  C   UNL A   1      32.983  25.445  24.932  1.00  0.00    -0.006 C 
ATOM     11  C   UNL A   1      31.566  27.279  25.034  1.00  0.00     0.048 C 
ATOM     12  C   UNL A   1      33.722  26.587  24.891  1.00  0.00    -0.014 C 
BRANCH   9  13
ATOM     13  N   UNL A   1      30.783  24.794  26.527  1.00  0.00    -0.332 N 
ATOM     14  N   UNL A   1      30.339  22.075  25.742  1.00  0.00    -0.308 N 
ATOM     15  C   UNL A   1      30.004  23.352  26.880  1.00  0.00     0.319 C 
ATOM     16  H   UNL A   1      29.721  21.313  25.672  1.00  0.00     0.171 HD
ATOM     17  O   UNL A   1      29.410  23.126  27.934  1.00  0.00    -0.248 OA
ATOM     18  H   UNL A   1      30.853  25.327  27.350  1.00  0.00     0.165 HD
BRANCH  14  19
ATOM     19  C   UNL A   1      32.050  22.137  24.513  1.00  0.00     0.046 A 
ATOM     20  C   UNL A   1      34.918  22.661  23.435  1.00  0.00     0.119 A 
ATOM     21  C   UNL A   1      34.770  22.031  24.618  1.00  0.00     0.048 A 
ATOM     22  C   UNL A   1      33.769  22.729  22.636  1.00  0.00     0.052 A 
ATOM     23  C   UNL A   1      33.480  21.811  25.069  1.00  0.00     0.030 A 
ATOM     24  C   UNL A   1      32.408  22.303  23.077  1.00  0.00    -0.024 A 
ATOM     25  C   UNL A   1      31.905  21.321  21.971  1.00  0.00     0.047 C 
BRANCH  20  26
ATOM     26  O   UNL A   1      36.156  23.028  22.983  1.00  0.00    -0.497 OA
ATOM     27  C   UNL A   1      37.074  23.396  24.033  1.00  0.00     0.278 C 
ENDBRANCH  20  26
ENDBRANCH  14  19
ENDBRANCH   9  13
ENDBRANCH   6   8
ENDBRANCH   5   6
ENDBRANCH   4   5
ENDBRANCH   3   4
ENDBRANCH   2   3
ENDBRANCH   1   2
BRANCH   1  28
ATOM     28  C   UNL A   1      34.031  34.162  29.772  1.00  0.00     0.188 C 
BRANCH  28  29
ATOM     29  O   UNL A   1      34.098  35.202  30.740  1.00  0.00    -0.376 OA
BRANCH  29  30
ATOM     30  C   UNL A   1      34.044  34.866  32.115  1.00  0.00     0.202 C 
BRANCH  30  31
ATOM     31  C   UNL A   1      35.135  35.572  32.918  1.00  0.00     0.261 C 
BRANCH  31  32
ATOM     32  O   UNL A   1      35.855  34.762  33.884  1.00  0.00    -0.460 OA
BRANCH  32  33
ATOM     33  C   UNL A   1      36.557  33.699  33.434  1.00  0.00     0.338 C 
ATOM     34  O   UNL A   1      36.177  32.538  33.494  1.00  0.00    -0.246 OA
BRANCH  33  35
ATOM     35  C   UNL A   1      37.835  34.125  32.819  1.00  0.00     0.060 A 
ATOM     36  C   UNL A   1      38.022  33.687  31.557  1.00  0.00     0.016 A 
ATOM     37  C   UNL A   1      38.949  34.669  33.483  1.00  0.00     0.016 A 
ATOM     38  C   UNL A   1      39.336  33.704  31.096  1.00  0.00     0.010 A 
ATOM     39  C   UNL A   1      40.295  34.568  32.957  1.00  0.00     0.010 A 
ATOM     40  C   UNL A   1      40.569  34.073  31.675  1.00  0.00    -0.014 A 
BRANCH  40  41
ATOM     41  C   UNL A   1      42.070  34.029  30.894  1.00  0.00     0.031 A 
ATOM     42  C   UNL A   1      43.403  32.834  31.414  1.00  0.00     0.074 A 
ATOM     43  C   UNL A   1      42.632  34.990  30.021  1.00  0.00     0.049 A 
ATOM     44  N   UNL A   1      44.157  32.775  29.923  1.00  0.00    -0.248 NA
ATOM     45  C   UNL A   1      43.386  30.790  32.126  1.00  0.00     0.031 C 
ATOM     46  C   UNL A   1      42.681  34.778  28.544  1.00  0.00     0.029 A 
ATOM     47  N   UNL A   1      42.775  36.396  30.000  1.00  0.00    -0.354 N 
ATOM     48  C   UNL A   1      44.470  31.097  29.389  1.00  0.00     0.074 A 
ATOM     49  C   UNL A   1      44.018  29.900  30.834  1.00  0.00     0.031 C 
ATOM     50  C   UNL A   1      42.889  35.946  27.881  1.00  0.00     0.029 A 
ATOM     51  C   UNL A   1      43.056  37.050  28.825  1.00  0.00     0.049 A 
ATOM     52  H   UNL A   1      42.674  36.910  30.834  1.00  0.00     0.167 HD
ATOM     53  C   UNL A   1      44.584  30.969  28.024  1.00  0.00     0.037 A 
ATOM     54  C   UNL A   1      43.669  38.287  28.736  1.00  0.00     0.037 A 
ATOM     55  C   UNL A   1      44.820  32.240  27.294  1.00  0.00     0.049 A 
ATOM     56  C   UNL A   1      45.028  37.939  28.193  1.00  0.00     0.074 A 
ATOM     57  C   UNL A   1      44.310  32.799  26.129  1.00  0.00     0.029 A 
ATOM     58  N   UNL A   1      45.679  33.228  27.799  1.00  0.00    -0.354 N 
ATOM     59  N   UNL A   1      45.238  36.760  27.690  1.00  0.00    -0.248 NA
ATOM     60  C   UNL A   1      46.248  38.733  28.228  1.00  0.00     0.031 C 
ATOM     61  C   UNL A   1      44.950  34.057  25.897  1.00  0.00     0.029 A 
ATOM     62  C   UNL A   1      45.885  34.266  26.895  1.00  0.00     0.049 A 
ATOM     63  H   UNL A   1      46.091  33.191  28.692  1.00  0.00     0.167 HD
ATOM     64  C   UNL A   1      46.547  36.530  27.509  1.00  0.00     0.074 A 
ATOM     65  C   UNL A   1      47.159  37.812  27.845  1.00  0.00     0.031 C 
ATOM     66  C   UNL A   1      46.935  35.283  27.113  1.00  0.00     0.037 A 
BRANCH  53  67
ATOM     67  C   UNL A   1      44.344  29.659  27.322  1.00  0.00     0.058 A 
ATOM     68  C   UNL A   1      45.352  29.030  26.565  1.00  0.00     0.135 A 
ATOM     69  C   UNL A   1      43.097  29.007  27.308  1.00  0.00     0.135 A 
ATOM     70  F   UNL A   1      46.549  29.609  26.388  1.00  0.00    -0.206 F 
ATOM     71  C   UNL A   1      45.166  27.789  25.950  1.00  0.00     0.059 A 
ATOM     72  C   UNL A   1      42.908  27.732  26.779  1.00  0.00     0.059 A 
ATOM     73  F   UNL A   1      41.990  29.624  27.741  1.00  0.00    -0.206 F 
ATOM     74  C   UNL A   1      43.956  27.122  26.108  1.00  0.00     0.060 A 
BRANCH  74  75
ATOM     75  S   UNL A   1      43.768  25.450  25.463  1.00  0.00     0.124 S 
ATOM     76  O   UNL A   1      42.555  25.573  24.661  1.00  0.00    -0.237 OA
ATOM     77  O   UNL A   1      45.008  25.258  24.721  1.00  0.00    -0.237 OA
ATOM     78  O   UNL A   1      43.640  24.639  26.671  1.00  0.00    -0.744 OA
ENDBRANCH  74  75
ENDBRANCH  53  67
BRANCH  54  79
ATOM     79  C   UNL A   1      43.372  39.438  29.719  1.00  0.00     0.058 A 
ATOM     80  C   UNL A   1      44.226  39.600  30.840  1.00  0.00     0.135 A 
ATOM     81  C   UNL A   1      42.516  40.540  29.485  1.00  0.00     0.135 A 
ATOM     82  F   UNL A   1      44.968  38.561  31.258  1.00  0.00    -0.206 F 
ATOM     83  C   UNL A   1      44.430  40.837  31.496  1.00  0.00     0.059 A 
ATOM     84  C   UNL A   1      42.713  41.809  30.117  1.00  0.00     0.059 A 
ATOM     85  F   UNL A   1      41.624  40.493  28.485  1.00  0.00    -0.206 F 
ATOM     86  C   UNL A   1      43.774  41.972  31.022  1.00  0.00     0.060 A 
BRANCH  86  87
ATOM     87  S   UNL A   1      44.635  43.622  31.119  1.00  0.00     0.124 S 
ATOM     88  O   UNL A   1      45.110  43.657  32.496  1.00  0.00    -0.237 OA
ATOM     89  O   UNL A   1      45.687  43.528  30.108  1.00  0.00    -0.237 OA
ATOM     90  O   UNL A   1      43.590  44.596  30.798  1.00  0.00    -0.744 OA
ENDBRANCH  86  87
ENDBRANCH  54  79
BRANCH  66  91
ATOM     91  C   UNL A   1      48.359  34.937  26.843  1.00  0.00     0.058 A 
ATOM     92  C   UNL A   1      49.143  34.180  27.726  1.00  0.00     0.135 A 
ATOM     93  C   UNL A   1      49.014  35.442  25.702  1.00  0.00     0.135 A 
ATOM     94  F   UNL A   1      48.680  33.802  28.928  1.00  0.00    -0.206 F 
ATOM     95  C   UNL A   1      50.447  33.815  27.420  1.00  0.00     0.059 A 
ATOM     96  C   UNL A   1      50.337  35.159  25.416  1.00  0.00     0.059 A 
ATOM     97  F   UNL A   1      48.394  36.217  24.802  1.00  0.00    -0.206 F 
ATOM     98  C   UNL A   1      51.029  34.303  26.254  1.00  0.00     0.060 A 
BRANCH  98  99
ATOM     99  S   UNL A   1      52.709  33.825  25.851  1.00  0.00     0.124 S 
ATOM    100  O   UNL A   1      53.363  33.866  27.155  1.00  0.00    -0.237 OA
ATOM    101  O   UNL A   1      52.502  32.496  25.285  1.00  0.00    -0.237 OA
ATOM    102  O   UNL A   1      53.138  34.851  24.906  1.00  0.00    -0.744 OA
ENDBRANCH  98  99
ENDBRANCH  66  91
ENDBRANCH  40  41
ENDBRANCH  33  35
ENDBRANCH  32  33
ENDBRANCH  31  32
ENDBRANCH  30  31
ENDBRANCH  29  30
ENDBRANCH  28  29
ENDBRANCH   1  28
TORSDOF 23
ENDMDL
