MODEL 1
REMARK VINA RESULT:     -11.2      0.000      0.000
REMARK SMILES CC(C)c1cc(N2CCC(C(=O)OCCOCCOCCOC(=O)c3ccc(-c4c5nc(c(-c6c(F)cc(S(=O)(=O)[O-])cc6F)c6ccc([nH]6)c(-c6c(F)cc(S(=O)(=O)[O-])cc6F)c6nc(c(-c7c(F)cc(S(=O)(=O)[O-])cc7F)c7ccc4[nH]7)C=C6)C=C5)cc3)CC2)nc(-c2ccc(F)cc2)n1
REMARK SMILES IDX 18 1 17 2 16 3 15 4 14 5 13 6 11 7 12 8 10 9 7 10 8 11 92 12
REMARK SMILES IDX 9 13 91 14 6 15 4 16 5 17 102 18 94 19 93 20 2 21 1 22 3 23
REMARK SMILES IDX 95 24 96 25 101 26 97 27 100 28 98 29 99 30 19 31 20 32
REMARK SMILES IDX 21 33 22 34 23 35 24 36 25 37 26 38 90 39 27 40 89 41 28 42
REMARK SMILES IDX 29 43 30 44 83 45 31 46 88 47 82 48 84 49 32 50 87 51 81 52
REMARK SMILES IDX 80 53 33 55 67 56 46 57 66 58 47 59 50 60 65 61 85 62 48 63
REMARK SMILES IDX 49 64 64 66 86 67 51 68 34 69 35 70 44 71 36 72 37 73 43 74
REMARK SMILES IDX 45 75 38 76 39 77 40 78 41 79 42 80 68 81 69 82 78 83 70 84
REMARK SMILES IDX 71 85 77 86 79 87 72 88 73 89 74 90 75 91 76 92 52 93 53 94
REMARK SMILES IDX 62 95 54 96 55 97 61 98 63 99 56 100 57 101 58 102 59 103
REMARK SMILES IDX 60 104
REMARK H PARENT 84 54 50 65
REMARK Flexibility Score: inf
ROOT
ATOM      1  C   UNL A   1      38.256  22.151  25.738  1.00  0.00     0.188 C 
ENDROOT
BRANCH   1   2
ATOM      2  C   UNL A   1      37.303  21.546  24.707  1.00  0.00     0.188 C 
BRANCH   2   3
ATOM      3  O   UNL A   1      36.462  22.442  23.997  1.00  0.00    -0.376 OA
BRANCH   3   4
ATOM      4  C   UNL A   1      35.126  22.585  24.468  1.00  0.00     0.202 C 
BRANCH   4   5
ATOM      5  C   UNL A   1      34.579  21.483  25.386  1.00  0.00     0.261 C 
BRANCH   5   6
ATOM      6  O   UNL A   1      33.329  21.800  26.029  1.00  0.00    -0.463 OA
BRANCH   6   7
ATOM      7  C   UNL A   1      32.207  21.431  25.350  1.00  0.00     0.309 C 
ATOM      8  O   UNL A   1      32.009  20.311  24.891  1.00  0.00    -0.252 OA
BRANCH   7   9
ATOM      9  C   UNL A   1      31.175  22.543  25.199  1.00  0.00     0.103 C 
ATOM     10  N   UNL A   1      30.717  25.320  24.821  1.00  0.00    -0.356 N 
ATOM     11  C   UNL A   1      30.259  24.767  26.081  1.00  0.00     0.119 C 
ATOM     12  C   UNL A   1      30.623  24.478  23.649  1.00  0.00     0.119 C 
ATOM     13  C   UNL A   1      31.050  23.500  26.397  1.00  0.00     0.037 C 
ATOM     14  C   UNL A   1      31.510  23.266  23.887  1.00  0.00     0.037 C 
BRANCH  10  15
ATOM     15  C   UNL A   1      30.813  26.686  24.730  1.00  0.00     0.132 A 
ATOM     16  C   UNL A   1      30.112  28.788  23.891  1.00  0.00     0.049 A 
ATOM     17  C   UNL A   1      29.998  27.410  23.882  1.00  0.00     0.071 A 
ATOM     18  N   UNL A   1      31.032  29.405  24.664  1.00  0.00    -0.233 NA
ATOM     19  C   UNL A   1      31.805  28.620  25.436  1.00  0.00     0.161 A 
ATOM     20  N   UNL A   1      31.718  27.285  25.513  1.00  0.00    -0.211 NA
BRANCH  16  21
ATOM     21  C   UNL A   1      29.254  29.692  23.020  1.00  0.00     0.032 C 
ATOM     22  C   UNL A   1      28.917  31.061  23.626  1.00  0.00     0.014 C 
ATOM     23  C   UNL A   1      29.916  29.903  21.653  1.00  0.00     0.014 C 
ENDBRANCH  16  21
BRANCH  19  24
ATOM     24  C   UNL A   1      32.857  29.265  26.230  1.00  0.00     0.019 A 
ATOM     25  C   UNL A   1      34.099  28.640  26.440  1.00  0.00     0.015 A 
ATOM     26  C   UNL A   1      32.646  30.535  26.801  1.00  0.00     0.015 A 
ATOM     27  C   UNL A   1      35.098  29.265  27.193  1.00  0.00     0.040 A 
ATOM     28  C   UNL A   1      33.637  31.154  27.568  1.00  0.00     0.040 A 
ATOM     29  C   UNL A   1      34.855  30.513  27.753  1.00  0.00     0.123 A 
ATOM     30  F   UNL A   1      35.807  31.106  28.485  1.00  0.00    -0.207 F 
ENDBRANCH  19  24
ENDBRANCH  10  15
ENDBRANCH   7   9
ENDBRANCH   6   7
ENDBRANCH   5   6
ENDBRANCH   4   5
ENDBRANCH   3   4
ENDBRANCH   2   3
ENDBRANCH   1   2
BRANCH   1  31
ATOM     31  O   UNL A   1      39.313  21.331  26.210  1.00  0.00    -0.376 OA
BRANCH  31  32
ATOM     32  C   UNL A   1      40.310  22.019  26.977  1.00  0.00     0.202 C 
BRANCH  32  33
ATOM     33  C   UNL A   1      41.520  22.557  26.175  1.00  0.00     0.261 C 
BRANCH  33  34
ATOM     34  O   UNL A   1      42.143  23.765  26.675  1.00  0.00    -0.460 OA
BRANCH  34  35
ATOM     35  C   UNL A   1      41.695  24.956  26.206  1.00  0.00     0.338 C 
ATOM     36  O   UNL A   1      41.203  25.151  25.106  1.00  0.00    -0.246 OA
BRANCH  35  37
ATOM     37  C   UNL A   1      41.623  25.931  27.336  1.00  0.00     0.060 A 
ATOM     38  C   UNL A   1      40.590  25.779  28.275  1.00  0.00     0.016 A 
ATOM     39  C   UNL A   1      42.584  26.927  27.536  1.00  0.00     0.016 A 
ATOM     40  C   UNL A   1      40.502  26.627  29.389  1.00  0.00     0.010 A 
ATOM     41  C   UNL A   1      42.483  27.789  28.641  1.00  0.00     0.010 A 
ATOM     42  C   UNL A   1      41.431  27.660  29.568  1.00  0.00    -0.014 A 
BRANCH  42  43
ATOM     43  C   UNL A   1      41.234  28.689  30.630  1.00  0.00     0.031 A 
ATOM     44  C   UNL A   1      42.119  28.648  31.853  1.00  0.00     0.074 A 
ATOM     45  C   UNL A   1      40.291  29.648  30.535  1.00  0.00     0.049 A 
ATOM     46  N   UNL A   1      42.071  29.376  32.939  1.00  0.00    -0.248 NA
ATOM     47  C   UNL A   1      43.203  27.652  31.843  1.00  0.00     0.031 C 
ATOM     48  C   UNL A   1      39.392  29.846  29.400  1.00  0.00     0.029 A 
ATOM     49  N   UNL A   1      39.920  30.630  31.428  1.00  0.00    -0.354 N 
ATOM     50  C   UNL A   1      43.106  28.917  33.750  1.00  0.00     0.074 A 
ATOM     51  C   UNL A   1      43.756  27.842  33.033  1.00  0.00     0.031 C 
ATOM     52  C   UNL A   1      38.562  30.869  29.671  1.00  0.00     0.029 A 
ATOM     53  C   UNL A   1      38.838  31.377  31.016  1.00  0.00     0.049 A 
ATOM     54  H   UNL A   1      40.386  30.785  32.281  1.00  0.00     0.167 HD
ATOM     55  C   UNL A   1      43.482  29.353  34.977  1.00  0.00     0.037 A 
ATOM     56  C   UNL A   1      38.130  32.331  31.659  1.00  0.00     0.037 A 
ATOM     57  C   UNL A   1      42.845  30.427  35.694  1.00  0.00     0.049 A 
ATOM     58  C   UNL A   1      38.517  32.737  33.063  1.00  0.00     0.074 A 
ATOM     59  C   UNL A   1      43.189  30.955  36.928  1.00  0.00     0.029 A 
ATOM     60  N   UNL A   1      41.734  31.129  35.258  1.00  0.00    -0.354 N 
ATOM     61  N   UNL A   1      39.519  32.320  33.799  1.00  0.00    -0.248 NA
ATOM     62  C   UNL A   1      37.670  33.742  33.726  1.00  0.00     0.031 C 
ATOM     63  C   UNL A   1      42.249  31.934  37.264  1.00  0.00     0.029 A 
ATOM     64  C   UNL A   1      41.356  32.059  36.214  1.00  0.00     0.049 A 
ATOM     65  H   UNL A   1      41.279  30.990  34.396  1.00  0.00     0.167 HD
ATOM     66  C   UNL A   1      39.435  33.028  34.997  1.00  0.00     0.074 A 
ATOM     67  C   UNL A   1      38.297  33.914  34.882  1.00  0.00     0.031 C 
ATOM     68  C   UNL A   1      40.228  32.948  36.094  1.00  0.00     0.037 A 
BRANCH  55  69
ATOM     69  C   UNL A   1      44.628  28.652  35.652  1.00  0.00     0.058 A 
ATOM     70  C   UNL A   1      45.955  29.078  35.489  1.00  0.00     0.135 A 
ATOM     71  C   UNL A   1      44.383  27.592  36.540  1.00  0.00     0.135 A 
ATOM     72  F   UNL A   1      46.246  30.074  34.638  1.00  0.00    -0.206 F 
ATOM     73  C   UNL A   1      47.000  28.474  36.180  1.00  0.00     0.059 A 
ATOM     74  C   UNL A   1      45.409  26.990  37.260  1.00  0.00     0.059 A 
ATOM     75  F   UNL A   1      43.132  27.144  36.730  1.00  0.00    -0.206 F 
ATOM     76  C   UNL A   1      46.716  27.434  37.069  1.00  0.00     0.060 A 
BRANCH  76  77
ATOM     77  S   UNL A   1      48.082  26.690  37.986  1.00  0.00     0.124 S 
ATOM     78  O   UNL A   1      48.322  27.694  39.017  1.00  0.00    -0.237 OA
ATOM     79  O   UNL A   1      47.498  25.435  38.447  1.00  0.00    -0.237 OA
ATOM     80  O   UNL A   1      49.134  26.558  36.983  1.00  0.00    -0.744 OA
ENDBRANCH  76  77
ENDBRANCH  55  69
BRANCH  56  81
ATOM     81  C   UNL A   1      36.941  32.958  31.011  1.00  0.00     0.058 A 
ATOM     82  C   UNL A   1      37.084  33.987  30.068  1.00  0.00     0.135 A 
ATOM     83  C   UNL A   1      35.637  32.585  31.371  1.00  0.00     0.135 A 
ATOM     84  F   UNL A   1      38.309  34.399  29.705  1.00  0.00    -0.206 F 
ATOM     85  C   UNL A   1      35.981  34.641  29.525  1.00  0.00     0.059 A 
ATOM     86  C   UNL A   1      34.517  33.201  30.820  1.00  0.00     0.059 A 
ATOM     87  F   UNL A   1      35.442  31.607  32.270  1.00  0.00    -0.206 F 
ATOM     88  C   UNL A   1      34.700  34.240  29.909  1.00  0.00     0.060 A 
BRANCH  88  89
ATOM     89  S   UNL A   1      33.274  35.082  29.186  1.00  0.00     0.124 S 
ATOM     90  O   UNL A   1      32.459  35.344  30.367  1.00  0.00    -0.237 OA
ATOM     91  O   UNL A   1      33.891  36.249  28.564  1.00  0.00    -0.237 OA
ATOM     92  O   UNL A   1      32.738  34.093  28.255  1.00  0.00    -0.744 OA
ENDBRANCH  88  89
ENDBRANCH  56  81
BRANCH  68  93
ATOM     93  C   UNL A   1      39.924  33.860  37.254  1.00  0.00     0.058 A 
ATOM     94  C   UNL A   1      40.465  35.153  37.342  1.00  0.00     0.135 A 
ATOM     95  C   UNL A   1      39.032  33.458  38.264  1.00  0.00     0.135 A 
ATOM     96  F   UNL A   1      41.325  35.589  36.408  1.00  0.00    -0.206 F 
ATOM     97  C   UNL A   1      40.152  36.004  38.397  1.00  0.00     0.059 A 
ATOM     98  C   UNL A   1      38.683  34.304  39.313  1.00  0.00     0.059 A 
ATOM     99  F   UNL A   1      38.475  32.237  38.227  1.00  0.00    -0.206 F 
ATOM    100  C   UNL A   1      39.258  35.572  39.378  1.00  0.00     0.060 A 
BRANCH 100 101
ATOM    101  S   UNL A   1      38.834  36.701  40.723  1.00  0.00     0.124 S 
ATOM    102  O   UNL A   1      40.138  36.933  41.335  1.00  0.00    -0.237 OA
ATOM    103  O   UNL A   1      38.257  37.836  40.010  1.00  0.00    -0.237 OA
ATOM    104  O   UNL A   1      37.891  35.931  41.530  1.00  0.00    -0.744 OA
ENDBRANCH 100 101
ENDBRANCH  68  93
ENDBRANCH  42  43
ENDBRANCH  35  37
ENDBRANCH  34  35
ENDBRANCH  33  34
ENDBRANCH  32  33
ENDBRANCH  31  32
ENDBRANCH   1  31
TORSDOF 23
ENDMDL
MODEL 2
REMARK VINA RESULT:     -11.0      0.421      7.816
REMARK SMILES CC(C)c1cc(N2CCC(C(=O)OCCOCCOCCOC(=O)c3ccc(-c4c5nc(c(-c6c(F)cc(S(=O)(=O)[O-])cc6F)c6ccc([nH]6)c(-c6c(F)cc(S(=O)(=O)[O-])cc6F)c6nc(c(-c7c(F)cc(S(=O)(=O)[O-])cc7F)c7ccc4[nH]7)C=C6)C=C5)cc3)CC2)nc(-c2ccc(F)cc2)n1
REMARK SMILES IDX 18 1 17 2 16 3 15 4 14 5 13 6 11 7 12 8 10 9 7 10 8 11 92 12
REMARK SMILES IDX 9 13 91 14 6 15 4 16 5 17 102 18 94 19 93 20 2 21 1 22 3 23
REMARK SMILES IDX 95 24 96 25 101 26 97 27 100 28 98 29 99 30 19 31 20 32
REMARK SMILES IDX 21 33 22 34 23 35 24 36 25 37 26 38 90 39 27 40 89 41 28 42
REMARK SMILES IDX 29 43 30 44 83 45 31 46 88 47 82 48 84 49 32 50 87 51 81 52
REMARK SMILES IDX 80 53 33 55 67 56 46 57 66 58 47 59 50 60 65 61 85 62 48 63
REMARK SMILES IDX 49 64 64 66 86 67 51 68 34 69 35 70 44 71 36 72 37 73 43 74
REMARK SMILES IDX 45 75 38 76 39 77 40 78 41 79 42 80 68 81 69 82 78 83 70 84
REMARK SMILES IDX 71 85 77 86 79 87 72 88 73 89 74 90 75 91 76 92 52 93 53 94
REMARK SMILES IDX 62 95 54 96 55 97 61 98 63 99 56 100 57 101 58 102 59 103
REMARK SMILES IDX 60 104
REMARK H PARENT 84 54 50 65
REMARK Flexibility Score: inf
ROOT
ATOM      1  C   UNL A   1      38.526  22.609  26.060  1.00  0.00     0.188 C 
ENDROOT
BRANCH   1   2
ATOM      2  C   UNL A   1      37.203  22.043  25.544  1.00  0.00     0.188 C 
BRANCH   2   3
ATOM      3  O   UNL A   1      36.549  22.763  24.510  1.00  0.00    -0.376 OA
BRANCH   3   4
ATOM      4  C   UNL A   1      35.165  22.495  24.311  1.00  0.00     0.202 C 
BRANCH   4   5
ATOM      5  C   UNL A   1      34.532  21.385  25.162  1.00  0.00     0.261 C 
BRANCH   5   6
ATOM      6  O   UNL A   1      33.359  21.786  25.899  1.00  0.00    -0.463 OA
BRANCH   6   7
ATOM      7  C   UNL A   1      32.168  21.380  25.378  1.00  0.00     0.309 C 
ATOM      8  O   UNL A   1      31.911  20.227  25.047  1.00  0.00    -0.252 OA
BRANCH   7   9
ATOM      9  C   UNL A   1      31.138  22.493  25.234  1.00  0.00     0.103 C 
ATOM     10  N   UNL A   1      30.680  25.262  24.803  1.00  0.00    -0.356 N 
ATOM     11  C   UNL A   1      30.263  24.743  26.091  1.00  0.00     0.119 C 
ATOM     12  C   UNL A   1      30.543  24.393  23.656  1.00  0.00     0.119 C 
ATOM     13  C   UNL A   1      31.057  23.479  26.411  1.00  0.00     0.037 C 
ATOM     14  C   UNL A   1      31.431  23.182  23.894  1.00  0.00     0.037 C 
BRANCH  10  15
ATOM     15  C   UNL A   1      30.780  26.626  24.676  1.00  0.00     0.132 A 
ATOM     16  C   UNL A   1      30.104  28.702  23.757  1.00  0.00     0.049 A 
ATOM     17  C   UNL A   1      29.989  27.324  23.785  1.00  0.00     0.071 A 
ATOM     18  N   UNL A   1      31.003  29.341  24.537  1.00  0.00    -0.233 NA
ATOM     19  C   UNL A   1      31.753  28.579  25.352  1.00  0.00     0.161 A 
ATOM     20  N   UNL A   1      31.663  27.247  25.466  1.00  0.00    -0.211 NA
BRANCH  16  21
ATOM     21  C   UNL A   1      29.271  29.580  22.837  1.00  0.00     0.032 C 
ATOM     22  C   UNL A   1      28.642  30.815  23.498  1.00  0.00     0.014 C 
ATOM     23  C   UNL A   1      30.103  30.032  21.630  1.00  0.00     0.014 C 
ENDBRANCH  16  21
BRANCH  19  24
ATOM     24  C   UNL A   1      32.783  29.246  26.156  1.00  0.00     0.019 A 
ATOM     25  C   UNL A   1      32.550  30.503  26.743  1.00  0.00     0.015 A 
ATOM     26  C   UNL A   1      34.036  28.638  26.364  1.00  0.00     0.015 A 
ATOM     27  C   UNL A   1      33.535  31.129  27.513  1.00  0.00     0.040 A 
ATOM     28  C   UNL A   1      35.029  29.269  27.118  1.00  0.00     0.040 A 
ATOM     29  C   UNL A   1      34.766  30.508  27.688  1.00  0.00     0.123 A 
ATOM     30  F   UNL A   1      35.714  31.114  28.415  1.00  0.00    -0.207 F 
ENDBRANCH  19  24
ENDBRANCH  10  15
ENDBRANCH   7   9
ENDBRANCH   6   7
ENDBRANCH   5   6
ENDBRANCH   4   5
ENDBRANCH   3   4
ENDBRANCH   2   3
ENDBRANCH   1   2
BRANCH   1  31
ATOM     31  O   UNL A   1      39.511  21.680  26.485  1.00  0.00    -0.376 OA
BRANCH  31  32
ATOM     32  C   UNL A   1      40.690  22.271  27.048  1.00  0.00     0.202 C 
BRANCH  32  33
ATOM     33  C   UNL A   1      41.657  22.934  26.038  1.00  0.00     0.261 C 
BRANCH  33  34
ATOM     34  O   UNL A   1      42.542  23.954  26.561  1.00  0.00    -0.460 OA
BRANCH  34  35
ATOM     35  C   UNL A   1      42.350  25.235  26.159  1.00  0.00     0.338 C 
ATOM     36  O   UNL A   1      42.246  25.612  25.003  1.00  0.00    -0.246 OA
BRANCH  35  37
ATOM     37  C   UNL A   1      41.994  26.072  27.345  1.00  0.00     0.060 A 
ATOM     38  C   UNL A   1      42.657  27.298  27.511  1.00  0.00     0.016 A 
ATOM     39  C   UNL A   1      40.977  25.720  28.238  1.00  0.00     0.016 A 
ATOM     40  C   UNL A   1      42.327  28.155  28.572  1.00  0.00     0.010 A 
ATOM     41  C   UNL A   1      40.661  26.570  29.312  1.00  0.00     0.010 A 
ATOM     42  C   UNL A   1      41.346  27.786  29.501  1.00  0.00    -0.014 A 
BRANCH  42  43
ATOM     43  C   UNL A   1      41.127  28.587  30.740  1.00  0.00     0.031 A 
ATOM     44  C   UNL A   1      40.032  29.627  30.748  1.00  0.00     0.074 A 
ATOM     45  C   UNL A   1      41.877  28.416  31.848  1.00  0.00     0.049 A 
ATOM     46  N   UNL A   1      39.720  30.500  31.671  1.00  0.00    -0.248 NA
ATOM     47  C   UNL A   1      39.175  29.684  29.552  1.00  0.00     0.031 C 
ATOM     48  C   UNL A   1      42.938  27.424  32.010  1.00  0.00     0.029 A 
ATOM     49  N   UNL A   1      41.868  29.094  33.047  1.00  0.00    -0.354 N 
ATOM     50  C   UNL A   1      38.643  31.221  31.165  1.00  0.00     0.074 A 
ATOM     51  C   UNL A   1      38.364  30.690  29.849  1.00  0.00     0.031 C 
ATOM     52  C   UNL A   1      43.492  27.571  33.228  1.00  0.00     0.029 A 
ATOM     53  C   UNL A   1      42.855  28.693  33.920  1.00  0.00     0.049 A 
ATOM     54  H   UNL A   1      41.217  29.799  33.262  1.00  0.00     0.167 HD
ATOM     55  C   UNL A   1      37.949  32.232  31.742  1.00  0.00     0.037 A 
ATOM     56  C   UNL A   1      43.228  29.191  35.119  1.00  0.00     0.037 A 
ATOM     57  C   UNL A   1      38.215  32.761  33.054  1.00  0.00     0.049 A 
ATOM     58  C   UNL A   1      42.492  30.377  35.702  1.00  0.00     0.074 A 
ATOM     59  C   UNL A   1      37.533  33.762  33.729  1.00  0.00     0.029 A 
ATOM     60  N   UNL A   1      39.244  32.353  33.887  1.00  0.00    -0.354 N 
ATOM     61  N   UNL A   1      41.454  31.023  35.226  1.00  0.00    -0.248 NA
ATOM     62  C   UNL A   1      42.985  30.906  36.984  1.00  0.00     0.031 C 
ATOM     63  C   UNL A   1      38.187  33.998  34.942  1.00  0.00     0.029 A 
ATOM     64  C   UNL A   1      39.240  33.105  35.051  1.00  0.00     0.049 A 
ATOM     65  H   UNL A   1      39.884  31.633  33.682  1.00  0.00     0.167 HD
ATOM     66  C   UNL A   1      41.158  32.013  36.162  1.00  0.00     0.074 A 
ATOM     67  C   UNL A   1      42.113  31.871  37.240  1.00  0.00     0.031 C 
ATOM     68  C   UNL A   1      40.184  32.956  36.128  1.00  0.00     0.037 A 
BRANCH  55  69
ATOM     69  C   UNL A   1      36.837  32.864  30.952  1.00  0.00     0.058 A 
ATOM     70  C   UNL A   1      35.487  32.643  31.266  1.00  0.00     0.135 A 
ATOM     71  C   UNL A   1      37.130  33.769  29.919  1.00  0.00     0.135 A 
ATOM     72  F   UNL A   1      35.152  31.773  32.232  1.00  0.00    -0.206 F 
ATOM     73  C   UNL A   1      34.467  33.294  30.581  1.00  0.00     0.059 A 
ATOM     74  C   UNL A   1      36.128  34.450  29.237  1.00  0.00     0.059 A 
ATOM     75  F   UNL A   1      38.406  34.014  29.577  1.00  0.00    -0.206 F 
ATOM     76  C   UNL A   1      34.798  34.202  29.572  1.00  0.00     0.060 A 
BRANCH  76  77
ATOM     77  S   UNL A   1      33.462  35.067  28.720  1.00  0.00     0.124 S 
ATOM     78  O   UNL A   1      33.157  34.137  27.637  1.00  0.00    -0.237 OA
ATOM     79  O   UNL A   1      32.449  35.177  29.765  1.00  0.00    -0.237 OA
ATOM     80  O   UNL A   1      34.076  36.326  28.311  1.00  0.00    -0.744 OA
ENDBRANCH  76  77
ENDBRANCH  55  69
BRANCH  56  81
ATOM     81  C   UNL A   1      44.389  28.611  35.855  1.00  0.00     0.058 A 
ATOM     82  C   UNL A   1      45.699  29.053  35.612  1.00  0.00     0.135 A 
ATOM     83  C   UNL A   1      44.218  27.558  36.768  1.00  0.00     0.135 A 
ATOM     84  F   UNL A   1      45.921  30.041  34.731  1.00  0.00    -0.206 F 
ATOM     85  C   UNL A   1      46.798  28.456  36.225  1.00  0.00     0.059 A 
ATOM     86  C   UNL A   1      45.297  26.967  37.417  1.00  0.00     0.059 A 
ATOM     87  F   UNL A   1      42.987  27.095  37.037  1.00  0.00    -0.206 F 
ATOM     88  C   UNL A   1      46.586  27.412  37.126  1.00  0.00     0.060 A 
BRANCH  88  89
ATOM     89  S   UNL A   1      48.016  26.656  37.931  1.00  0.00     0.124 S 
ATOM     90  O   UNL A   1      47.748  25.237  37.731  1.00  0.00    -0.237 OA
ATOM     91  O   UNL A   1      49.127  27.211  37.164  1.00  0.00    -0.237 OA
ATOM     92  O   UNL A   1      47.916  27.130  39.308  1.00  0.00    -0.744 OA
ENDBRANCH  88  89
ENDBRANCH  56  81
BRANCH  68  93
ATOM     93  C   UNL A   1      40.070  33.896  37.300  1.00  0.00     0.058 A 
ATOM     94  C   UNL A   1      40.780  35.107  37.351  1.00  0.00     0.135 A 
ATOM     95  C   UNL A   1      39.195  33.611  38.362  1.00  0.00     0.135 A 
ATOM     96  F   UNL A   1      41.633  35.429  36.366  1.00  0.00    -0.206 F 
ATOM     97  C   UNL A   1      40.644  35.988  38.419  1.00  0.00     0.059 A 
ATOM     98  C   UNL A   1      39.021  34.491  39.426  1.00  0.00     0.059 A 
ATOM     99  F   UNL A   1      38.481  32.474  38.363  1.00  0.00    -0.206 F 
ATOM    100  C   UNL A   1      39.760  35.673  39.452  1.00  0.00     0.060 A 
BRANCH 100 101
ATOM    101  S   UNL A   1      39.567  36.843  40.815  1.00  0.00     0.124 S 
ATOM    102  O   UNL A   1      40.487  37.906  40.425  1.00  0.00    -0.237 OA
ATOM    103  O   UNL A   1      38.148  37.174  40.745  1.00  0.00    -0.237 OA
ATOM    104  O   UNL A   1      39.966  36.068  41.988  1.00  0.00    -0.744 OA
ENDBRANCH 100 101
ENDBRANCH  68  93
ENDBRANCH  42  43
ENDBRANCH  35  37
ENDBRANCH  34  35
ENDBRANCH  33  34
ENDBRANCH  32  33
ENDBRANCH  31  32
ENDBRANCH   1  31
TORSDOF 23
ENDMDL
MODEL 3
REMARK VINA RESULT:      -9.7      5.235      7.597
REMARK SMILES CC(C)c1cc(N2CCC(C(=O)OCCOCCOCCOC(=O)c3ccc(-c4c5nc(c(-c6c(F)cc(S(=O)(=O)[O-])cc6F)c6ccc([nH]6)c(-c6c(F)cc(S(=O)(=O)[O-])cc6F)c6nc(c(-c7c(F)cc(S(=O)(=O)[O-])cc7F)c7ccc4[nH]7)C=C6)C=C5)cc3)CC2)nc(-c2ccc(F)cc2)n1
REMARK SMILES IDX 18 1 17 2 16 3 15 4 14 5 13 6 11 7 12 8 10 9 7 10 8 11 92 12
REMARK SMILES IDX 9 13 91 14 6 15 4 16 5 17 102 18 94 19 93 20 2 21 1 22 3 23
REMARK SMILES IDX 95 24 96 25 101 26 97 27 100 28 98 29 99 30 19 31 20 32
REMARK SMILES IDX 21 33 22 34 23 35 24 36 25 37 26 38 90 39 27 40 89 41 28 42
REMARK SMILES IDX 29 43 30 44 83 45 31 46 88 47 82 48 84 49 32 50 87 51 81 52
REMARK SMILES IDX 80 53 33 55 67 56 46 57 66 58 47 59 50 60 65 61 85 62 48 63
REMARK SMILES IDX 49 64 64 66 86 67 51 68 34 69 35 70 44 71 36 72 37 73 43 74
REMARK SMILES IDX 45 75 38 76 39 77 40 78 41 79 42 80 68 81 69 82 78 83 70 84
REMARK SMILES IDX 71 85 77 86 79 87 72 88 73 89 74 90 75 91 76 92 52 93 53 94
REMARK SMILES IDX 62 95 54 96 55 97 61 98 63 99 56 100 57 101 58 102 59 103
REMARK SMILES IDX 60 104
REMARK H PARENT 84 54 50 65
REMARK Flexibility Score: inf
ROOT
ATOM      1  C   UNL A   1      35.286  22.131  24.463  1.00  0.00     0.188 C 
ENDROOT
BRANCH   1   2
ATOM      2  C   UNL A   1      35.056  23.286  23.488  1.00  0.00     0.188 C 
BRANCH   2   3
ATOM      3  O   UNL A   1      33.788  23.922  23.524  1.00  0.00    -0.376 OA
BRANCH   3   4
ATOM      4  C   UNL A   1      33.312  24.486  22.306  1.00  0.00     0.202 C 
BRANCH   4   5
ATOM      5  C   UNL A   1      33.097  26.005  22.270  1.00  0.00     0.261 C 
BRANCH   5   6
ATOM      6  O   UNL A   1      32.960  26.626  23.564  1.00  0.00    -0.463 OA
BRANCH   6   7
ATOM      7  C   UNL A   1      31.695  26.993  23.910  1.00  0.00     0.309 C 
ATOM      8  O   UNL A   1      30.683  26.656  23.304  1.00  0.00    -0.252 OA
BRANCH   7   9
ATOM      9  C   UNL A   1      31.618  27.878  25.148  1.00  0.00     0.103 C 
ATOM     10  N   UNL A   1      33.010  29.610  26.917  1.00  0.00    -0.356 N 
ATOM     11  C   UNL A   1      32.511  28.378  27.497  1.00  0.00     0.119 C 
ATOM     12  C   UNL A   1      32.210  30.235  25.887  1.00  0.00     0.119 C 
ATOM     13  C   UNL A   1      32.333  27.335  26.397  1.00  0.00     0.037 C 
ATOM     14  C   UNL A   1      32.127  29.262  24.722  1.00  0.00     0.037 C 
BRANCH  10  15
ATOM     15  C   UNL A   1      33.950  30.309  27.633  1.00  0.00     0.132 A 
ATOM     16  C   UNL A   1      36.109  30.562  28.577  1.00  0.00     0.049 A 
ATOM     17  C   UNL A   1      35.194  29.773  27.902  1.00  0.00     0.071 A 
ATOM     18  N   UNL A   1      35.776  31.797  29.009  1.00  0.00    -0.233 NA
ATOM     19  C   UNL A   1      34.532  32.227  28.730  1.00  0.00     0.161 A 
ATOM     20  N   UNL A   1      33.612  31.538  28.042  1.00  0.00    -0.211 NA
BRANCH  16  21
ATOM     21  C   UNL A   1      37.516  30.091  28.909  1.00  0.00     0.032 C 
ATOM     22  C   UNL A   1      37.631  29.179  30.137  1.00  0.00     0.014 C 
ATOM     23  C   UNL A   1      38.141  29.381  27.702  1.00  0.00     0.014 C 
ENDBRANCH  16  21
BRANCH  19  24
ATOM     24  C   UNL A   1      34.129  33.537  29.251  1.00  0.00     0.019 A 
ATOM     25  C   UNL A   1      33.522  34.497  28.421  1.00  0.00     0.015 A 
ATOM     26  C   UNL A   1      34.337  33.865  30.605  1.00  0.00     0.015 A 
ATOM     27  C   UNL A   1      33.135  35.742  28.929  1.00  0.00     0.040 A 
ATOM     28  C   UNL A   1      33.966  35.114  31.111  1.00  0.00     0.040 A 
ATOM     29  C   UNL A   1      33.366  36.039  30.266  1.00  0.00     0.123 A 
ATOM     30  F   UNL A   1      33.006  37.236  30.749  1.00  0.00    -0.207 F 
ENDBRANCH  19  24
ENDBRANCH  10  15
ENDBRANCH   7   9
ENDBRANCH   6   7
ENDBRANCH   5   6
ENDBRANCH   4   5
ENDBRANCH   3   4
ENDBRANCH   2   3
ENDBRANCH   1   2
BRANCH   1  31
ATOM     31  O   UNL A   1      36.556  21.499  24.438  1.00  0.00    -0.376 OA
BRANCH  31  32
ATOM     32  C   UNL A   1      37.506  22.021  25.376  1.00  0.00     0.202 C 
BRANCH  32  33
ATOM     33  C   UNL A   1      38.625  21.045  25.811  1.00  0.00     0.261 C 
BRANCH  33  34
ATOM     34  O   UNL A   1      39.949  21.609  25.976  1.00  0.00    -0.460 OA
BRANCH  34  35
ATOM     35  C   UNL A   1      40.561  21.463  27.178  1.00  0.00     0.338 C 
ATOM     36  O   UNL A   1      40.696  20.415  27.788  1.00  0.00    -0.246 OA
BRANCH  35  37
ATOM     37  C   UNL A   1      41.299  22.720  27.507  1.00  0.00     0.060 A 
ATOM     38  C   UNL A   1      42.007  22.774  28.719  1.00  0.00     0.016 A 
ATOM     39  C   UNL A   1      41.378  23.801  26.624  1.00  0.00     0.016 A 
ATOM     40  C   UNL A   1      42.765  23.904  29.058  1.00  0.00     0.010 A 
ATOM     41  C   UNL A   1      42.122  24.941  26.974  1.00  0.00     0.010 A 
ATOM     42  C   UNL A   1      42.807  25.012  28.202  1.00  0.00    -0.014 A 
BRANCH  42  43
ATOM     43  C   UNL A   1      43.440  26.290  28.638  1.00  0.00     0.031 A 
ATOM     44  C   UNL A   1      44.922  26.479  28.414  1.00  0.00     0.074 A 
ATOM     45  C   UNL A   1      42.735  27.277  29.227  1.00  0.00     0.049 A 
ATOM     46  N   UNL A   1      45.701  27.461  28.792  1.00  0.00    -0.248 NA
ATOM     47  C   UNL A   1      45.611  25.418  27.664  1.00  0.00     0.031 C 
ATOM     48  C   UNL A   1      41.293  27.262  29.469  1.00  0.00     0.029 A 
ATOM     49  N   UNL A   1      43.147  28.483  29.748  1.00  0.00    -0.354 N 
ATOM     50  C   UNL A   1      46.975  27.129  28.339  1.00  0.00     0.074 A 
ATOM     51  C   UNL A   1      46.864  25.852  27.670  1.00  0.00     0.031 C 
ATOM     52  C   UNL A   1      40.945  28.393  30.109  1.00  0.00     0.029 A 
ATOM     53  C   UNL A   1      42.141  29.198  30.361  1.00  0.00     0.049 A 
ATOM     54  H   UNL A   1      44.075  28.807  29.689  1.00  0.00     0.167 HD
ATOM     55  C   UNL A   1      48.130  27.826  28.467  1.00  0.00     0.037 A 
ATOM     56  C   UNL A   1      42.183  30.346  31.072  1.00  0.00     0.037 A 
ATOM     57  C   UNL A   1      48.248  29.101  29.124  1.00  0.00     0.049 A 
ATOM     58  C   UNL A   1      43.501  31.058  31.275  1.00  0.00     0.074 A 
ATOM     59  C   UNL A   1      49.378  29.891  29.265  1.00  0.00     0.029 A 
ATOM     60  N   UNL A   1      47.216  29.770  29.761  1.00  0.00    -0.354 N 
ATOM     61  N   UNL A   1      44.688  30.750  30.810  1.00  0.00    -0.248 NA
ATOM     62  C   UNL A   1      43.485  32.272  32.107  1.00  0.00     0.031 C 
ATOM     63  C   UNL A   1      49.041  31.006  30.038  1.00  0.00     0.029 A 
ATOM     64  C   UNL A   1      47.689  30.943  30.328  1.00  0.00     0.049 A 
ATOM     65  H   UNL A   1      46.283  29.458  29.804  1.00  0.00     0.167 HD
ATOM     66  C   UNL A   1      45.550  31.744  31.272  1.00  0.00     0.074 A 
ATOM     67  C   UNL A   1      44.747  32.673  32.037  1.00  0.00     0.031 C 
ATOM     68  C   UNL A   1      46.887  31.872  31.081  1.00  0.00     0.037 A 
BRANCH  55  69
ATOM     69  C   UNL A   1      49.385  27.216  27.905  1.00  0.00     0.058 A 
ATOM     70  C   UNL A   1      49.762  27.401  26.566  1.00  0.00     0.135 A 
ATOM     71  C   UNL A   1      50.262  26.509  28.743  1.00  0.00     0.135 A 
ATOM     72  F   UNL A   1      48.952  28.054  25.719  1.00  0.00    -0.206 F 
ATOM     73  C   UNL A   1      50.964  26.901  26.076  1.00  0.00     0.059 A 
ATOM     74  C   UNL A   1      51.480  26.021  28.281  1.00  0.00     0.059 A 
ATOM     75  F   UNL A   1      49.947  26.302  30.032  1.00  0.00    -0.206 F 
ATOM     76  C   UNL A   1      51.820  26.218  26.944  1.00  0.00     0.060 A 
BRANCH  76  77
ATOM     77  S   UNL A   1      53.393  25.611  26.299  1.00  0.00     0.124 S 
ATOM     78  O   UNL A   1      53.717  26.634  25.309  1.00  0.00    -0.237 OA
ATOM     79  O   UNL A   1      54.233  25.595  27.492  1.00  0.00    -0.237 OA
ATOM     80  O   UNL A   1      53.056  24.298  25.756  1.00  0.00    -0.744 OA
ENDBRANCH  76  77
ENDBRANCH  55  69
BRANCH  56  81
ATOM     81  C   UNL A   1      40.945  30.895  31.698  1.00  0.00     0.058 A 
ATOM     82  C   UNL A   1      40.534  30.488  32.977  1.00  0.00     0.135 A 
ATOM     83  C   UNL A   1      40.115  31.789  31.004  1.00  0.00     0.135 A 
ATOM     84  F   UNL A   1      41.279  29.617  33.675  1.00  0.00    -0.206 F 
ATOM     85  C   UNL A   1      39.335  30.925  33.534  1.00  0.00     0.059 A 
ATOM     86  C   UNL A   1      38.927  32.265  31.552  1.00  0.00     0.059 A 
ATOM     87  F   UNL A   1      40.459  32.211  29.777  1.00  0.00    -0.206 F 
ATOM     88  C   UNL A   1      38.537  31.813  32.812  1.00  0.00     0.060 A 
BRANCH  88  89
ATOM     89  S   UNL A   1      36.991  32.388  33.549  1.00  0.00     0.124 S 
ATOM     90  O   UNL A   1      36.934  33.765  33.074  1.00  0.00    -0.237 OA
ATOM     91  O   UNL A   1      36.015  31.471  32.968  1.00  0.00    -0.237 OA
ATOM     92  O   UNL A   1      37.221  32.223  34.981  1.00  0.00    -0.744 OA
ENDBRANCH  88  89
ENDBRANCH  56  81
BRANCH  68  93
ATOM     93  C   UNL A   1      47.573  33.074  31.678  1.00  0.00     0.058 A 
ATOM     94  C   UNL A   1      47.666  34.293  30.987  1.00  0.00     0.135 A 
ATOM     95  C   UNL A   1      48.096  33.023  32.982  1.00  0.00     0.135 A 
ATOM     96  F   UNL A   1      47.188  34.398  29.737  1.00  0.00    -0.206 F 
ATOM     97  C   UNL A   1      48.270  35.409  31.557  1.00  0.00     0.059 A 
ATOM     98  C   UNL A   1      48.678  34.136  33.582  1.00  0.00     0.059 A 
ATOM     99  F   UNL A   1      48.026  31.888  33.695  1.00  0.00    -0.206 F 
ATOM    100  C   UNL A   1      48.771  35.323  32.857  1.00  0.00     0.060 A 
BRANCH 100 101
ATOM    101  S   UNL A   1      49.522  36.790  33.597  1.00  0.00     0.124 S 
ATOM    102  O   UNL A   1      50.762  36.246  34.138  1.00  0.00    -0.237 OA
ATOM    103  O   UNL A   1      49.667  37.680  32.448  1.00  0.00    -0.237 OA
ATOM    104  O   UNL A   1      48.537  37.214  34.589  1.00  0.00    -0.744 OA
ENDBRANCH 100 101
ENDBRANCH  68  93
ENDBRANCH  42  43
ENDBRANCH  35  37
ENDBRANCH  34  35
ENDBRANCH  33  34
ENDBRANCH  32  33
ENDBRANCH  31  32
ENDBRANCH   1  31
TORSDOF 23
ENDMDL
