MODEL 1
REMARK VINA RESULT:      -8.3      0.000      0.000
REMARK SMILES O=C(CSc1ccc(Cl)cc1)Nc1cccc(C(=O)Nc2ccc(C(=O)OCCOCCOCCOC(=O)c3ccc(-c4c5nc(c(-c6c(F)cc(S(=O)(=O)[O-])cc6F)c6ccc([nH]6)c(-c6c(F)cc(S(=O)(=O)[O-])cc6F)c6nc(c(-c7c(F)cc(S(=O)(=O)[O-])cc7F)c7ccc4[nH]7)C=C6)C=C5)cc3)cc2)c1
REMARK SMILES IDX 30 1 29 2 28 3 27 4 25 5 26 6 24 7 21 8 22 9 106 10 23 11
REMARK SMILES IDX 105 12 20 13 18 14 19 15 17 17 13 18 14 19 107 20 15 21
REMARK SMILES IDX 16 22 12 23 1 24 2 25 3 27 4 28 5 29 6 30 11 31 7 32 10 33
REMARK SMILES IDX 8 34 9 35 31 36 32 37 33 38 34 39 35 40 36 41 37 42 38 43
REMARK SMILES IDX 39 44 40 45 104 46 41 47 103 48 42 49 43 50 44 51 97 52
REMARK SMILES IDX 45 53 102 54 96 55 98 56 46 57 101 58 95 59 94 60 47 62
REMARK SMILES IDX 81 63 60 64 80 65 61 66 64 67 79 68 99 69 62 70 63 71 78 73
REMARK SMILES IDX 100 74 65 75 48 76 49 77 58 78 50 79 51 80 57 81 59 82 52 83
REMARK SMILES IDX 53 84 54 85 55 86 56 87 82 88 83 89 92 90 84 91 85 92 91 93
REMARK SMILES IDX 93 94 86 95 87 96 88 97 89 98 90 99 66 100 67 101 76 102
REMARK SMILES IDX 68 103 69 104 75 105 77 106 70 107 71 108 72 109 73 110
REMARK SMILES IDX 74 111
REMARK H PARENT 20 16 12 26 98 61 64 72
REMARK Flexibility Score: inf
ROOT
ATOM      1  O   UNL A   1      42.721  24.464  26.121  1.00  0.00    -0.376 OA
ENDROOT
BRANCH   1   2
ATOM      2  C   UNL A   1      42.869  25.788  25.649  1.00  0.00     0.202 C 
BRANCH   2   3
ATOM      3  C   UNL A   1      42.143  27.028  26.196  1.00  0.00     0.261 C 
BRANCH   3   4
ATOM      4  O   UNL A   1      40.780  26.905  26.604  1.00  0.00    -0.460 OA
BRANCH   4   5
ATOM      5  C   UNL A   1      40.594  26.719  27.937  1.00  0.00     0.338 C 
ATOM      6  O   UNL A   1      41.004  25.763  28.579  1.00  0.00    -0.246 OA
BRANCH   5   7
ATOM      7  C   UNL A   1      39.913  27.891  28.549  1.00  0.00     0.060 A 
ATOM      8  C   UNL A   1      38.944  29.939  30.147  1.00  0.00     0.041 A 
ATOM      9  C   UNL A   1      40.170  30.098  29.499  1.00  0.00     0.027 A 
ATOM     10  C   UNL A   1      38.097  28.882  29.805  1.00  0.00     0.027 A 
ATOM     11  C   UNL A   1      40.671  29.052  28.729  1.00  0.00     0.018 A 
ATOM     12  C   UNL A   1      38.585  27.848  29.002  1.00  0.00     0.018 A 
BRANCH   8  13
ATOM     13  N   UNL A   1      38.708  30.778  31.240  1.00  0.00    -0.322 N 
ATOM     14  C   UNL A   1      37.843  31.852  31.365  1.00  0.00     0.255 C 
ATOM     15  O   UNL A   1      37.817  32.434  32.454  1.00  0.00    -0.269 OA
ATOM     16  H   UNL A   1      39.239  30.574  32.043  1.00  0.00     0.170 HD
BRANCH  14  17
ATOM     17  C   UNL A   1      36.910  32.334  30.290  1.00  0.00     0.042 A 
ATOM     18  C   UNL A   1      34.946  32.144  28.856  1.00  0.00     0.041 A 
ATOM     19  C   UNL A   1      35.444  33.156  28.038  1.00  0.00     0.026 A 
ATOM     20  C   UNL A   1      35.631  31.821  30.035  1.00  0.00     0.040 A 
ATOM     21  C   UNL A   1      36.620  33.819  28.384  1.00  0.00     0.003 A 
ATOM     22  C   UNL A   1      37.364  33.388  29.483  1.00  0.00     0.014 A 
BRANCH  18  23
ATOM     23  N   UNL A   1      33.846  31.402  28.376  1.00  0.00    -0.325 N 
ATOM     24  O   UNL A   1      34.874  29.851  27.005  1.00  0.00    -0.274 OA
ATOM     25  C   UNL A   1      33.873  30.458  27.370  1.00  0.00     0.234 C 
ATOM     26  H   UNL A   1      32.974  31.573  28.801  1.00  0.00     0.169 HD
BRANCH  25  27
ATOM     27  C   UNL A   1      32.542  30.272  26.659  1.00  0.00     0.175 C 
BRANCH  27  28
ATOM     28  S   UNL A   1      32.712  29.503  25.030  1.00  0.00    -0.116 SA
BRANCH  28  29
ATOM     29  C   UNL A   1      32.513  27.803  25.526  1.00  0.00     0.008 A 
ATOM     30  C   UNL A   1      33.625  26.965  25.437  1.00  0.00     0.016 A 
ATOM     31  C   UNL A   1      31.278  27.282  25.930  1.00  0.00     0.016 A 
ATOM     32  C   UNL A   1      33.501  25.607  25.725  1.00  0.00     0.021 A 
ATOM     33  C   UNL A   1      31.154  25.920  26.218  1.00  0.00     0.021 A 
ATOM     34  C   UNL A   1      32.267  25.089  26.111  1.00  0.00     0.041 A 
ATOM     35  Cl  UNL A   1      32.125  23.411  26.460  1.00  0.00    -0.084 Cl
ENDBRANCH  28  29
ENDBRANCH  27  28
ENDBRANCH  25  27
ENDBRANCH  18  23
ENDBRANCH  14  17
ENDBRANCH   8  13
ENDBRANCH   5   7
ENDBRANCH   4   5
ENDBRANCH   3   4
ENDBRANCH   2   3
ENDBRANCH   1   2
BRANCH   1  36
ATOM     36  C   UNL A   1      43.840  23.709  26.520  1.00  0.00     0.188 C 
BRANCH  36  37
ATOM     37  C   UNL A   1      44.821  23.339  25.386  1.00  0.00     0.188 C 
BRANCH  37  38
ATOM     38  O   UNL A   1      46.156  23.816  25.411  1.00  0.00    -0.376 OA
BRANCH  38  39
ATOM     39  C   UNL A   1      46.661  24.346  26.628  1.00  0.00     0.202 C 
BRANCH  39  40
ATOM     40  C   UNL A   1      47.582  25.583  26.651  1.00  0.00     0.261 C 
BRANCH  40  41
ATOM     41  O   UNL A   1      48.215  25.937  25.412  1.00  0.00    -0.460 OA
BRANCH  41  42
ATOM     42  C   UNL A   1      47.636  26.955  24.721  1.00  0.00     0.338 C 
ATOM     43  O   UNL A   1      47.444  27.006  23.519  1.00  0.00    -0.246 OA
BRANCH  42  44
ATOM     44  C   UNL A   1      47.045  27.922  25.676  1.00  0.00     0.060 A 
ATOM     45  C   UNL A   1      47.908  28.699  26.467  1.00  0.00     0.016 A 
ATOM     46  C   UNL A   1      45.663  28.061  25.799  1.00  0.00     0.016 A 
ATOM     47  C   UNL A   1      47.392  29.602  27.396  1.00  0.00     0.010 A 
ATOM     48  C   UNL A   1      45.147  28.941  26.757  1.00  0.00     0.010 A 
ATOM     49  C   UNL A   1      46.007  29.692  27.579  1.00  0.00    -0.014 A 
BRANCH  49  50
ATOM     50  C   UNL A   1      45.466  30.392  28.771  1.00  0.00     0.031 A 
ATOM     51  C   UNL A   1      45.294  29.599  30.038  1.00  0.00     0.074 A 
ATOM     52  C   UNL A   1      45.138  31.697  28.740  1.00  0.00     0.049 A 
ATOM     53  N   UNL A   1      44.775  29.960  31.182  1.00  0.00    -0.248 NA
ATOM     54  C   UNL A   1      45.770  28.205  30.004  1.00  0.00     0.031 C 
ATOM     55  C   UNL A   1      45.305  32.587  27.592  1.00  0.00     0.029 A 
ATOM     56  N   UNL A   1      44.581  32.496  29.708  1.00  0.00    -0.354 N 
ATOM     57  C   UNL A   1      44.846  28.837  31.999  1.00  0.00     0.074 A 
ATOM     58  C   UNL A   1      45.439  27.777  31.213  1.00  0.00     0.031 C 
ATOM     59  C   UNL A   1      44.843  33.808  27.918  1.00  0.00     0.029 A 
ATOM     60  C   UNL A   1      44.317  33.776  29.283  1.00  0.00     0.049 A 
ATOM     61  H   UNL A   1      44.389  32.181  30.621  1.00  0.00     0.167 HD
ATOM     62  C   UNL A   1      44.453  28.700  33.287  1.00  0.00     0.037 A 
ATOM     63  C   UNL A   1      43.699  34.794  29.916  1.00  0.00     0.037 A 
ATOM     64  C   UNL A   1      43.861  29.756  34.064  1.00  0.00     0.049 A 
ATOM     65  C   UNL A   1      43.200  34.598  31.328  1.00  0.00     0.074 A 
ATOM     66  C   UNL A   1      43.453  29.724  35.386  1.00  0.00     0.029 A 
ATOM     67  N   UNL A   1      43.582  31.028  33.589  1.00  0.00    -0.354 N 
ATOM     68  N   UNL A   1      43.294  33.539  32.098  1.00  0.00    -0.248 NA
ATOM     69  C   UNL A   1      42.509  35.733  31.955  1.00  0.00     0.031 C 
ATOM     70  C   UNL A   1      42.875  30.961  35.694  1.00  0.00     0.029 A 
ATOM     71  C   UNL A   1      42.978  31.782  34.583  1.00  0.00     0.049 A 
ATOM     72  H   UNL A   1      43.783  31.349  32.680  1.00  0.00     0.167 HD
ATOM     73  C   UNL A   1      42.706  33.894  33.310  1.00  0.00     0.074 A 
ATOM     74  C   UNL A   1      42.264  35.265  33.172  1.00  0.00     0.031 C 
ATOM     75  C   UNL A   1      42.552  33.152  34.436  1.00  0.00     0.037 A 
BRANCH  62  76
ATOM     76  C   UNL A   1      44.615  27.347  33.922  1.00  0.00     0.058 A 
ATOM     77  C   UNL A   1      43.548  26.442  34.027  1.00  0.00     0.135 A 
ATOM     78  C   UNL A   1      45.867  26.944  34.415  1.00  0.00     0.135 A 
ATOM     79  F   UNL A   1      42.325  26.785  33.592  1.00  0.00    -0.206 F 
ATOM     80  C   UNL A   1      43.709  25.195  34.622  1.00  0.00     0.059 A 
ATOM     81  C   UNL A   1      46.058  25.690  34.987  1.00  0.00     0.059 A 
ATOM     82  F   UNL A   1      46.921  27.772  34.345  1.00  0.00    -0.206 F 
ATOM     83  C   UNL A   1      44.969  24.828  35.099  1.00  0.00     0.060 A 
BRANCH  83  84
ATOM     84  S   UNL A   1      45.162  23.206  35.867  1.00  0.00     0.124 S 
ATOM     85  O   UNL A   1      44.120  22.438  35.191  1.00  0.00    -0.237 OA
ATOM     86  O   UNL A   1      46.535  22.858  35.517  1.00  0.00    -0.237 OA
ATOM     87  O   UNL A   1      44.927  23.469  37.284  1.00  0.00    -0.744 OA
ENDBRANCH  83  84
ENDBRANCH  62  76
BRANCH  63  88
ATOM     88  C   UNL A   1      43.501  36.098  29.223  1.00  0.00     0.058 A 
ATOM     89  C   UNL A   1      44.401  37.157  29.407  1.00  0.00     0.135 A 
ATOM     90  C   UNL A   1      42.403  36.314  28.377  1.00  0.00     0.135 A 
ATOM     91  F   UNL A   1      45.458  37.006  30.220  1.00  0.00    -0.206 F 
ATOM     92  C   UNL A   1      44.214  38.390  28.789  1.00  0.00     0.059 A 
ATOM     93  C   UNL A   1      42.208  37.530  27.726  1.00  0.00     0.059 A 
ATOM     94  F   UNL A   1      41.513  35.332  28.162  1.00  0.00    -0.206 F 
ATOM     95  C   UNL A   1      43.115  38.565  27.947  1.00  0.00     0.060 A 
BRANCH  95  96
ATOM     96  S   UNL A   1      42.906  40.155  27.116  1.00  0.00     0.124 S 
ATOM     97  O   UNL A   1      43.546  39.902  25.830  1.00  0.00    -0.237 OA
ATOM     98  O   UNL A   1      41.454  40.297  27.089  1.00  0.00    -0.237 OA
ATOM     99  O   UNL A   1      43.604  41.088  27.995  1.00  0.00    -0.744 OA
ENDBRANCH  95  96
ENDBRANCH  63  88
BRANCH  75 100
ATOM    100  C   UNL A   1      41.919  33.815  35.631  1.00  0.00     0.058 A 
ATOM    101  C   UNL A   1      42.677  34.519  36.579  1.00  0.00     0.135 A 
ATOM    102  C   UNL A   1      40.523  33.798  35.792  1.00  0.00     0.135 A 
ATOM    103  F   UNL A   1      44.015  34.565  36.475  1.00  0.00    -0.206 F 
ATOM    104  C   UNL A   1      42.076  35.164  37.656  1.00  0.00     0.059 A 
ATOM    105  C   UNL A   1      39.899  34.460  36.845  1.00  0.00     0.059 A 
ATOM    106  F   UNL A   1      39.748  33.150  34.908  1.00  0.00    -0.206 F 
ATOM    107  C   UNL A   1      40.686  35.132  37.780  1.00  0.00     0.060 A 
BRANCH 107 108
ATOM    108  S   UNL A   1      39.917  36.003  39.162  1.00  0.00     0.124 S 
ATOM    109  O   UNL A   1      39.423  37.210  38.510  1.00  0.00    -0.237 OA
ATOM    110  O   UNL A   1      38.897  35.055  39.599  1.00  0.00    -0.237 OA
ATOM    111  O   UNL A   1      41.021  36.201  40.097  1.00  0.00    -0.744 OA
ENDBRANCH 107 108
ENDBRANCH  75 100
ENDBRANCH  49  50
ENDBRANCH  42  44
ENDBRANCH  41  42
ENDBRANCH  40  41
ENDBRANCH  39  40
ENDBRANCH  38  39
ENDBRANCH  37  38
ENDBRANCH  36  37
ENDBRANCH   1  36
TORSDOF 26
ENDMDL
MODEL 2
REMARK VINA RESULT:      -8.2      4.623     12.770
REMARK SMILES O=C(CSc1ccc(Cl)cc1)Nc1cccc(C(=O)Nc2ccc(C(=O)OCCOCCOCCOC(=O)c3ccc(-c4c5nc(c(-c6c(F)cc(S(=O)(=O)[O-])cc6F)c6ccc([nH]6)c(-c6c(F)cc(S(=O)(=O)[O-])cc6F)c6nc(c(-c7c(F)cc(S(=O)(=O)[O-])cc7F)c7ccc4[nH]7)C=C6)C=C5)cc3)cc2)c1
REMARK SMILES IDX 30 1 29 2 28 3 27 4 25 5 26 6 24 7 21 8 22 9 106 10 23 11
REMARK SMILES IDX 105 12 20 13 18 14 19 15 17 17 13 18 14 19 107 20 15 21
REMARK SMILES IDX 16 22 12 23 1 24 2 25 3 27 4 28 5 29 6 30 11 31 7 32 10 33
REMARK SMILES IDX 8 34 9 35 31 36 32 37 33 38 34 39 35 40 36 41 37 42 38 43
REMARK SMILES IDX 39 44 40 45 104 46 41 47 103 48 42 49 43 50 44 51 97 52
REMARK SMILES IDX 45 53 102 54 96 55 98 56 46 57 101 58 95 59 94 60 47 62
REMARK SMILES IDX 81 63 60 64 80 65 61 66 64 67 79 68 99 69 62 70 63 71 78 73
REMARK SMILES IDX 100 74 65 75 48 76 49 77 58 78 50 79 51 80 57 81 59 82 52 83
REMARK SMILES IDX 53 84 54 85 55 86 56 87 82 88 83 89 92 90 84 91 85 92 91 93
REMARK SMILES IDX 93 94 86 95 87 96 88 97 89 98 90 99 66 100 67 101 76 102
REMARK SMILES IDX 68 103 69 104 75 105 77 106 70 107 71 108 72 109 73 110
REMARK SMILES IDX 74 111
REMARK H PARENT 20 16 12 26 98 61 64 72
REMARK Flexibility Score: inf
ROOT
ATOM      1  O   UNL A   1      34.420  34.669  32.226  1.00  0.00    -0.376 OA
ENDROOT
BRANCH   1   2
ATOM      2  C   UNL A   1      34.652  34.217  33.545  1.00  0.00     0.202 C 
BRANCH   2   3
ATOM      3  C   UNL A   1      35.910  34.493  34.386  1.00  0.00     0.261 C 
BRANCH   3   4
ATOM      4  O   UNL A   1      37.133  34.803  33.716  1.00  0.00    -0.460 OA
BRANCH   4   5
ATOM      5  C   UNL A   1      38.256  34.607  34.454  1.00  0.00     0.338 C 
ATOM      6  O   UNL A   1      38.977  35.492  34.890  1.00  0.00    -0.246 OA
BRANCH   5   7
ATOM      7  C   UNL A   1      38.447  33.165  34.762  1.00  0.00     0.060 A 
ATOM      8  C   UNL A   1      39.305  30.642  35.527  1.00  0.00     0.041 A 
ATOM      9  C   UNL A   1      38.761  31.499  36.484  1.00  0.00     0.027 A 
ATOM     10  C   UNL A   1      39.192  30.940  34.167  1.00  0.00     0.027 A 
ATOM     11  C   UNL A   1      38.368  32.779  36.103  1.00  0.00     0.018 A 
ATOM     12  C   UNL A   1      38.762  32.212  33.780  1.00  0.00     0.018 A 
BRANCH   8  13
ATOM     13  N   UNL A   1      40.091  29.591  36.011  1.00  0.00    -0.322 N 
ATOM     14  C   UNL A   1      41.466  29.503  36.153  1.00  0.00     0.255 C 
ATOM     15  O   UNL A   1      41.920  28.453  36.617  1.00  0.00    -0.269 OA
ATOM     16  H   UNL A   1      39.590  28.793  36.292  1.00  0.00     0.170 HD
BRANCH  14  17
ATOM     17  C   UNL A   1      42.437  30.601  35.821  1.00  0.00     0.042 A 
ATOM     18  C   UNL A   1      43.583  32.709  36.260  1.00  0.00     0.041 A 
ATOM     19  C   UNL A   1      44.007  32.756  34.933  1.00  0.00     0.026 A 
ATOM     20  C   UNL A   1      42.896  31.576  36.717  1.00  0.00     0.040 A 
ATOM     21  C   UNL A   1      43.729  31.695  34.074  1.00  0.00     0.003 A 
ATOM     22  C   UNL A   1      42.921  30.643  34.506  1.00  0.00     0.014 A 
BRANCH  18  23
ATOM     23  N   UNL A   1      43.751  33.874  37.039  1.00  0.00    -0.325 N 
ATOM     24  O   UNL A   1      45.311  33.186  38.600  1.00  0.00    -0.274 OA
ATOM     25  C   UNL A   1      44.441  33.968  38.230  1.00  0.00     0.234 C 
ATOM     26  H   UNL A   1      43.336  34.700  36.699  1.00  0.00     0.169 HD
BRANCH  25  27
ATOM     27  C   UNL A   1      43.976  35.104  39.127  1.00  0.00     0.175 C 
BRANCH  27  28
ATOM     28  S   UNL A   1      45.200  36.427  39.282  1.00  0.00    -0.116 SA
BRANCH  28  29
ATOM     29  C   UNL A   1      44.088  37.760  39.685  1.00  0.00     0.008 A 
ATOM     30  C   UNL A   1      42.723  37.474  39.743  1.00  0.00     0.016 A 
ATOM     31  C   UNL A   1      44.532  39.074  39.874  1.00  0.00     0.016 A 
ATOM     32  C   UNL A   1      41.803  38.497  39.963  1.00  0.00     0.021 A 
ATOM     33  C   UNL A   1      43.609  40.101  40.094  1.00  0.00     0.021 A 
ATOM     34  C   UNL A   1      42.248  39.806  40.135  1.00  0.00     0.041 A 
ATOM     35  Cl  UNL A   1      41.104  41.062  40.403  1.00  0.00    -0.084 Cl
ENDBRANCH  28  29
ENDBRANCH  27  28
ENDBRANCH  25  27
ENDBRANCH  18  23
ENDBRANCH  14  17
ENDBRANCH   8  13
ENDBRANCH   5   7
ENDBRANCH   4   5
ENDBRANCH   3   4
ENDBRANCH   2   3
ENDBRANCH   1   2
BRANCH   1  36
ATOM     36  C   UNL A   1      33.937  35.968  31.980  1.00  0.00     0.188 C 
BRANCH  36  37
ATOM     37  C   UNL A   1      32.524  36.037  31.363  1.00  0.00     0.188 C 
BRANCH  37  38
ATOM     38  O   UNL A   1      32.362  36.190  29.963  1.00  0.00    -0.376 OA
BRANCH  38  39
ATOM     39  C   UNL A   1      33.396  35.724  29.108  1.00  0.00     0.202 C 
BRANCH  39  40
ATOM     40  C   UNL A   1      33.405  34.283  28.560  1.00  0.00     0.261 C 
BRANCH  40  41
ATOM     41  O   UNL A   1      33.797  33.249  29.476  1.00  0.00    -0.460 OA
BRANCH  41  42
ATOM     42  C   UNL A   1      34.424  32.177  28.923  1.00  0.00     0.338 C 
ATOM     43  O   UNL A   1      33.978  31.428  28.070  1.00  0.00    -0.246 OA
BRANCH  42  44
ATOM     44  C   UNL A   1      35.847  32.173  29.337  1.00  0.00     0.060 A 
ATOM     45  C   UNL A   1      36.761  32.953  28.610  1.00  0.00     0.016 A 
ATOM     46  C   UNL A   1      36.281  31.409  30.420  1.00  0.00     0.016 A 
ATOM     47  C   UNL A   1      38.113  32.957  28.951  1.00  0.00     0.010 A 
ATOM     48  C   UNL A   1      37.644  31.386  30.738  1.00  0.00     0.010 A 
ATOM     49  C   UNL A   1      38.569  32.135  29.988  1.00  0.00    -0.014 A 
BRANCH  49  50
ATOM     50  C   UNL A   1      40.023  31.882  30.142  1.00  0.00     0.031 A 
ATOM     51  C   UNL A   1      40.881  32.998  30.676  1.00  0.00     0.074 A 
ATOM     52  C   UNL A   1      40.576  30.697  29.824  1.00  0.00     0.049 A 
ATOM     53  N   UNL A   1      42.178  33.050  30.829  1.00  0.00    -0.248 NA
ATOM     54  C   UNL A   1      40.175  34.224  31.087  1.00  0.00     0.031 C 
ATOM     55  C   UNL A   1      39.847  29.523  29.348  1.00  0.00     0.029 A 
ATOM     56  N   UNL A   1      41.888  30.294  29.846  1.00  0.00    -0.354 N 
ATOM     57  C   UNL A   1      42.446  34.315  31.339  1.00  0.00     0.074 A 
ATOM     58  C   UNL A   1      41.180  35.007  31.449  1.00  0.00     0.031 C 
ATOM     59  C   UNL A   1      40.728  28.534  29.105  1.00  0.00     0.029 A 
ATOM     60  C   UNL A   1      42.082  29.018  29.376  1.00  0.00     0.049 A 
ATOM     61  H   UNL A   1      42.622  30.867  30.168  1.00  0.00     0.167 HD
ATOM     62  C   UNL A   1      43.639  34.854  31.684  1.00  0.00     0.037 A 
ATOM     63  C   UNL A   1      43.224  28.331  29.165  1.00  0.00     0.037 A 
ATOM     64  C   UNL A   1      44.897  34.164  31.571  1.00  0.00     0.049 A 
ATOM     65  C   UNL A   1      44.550  28.978  29.486  1.00  0.00     0.074 A 
ATOM     66  C   UNL A   1      46.158  34.615  31.919  1.00  0.00     0.029 A 
ATOM     67  N   UNL A   1      45.055  32.884  31.062  1.00  0.00    -0.354 N 
ATOM     68  N   UNL A   1      44.790  30.166  29.990  1.00  0.00    -0.248 NA
ATOM     69  C   UNL A   1      45.760  28.191  29.209  1.00  0.00     0.031 C 
ATOM     70  C   UNL A   1      47.086  33.628  31.568  1.00  0.00     0.029 A 
ATOM     71  C   UNL A   1      46.397  32.540  31.058  1.00  0.00     0.049 A 
ATOM     72  H   UNL A   1      44.323  32.305  30.749  1.00  0.00     0.167 HD
ATOM     73  C   UNL A   1      46.174  30.254  30.121  1.00  0.00     0.074 A 
ATOM     74  C   UNL A   1      46.717  28.998  29.648  1.00  0.00     0.031 C 
ATOM     75  C   UNL A   1      46.925  31.280  30.595  1.00  0.00     0.037 A 
BRANCH  62  76
ATOM     76  C   UNL A   1      43.643  36.273  32.180  1.00  0.00     0.058 A 
ATOM     77  C   UNL A   1      43.919  37.357  31.331  1.00  0.00     0.135 A 
ATOM     78  C   UNL A   1      43.343  36.553  33.523  1.00  0.00     0.135 A 
ATOM     79  F   UNL A   1      44.232  37.144  30.043  1.00  0.00    -0.206 F 
ATOM     80  C   UNL A   1      43.924  38.666  31.802  1.00  0.00     0.059 A 
ATOM     81  C   UNL A   1      43.314  37.857  34.009  1.00  0.00     0.059 A 
ATOM     82  F   UNL A   1      43.077  35.555  34.380  1.00  0.00    -0.206 F 
ATOM     83  C   UNL A   1      43.621  38.905  33.144  1.00  0.00     0.060 A 
BRANCH  83  84
ATOM     84  S   UNL A   1      43.630  40.609  33.739  1.00  0.00     0.124 S 
ATOM     85  O   UNL A   1      44.645  41.212  32.882  1.00  0.00    -0.237 OA
ATOM     86  O   UNL A   1      42.256  41.033  33.491  1.00  0.00    -0.237 OA
ATOM     87  O   UNL A   1      43.996  40.476  35.147  1.00  0.00    -0.744 OA
ENDBRANCH  83  84
ENDBRANCH  62  76
BRANCH  63  88
ATOM     88  C   UNL A   1      43.175  26.949  28.610  1.00  0.00     0.058 A 
ATOM     89  C   UNL A   1      43.050  26.729  27.231  1.00  0.00     0.135 A 
ATOM     90  C   UNL A   1      43.238  25.825  29.448  1.00  0.00     0.135 A 
ATOM     91  F   UNL A   1      42.968  27.772  26.390  1.00  0.00    -0.206 F 
ATOM     92  C   UNL A   1      42.974  25.444  26.701  1.00  0.00     0.059 A 
ATOM     93  C   UNL A   1      43.192  24.529  28.940  1.00  0.00     0.059 A 
ATOM     94  F   UNL A   1      43.363  25.979  30.775  1.00  0.00    -0.206 F 
ATOM     95  C   UNL A   1      43.049  24.350  27.564  1.00  0.00     0.060 A 
BRANCH  95  96
ATOM     96  S   UNL A   1      42.994  22.687  26.861  1.00  0.00     0.124 S 
ATOM     97  O   UNL A   1      42.082  22.873  25.737  1.00  0.00    -0.237 OA
ATOM     98  O   UNL A   1      44.392  22.455  26.516  1.00  0.00    -0.237 OA
ATOM     99  O   UNL A   1      42.483  21.874  27.960  1.00  0.00    -0.744 OA
ENDBRANCH  95  96
ENDBRANCH  63  88
BRANCH  75 100
ATOM    100  C   UNL A   1      48.416  31.079  30.673  1.00  0.00     0.058 A 
ATOM    101  C   UNL A   1      49.031  30.513  31.799  1.00  0.00     0.135 A 
ATOM    102  C   UNL A   1      49.231  31.402  29.575  1.00  0.00     0.135 A 
ATOM    103  F   UNL A   1      48.300  30.189  32.878  1.00  0.00    -0.206 F 
ATOM    104  C   UNL A   1      50.405  30.294  31.844  1.00  0.00     0.059 A 
ATOM    105  C   UNL A   1      50.602  31.164  29.586  1.00  0.00     0.059 A 
ATOM    106  F   UNL A   1      48.693  31.935  28.466  1.00  0.00    -0.206 F 
ATOM    107  C   UNL A   1      51.182  30.620  30.731  1.00  0.00     0.060 A 
BRANCH 107 108
ATOM    108  S   UNL A   1      52.958  30.296  30.788  1.00  0.00     0.124 S 
ATOM    109  O   UNL A   1      53.008  29.062  31.563  1.00  0.00    -0.237 OA
ATOM    110  O   UNL A   1      53.297  30.171  29.373  1.00  0.00    -0.237 OA
ATOM    111  O   UNL A   1      53.499  31.478  31.453  1.00  0.00    -0.744 OA
ENDBRANCH 107 108
ENDBRANCH  75 100
ENDBRANCH  49  50
ENDBRANCH  42  44
ENDBRANCH  41  42
ENDBRANCH  40  41
ENDBRANCH  39  40
ENDBRANCH  38  39
ENDBRANCH  37  38
ENDBRANCH  36  37
ENDBRANCH   1  36
TORSDOF 26
ENDMDL
MODEL 3
REMARK VINA RESULT:      -8.1      5.682      9.896
REMARK SMILES O=C(CSc1ccc(Cl)cc1)Nc1cccc(C(=O)Nc2ccc(C(=O)OCCOCCOCCOC(=O)c3ccc(-c4c5nc(c(-c6c(F)cc(S(=O)(=O)[O-])cc6F)c6ccc([nH]6)c(-c6c(F)cc(S(=O)(=O)[O-])cc6F)c6nc(c(-c7c(F)cc(S(=O)(=O)[O-])cc7F)c7ccc4[nH]7)C=C6)C=C5)cc3)cc2)c1
REMARK SMILES IDX 30 1 29 2 28 3 27 4 25 5 26 6 24 7 21 8 22 9 106 10 23 11
REMARK SMILES IDX 105 12 20 13 18 14 19 15 17 17 13 18 14 19 107 20 15 21
REMARK SMILES IDX 16 22 12 23 1 24 2 25 3 27 4 28 5 29 6 30 11 31 7 32 10 33
REMARK SMILES IDX 8 34 9 35 31 36 32 37 33 38 34 39 35 40 36 41 37 42 38 43
REMARK SMILES IDX 39 44 40 45 104 46 41 47 103 48 42 49 43 50 44 51 97 52
REMARK SMILES IDX 45 53 102 54 96 55 98 56 46 57 101 58 95 59 94 60 47 62
REMARK SMILES IDX 81 63 60 64 80 65 61 66 64 67 79 68 99 69 62 70 63 71 78 73
REMARK SMILES IDX 100 74 65 75 48 76 49 77 58 78 50 79 51 80 57 81 59 82 52 83
REMARK SMILES IDX 53 84 54 85 55 86 56 87 82 88 83 89 92 90 84 91 85 92 91 93
REMARK SMILES IDX 93 94 86 95 87 96 88 97 89 98 90 99 66 100 67 101 76 102
REMARK SMILES IDX 68 103 69 104 75 105 77 106 70 107 71 108 72 109 73 110
REMARK SMILES IDX 74 111
REMARK H PARENT 20 16 12 26 98 61 64 72
REMARK Flexibility Score: inf
ROOT
ATOM      1  O   UNL A   1      40.686  26.208  27.794  1.00  0.00    -0.376 OA
ENDROOT
BRANCH   1   2
ATOM      2  C   UNL A   1      41.177  26.996  28.859  1.00  0.00     0.202 C 
BRANCH   2   3
ATOM      3  C   UNL A   1      40.728  28.425  29.207  1.00  0.00     0.261 C 
BRANCH   3   4
ATOM      4  O   UNL A   1      39.489  28.610  29.894  1.00  0.00    -0.460 OA
BRANCH   4   5
ATOM      5  C   UNL A   1      38.954  29.854  29.785  1.00  0.00     0.338 C 
ATOM      6  O   UNL A   1      38.498  30.338  28.760  1.00  0.00    -0.246 OA
BRANCH   5   7
ATOM      7  C   UNL A   1      38.890  30.524  31.111  1.00  0.00     0.060 A 
ATOM      8  C   UNL A   1      38.223  31.824  33.467  1.00  0.00     0.041 A 
ATOM      9  C   UNL A   1      38.024  30.447  33.366  1.00  0.00     0.027 A 
ATOM     10  C   UNL A   1      38.974  32.502  32.504  1.00  0.00     0.027 A 
ATOM     11  C   UNL A   1      38.324  29.805  32.168  1.00  0.00     0.018 A 
ATOM     12  C   UNL A   1      39.309  31.849  31.315  1.00  0.00     0.018 A 
BRANCH   8  13
ATOM     13  N   UNL A   1      37.501  32.482  34.468  1.00  0.00    -0.322 N 
ATOM     14  C   UNL A   1      36.317  33.197  34.385  1.00  0.00     0.255 C 
ATOM     15  O   UNL A   1      35.877  33.684  35.432  1.00  0.00    -0.269 OA
ATOM     16  H   UNL A   1      37.895  32.430  35.368  1.00  0.00     0.170 HD
BRANCH  14  17
ATOM     17  C   UNL A   1      35.515  33.390  33.129  1.00  0.00     0.042 A 
ATOM     18  C   UNL A   1      34.673  32.696  30.948  1.00  0.00     0.041 A 
ATOM     19  C   UNL A   1      34.277  34.006  30.683  1.00  0.00     0.026 A 
ATOM     20  C   UNL A   1      35.187  32.382  32.213  1.00  0.00     0.040 A 
ATOM     21  C   UNL A   1      34.413  34.987  31.662  1.00  0.00     0.003 A 
ATOM     22  C   UNL A   1      35.059  34.689  32.863  1.00  0.00     0.014 A 
BRANCH  18  23
ATOM     23  N   UNL A   1      34.662  31.782  29.872  1.00  0.00    -0.325 N 
ATOM     24  O   UNL A   1      36.129  32.774  28.386  1.00  0.00    -0.274 OA
ATOM     25  C   UNL A   1      35.229  31.977  28.629  1.00  0.00     0.234 C 
ATOM     26  H   UNL A   1      34.206  30.923  30.024  1.00  0.00     0.169 HD
BRANCH  25  27
ATOM     27  C   UNL A   1      34.581  31.164  27.520  1.00  0.00     0.175 C 
BRANCH  27  28
ATOM     28  S   UNL A   1      35.210  29.470  27.427  1.00  0.00    -0.116 SA
BRANCH  28  29
ATOM     29  C   UNL A   1      33.774  28.701  26.704  1.00  0.00     0.008 A 
ATOM     30  C   UNL A   1      32.657  28.512  27.520  1.00  0.00     0.016 A 
ATOM     31  C   UNL A   1      33.760  28.231  25.386  1.00  0.00     0.016 A 
ATOM     32  C   UNL A   1      31.542  27.834  27.032  1.00  0.00     0.021 A 
ATOM     33  C   UNL A   1      32.642  27.550  24.897  1.00  0.00     0.021 A 
ATOM     34  C   UNL A   1      31.539  27.353  25.725  1.00  0.00     0.041 A 
ATOM     35  Cl  UNL A   1      30.158  26.515  25.134  1.00  0.00    -0.084 Cl
ENDBRANCH  28  29
ENDBRANCH  27  28
ENDBRANCH  25  27
ENDBRANCH  18  23
ENDBRANCH  14  17
ENDBRANCH   8  13
ENDBRANCH   5   7
ENDBRANCH   4   5
ENDBRANCH   3   4
ENDBRANCH   2   3
ENDBRANCH   1   2
BRANCH   1  36
ATOM     36  C   UNL A   1      39.698  25.229  28.014  1.00  0.00     0.188 C 
BRANCH  36  37
ATOM     37  C   UNL A   1      40.042  23.819  27.489  1.00  0.00     0.188 C 
BRANCH  37  38
ATOM     38  O   UNL A   1      41.370  23.330  27.569  1.00  0.00    -0.376 OA
BRANCH  38  39
ATOM     39  C   UNL A   1      42.210  23.463  26.431  1.00  0.00     0.202 C 
BRANCH  39  40
ATOM     40  C   UNL A   1      43.151  22.327  25.984  1.00  0.00     0.261 C 
BRANCH  40  41
ATOM     41  O   UNL A   1      44.266  22.701  25.159  1.00  0.00    -0.460 OA
BRANCH  41  42
ATOM     42  C   UNL A   1      45.495  22.398  25.654  1.00  0.00     0.338 C 
ATOM     43  O   UNL A   1      45.926  21.286  25.912  1.00  0.00    -0.246 OA
BRANCH  42  44
ATOM     44  C   UNL A   1      46.350  23.608  25.623  1.00  0.00     0.060 A 
ATOM     45  C   UNL A   1      46.797  24.147  26.840  1.00  0.00     0.016 A 
ATOM     46  C   UNL A   1      46.703  24.211  24.416  1.00  0.00     0.016 A 
ATOM     47  C   UNL A   1      47.581  25.300  26.856  1.00  0.00     0.010 A 
ATOM     48  C   UNL A   1      47.459  25.388  24.435  1.00  0.00     0.010 A 
ATOM     49  C   UNL A   1      47.876  25.954  25.654  1.00  0.00    -0.014 A 
BRANCH  49  50
ATOM     50  C   UNL A   1      48.418  27.335  25.681  1.00  0.00     0.031 A 
ATOM     51  C   UNL A   1      49.739  27.589  25.005  1.00  0.00     0.074 A 
ATOM     52  C   UNL A   1      47.762  28.343  26.283  1.00  0.00     0.049 A 
ATOM     53  N   UNL A   1      50.452  28.682  24.956  1.00  0.00    -0.248 NA
ATOM     54  C   UNL A   1      50.335  26.447  24.290  1.00  0.00     0.031 C 
ATOM     55  C   UNL A   1      46.454  28.239  26.927  1.00  0.00     0.029 A 
ATOM     56  N   UNL A   1      48.120  29.657  26.458  1.00  0.00    -0.354 N 
ATOM     57  C   UNL A   1      51.587  28.360  24.221  1.00  0.00     0.074 A 
ATOM     58  C   UNL A   1      51.478  26.963  23.862  1.00  0.00     0.031 C 
ATOM     59  C   UNL A   1      46.127  29.438  27.444  1.00  0.00     0.029 A 
ATOM     60  C   UNL A   1      47.216  30.383  27.197  1.00  0.00     0.049 A 
ATOM     61  H   UNL A   1      48.948  30.044  26.090  1.00  0.00     0.167 HD
ATOM     62  C   UNL A   1      52.627  29.154  23.876  1.00  0.00     0.037 A 
ATOM     63  C   UNL A   1      47.277  31.655  27.642  1.00  0.00     0.037 A 
ATOM     64  C   UNL A   1      52.734  30.543  24.237  1.00  0.00     0.049 A 
ATOM     65  C   UNL A   1      48.482  32.502  27.310  1.00  0.00     0.074 A 
ATOM     66  C   UNL A   1      53.736  31.440  23.913  1.00  0.00     0.029 A 
ATOM     67  N   UNL A   1      51.814  31.233  25.011  1.00  0.00    -0.354 N 
ATOM     68  N   UNL A   1      49.538  32.193  26.594  1.00  0.00    -0.248 NA
ATOM     69  C   UNL A   1      48.503  33.870  27.847  1.00  0.00     0.031 C 
ATOM     70  C   UNL A   1      53.450  32.658  24.539  1.00  0.00     0.029 A 
ATOM     71  C   UNL A   1      52.240  32.537  25.202  1.00  0.00     0.049 A 
ATOM     72  H   UNL A   1      50.980  30.852  25.372  1.00  0.00     0.167 HD
ATOM     73  C   UNL A   1      50.330  33.338  26.568  1.00  0.00     0.074 A 
ATOM     74  C   UNL A   1      49.631  34.347  27.335  1.00  0.00     0.031 C 
ATOM     75  C   UNL A   1      51.527  33.537  25.959  1.00  0.00     0.037 A 
BRANCH  62  76
ATOM     76  C   UNL A   1      53.752  28.527  23.100  1.00  0.00     0.058 A 
ATOM     77  C   UNL A   1      54.850  27.927  23.736  1.00  0.00     0.135 A 
ATOM     78  C   UNL A   1      53.718  28.509  21.696  1.00  0.00     0.135 A 
ATOM     79  F   UNL A   1      54.944  27.936  25.076  1.00  0.00    -0.206 F 
ATOM     80  C   UNL A   1      55.888  27.355  23.007  1.00  0.00     0.059 A 
ATOM     81  C   UNL A   1      54.730  27.916  20.948  1.00  0.00     0.059 A 
ATOM     82  F   UNL A   1      52.694  29.073  21.037  1.00  0.00    -0.206 F 
ATOM     83  C   UNL A   1      55.819  27.355  21.613  1.00  0.00     0.060 A 
BRANCH  83  84
ATOM     84  S   UNL A   1      57.171  26.606  20.682  1.00  0.00     0.124 S 
ATOM     85  O   UNL A   1      57.997  26.061  21.755  1.00  0.00    -0.237 OA
ATOM     86  O   UNL A   1      56.475  25.625  19.856  1.00  0.00    -0.237 OA
ATOM     87  O   UNL A   1      57.750  27.734  19.956  1.00  0.00    -0.744 OA
ENDBRANCH  83  84
ENDBRANCH  62  76
BRANCH  63  88
ATOM     88  C   UNL A   1      46.167  32.214  28.464  1.00  0.00     0.058 A 
ATOM     89  C   UNL A   1      45.045  32.799  27.860  1.00  0.00     0.135 A 
ATOM     90  C   UNL A   1      46.215  32.188  29.867  1.00  0.00     0.135 A 
ATOM     91  F   UNL A   1      44.960  32.864  26.523  1.00  0.00    -0.206 F 
ATOM     92  C   UNL A   1      44.015  33.351  28.616  1.00  0.00     0.059 A 
ATOM     93  C   UNL A   1      45.184  32.710  30.644  1.00  0.00     0.059 A 
ATOM     94  F   UNL A   1      47.264  31.636  30.495  1.00  0.00    -0.206 F 
ATOM     95  C   UNL A   1      44.092  33.298  30.008  1.00  0.00     0.060 A 
BRANCH  95  96
ATOM     96  S   UNL A   1      42.728  33.979  30.978  1.00  0.00     0.124 S 
ATOM     97  O   UNL A   1      41.679  34.092  29.970  1.00  0.00    -0.237 OA
ATOM     98  O   UNL A   1      42.531  32.949  31.991  1.00  0.00    -0.237 OA
ATOM     99  O   UNL A   1      43.267  35.242  31.473  1.00  0.00    -0.744 OA
ENDBRANCH  95  96
ENDBRANCH  63  88
BRANCH  75 100
ATOM    100  C   UNL A   1      52.142  34.908  26.053  1.00  0.00     0.058 A 
ATOM    101  C   UNL A   1      51.845  35.921  25.128  1.00  0.00     0.135 A 
ATOM    102  C   UNL A   1      52.993  35.229  27.124  1.00  0.00     0.135 A 
ATOM    103  F   UNL A   1      51.040  35.667  24.084  1.00  0.00    -0.206 F 
ATOM    104  C   UNL A   1      52.386  37.198  25.249  1.00  0.00     0.059 A 
ATOM    105  C   UNL A   1      53.522  36.507  27.280  1.00  0.00     0.059 A 
ATOM    106  F   UNL A   1      53.302  34.303  28.045  1.00  0.00    -0.206 F 
ATOM    107  C   UNL A   1      53.222  37.482  26.330  1.00  0.00     0.060 A 
BRANCH 107 108
ATOM    108  S   UNL A   1      53.889  39.152  26.495  1.00  0.00     0.124 S 
ATOM    109  O   UNL A   1      55.241  38.884  26.971  1.00  0.00    -0.237 OA
ATOM    110  O   UNL A   1      53.786  39.665  25.132  1.00  0.00    -0.237 OA
ATOM    111  O   UNL A   1      52.995  39.782  27.463  1.00  0.00    -0.744 OA
ENDBRANCH 107 108
ENDBRANCH  75 100
ENDBRANCH  49  50
ENDBRANCH  42  44
ENDBRANCH  41  42
ENDBRANCH  40  41
ENDBRANCH  39  40
ENDBRANCH  38  39
ENDBRANCH  37  38
ENDBRANCH  36  37
ENDBRANCH   1  36
TORSDOF 26
ENDMDL
