MODEL 1
REMARK VINA RESULT:     -10.3      0.000      0.000
REMARK SMILES O=C(OCCOCCOCCOC(=O)[C@H]1CC(=O)N(Cc2cccc(Cl)c2)C1)c1ccc(-c2c3nc(c(-c4c(F)cc(S(=O)(=O)[O-])cc4F)c4ccc([nH]4)c(-c4c(F)cc(S(=O)(=O)[O-])cc4F)c4nc(c(-c5c(F)cc(S(=O)(=O)[O-])cc5F)c5ccc2[nH]5)C=C4)C=C3)cc1
REMARK SMILES IDX 7 1 6 2 5 3 4 4 3 5 2 6 1 7 29 8 30 9 94 10 31 11 93 12
REMARK SMILES IDX 32 13 33 14 34 15 87 16 35 17 92 18 86 19 88 20 36 21 91 22
REMARK SMILES IDX 85 23 84 24 37 26 71 27 50 28 70 29 51 30 54 31 69 32 89 33
REMARK SMILES IDX 52 34 53 35 68 37 90 38 55 39 38 40 39 41 48 42 40 43 41 44
REMARK SMILES IDX 47 45 49 46 42 47 43 48 44 49 45 50 46 51 72 52 73 53 82 54
REMARK SMILES IDX 74 55 75 56 81 57 83 58 76 59 77 60 78 61 79 62 80 63 56 64
REMARK SMILES IDX 57 65 66 66 58 67 59 68 65 69 67 70 60 71 61 72 62 73 63 74
REMARK SMILES IDX 64 75 8 76 9 77 10 78 11 79 12 80 13 81 14 82 15 83 16 84
REMARK SMILES IDX 28 85 17 86 19 87 18 88 20 89 21 90 22 91 27 92 23 93 25 94
REMARK SMILES IDX 24 95 26 96
REMARK H PARENT 88 25 54 36
REMARK Flexibility Score: inf
ROOT
ATOM      1  C   UNL A   1      33.470  29.547  25.428  1.00  0.00     0.188 C 
ENDROOT
BRANCH   1   2
ATOM      2  O   UNL A   1      32.646  30.278  26.344  1.00  0.00    -0.376 OA
BRANCH   2   3
ATOM      3  C   UNL A   1      33.298  30.567  27.588  1.00  0.00     0.202 C 
BRANCH   3   4
ATOM      4  C   UNL A   1      34.755  30.088  27.716  1.00  0.00     0.261 C 
BRANCH   4   5
ATOM      5  O   UNL A   1      35.393  30.500  28.935  1.00  0.00    -0.460 OA
BRANCH   5   6
ATOM      6  C   UNL A   1      36.387  29.885  29.625  1.00  0.00     0.338 C 
ATOM      7  O   UNL A   1      36.107  29.412  30.728  1.00  0.00    -0.246 OA
BRANCH   6   8
ATOM      8  C   UNL A   1      37.800  29.749  29.142  1.00  0.00     0.060 A 
ATOM      9  C   UNL A   1      38.221  29.777  27.811  1.00  0.00     0.016 A 
ATOM     10  C   UNL A   1      38.791  29.621  30.133  1.00  0.00     0.016 A 
ATOM     11  C   UNL A   1      39.553  29.572  27.460  1.00  0.00     0.010 A 
ATOM     12  C   UNL A   1      40.136  29.448  29.795  1.00  0.00     0.010 A 
ATOM     13  C   UNL A   1      40.510  29.369  28.450  1.00  0.00    -0.014 A 
BRANCH  13  14
ATOM     14  C   UNL A   1      41.862  28.938  28.040  1.00  0.00     0.031 A 
ATOM     15  C   UNL A   1      42.967  29.930  28.122  1.00  0.00     0.074 A 
ATOM     16  C   UNL A   1      42.087  27.683  27.622  1.00  0.00     0.049 A 
ATOM     17  N   UNL A   1      44.239  29.742  27.926  1.00  0.00    -0.248 NA
ATOM     18  C   UNL A   1      42.590  31.315  28.447  1.00  0.00     0.031 C 
ATOM     19  C   UNL A   1      41.021  26.718  27.441  1.00  0.00     0.029 A 
ATOM     20  N   UNL A   1      43.219  27.000  27.249  1.00  0.00    -0.354 N 
ATOM     21  C   UNL A   1      44.816  30.993  28.062  1.00  0.00     0.074 A 
ATOM     22  C   UNL A   1      43.758  31.931  28.358  1.00  0.00     0.031 C 
ATOM     23  C   UNL A   1      41.540  25.582  26.959  1.00  0.00     0.029 A 
ATOM     24  C   UNL A   1      42.986  25.679  26.915  1.00  0.00     0.049 A 
ATOM     25  H   UNL A   1      44.112  27.413  27.221  1.00  0.00     0.167 HD
ATOM     26  C   UNL A   1      46.120  31.313  27.922  1.00  0.00     0.037 A 
ATOM     27  C   UNL A   1      43.845  24.664  26.670  1.00  0.00     0.037 A 
ATOM     28  C   UNL A   1      47.132  30.352  27.577  1.00  0.00     0.049 A 
ATOM     29  C   UNL A   1      45.302  25.040  26.654  1.00  0.00     0.074 A 
ATOM     30  C   UNL A   1      48.479  30.558  27.355  1.00  0.00     0.029 A 
ATOM     31  N   UNL A   1      46.893  28.995  27.383  1.00  0.00    -0.354 N 
ATOM     32  N   UNL A   1      45.847  26.208  26.903  1.00  0.00    -0.248 NA
ATOM     33  C   UNL A   1      46.259  23.983  26.311  1.00  0.00     0.031 C 
ATOM     34  C   UNL A   1      49.046  29.336  26.976  1.00  0.00     0.029 A 
ATOM     35  C   UNL A   1      48.065  28.355  27.022  1.00  0.00     0.049 A 
ATOM     36  H   UNL A   1      46.019  28.554  27.487  1.00  0.00     0.167 HD
ATOM     37  C   UNL A   1      47.210  26.027  26.746  1.00  0.00     0.074 A 
ATOM     38  C   UNL A   1      47.411  24.615  26.473  1.00  0.00     0.031 C 
ATOM     39  C   UNL A   1      48.208  26.944  26.766  1.00  0.00     0.037 A 
BRANCH  26  40
ATOM     40  C   UNL A   1      46.465  32.764  28.051  1.00  0.00     0.058 A 
ATOM     41  C   UNL A   1      46.917  33.316  29.260  1.00  0.00     0.135 A 
ATOM     42  C   UNL A   1      46.261  33.631  26.966  1.00  0.00     0.135 A 
ATOM     43  F   UNL A   1      47.083  32.536  30.341  1.00  0.00    -0.206 F 
ATOM     44  C   UNL A   1      47.123  34.684  29.399  1.00  0.00     0.059 A 
ATOM     45  C   UNL A   1      46.488  34.997  27.075  1.00  0.00     0.059 A 
ATOM     46  F   UNL A   1      45.805  33.155  25.798  1.00  0.00    -0.206 F 
ATOM     47  C   UNL A   1      46.901  35.516  28.301  1.00  0.00     0.060 A 
BRANCH  47  48
ATOM     48  S   UNL A   1      47.149  37.291  28.502  1.00  0.00     0.124 S 
ATOM     49  O   UNL A   1      48.580  37.357  28.780  1.00  0.00    -0.237 OA
ATOM     50  O   UNL A   1      46.731  37.811  27.204  1.00  0.00    -0.237 OA
ATOM     51  O   UNL A   1      46.275  37.633  29.621  1.00  0.00    -0.744 OA
ENDBRANCH  47  48
ENDBRANCH  26  40
BRANCH  27  52
ATOM     52  C   UNL A   1      43.418  23.223  26.565  1.00  0.00     0.058 A 
ATOM     53  C   UNL A   1      43.466  22.553  25.323  1.00  0.00     0.135 A 
ATOM     54  C   UNL A   1      42.999  22.456  27.663  1.00  0.00     0.135 A 
ATOM     55  F   UNL A   1      43.827  23.219  24.215  1.00  0.00    -0.206 F 
ATOM     56  C   UNL A   1      43.158  21.200  25.181  1.00  0.00     0.059 A 
ATOM     57  C   UNL A   1      42.716  21.090  27.554  1.00  0.00     0.059 A 
ATOM     58  F   UNL A   1      42.903  23.014  28.878  1.00  0.00    -0.206 F 
ATOM     59  C   UNL A   1      42.809  20.467  26.309  1.00  0.00     0.060 A 
BRANCH  59  60
ATOM     60  S   UNL A   1      42.567  18.682  26.143  1.00  0.00     0.124 S 
ATOM     61  O   UNL A   1      43.535  18.341  25.107  1.00  0.00    -0.237 OA
ATOM     62  O   UNL A   1      42.874  18.198  27.485  1.00  0.00    -0.237 OA
ATOM     63  O   UNL A   1      41.162  18.571  25.758  1.00  0.00    -0.744 OA
ENDBRANCH  59  60
ENDBRANCH  27  52
BRANCH  39  64
ATOM     64  C   UNL A   1      49.579  26.424  26.465  1.00  0.00     0.058 A 
ATOM     65  C   UNL A   1      50.349  25.791  27.456  1.00  0.00     0.135 A 
ATOM     66  C   UNL A   1      50.122  26.551  25.180  1.00  0.00     0.135 A 
ATOM     67  F   UNL A   1      49.872  25.658  28.703  1.00  0.00    -0.206 F 
ATOM     68  C   UNL A   1      51.633  25.340  27.190  1.00  0.00     0.059 A 
ATOM     69  C   UNL A   1      51.390  26.072  24.884  1.00  0.00     0.059 A 
ATOM     70  F   UNL A   1      49.419  27.143  24.202  1.00  0.00    -0.206 F 
ATOM     71  C   UNL A   1      52.143  25.483  25.899  1.00  0.00     0.060 A 
BRANCH  71  72
ATOM     72  S   UNL A   1      53.800  24.862  25.562  1.00  0.00     0.124 S 
ATOM     73  O   UNL A   1      54.158  25.614  24.364  1.00  0.00    -0.237 OA
ATOM     74  O   UNL A   1      54.521  25.223  26.777  1.00  0.00    -0.237 OA
ATOM     75  O   UNL A   1      53.591  23.430  25.367  1.00  0.00    -0.744 OA
ENDBRANCH  71  72
ENDBRANCH  39  64
ENDBRANCH  13  14
ENDBRANCH   6   8
ENDBRANCH   5   6
ENDBRANCH   4   5
ENDBRANCH   3   4
ENDBRANCH   2   3
ENDBRANCH   1   2
BRANCH   1  76
ATOM     76  C   UNL A   1      32.891  28.206  24.984  1.00  0.00     0.188 C 
BRANCH  76  77
ATOM     77  O   UNL A   1      31.541  27.916  25.327  1.00  0.00    -0.376 OA
BRANCH  77  78
ATOM     78  C   UNL A   1      31.220  26.589  25.721  1.00  0.00     0.202 C 
BRANCH  78  79
ATOM     79  C   UNL A   1      29.914  25.953  25.224  1.00  0.00     0.261 C 
BRANCH  79  80
ATOM     80  O   UNL A   1      29.978  25.284  23.959  1.00  0.00    -0.463 OA
BRANCH  80  81
ATOM     81  C   UNL A   1      31.211  24.803  23.661  1.00  0.00     0.311 C 
ATOM     82  O   UNL A   1      32.093  25.439  23.091  1.00  0.00    -0.252 OA
BRANCH  81  83
ATOM     83  C   UNL A   1      31.371  23.346  23.948  1.00  0.00     0.128 C 
ATOM     84  C   UNL A   1      31.880  22.347  22.923  1.00  0.00     0.117 C 
ATOM     85  C   UNL A   1      32.446  23.307  25.005  1.00  0.00     0.135 C 
ATOM     86  C   UNL A   1      32.468  21.298  23.853  1.00  0.00     0.223 C 
ATOM     87  N   UNL A   1      32.912  21.957  24.985  1.00  0.00    -0.337 N 
ATOM     88  O   UNL A   1      32.536  20.102  23.610  1.00  0.00    -0.275 OA
BRANCH  87  89
ATOM     89  C   UNL A   1      33.768  21.459  26.057  1.00  0.00     0.155 C 
BRANCH  89  90
ATOM     90  C   UNL A   1      35.228  21.569  25.648  1.00  0.00    -0.027 A 
ATOM     91  C   UNL A   1      35.885  20.472  25.073  1.00  0.00     0.005 A 
ATOM     92  C   UNL A   1      36.002  22.688  25.973  1.00  0.00     0.026 A 
ATOM     93  C   UNL A   1      37.268  20.490  24.867  1.00  0.00     0.002 A 
ATOM     94  C   UNL A   1      37.376  22.719  25.744  1.00  0.00     0.041 A 
ATOM     95  C   UNL A   1      38.016  21.617  25.199  1.00  0.00     0.020 A 
ATOM     96  Cl  UNL A   1      38.292  24.104  26.197  1.00  0.00    -0.084 Cl
ENDBRANCH  89  90
ENDBRANCH  87  89
ENDBRANCH  81  83
ENDBRANCH  80  81
ENDBRANCH  79  80
ENDBRANCH  78  79
ENDBRANCH  77  78
ENDBRANCH  76  77
ENDBRANCH   1  76
TORSDOF 22
ENDMDL
MODEL 2
REMARK VINA RESULT:     -10.3      1.777      2.988
REMARK SMILES O=C(OCCOCCOCCOC(=O)[C@H]1CC(=O)N(Cc2cccc(Cl)c2)C1)c1ccc(-c2c3nc(c(-c4c(F)cc(S(=O)(=O)[O-])cc4F)c4ccc([nH]4)c(-c4c(F)cc(S(=O)(=O)[O-])cc4F)c4nc(c(-c5c(F)cc(S(=O)(=O)[O-])cc5F)c5ccc2[nH]5)C=C4)C=C3)cc1
REMARK SMILES IDX 7 1 6 2 5 3 4 4 3 5 2 6 1 7 29 8 30 9 94 10 31 11 93 12
REMARK SMILES IDX 32 13 33 14 34 15 87 16 35 17 92 18 86 19 88 20 36 21 91 22
REMARK SMILES IDX 85 23 84 24 37 26 71 27 50 28 70 29 51 30 54 31 69 32 89 33
REMARK SMILES IDX 52 34 53 35 68 37 90 38 55 39 38 40 39 41 48 42 40 43 41 44
REMARK SMILES IDX 47 45 49 46 42 47 43 48 44 49 45 50 46 51 72 52 73 53 82 54
REMARK SMILES IDX 74 55 75 56 81 57 83 58 76 59 77 60 78 61 79 62 80 63 56 64
REMARK SMILES IDX 57 65 66 66 58 67 59 68 65 69 67 70 60 71 61 72 62 73 63 74
REMARK SMILES IDX 64 75 8 76 9 77 10 78 11 79 12 80 13 81 14 82 15 83 16 84
REMARK SMILES IDX 28 85 17 86 19 87 18 88 20 89 21 90 22 91 27 92 23 93 25 94
REMARK SMILES IDX 24 95 26 96
REMARK H PARENT 88 25 54 36
REMARK Flexibility Score: inf
ROOT
ATOM      1  C   UNL A   1      34.773  34.509  29.061  1.00  0.00     0.188 C 
ENDROOT
BRANCH   1   2
ATOM      2  O   UNL A   1      34.264  34.449  30.399  1.00  0.00    -0.376 OA
BRANCH   2   3
ATOM      3  C   UNL A   1      34.923  33.471  31.215  1.00  0.00     0.202 C 
BRANCH   3   4
ATOM      4  C   UNL A   1      36.044  32.666  30.534  1.00  0.00     0.261 C 
BRANCH   4   5
ATOM      5  O   UNL A   1      35.813  31.248  30.526  1.00  0.00    -0.460 OA
BRANCH   5   6
ATOM      6  C   UNL A   1      36.682  30.244  30.806  1.00  0.00     0.338 C 
ATOM      7  O   UNL A   1      36.327  29.394  31.624  1.00  0.00    -0.246 OA
BRANCH   6   8
ATOM      8  C   UNL A   1      38.046  30.105  30.198  1.00  0.00     0.060 A 
ATOM      9  C   UNL A   1      38.347  30.150  28.835  1.00  0.00     0.016 A 
ATOM     10  C   UNL A   1      39.120  29.953  31.095  1.00  0.00     0.016 A 
ATOM     11  C   UNL A   1      39.641  29.939  28.364  1.00  0.00     0.010 A 
ATOM     12  C   UNL A   1      40.428  29.775  30.635  1.00  0.00     0.010 A 
ATOM     13  C   UNL A   1      40.680  29.713  29.262  1.00  0.00    -0.014 A 
BRANCH  13  14
ATOM     14  C   UNL A   1      41.986  29.277  28.726  1.00  0.00     0.031 A 
ATOM     15  C   UNL A   1      43.120  30.237  28.783  1.00  0.00     0.074 A 
ATOM     16  C   UNL A   1      42.145  28.045  28.220  1.00  0.00     0.049 A 
ATOM     17  N   UNL A   1      44.369  30.033  28.481  1.00  0.00    -0.248 NA
ATOM     18  C   UNL A   1      42.806  31.608  29.216  1.00  0.00     0.031 C 
ATOM     19  C   UNL A   1      41.044  27.117  28.064  1.00  0.00     0.029 A 
ATOM     20  N   UNL A   1      43.228  27.361  27.724  1.00  0.00    -0.354 N 
ATOM     21  C   UNL A   1      44.988  31.259  28.647  1.00  0.00     0.074 A 
ATOM     22  C   UNL A   1      43.980  32.202  29.076  1.00  0.00     0.031 C 
ATOM     23  C   UNL A   1      41.495  26.001  27.478  1.00  0.00     0.029 A 
ATOM     24  C   UNL A   1      42.936  26.068  27.332  1.00  0.00     0.049 A 
ATOM     25  H   UNL A   1      44.128  27.754  27.653  1.00  0.00     0.167 HD
ATOM     26  C   UNL A   1      46.286  31.558  28.428  1.00  0.00     0.037 A 
ATOM     27  C   UNL A   1      43.747  25.050  26.964  1.00  0.00     0.037 A 
ATOM     28  C   UNL A   1      47.243  30.597  27.953  1.00  0.00     0.049 A 
ATOM     29  C   UNL A   1      45.208  25.394  26.860  1.00  0.00     0.074 A 
ATOM     30  C   UNL A   1      48.576  30.786  27.643  1.00  0.00     0.029 A 
ATOM     31  N   UNL A   1      46.955  29.260  27.697  1.00  0.00    -0.354 N 
ATOM     32  N   UNL A   1      45.802  26.532  27.136  1.00  0.00    -0.248 NA
ATOM     33  C   UNL A   1      46.109  24.338  26.386  1.00  0.00     0.031 C 
ATOM     34  C   UNL A   1      49.080  29.576  27.151  1.00  0.00     0.029 A 
ATOM     35  C   UNL A   1      48.079  28.617  27.212  1.00  0.00     0.049 A 
ATOM     36  H   UNL A   1      46.079  28.834  27.842  1.00  0.00     0.167 HD
ATOM     37  C   UNL A   1      47.144  26.330  26.866  1.00  0.00     0.074 A 
ATOM     38  C   UNL A   1      47.286  24.933  26.497  1.00  0.00     0.031 C 
ATOM     39  C   UNL A   1      48.164  27.221  26.865  1.00  0.00     0.037 A 
BRANCH  26  40
ATOM     40  C   UNL A   1      46.679  32.991  28.615  1.00  0.00     0.058 A 
ATOM     41  C   UNL A   1      47.099  33.490  29.859  1.00  0.00     0.135 A 
ATOM     42  C   UNL A   1      46.554  33.895  27.550  1.00  0.00     0.135 A 
ATOM     43  F   UNL A   1      47.189  32.674  30.921  1.00  0.00    -0.206 F 
ATOM     44  C   UNL A   1      47.348  34.845  30.048  1.00  0.00     0.059 A 
ATOM     45  C   UNL A   1      46.826  35.249  27.709  1.00  0.00     0.059 A 
ATOM     46  F   UNL A   1      46.132  33.472  26.349  1.00  0.00    -0.206 F 
ATOM     47  C   UNL A   1      47.205  35.716  28.967  1.00  0.00     0.060 A 
BRANCH  47  48
ATOM     48  S   UNL A   1      47.510  37.474  29.233  1.00  0.00     0.124 S 
ATOM     49  O   UNL A   1      46.314  37.870  29.968  1.00  0.00    -0.237 OA
ATOM     50  O   UNL A   1      48.751  37.460  30.000  1.00  0.00    -0.237 OA
ATOM     51  O   UNL A   1      47.621  38.009  27.878  1.00  0.00    -0.744 OA
ENDBRANCH  47  48
ENDBRANCH  26  40
BRANCH  27  52
ATOM     52  C   UNL A   1      43.274  23.628  26.807  1.00  0.00     0.058 A 
ATOM     53  C   UNL A   1      43.179  23.045  25.524  1.00  0.00     0.135 A 
ATOM     54  C   UNL A   1      42.949  22.794  27.888  1.00  0.00     0.135 A 
ATOM     55  F   UNL A   1      43.443  23.779  24.432  1.00  0.00    -0.206 F 
ATOM     56  C   UNL A   1      42.824  21.711  25.325  1.00  0.00     0.059 A 
ATOM     57  C   UNL A   1      42.622  21.445  27.718  1.00  0.00     0.059 A 
ATOM     58  F   UNL A   1      42.991  23.269  29.142  1.00  0.00    -0.206 F 
ATOM     59  C   UNL A   1      42.573  20.908  26.431  1.00  0.00     0.060 A 
BRANCH  59  60
ATOM     60  S   UNL A   1      42.269  19.144  26.172  1.00  0.00     0.124 S 
ATOM     61  O   UNL A   1      43.210  18.829  25.104  1.00  0.00    -0.237 OA
ATOM     62  O   UNL A   1      42.578  18.577  27.481  1.00  0.00    -0.237 OA
ATOM     63  O   UNL A   1      40.856  19.100  25.803  1.00  0.00    -0.744 OA
ENDBRANCH  59  60
ENDBRANCH  27  52
BRANCH  39  64
ATOM     64  C   UNL A   1      49.495  26.689  26.432  1.00  0.00     0.058 A 
ATOM     65  C   UNL A   1      50.348  26.041  27.340  1.00  0.00     0.135 A 
ATOM     66  C   UNL A   1      49.916  26.822  25.102  1.00  0.00     0.135 A 
ATOM     67  F   UNL A   1      49.990  25.902  28.627  1.00  0.00    -0.206 F 
ATOM     68  C   UNL A   1      51.596  25.578  26.952  1.00  0.00     0.059 A 
ATOM     69  C   UNL A   1      51.146  26.332  24.683  1.00  0.00     0.059 A 
ATOM     70  F   UNL A   1      49.130  27.430  24.199  1.00  0.00    -0.206 F 
ATOM     71  C   UNL A   1      51.984  25.727  25.619  1.00  0.00     0.060 A 
BRANCH  71  72
ATOM     72  S   UNL A   1      53.595  25.091  25.122  1.00  0.00     0.124 S 
ATOM     73  O   UNL A   1      53.676  25.547  23.738  1.00  0.00    -0.237 OA
ATOM     74  O   UNL A   1      54.494  25.753  26.062  1.00  0.00    -0.237 OA
ATOM     75  O   UNL A   1      53.459  23.649  25.303  1.00  0.00    -0.744 OA
ENDBRANCH  71  72
ENDBRANCH  39  64
ENDBRANCH  13  14
ENDBRANCH   6   8
ENDBRANCH   5   6
ENDBRANCH   4   5
ENDBRANCH   3   4
ENDBRANCH   2   3
ENDBRANCH   1   2
BRANCH   1  76
ATOM     76  C   UNL A   1      33.812  33.993  27.994  1.00  0.00     0.188 C 
BRANCH  76  77
ATOM     77  O   UNL A   1      33.245  32.700  28.174  1.00  0.00    -0.376 OA
BRANCH  77  78
ATOM     78  C   UNL A   1      33.945  31.582  27.646  1.00  0.00     0.202 C 
BRANCH  78  79
ATOM     79  C   UNL A   1      33.158  30.331  27.230  1.00  0.00     0.261 C 
BRANCH  79  80
ATOM     80  O   UNL A   1      32.613  30.338  25.905  1.00  0.00    -0.463 OA
BRANCH  80  81
ATOM     81  C   UNL A   1      32.674  29.131  25.289  1.00  0.00     0.311 C 
ATOM     82  O   UNL A   1      33.690  28.644  24.798  1.00  0.00    -0.252 OA
BRANCH  81  83
ATOM     83  C   UNL A   1      31.340  28.484  25.105  1.00  0.00     0.128 C 
ATOM     84  C   UNL A   1      30.850  27.954  23.769  1.00  0.00     0.117 C 
ATOM     85  C   UNL A   1      31.434  27.232  25.940  1.00  0.00     0.135 C 
ATOM     86  C   UNL A   1      29.886  26.882  24.254  1.00  0.00     0.223 C 
ATOM     87  N   UNL A   1      30.376  26.404  25.455  1.00  0.00    -0.337 N 
ATOM     88  O   UNL A   1      28.881  26.520  23.660  1.00  0.00    -0.275 OA
BRANCH  87  89
ATOM     89  C   UNL A   1      29.974  25.214  26.199  1.00  0.00     0.155 C 
BRANCH  89  90
ATOM     90  C   UNL A   1      30.943  24.077  25.921  1.00  0.00    -0.027 A 
ATOM     91  C   UNL A   1      31.899  23.712  26.878  1.00  0.00     0.005 A 
ATOM     92  C   UNL A   1      31.025  23.471  24.662  1.00  0.00     0.026 A 
ATOM     93  C   UNL A   1      32.916  22.803  26.569  1.00  0.00     0.002 A 
ATOM     94  C   UNL A   1      32.021  22.544  24.360  1.00  0.00     0.041 A 
ATOM     95  C   UNL A   1      32.975  22.214  25.308  1.00  0.00     0.020 A 
ATOM     96  Cl  UNL A   1      32.104  21.856  22.784  1.00  0.00    -0.084 Cl
ENDBRANCH  89  90
ENDBRANCH  87  89
ENDBRANCH  81  83
ENDBRANCH  80  81
ENDBRANCH  79  80
ENDBRANCH  78  79
ENDBRANCH  77  78
ENDBRANCH  76  77
ENDBRANCH   1  76
TORSDOF 22
ENDMDL
MODEL 3
REMARK VINA RESULT:     -10.2      6.433      8.368
REMARK SMILES O=C(OCCOCCOCCOC(=O)[C@H]1CC(=O)N(Cc2cccc(Cl)c2)C1)c1ccc(-c2c3nc(c(-c4c(F)cc(S(=O)(=O)[O-])cc4F)c4ccc([nH]4)c(-c4c(F)cc(S(=O)(=O)[O-])cc4F)c4nc(c(-c5c(F)cc(S(=O)(=O)[O-])cc5F)c5ccc2[nH]5)C=C4)C=C3)cc1
REMARK SMILES IDX 7 1 6 2 5 3 4 4 3 5 2 6 1 7 29 8 30 9 94 10 31 11 93 12
REMARK SMILES IDX 32 13 33 14 34 15 87 16 35 17 92 18 86 19 88 20 36 21 91 22
REMARK SMILES IDX 85 23 84 24 37 26 71 27 50 28 70 29 51 30 54 31 69 32 89 33
REMARK SMILES IDX 52 34 53 35 68 37 90 38 55 39 38 40 39 41 48 42 40 43 41 44
REMARK SMILES IDX 47 45 49 46 42 47 43 48 44 49 45 50 46 51 72 52 73 53 82 54
REMARK SMILES IDX 74 55 75 56 81 57 83 58 76 59 77 60 78 61 79 62 80 63 56 64
REMARK SMILES IDX 57 65 66 66 58 67 59 68 65 69 67 70 60 71 61 72 62 73 63 74
REMARK SMILES IDX 64 75 8 76 9 77 10 78 11 79 12 80 13 81 14 82 15 83 16 84
REMARK SMILES IDX 28 85 17 86 19 87 18 88 20 89 21 90 22 91 27 92 23 93 25 94
REMARK SMILES IDX 24 95 26 96
REMARK H PARENT 88 25 54 36
REMARK Flexibility Score: inf
ROOT
ATOM      1  C   UNL A   1      33.154  29.147  26.243  1.00  0.00     0.188 C 
ENDROOT
BRANCH   1   2
ATOM      2  O   UNL A   1      32.087  29.711  27.015  1.00  0.00    -0.376 OA
BRANCH   2   3
ATOM      3  C   UNL A   1      31.932  31.124  26.822  1.00  0.00     0.202 C 
BRANCH   3   4
ATOM      4  C   UNL A   1      33.132  31.998  27.228  1.00  0.00     0.261 C 
BRANCH   4   5
ATOM      5  O   UNL A   1      32.777  33.354  27.542  1.00  0.00    -0.460 OA
BRANCH   5   6
ATOM      6  C   UNL A   1      33.333  34.188  28.457  1.00  0.00     0.338 C 
ATOM      7  O   UNL A   1      32.801  35.286  28.624  1.00  0.00    -0.246 OA
BRANCH   6   8
ATOM      8  C   UNL A   1      34.553  33.870  29.268  1.00  0.00     0.060 A 
ATOM      9  C   UNL A   1      35.864  34.242  28.964  1.00  0.00     0.016 A 
ATOM     10  C   UNL A   1      34.342  33.162  30.467  1.00  0.00     0.016 A 
ATOM     11  C   UNL A   1      36.941  33.835  29.748  1.00  0.00     0.010 A 
ATOM     12  C   UNL A   1      35.412  32.778  31.280  1.00  0.00     0.010 A 
ATOM     13  C   UNL A   1      36.721  33.070  30.889  1.00  0.00    -0.014 A 
BRANCH  13  14
ATOM     14  C   UNL A   1      37.890  32.475  31.570  1.00  0.00     0.031 A 
ATOM     15  C   UNL A   1      38.226  32.958  32.935  1.00  0.00     0.074 A 
ATOM     16  C   UNL A   1      38.616  31.514  30.977  1.00  0.00     0.049 A 
ATOM     17  N   UNL A   1      39.126  32.504  33.757  1.00  0.00    -0.248 NA
ATOM     18  C   UNL A   1      37.464  34.116  33.433  1.00  0.00     0.031 C 
ATOM     19  C   UNL A   1      38.376  31.084  29.615  1.00  0.00     0.029 A 
ATOM     20  N   UNL A   1      39.685  30.753  31.382  1.00  0.00    -0.354 N 
ATOM     21  C   UNL A   1      39.072  33.342  34.856  1.00  0.00     0.074 A 
ATOM     22  C   UNL A   1      38.051  34.332  34.599  1.00  0.00     0.031 C 
ATOM     23  C   UNL A   1      39.291  30.165  29.282  1.00  0.00     0.029 A 
ATOM     24  C   UNL A   1      40.104  29.836  30.436  1.00  0.00     0.049 A 
ATOM     25  H   UNL A   1      40.114  30.852  32.262  1.00  0.00     0.167 HD
ATOM     26  C   UNL A   1      39.838  33.288  35.966  1.00  0.00     0.037 A 
ATOM     27  C   UNL A   1      40.990  28.818  30.523  1.00  0.00     0.037 A 
ATOM     28  C   UNL A   1      40.876  32.313  36.156  1.00  0.00     0.049 A 
ATOM     29  C   UNL A   1      41.728  28.713  31.829  1.00  0.00     0.074 A 
ATOM     30  C   UNL A   1      41.756  32.184  37.213  1.00  0.00     0.029 A 
ATOM     31  N   UNL A   1      41.187  31.308  35.246  1.00  0.00    -0.354 N 
ATOM     32  N   UNL A   1      41.582  29.443  32.911  1.00  0.00    -0.248 NA
ATOM     33  C   UNL A   1      42.756  27.672  31.932  1.00  0.00     0.031 C 
ATOM     34  C   UNL A   1      42.632  31.133  36.918  1.00  0.00     0.029 A 
ATOM     35  C   UNL A   1      42.260  30.567  35.707  1.00  0.00     0.049 A 
ATOM     36  H   UNL A   1      40.712  31.147  34.398  1.00  0.00     0.167 HD
ATOM     37  C   UNL A   1      42.501  28.950  33.822  1.00  0.00     0.074 A 
ATOM     38  C   UNL A   1      43.129  27.800  33.195  1.00  0.00     0.031 C 
ATOM     39  C   UNL A   1      42.842  29.428  35.042  1.00  0.00     0.037 A 
BRANCH  26  40
ATOM     40  C   UNL A   1      39.618  34.371  36.978  1.00  0.00     0.058 A 
ATOM     41  C   UNL A   1      40.156  35.658  36.817  1.00  0.00     0.135 A 
ATOM     42  C   UNL A   1      38.926  34.089  38.165  1.00  0.00     0.135 A 
ATOM     43  F   UNL A   1      40.867  35.963  35.720  1.00  0.00    -0.206 F 
ATOM     44  C   UNL A   1      40.044  36.618  37.816  1.00  0.00     0.059 A 
ATOM     45  C   UNL A   1      38.778  35.043  39.164  1.00  0.00     0.059 A 
ATOM     46  F   UNL A   1      38.416  32.866  38.376  1.00  0.00    -0.206 F 
ATOM     47  C   UNL A   1      39.356  36.299  38.987  1.00  0.00     0.060 A 
BRANCH  47  48
ATOM     48  S   UNL A   1      39.239  37.547  40.284  1.00  0.00     0.124 S 
ATOM     49  O   UNL A   1      40.626  37.987  40.392  1.00  0.00    -0.237 OA
ATOM     50  O   UNL A   1      38.311  38.511  39.702  1.00  0.00    -0.237 OA
ATOM     51  O   UNL A   1      38.725  36.801  41.429  1.00  0.00    -0.744 OA
ENDBRANCH  47  48
ENDBRANCH  26  40
BRANCH  27  52
ATOM     52  C   UNL A   1      41.141  27.759  29.461  1.00  0.00     0.058 A 
ATOM     53  C   UNL A   1      42.292  27.729  28.643  1.00  0.00     0.135 A 
ATOM     54  C   UNL A   1      40.206  26.735  29.247  1.00  0.00     0.135 A 
ATOM     55  F   UNL A   1      43.224  28.687  28.759  1.00  0.00    -0.206 F 
ATOM     56  C   UNL A   1      42.523  26.727  27.700  1.00  0.00     0.059 A 
ATOM     57  C   UNL A   1      40.429  25.701  28.331  1.00  0.00     0.059 A 
ATOM     58  F   UNL A   1      39.074  26.696  29.964  1.00  0.00    -0.206 F 
ATOM     59  C   UNL A   1      41.597  25.699  27.569  1.00  0.00     0.060 A 
BRANCH  59  60
ATOM     60  S   UNL A   1      41.979  24.323  26.459  1.00  0.00     0.124 S 
ATOM     61  O   UNL A   1      42.132  25.002  25.178  1.00  0.00    -0.237 OA
ATOM     62  O   UNL A   1      43.202  23.781  27.042  1.00  0.00    -0.237 OA
ATOM     63  O   UNL A   1      40.807  23.460  26.581  1.00  0.00    -0.744 OA
ENDBRANCH  59  60
ENDBRANCH  27  52
BRANCH  39  64
ATOM     64  C   UNL A   1      43.952  28.705  35.740  1.00  0.00     0.058 A 
ATOM     65  C   UNL A   1      43.684  27.665  36.646  1.00  0.00     0.135 A 
ATOM     66  C   UNL A   1      45.288  29.047  35.496  1.00  0.00     0.135 A 
ATOM     67  F   UNL A   1      42.417  27.312  36.919  1.00  0.00    -0.206 F 
ATOM     68  C   UNL A   1      44.706  27.017  37.321  1.00  0.00     0.059 A 
ATOM     69  C   UNL A   1      46.329  28.384  36.132  1.00  0.00     0.059 A 
ATOM     70  F   UNL A   1      45.590  30.029  34.633  1.00  0.00    -0.206 F 
ATOM     71  C   UNL A   1      46.027  27.382  37.054  1.00  0.00     0.060 A 
BRANCH  71  72
ATOM     72  S   UNL A   1      47.346  26.507  37.914  1.00  0.00     0.124 S 
ATOM     73  O   UNL A   1      47.231  27.054  39.262  1.00  0.00    -0.237 OA
ATOM     74  O   UNL A   1      46.947  25.112  37.758  1.00  0.00    -0.237 OA
ATOM     75  O   UNL A   1      48.545  26.896  37.177  1.00  0.00    -0.744 OA
ENDBRANCH  71  72
ENDBRANCH  39  64
ENDBRANCH  13  14
ENDBRANCH   6   8
ENDBRANCH   5   6
ENDBRANCH   4   5
ENDBRANCH   3   4
ENDBRANCH   2   3
ENDBRANCH   1   2
BRANCH   1  76
ATOM     76  C   UNL A   1      32.707  28.148  25.179  1.00  0.00     0.188 C 
BRANCH  76  77
ATOM     77  O   UNL A   1      31.334  28.141  24.804  1.00  0.00    -0.376 OA
BRANCH  77  78
ATOM     78  C   UNL A   1      31.014  28.320  23.431  1.00  0.00     0.202 C 
BRANCH  78  79
ATOM     79  C   UNL A   1      31.117  27.124  22.474  1.00  0.00     0.261 C 
BRANCH  79  80
ATOM     80  O   UNL A   1      32.440  26.745  22.074  1.00  0.00    -0.463 OA
BRANCH  80  81
ATOM     81  C   UNL A   1      32.640  25.404  22.066  1.00  0.00     0.311 C 
ATOM     82  O   UNL A   1      33.054  24.762  21.105  1.00  0.00    -0.252 OA
BRANCH  81  83
ATOM     83  C   UNL A   1      32.158  24.719  23.304  1.00  0.00     0.128 C 
ATOM     84  C   UNL A   1      31.694  23.274  23.327  1.00  0.00     0.117 C 
ATOM     85  C   UNL A   1      33.377  24.688  24.191  1.00  0.00     0.135 C 
ATOM     86  C   UNL A   1      31.987  22.931  24.780  1.00  0.00     0.223 C 
ATOM     87  N   UNL A   1      33.076  23.689  25.167  1.00  0.00    -0.337 N 
ATOM     88  O   UNL A   1      31.366  22.120  25.450  1.00  0.00    -0.275 OA
BRANCH  87  89
ATOM     89  C   UNL A   1      33.904  23.559  26.363  1.00  0.00     0.155 C 
BRANCH  89  90
ATOM     90  C   UNL A   1      35.189  22.822  26.026  1.00  0.00    -0.027 A 
ATOM     91  C   UNL A   1      36.401  23.520  25.934  1.00  0.00     0.005 A 
ATOM     92  C   UNL A   1      35.188  21.477  25.641  1.00  0.00     0.026 A 
ATOM     93  C   UNL A   1      37.553  22.899  25.441  1.00  0.00     0.002 A 
ATOM     94  C   UNL A   1      36.341  20.848  25.175  1.00  0.00     0.041 A 
ATOM     95  C   UNL A   1      37.525  21.558  25.064  1.00  0.00     0.020 A 
ATOM     96  Cl  UNL A   1      36.279  19.201  24.676  1.00  0.00    -0.084 Cl
ENDBRANCH  89  90
ENDBRANCH  87  89
ENDBRANCH  81  83
ENDBRANCH  80  81
ENDBRANCH  79  80
ENDBRANCH  78  79
ENDBRANCH  77  78
ENDBRANCH  76  77
ENDBRANCH   1  76
TORSDOF 22
ENDMDL
