MODEL 1
REMARK VINA RESULT:     -11.2      0.000      0.000
REMARK SMILES O=C(OCCOCCOCCOC(=O)[C@@H]1[C@H](C(=O)Nc2ccc(Cn3cncn3)cc2)[C@@H]2C=C[C@H]1CC2)c1ccc(-c2c3nc(c(-c4c(F)cc(S(=O)(=O)[O-])cc4F)c4ccc([nH]4)c(-c4c(F)cc(S(=O)(=O)[O-])cc4F)c4nc(c(-c5c(F)cc(S(=O)(=O)[O-])cc5F)c5ccc2[nH]5)C=C4)C=C3)cc1
REMARK SMILES IDX 8 1 7 2 6 3 5 4 4 5 3 6 2 7 1 8 38 9 39 10 103 11 40 12
REMARK SMILES IDX 102 13 41 14 42 15 43 16 96 17 44 18 101 19 95 20 97 21
REMARK SMILES IDX 45 22 100 23 94 24 93 25 46 27 80 28 59 29 79 30 60 31 63 32
REMARK SMILES IDX 78 33 98 34 61 35 62 36 77 38 99 39 64 40 47 41 48 42 57 43
REMARK SMILES IDX 49 44 50 45 56 46 58 47 51 48 52 49 53 50 54 51 55 52 81 53
REMARK SMILES IDX 82 54 91 55 83 56 84 57 90 58 92 59 85 60 86 61 87 62 88 63
REMARK SMILES IDX 89 64 65 65 66 66 75 67 67 68 68 69 74 70 76 71 69 72 70 73
REMARK SMILES IDX 71 74 72 75 73 76 9 77 10 78 11 79 12 80 13 81 14 82 15 83
REMARK SMILES IDX 16 84 35 85 32 86 34 87 36 88 33 89 37 90 17 91 18 92 19 93
REMARK SMILES IDX 20 95 21 96 31 97 22 98 30 99 23 100 24 101 25 102 26 103
REMARK SMILES IDX 29 104 27 105 28 106
REMARK H PARENT 97 26 63 37 19 94
REMARK Flexibility Score: inf
ROOT
ATOM      1  C   UNL A   1      35.031  23.590  23.195  1.00  0.00     0.188 C 
ENDROOT
BRANCH   1   2
ATOM      2  C   UNL A   1      35.138  24.257  24.570  1.00  0.00     0.188 C 
BRANCH   2   3
ATOM      3  O   UNL A   1      36.208  23.728  25.376  1.00  0.00    -0.376 OA
BRANCH   3   4
ATOM      4  C   UNL A   1      36.893  22.635  24.769  1.00  0.00     0.202 C 
BRANCH   4   5
ATOM      5  C   UNL A   1      38.110  22.105  25.535  1.00  0.00     0.261 C 
BRANCH   5   6
ATOM      6  O   UNL A   1      38.642  23.000  26.514  1.00  0.00    -0.460 OA
BRANCH   6   7
ATOM      7  C   UNL A   1      39.874  23.023  27.057  1.00  0.00     0.338 C 
ATOM      8  O   UNL A   1      40.425  21.936  27.247  1.00  0.00    -0.246 OA
BRANCH   7   9
ATOM      9  C   UNL A   1      40.671  24.247  27.361  1.00  0.00     0.060 A 
ATOM     10  C   UNL A   1      41.871  24.386  28.055  1.00  0.00     0.016 A 
ATOM     11  C   UNL A   1      40.073  25.422  26.863  1.00  0.00     0.016 A 
ATOM     12  C   UNL A   1      42.238  25.657  28.509  1.00  0.00     0.010 A 
ATOM     13  C   UNL A   1      40.615  26.659  27.067  1.00  0.00     0.010 A 
ATOM     14  C   UNL A   1      41.485  26.767  28.113  1.00  0.00    -0.014 A 
BRANCH  14  15
ATOM     15  C   UNL A   1      41.590  28.090  28.701  1.00  0.00     0.031 A 
ATOM     16  C   UNL A   1      42.838  28.749  28.278  1.00  0.00     0.074 A 
ATOM     17  C   UNL A   1      40.600  28.647  29.451  1.00  0.00     0.049 A 
ATOM     18  N   UNL A   1      43.965  28.655  28.897  1.00  0.00    -0.248 NA
ATOM     19  C   UNL A   1      42.966  29.278  26.910  1.00  0.00     0.031 C 
ATOM     20  C   UNL A   1      39.238  28.164  29.729  1.00  0.00     0.029 A 
ATOM     21  N   UNL A   1      40.621  29.827  30.151  1.00  0.00    -0.354 N 
ATOM     22  C   UNL A   1      44.843  29.446  28.177  1.00  0.00     0.074 A 
ATOM     23  C   UNL A   1      44.275  29.548  26.859  1.00  0.00     0.031 C 
ATOM     24  C   UNL A   1      38.505  29.135  30.335  1.00  0.00     0.029 A 
ATOM     25  C   UNL A   1      39.369  30.258  30.641  1.00  0.00     0.049 A 
ATOM     26  H   UNL A   1      41.450  30.336  30.301  1.00  0.00     0.167 HD
ATOM     27  C   UNL A   1      45.752  30.205  28.847  1.00  0.00     0.037 A 
ATOM     28  C   UNL A   1      39.117  31.430  31.306  1.00  0.00     0.037 A 
ATOM     29  C   UNL A   1      45.805  29.797  30.237  1.00  0.00     0.049 A 
ATOM     30  C   UNL A   1      40.430  31.870  31.868  1.00  0.00     0.074 A 
ATOM     31  C   UNL A   1      46.112  28.622  30.893  1.00  0.00     0.029 A 
ATOM     32  N   UNL A   1      45.052  30.543  31.115  1.00  0.00    -0.354 N 
ATOM     33  N   UNL A   1      41.061  31.190  32.791  1.00  0.00    -0.248 NA
ATOM     34  C   UNL A   1      41.272  32.672  30.989  1.00  0.00     0.031 C 
ATOM     35  C   UNL A   1      45.150  28.520  31.940  1.00  0.00     0.029 A 
ATOM     36  C   UNL A   1      44.392  29.692  31.964  1.00  0.00     0.049 A 
ATOM     37  H   UNL A   1      44.997  31.526  31.130  1.00  0.00     0.167 HD
ATOM     38  C   UNL A   1      42.369  31.106  32.332  1.00  0.00     0.074 A 
ATOM     39  C   UNL A   1      42.438  32.056  31.215  1.00  0.00     0.031 C 
ATOM     40  C   UNL A   1      43.175  30.051  32.662  1.00  0.00     0.037 A 
BRANCH  27  41
ATOM     41  C   UNL A   1      46.240  31.562  28.411  1.00  0.00     0.058 A 
ATOM     42  C   UNL A   1      47.631  31.799  28.396  1.00  0.00     0.135 A 
ATOM     43  C   UNL A   1      45.426  32.708  28.284  1.00  0.00     0.135 A 
ATOM     44  F   UNL A   1      48.498  30.781  28.515  1.00  0.00    -0.206 F 
ATOM     45  C   UNL A   1      48.170  33.079  28.327  1.00  0.00     0.059 A 
ATOM     46  C   UNL A   1      45.945  33.994  28.168  1.00  0.00     0.059 A 
ATOM     47  F   UNL A   1      44.091  32.655  28.349  1.00  0.00    -0.206 F 
ATOM     48  C   UNL A   1      47.319  34.172  28.216  1.00  0.00     0.060 A 
BRANCH  48  49
ATOM     49  S   UNL A   1      48.017  35.828  28.129  1.00  0.00     0.124 S 
ATOM     50  O   UNL A   1      48.263  35.965  26.689  1.00  0.00    -0.237 OA
ATOM     51  O   UNL A   1      46.920  36.636  28.661  1.00  0.00    -0.237 OA
ATOM     52  O   UNL A   1      49.195  35.746  28.966  1.00  0.00    -0.744 OA
ENDBRANCH  48  49
ENDBRANCH  27  41
BRANCH  28  53
ATOM     53  C   UNL A   1      37.988  32.401  31.101  1.00  0.00     0.058 A 
ATOM     54  C   UNL A   1      37.868  33.214  29.949  1.00  0.00     0.135 A 
ATOM     55  C   UNL A   1      36.833  32.325  31.902  1.00  0.00     0.135 A 
ATOM     56  F   UNL A   1      38.905  33.343  29.105  1.00  0.00    -0.206 F 
ATOM     57  C   UNL A   1      36.667  33.861  29.592  1.00  0.00     0.059 A 
ATOM     58  C   UNL A   1      35.631  32.956  31.568  1.00  0.00     0.059 A 
ATOM     59  F   UNL A   1      36.812  31.552  32.997  1.00  0.00    -0.206 F 
ATOM     60  C   UNL A   1      35.542  33.703  30.399  1.00  0.00     0.060 A 
BRANCH  60  61
ATOM     61  S   UNL A   1      33.933  34.364  29.876  1.00  0.00     0.124 S 
ATOM     62  O   UNL A   1      33.409  33.281  29.051  1.00  0.00    -0.237 OA
ATOM     63  O   UNL A   1      33.254  34.581  31.150  1.00  0.00    -0.237 OA
ATOM     64  O   UNL A   1      34.288  35.581  29.151  1.00  0.00    -0.744 OA
ENDBRANCH  60  61
ENDBRANCH  28  53
BRANCH  40  65
ATOM     65  C   UNL A   1      42.720  29.104  33.748  1.00  0.00     0.058 A 
ATOM     66  C   UNL A   1      41.815  28.037  33.583  1.00  0.00     0.135 A 
ATOM     67  C   UNL A   1      43.376  29.194  34.983  1.00  0.00     0.135 A 
ATOM     68  F   UNL A   1      41.221  27.815  32.401  1.00  0.00    -0.206 F 
ATOM     69  C   UNL A   1      41.547  27.130  34.617  1.00  0.00     0.059 A 
ATOM     70  C   UNL A   1      43.148  28.289  36.013  1.00  0.00     0.059 A 
ATOM     71  F   UNL A   1      44.301  30.147  35.182  1.00  0.00    -0.206 F 
ATOM     72  C   UNL A   1      42.219  27.269  35.832  1.00  0.00     0.060 A 
BRANCH  72  73
ATOM     73  S   UNL A   1      41.906  26.095  37.169  1.00  0.00     0.124 S 
ATOM     74  O   UNL A   1      42.862  26.523  38.184  1.00  0.00    -0.237 OA
ATOM     75  O   UNL A   1      40.500  26.333  37.479  1.00  0.00    -0.237 OA
ATOM     76  O   UNL A   1      42.187  24.798  36.556  1.00  0.00    -0.744 OA
ENDBRANCH  72  73
ENDBRANCH  40  65
ENDBRANCH  14  15
ENDBRANCH   7   9
ENDBRANCH   6   7
ENDBRANCH   5   6
ENDBRANCH   4   5
ENDBRANCH   3   4
ENDBRANCH   2   3
ENDBRANCH   1   2
BRANCH   1  77
ATOM     77  O   UNL A   1      34.236  24.259  22.232  1.00  0.00    -0.376 OA
BRANCH  77  78
ATOM     78  C   UNL A   1      32.835  24.197  22.520  1.00  0.00     0.202 C 
BRANCH  78  79
ATOM     79  C   UNL A   1      31.957  25.426  22.120  1.00  0.00     0.261 C 
BRANCH  79  80
ATOM     80  O   UNL A   1      30.631  25.560  22.736  1.00  0.00    -0.463 OA
BRANCH  80  81
ATOM     81  C   UNL A   1      30.377  26.567  23.638  1.00  0.00     0.310 C 
ATOM     82  O   UNL A   1      29.287  27.130  23.709  1.00  0.00    -0.252 OA
BRANCH  81  83
ATOM     83  C   UNL A   1      31.591  27.029  24.532  1.00  0.00     0.119 C 
ATOM     84  C   UNL A   1      32.067  26.122  25.669  1.00  0.00     0.100 C 
ATOM     85  C   UNL A   1      31.729  28.529  25.052  1.00  0.00     0.026 C 
ATOM     86  C   UNL A   1      32.857  26.911  26.757  1.00  0.00     0.025 C 
ATOM     87  C   UNL A   1      31.389  28.763  26.530  1.00  0.00    -0.027 C 
ATOM     88  C   UNL A   1      33.254  28.828  25.111  1.00  0.00     0.009 C 
ATOM     89  C   UNL A   1      31.953  27.917  27.407  1.00  0.00    -0.027 C 
ATOM     90  C   UNL A   1      33.934  27.816  26.092  1.00  0.00     0.009 C 
BRANCH  84  91
ATOM     91  C   UNL A   1      30.991  25.239  26.255  1.00  0.00     0.228 C 
ATOM     92  O   UNL A   1      29.924  25.771  26.596  1.00  0.00    -0.274 OA
ATOM     93  N   UNL A   1      31.091  23.891  26.397  1.00  0.00    -0.326 N 
ATOM     94  H   UNL A   1      30.289  23.512  26.825  1.00  0.00     0.169 HD
BRANCH  93  95
ATOM     95  C   UNL A   1      32.037  22.890  26.093  1.00  0.00     0.041 A 
ATOM     96  C   UNL A   1      31.788  22.215  24.918  1.00  0.00     0.026 A 
ATOM     97  C   UNL A   1      33.088  22.410  26.882  1.00  0.00     0.026 A 
ATOM     98  C   UNL A   1      32.543  21.122  24.504  1.00  0.00     0.008 A 
ATOM     99  C   UNL A   1      33.867  21.313  26.487  1.00  0.00     0.008 A 
ATOM    100  C   UNL A   1      33.600  20.663  25.285  1.00  0.00    -0.026 A 
BRANCH 100 101
ATOM    101  C   UNL A   1      34.421  19.491  24.829  1.00  0.00     0.181 C 
BRANCH 101 102
ATOM    102  N   UNL A   1      33.657  18.259  24.823  1.00  0.00    -0.249 N 
ATOM    103  C   UNL A   1      33.910  17.113  24.130  1.00  0.00     0.220 A 
ATOM    104  N   UNL A   1      32.611  18.093  25.661  1.00  0.00    -0.160 NA
ATOM    105  N   UNL A   1      33.053  16.186  24.489  1.00  0.00    -0.224 NA
ATOM    106  C   UNL A   1      32.283  16.822  25.417  1.00  0.00     0.246 A 
ENDBRANCH 101 102
ENDBRANCH 100 101
ENDBRANCH  93  95
ENDBRANCH  84  91
ENDBRANCH  81  83
ENDBRANCH  80  81
ENDBRANCH  79  80
ENDBRANCH  78  79
ENDBRANCH  77  78
ENDBRANCH   1  77
TORSDOF 24
ENDMDL
MODEL 2
REMARK VINA RESULT:     -11.2      3.182      5.756
REMARK SMILES O=C(OCCOCCOCCOC(=O)[C@@H]1[C@H](C(=O)Nc2ccc(Cn3cncn3)cc2)[C@@H]2C=C[C@H]1CC2)c1ccc(-c2c3nc(c(-c4c(F)cc(S(=O)(=O)[O-])cc4F)c4ccc([nH]4)c(-c4c(F)cc(S(=O)(=O)[O-])cc4F)c4nc(c(-c5c(F)cc(S(=O)(=O)[O-])cc5F)c5ccc2[nH]5)C=C4)C=C3)cc1
REMARK SMILES IDX 8 1 7 2 6 3 5 4 4 5 3 6 2 7 1 8 38 9 39 10 103 11 40 12
REMARK SMILES IDX 102 13 41 14 42 15 43 16 96 17 44 18 101 19 95 20 97 21
REMARK SMILES IDX 45 22 100 23 94 24 93 25 46 27 80 28 59 29 79 30 60 31 63 32
REMARK SMILES IDX 78 33 98 34 61 35 62 36 77 38 99 39 64 40 47 41 48 42 57 43
REMARK SMILES IDX 49 44 50 45 56 46 58 47 51 48 52 49 53 50 54 51 55 52 81 53
REMARK SMILES IDX 82 54 91 55 83 56 84 57 90 58 92 59 85 60 86 61 87 62 88 63
REMARK SMILES IDX 89 64 65 65 66 66 75 67 67 68 68 69 74 70 76 71 69 72 70 73
REMARK SMILES IDX 71 74 72 75 73 76 9 77 10 78 11 79 12 80 13 81 14 82 15 83
REMARK SMILES IDX 16 84 35 85 32 86 34 87 36 88 33 89 37 90 17 91 18 92 19 93
REMARK SMILES IDX 20 95 21 96 31 97 22 98 30 99 23 100 24 101 25 102 26 103
REMARK SMILES IDX 29 104 27 105 28 106
REMARK H PARENT 97 26 63 37 19 94
REMARK Flexibility Score: inf
ROOT
ATOM      1  C   UNL A   1      39.655  22.044  26.578  1.00  0.00     0.188 C 
ENDROOT
BRANCH   1   2
ATOM      2  C   UNL A   1      41.022  21.361  26.672  1.00  0.00     0.188 C 
BRANCH   2   3
ATOM      3  O   UNL A   1      40.954  19.930  26.524  1.00  0.00    -0.376 OA
BRANCH   3   4
ATOM      4  C   UNL A   1      42.153  19.260  26.906  1.00  0.00     0.202 C 
BRANCH   4   5
ATOM      5  C   UNL A   1      42.960  18.637  25.762  1.00  0.00     0.261 C 
BRANCH   5   6
ATOM      6  O   UNL A   1      43.478  19.571  24.811  1.00  0.00    -0.460 OA
BRANCH   6   7
ATOM      7  C   UNL A   1      44.674  20.189  24.799  1.00  0.00     0.338 C 
ATOM      8  O   UNL A   1      45.650  19.517  24.456  1.00  0.00    -0.246 OA
BRANCH   7   9
ATOM      9  C   UNL A   1      44.910  21.636  25.071  1.00  0.00     0.060 A 
ATOM     10  C   UNL A   1      46.049  22.285  25.547  1.00  0.00     0.016 A 
ATOM     11  C   UNL A   1      43.777  22.431  24.806  1.00  0.00     0.016 A 
ATOM     12  C   UNL A   1      45.917  23.584  26.048  1.00  0.00     0.010 A 
ATOM     13  C   UNL A   1      43.763  23.779  25.028  1.00  0.00     0.010 A 
ATOM     14  C   UNL A   1      44.697  24.251  25.905  1.00  0.00    -0.014 A 
BRANCH  14  15
ATOM     15  C   UNL A   1      44.341  25.481  26.590  1.00  0.00     0.031 A 
ATOM     16  C   UNL A   1      45.319  26.542  26.296  1.00  0.00     0.074 A 
ATOM     17  C   UNL A   1      43.195  25.620  27.313  1.00  0.00     0.049 A 
ATOM     18  N   UNL A   1      46.392  26.763  26.978  1.00  0.00    -0.248 NA
ATOM     19  C   UNL A   1      45.318  27.201  24.980  1.00  0.00     0.031 C 
ATOM     20  C   UNL A   1      42.058  24.699  27.469  1.00  0.00     0.029 A 
ATOM     21  N   UNL A   1      42.803  26.677  28.095  1.00  0.00    -0.354 N 
ATOM     22  C   UNL A   1      46.988  27.855  26.372  1.00  0.00     0.074 A 
ATOM     23  C   UNL A   1      46.468  27.883  25.032  1.00  0.00     0.031 C 
ATOM     24  C   UNL A   1      41.025  25.324  28.094  1.00  0.00     0.029 A 
ATOM     25  C   UNL A   1      41.462  26.635  28.533  1.00  0.00     0.049 A 
ATOM     26  H   UNL A   1      43.414  27.411  28.333  1.00  0.00     0.167 HD
ATOM     27  C   UNL A   1      47.573  28.805  27.152  1.00  0.00     0.037 A 
ATOM     28  C   UNL A   1      40.815  27.600  29.261  1.00  0.00     0.037 A 
ATOM     29  C   UNL A   1      47.704  28.317  28.510  1.00  0.00     0.049 A 
ATOM     30  C   UNL A   1      41.890  28.390  29.936  1.00  0.00     0.074 A 
ATOM     31  C   UNL A   1      48.355  27.251  29.099  1.00  0.00     0.029 A 
ATOM     32  N   UNL A   1      46.717  28.699  29.388  1.00  0.00    -0.354 N 
ATOM     33  N   UNL A   1      42.674  27.871  30.847  1.00  0.00    -0.248 NA
ATOM     34  C   UNL A   1      42.456  29.494  29.172  1.00  0.00     0.031 C 
ATOM     35  C   UNL A   1      47.440  26.752  30.073  1.00  0.00     0.029 A 
ATOM     36  C   UNL A   1      46.340  27.610  30.131  1.00  0.00     0.049 A 
ATOM     37  H   UNL A   1      46.343  29.606  29.469  1.00  0.00     0.167 HD
ATOM     38  C   UNL A   1      43.954  28.256  30.468  1.00  0.00     0.074 A 
ATOM     39  C   UNL A   1      43.749  29.271  29.427  1.00  0.00     0.031 C 
ATOM     40  C   UNL A   1      45.047  27.493  30.774  1.00  0.00     0.037 A 
BRANCH  27  41
ATOM     41  C   UNL A   1      47.606  30.280  26.845  1.00  0.00     0.058 A 
ATOM     42  C   UNL A   1      48.828  30.967  26.998  1.00  0.00     0.135 A 
ATOM     43  C   UNL A   1      46.464  31.096  26.687  1.00  0.00     0.135 A 
ATOM     44  F   UNL A   1      49.976  30.291  27.160  1.00  0.00    -0.206 F 
ATOM     45  C   UNL A   1      48.903  32.355  27.057  1.00  0.00     0.059 A 
ATOM     46  C   UNL A   1      46.522  32.486  26.697  1.00  0.00     0.059 A 
ATOM     47  F   UNL A   1      45.227  30.595  26.599  1.00  0.00    -0.206 F 
ATOM     48  C   UNL A   1      47.743  33.107  26.908  1.00  0.00     0.060 A 
BRANCH  48  49
ATOM     49  S   UNL A   1      47.841  34.902  26.987  1.00  0.00     0.124 S 
ATOM     50  O   UNL A   1      46.779  35.209  27.951  1.00  0.00    -0.237 OA
ATOM     51  O   UNL A   1      49.207  35.099  27.469  1.00  0.00    -0.237 OA
ATOM     52  O   UNL A   1      47.594  35.317  25.622  1.00  0.00    -0.744 OA
ENDBRANCH  48  49
ENDBRANCH  27  41
BRANCH  28  53
ATOM     53  C   UNL A   1      39.439  28.168  29.054  1.00  0.00     0.058 A 
ATOM     54  C   UNL A   1      38.482  28.271  30.092  1.00  0.00     0.135 A 
ATOM     55  C   UNL A   1      39.145  28.909  27.895  1.00  0.00     0.135 A 
ATOM     56  F   UNL A   1      38.672  27.618  31.250  1.00  0.00    -0.206 F 
ATOM     57  C   UNL A   1      37.341  29.094  30.000  1.00  0.00     0.059 A 
ATOM     58  C   UNL A   1      38.022  29.734  27.781  1.00  0.00     0.059 A 
ATOM     59  F   UNL A   1      39.999  28.925  26.861  1.00  0.00    -0.206 F 
ATOM     60  C   UNL A   1      37.134  29.845  28.844  1.00  0.00     0.060 A 
BRANCH  60  61
ATOM     61  S   UNL A   1      35.782  31.055  28.763  1.00  0.00     0.124 S 
ATOM     62  O   UNL A   1      35.497  31.295  30.173  1.00  0.00    -0.237 OA
ATOM     63  O   UNL A   1      36.397  32.164  28.040  1.00  0.00    -0.237 OA
ATOM     64  O   UNL A   1      34.737  30.345  28.031  1.00  0.00    -0.744 OA
ENDBRANCH  60  61
ENDBRANCH  28  53
BRANCH  40  65
ATOM     65  C   UNL A   1      44.887  26.359  31.758  1.00  0.00     0.058 A 
ATOM     66  C   UNL A   1      44.528  25.034  31.437  1.00  0.00     0.135 A 
ATOM     67  C   UNL A   1      45.286  26.605  33.079  1.00  0.00     0.135 A 
ATOM     68  F   UNL A   1      44.234  24.688  30.175  1.00  0.00    -0.206 F 
ATOM     69  C   UNL A   1      44.527  24.016  32.399  1.00  0.00     0.059 A 
ATOM     70  C   UNL A   1      45.321  25.604  34.043  1.00  0.00     0.059 A 
ATOM     71  F   UNL A   1      45.704  27.830  33.434  1.00  0.00    -0.206 F 
ATOM     72  C   UNL A   1      44.922  24.315  33.704  1.00  0.00     0.060 A 
BRANCH  72  73
ATOM     73  S   UNL A   1      44.952  23.010  34.953  1.00  0.00     0.124 S 
ATOM     74  O   UNL A   1      45.484  23.711  36.116  1.00  0.00    -0.237 OA
ATOM     75  O   UNL A   1      43.549  22.617  35.035  1.00  0.00    -0.237 OA
ATOM     76  O   UNL A   1      45.839  22.003  34.373  1.00  0.00    -0.744 OA
ENDBRANCH  72  73
ENDBRANCH  40  65
ENDBRANCH  14  15
ENDBRANCH   7   9
ENDBRANCH   6   7
ENDBRANCH   5   6
ENDBRANCH   4   5
ENDBRANCH   3   4
ENDBRANCH   2   3
ENDBRANCH   1   2
BRANCH   1  77
ATOM     77  O   UNL A   1      38.710  21.441  25.711  1.00  0.00    -0.376 OA
BRANCH  77  78
ATOM     78  C   UNL A   1      37.801  22.382  25.130  1.00  0.00     0.202 C 
BRANCH  78  79
ATOM     79  C   UNL A   1      36.326  21.919  24.901  1.00  0.00     0.261 C 
BRANCH  79  80
ATOM     80  O   UNL A   1      35.726  22.147  23.580  1.00  0.00    -0.463 OA
BRANCH  80  81
ATOM     81  C   UNL A   1      34.644  22.985  23.438  1.00  0.00     0.310 C 
ATOM     82  O   UNL A   1      34.651  23.948  22.675  1.00  0.00    -0.252 OA
BRANCH  81  83
ATOM     83  C   UNL A   1      33.409  22.698  24.375  1.00  0.00     0.119 C 
ATOM     84  C   UNL A   1      32.855  23.830  25.244  1.00  0.00     0.100 C 
ATOM     85  C   UNL A   1      33.298  21.361  25.235  1.00  0.00     0.026 C 
ATOM     86  C   UNL A   1      32.046  23.290  26.462  1.00  0.00     0.025 C 
ATOM     87  C   UNL A   1      33.581  21.501  26.736  1.00  0.00    -0.027 C 
ATOM     88  C   UNL A   1      31.782  21.021  25.312  1.00  0.00     0.009 C 
ATOM     89  C   UNL A   1      32.953  22.508  27.365  1.00  0.00    -0.027 C 
ATOM     90  C   UNL A   1      31.028  22.209  25.998  1.00  0.00     0.009 C 
BRANCH  84  91
ATOM     91  C   UNL A   1      33.876  24.872  25.638  1.00  0.00     0.228 C 
ATOM     92  O   UNL A   1      34.911  24.487  26.202  1.00  0.00    -0.274 OA
ATOM     93  N   UNL A   1      33.762  26.201  25.377  1.00  0.00    -0.326 N 
ATOM     94  H   UNL A   1      34.524  26.707  25.742  1.00  0.00     0.169 HD
BRANCH  93  95
ATOM     95  C   UNL A   1      32.843  27.047  24.723  1.00  0.00     0.041 A 
ATOM     96  C   UNL A   1      33.215  27.404  23.445  1.00  0.00     0.026 A 
ATOM     97  C   UNL A   1      31.704  27.671  25.242  1.00  0.00     0.026 A 
ATOM     98  C   UNL A   1      32.498  28.320  22.681  1.00  0.00     0.008 A 
ATOM     99  C   UNL A   1      30.961  28.594  24.493  1.00  0.00     0.008 A 
ATOM    100  C   UNL A   1      31.353  28.921  23.197  1.00  0.00    -0.026 A 
BRANCH 100 101
ATOM    101  C   UNL A   1      30.575  29.898  22.366  1.00  0.00     0.181 C 
BRANCH 101 102
ATOM    102  N   UNL A   1      29.189  29.986  22.782  1.00  0.00    -0.249 N 
ATOM    103  C   UNL A   1      28.493  31.092  23.170  1.00  0.00     0.220 A 
ATOM    104  N   UNL A   1      28.377  28.911  22.700  1.00  0.00    -0.160 NA
ATOM    105  N   UNL A   1      27.232  30.775  23.351  1.00  0.00    -0.224 NA
ATOM    106  C   UNL A   1      27.205  29.444  23.057  1.00  0.00     0.246 A 
ENDBRANCH 101 102
ENDBRANCH 100 101
ENDBRANCH  93  95
ENDBRANCH  84  91
ENDBRANCH  81  83
ENDBRANCH  80  81
ENDBRANCH  79  80
ENDBRANCH  78  79
ENDBRANCH  77  78
ENDBRANCH   1  77
TORSDOF 24
ENDMDL
MODEL 3
REMARK VINA RESULT:     -11.1      2.905      5.713
REMARK SMILES O=C(OCCOCCOCCOC(=O)[C@@H]1[C@H](C(=O)Nc2ccc(Cn3cncn3)cc2)[C@@H]2C=C[C@H]1CC2)c1ccc(-c2c3nc(c(-c4c(F)cc(S(=O)(=O)[O-])cc4F)c4ccc([nH]4)c(-c4c(F)cc(S(=O)(=O)[O-])cc4F)c4nc(c(-c5c(F)cc(S(=O)(=O)[O-])cc5F)c5ccc2[nH]5)C=C4)C=C3)cc1
REMARK SMILES IDX 8 1 7 2 6 3 5 4 4 5 3 6 2 7 1 8 38 9 39 10 103 11 40 12
REMARK SMILES IDX 102 13 41 14 42 15 43 16 96 17 44 18 101 19 95 20 97 21
REMARK SMILES IDX 45 22 100 23 94 24 93 25 46 27 80 28 59 29 79 30 60 31 63 32
REMARK SMILES IDX 78 33 98 34 61 35 62 36 77 38 99 39 64 40 47 41 48 42 57 43
REMARK SMILES IDX 49 44 50 45 56 46 58 47 51 48 52 49 53 50 54 51 55 52 81 53
REMARK SMILES IDX 82 54 91 55 83 56 84 57 90 58 92 59 85 60 86 61 87 62 88 63
REMARK SMILES IDX 89 64 65 65 66 66 75 67 67 68 68 69 74 70 76 71 69 72 70 73
REMARK SMILES IDX 71 74 72 75 73 76 9 77 10 78 11 79 12 80 13 81 14 82 15 83
REMARK SMILES IDX 16 84 35 85 32 86 34 87 36 88 33 89 37 90 17 91 18 92 19 93
REMARK SMILES IDX 20 95 21 96 31 97 22 98 30 99 23 100 24 101 25 102 26 103
REMARK SMILES IDX 29 104 27 105 28 106
REMARK H PARENT 97 26 63 37 19 94
REMARK Flexibility Score: inf
ROOT
ATOM      1  C   UNL A   1      40.482  22.191  26.953  1.00  0.00     0.188 C 
ENDROOT
BRANCH   1   2
ATOM      2  C   UNL A   1      41.211  21.330  27.988  1.00  0.00     0.188 C 
BRANCH   2   3
ATOM      3  O   UNL A   1      41.192  19.925  27.672  1.00  0.00    -0.376 OA
BRANCH   3   4
ATOM      4  C   UNL A   1      42.462  19.413  27.273  1.00  0.00     0.202 C 
BRANCH   4   5
ATOM      5  C   UNL A   1      42.575  18.986  25.806  1.00  0.00     0.261 C 
BRANCH   5   6
ATOM      6  O   UNL A   1      43.179  19.952  24.942  1.00  0.00    -0.460 OA
BRANCH   6   7
ATOM      7  C   UNL A   1      44.396  20.522  25.033  1.00  0.00     0.338 C 
ATOM      8  O   UNL A   1      45.370  19.813  24.768  1.00  0.00    -0.246 OA
BRANCH   7   9
ATOM      9  C   UNL A   1      44.666  21.959  25.331  1.00  0.00     0.060 A 
ATOM     10  C   UNL A   1      45.769  22.556  25.938  1.00  0.00     0.016 A 
ATOM     11  C   UNL A   1      43.610  22.803  24.935  1.00  0.00     0.016 A 
ATOM     12  C   UNL A   1      45.640  23.863  26.420  1.00  0.00     0.010 A 
ATOM     13  C   UNL A   1      43.633  24.152  25.154  1.00  0.00     0.010 A 
ATOM     14  C   UNL A   1      44.478  24.585  26.135  1.00  0.00    -0.014 A 
BRANCH  14  15
ATOM     15  C   UNL A   1      44.101  25.833  26.774  1.00  0.00     0.031 A 
ATOM     16  C   UNL A   1      45.071  26.895  26.453  1.00  0.00     0.074 A 
ATOM     17  C   UNL A   1      42.947  25.984  27.480  1.00  0.00     0.049 A 
ATOM     18  N   UNL A   1      46.134  27.151  27.137  1.00  0.00    -0.248 NA
ATOM     19  C   UNL A   1      45.076  27.508  25.115  1.00  0.00     0.031 C 
ATOM     20  C   UNL A   1      41.818  25.056  27.657  1.00  0.00     0.029 A 
ATOM     21  N   UNL A   1      42.536  27.062  28.221  1.00  0.00    -0.354 N 
ATOM     22  C   UNL A   1      46.724  28.228  26.500  1.00  0.00     0.074 A 
ATOM     23  C   UNL A   1      46.218  28.205  25.154  1.00  0.00     0.031 C 
ATOM     24  C   UNL A   1      40.772  25.691  28.250  1.00  0.00     0.029 A 
ATOM     25  C   UNL A   1      41.191  27.021  28.648  1.00  0.00     0.049 A 
ATOM     26  H   UNL A   1      43.136  27.811  28.440  1.00  0.00     0.167 HD
ATOM     27  C   UNL A   1      47.291  29.212  27.251  1.00  0.00     0.037 A 
ATOM     28  C   UNL A   1      40.526  28.002  29.336  1.00  0.00     0.037 A 
ATOM     29  C   UNL A   1      47.414  28.772  28.626  1.00  0.00     0.049 A 
ATOM     30  C   UNL A   1      41.586  28.827  29.993  1.00  0.00     0.074 A 
ATOM     31  C   UNL A   1      48.070  27.734  29.259  1.00  0.00     0.029 A 
ATOM     32  N   UNL A   1      46.413  29.173  29.482  1.00  0.00    -0.354 N 
ATOM     33  N   UNL A   1      42.365  28.350  30.930  1.00  0.00    -0.248 NA
ATOM     34  C   UNL A   1      42.146  29.911  29.197  1.00  0.00     0.031 C 
ATOM     35  C   UNL A   1      47.151  27.259  30.240  1.00  0.00     0.029 A 
ATOM     36  C   UNL A   1      46.041  28.105  30.259  1.00  0.00     0.049 A 
ATOM     37  H   UNL A   1      46.028  30.077  29.528  1.00  0.00     0.167 HD
ATOM     38  C   UNL A   1      43.645  28.735  30.549  1.00  0.00     0.074 A 
ATOM     39  C   UNL A   1      43.440  29.711  29.473  1.00  0.00     0.031 C 
ATOM     40  C   UNL A   1      44.743  27.996  30.892  1.00  0.00     0.037 A 
BRANCH  27  41
ATOM     41  C   UNL A   1      47.310  30.675  26.894  1.00  0.00     0.058 A 
ATOM     42  C   UNL A   1      48.522  31.382  27.041  1.00  0.00     0.135 A 
ATOM     43  C   UNL A   1      46.161  31.471  26.692  1.00  0.00     0.135 A 
ATOM     44  F   UNL A   1      49.676  30.727  27.243  1.00  0.00    -0.206 F 
ATOM     45  C   UNL A   1      48.579  32.773  27.053  1.00  0.00     0.059 A 
ATOM     46  C   UNL A   1      46.203  32.861  26.654  1.00  0.00     0.059 A 
ATOM     47  F   UNL A   1      44.932  30.951  26.603  1.00  0.00    -0.206 F 
ATOM     48  C   UNL A   1      47.413  33.504  26.861  1.00  0.00     0.060 A 
BRANCH  48  49
ATOM     49  S   UNL A   1      47.487  35.302  26.879  1.00  0.00     0.124 S 
ATOM     50  O   UNL A   1      47.456  35.580  28.319  1.00  0.00    -0.237 OA
ATOM     51  O   UNL A   1      48.768  35.547  26.217  1.00  0.00    -0.237 OA
ATOM     52  O   UNL A   1      46.312  35.699  26.133  1.00  0.00    -0.744 OA
ENDBRANCH  48  49
ENDBRANCH  27  41
BRANCH  28  53
ATOM     53  C   UNL A   1      39.145  28.548  29.096  1.00  0.00     0.058 A 
ATOM     54  C   UNL A   1      38.189  28.708  30.127  1.00  0.00     0.135 A 
ATOM     55  C   UNL A   1      38.846  29.214  27.893  1.00  0.00     0.135 A 
ATOM     56  F   UNL A   1      38.384  28.129  31.323  1.00  0.00    -0.206 F 
ATOM     57  C   UNL A   1      37.042  29.516  29.986  1.00  0.00     0.059 A 
ATOM     58  C   UNL A   1      37.717  30.022  27.731  1.00  0.00     0.059 A 
ATOM     59  F   UNL A   1      39.698  29.172  26.860  1.00  0.00    -0.206 F 
ATOM     60  C   UNL A   1      36.829  30.193  28.786  1.00  0.00     0.060 A 
BRANCH  60  61
ATOM     61  S   UNL A   1      35.469  31.387  28.632  1.00  0.00     0.124 S 
ATOM     62  O   UNL A   1      34.460  30.613  27.917  1.00  0.00    -0.237 OA
ATOM     63  O   UNL A   1      35.164  31.697  30.026  1.00  0.00    -0.237 OA
ATOM     64  O   UNL A   1      36.065  32.482  27.872  1.00  0.00    -0.744 OA
ENDBRANCH  60  61
ENDBRANCH  28  53
BRANCH  40  65
ATOM     65  C   UNL A   1      44.586  26.895  31.914  1.00  0.00     0.058 A 
ATOM     66  C   UNL A   1      44.301  25.544  31.630  1.00  0.00     0.135 A 
ATOM     67  C   UNL A   1      44.910  27.209  33.240  1.00  0.00     0.135 A 
ATOM     68  F   UNL A   1      44.083  25.136  30.371  1.00  0.00    -0.206 F 
ATOM     69  C   UNL A   1      44.298  24.564  32.632  1.00  0.00     0.059 A 
ATOM     70  C   UNL A   1      44.942  26.250  34.245  1.00  0.00     0.059 A 
ATOM     71  F   UNL A   1      45.257  28.465  33.564  1.00  0.00    -0.206 F 
ATOM     72  C   UNL A   1      44.617  24.932  33.940  1.00  0.00     0.060 A 
BRANCH  72  73
ATOM     73  S   UNL A   1      44.643  23.678  35.241  1.00  0.00     0.124 S 
ATOM     74  O   UNL A   1      44.899  24.479  36.433  1.00  0.00    -0.237 OA
ATOM     75  O   UNL A   1      43.311  23.091  35.144  1.00  0.00    -0.237 OA
ATOM     76  O   UNL A   1      45.735  22.793  34.840  1.00  0.00    -0.744 OA
ENDBRANCH  72  73
ENDBRANCH  40  65
ENDBRANCH  14  15
ENDBRANCH   7   9
ENDBRANCH   6   7
ENDBRANCH   5   6
ENDBRANCH   4   5
ENDBRANCH   3   4
ENDBRANCH   2   3
ENDBRANCH   1   2
BRANCH   1  77
ATOM     77  O   UNL A   1      40.047  21.529  25.778  1.00  0.00    -0.376 OA
BRANCH  77  78
ATOM     78  C   UNL A   1      38.635  21.293  25.756  1.00  0.00     0.202 C 
BRANCH  78  79
ATOM     79  C   UNL A   1      38.087  20.264  24.716  1.00  0.00     0.261 C 
BRANCH  79  80
ATOM     80  O   UNL A   1      36.952  19.420  25.108  1.00  0.00    -0.463 OA
BRANCH  80  81
ATOM     81  C   UNL A   1      35.667  19.907  25.056  1.00  0.00     0.310 C 
ATOM     82  O   UNL A   1      35.325  20.932  25.641  1.00  0.00    -0.252 OA
BRANCH  81  83
ATOM     83  C   UNL A   1      34.617  19.032  24.270  1.00  0.00     0.119 C 
ATOM     84  C   UNL A   1      33.147  19.454  24.269  1.00  0.00     0.100 C 
ATOM     85  C   UNL A   1      34.639  17.439  24.327  1.00  0.00     0.026 C 
ATOM     86  C   UNL A   1      32.195  18.262  23.946  1.00  0.00     0.025 C 
ATOM     87  C   UNL A   1      33.563  16.782  25.201  1.00  0.00    -0.027 C 
ATOM     88  C   UNL A   1      34.143  16.949  22.936  1.00  0.00     0.009 C 
ATOM     89  C   UNL A   1      32.306  17.221  25.020  1.00  0.00    -0.027 C 
ATOM     90  C   UNL A   1      32.698  17.495  22.689  1.00  0.00     0.009 C 
BRANCH  84  91
ATOM     91  C   UNL A   1      32.718  20.226  25.495  1.00  0.00     0.228 C 
ATOM     92  O   UNL A   1      32.638  19.612  26.570  1.00  0.00    -0.274 OA
ATOM     93  N   UNL A   1      32.456  21.559  25.515  1.00  0.00    -0.326 N 
ATOM     94  H   UNL A   1      32.167  21.857  26.409  1.00  0.00     0.169 HD
BRANCH  93  95
ATOM     95  C   UNL A   1      32.488  22.629  24.597  1.00  0.00     0.041 A 
ATOM     96  C   UNL A   1      31.285  23.288  24.456  1.00  0.00     0.026 A 
ATOM     97  C   UNL A   1      33.516  23.008  23.728  1.00  0.00     0.026 A 
ATOM     98  C   UNL A   1      31.085  24.297  23.519  1.00  0.00     0.008 A 
ATOM     99  C   UNL A   1      33.343  24.024  22.777  1.00  0.00     0.008 A 
ATOM    100  C   UNL A   1      32.120  24.682  22.671  1.00  0.00    -0.026 A 
BRANCH 100 101
ATOM    101  C   UNL A   1      31.905  25.779  21.670  1.00  0.00     0.181 C 
BRANCH 101 102
ATOM    102  N   UNL A   1      32.511  27.028  22.090  1.00  0.00    -0.249 N 
ATOM    103  C   UNL A   1      32.011  27.961  22.948  1.00  0.00     0.220 A 
ATOM    104  N   UNL A   1      33.773  27.338  21.724  1.00  0.00    -0.160 NA
ATOM    105  N   UNL A   1      32.916  28.888  23.162  1.00  0.00    -0.224 NA
ATOM    106  C   UNL A   1      33.967  28.473  22.400  1.00  0.00     0.246 A 
ENDBRANCH 101 102
ENDBRANCH 100 101
ENDBRANCH  93  95
ENDBRANCH  84  91
ENDBRANCH  81  83
ENDBRANCH  80  81
ENDBRANCH  79  80
ENDBRANCH  78  79
ENDBRANCH  77  78
ENDBRANCH   1  77
TORSDOF 24
ENDMDL
