MODEL 1
REMARK VINA RESULT:      -9.1      0.000      0.000
REMARK SMILES O=C(OCCOCCOCCOC(=O)c1ccc(-n2cc(CSc3nc4ccccc4c(=O)n3-c3ccccc3)nn2)cc1)c1ccc(-c2c3nc(c(-c4c(F)cc(S(=O)(=O)[O-])cc4F)c4ccc([nH]4)c(-c4c(F)cc(S(=O)(=O)[O-])cc4F)c4nc(c(-c5c(F)cc(S(=O)(=O)[O-])cc5F)c5ccc2[nH]5)C=C4)C=C3)cc1
REMARK SMILES IDX 8 1 7 2 6 3 5 4 4 5 3 6 2 7 1 8 45 9 46 10 110 11 47 12
REMARK SMILES IDX 109 13 48 14 49 15 50 16 103 17 51 18 108 19 102 20 104 21
REMARK SMILES IDX 52 22 107 23 101 24 100 25 53 27 87 28 66 29 86 30 67 31
REMARK SMILES IDX 70 32 85 33 105 34 68 35 69 36 84 38 106 39 71 40 54 41
REMARK SMILES IDX 55 42 64 43 56 44 57 45 63 46 65 47 58 48 59 49 60 50 61 51
REMARK SMILES IDX 62 52 88 53 89 54 98 55 90 56 91 57 97 58 99 59 92 60 93 61
REMARK SMILES IDX 94 62 95 63 96 64 72 65 73 66 82 67 74 68 75 69 81 70 83 71
REMARK SMILES IDX 76 72 77 73 78 74 79 75 80 76 9 77 10 78 11 79 12 80 13 81
REMARK SMILES IDX 14 82 15 83 16 84 44 85 17 86 43 87 18 88 19 89 20 90 42 91
REMARK SMILES IDX 21 92 41 93 22 94 23 95 24 96 25 97 34 98 26 99 32 100
REMARK SMILES IDX 27 101 31 102 33 103 28 104 30 105 29 106 35 107 36 108
REMARK SMILES IDX 40 109 37 110 39 111 38 112
REMARK H PARENT 104 26 70 37
REMARK Flexibility Score: inf
ROOT
ATOM      1  C   UNL A   1      43.945  22.939  26.825  1.00  0.00     0.188 C 
ENDROOT
BRANCH   1   2
ATOM      2  C   UNL A   1      44.224  21.591  26.119  1.00  0.00     0.188 C 
BRANCH   2   3
ATOM      3  O   UNL A   1      43.120  20.710  26.117  1.00  0.00    -0.376 OA
BRANCH   3   4
ATOM      4  C   UNL A   1      41.848  21.196  25.737  1.00  0.00     0.202 C 
BRANCH   4   5
ATOM      5  C   UNL A   1      40.655  20.963  26.676  1.00  0.00     0.261 C 
BRANCH   5   6
ATOM      6  O   UNL A   1      39.408  21.546  26.275  1.00  0.00    -0.460 OA
BRANCH   6   7
ATOM      7  C   UNL A   1      38.945  22.797  26.468  1.00  0.00     0.338 C 
ATOM      8  O   UNL A   1      37.816  23.085  26.075  1.00  0.00    -0.246 OA
BRANCH   7   9
ATOM      9  C   UNL A   1      39.830  23.900  26.927  1.00  0.00     0.060 A 
ATOM     10  C   UNL A   1      40.699  23.842  28.020  1.00  0.00     0.016 A 
ATOM     11  C   UNL A   1      39.732  25.096  26.188  1.00  0.00     0.016 A 
ATOM     12  C   UNL A   1      41.335  24.984  28.468  1.00  0.00     0.010 A 
ATOM     13  C   UNL A   1      40.368  26.243  26.627  1.00  0.00     0.010 A 
ATOM     14  C   UNL A   1      41.064  26.189  27.833  1.00  0.00    -0.014 A 
BRANCH  14  15
ATOM     15  C   UNL A   1      41.293  27.395  28.613  1.00  0.00     0.031 A 
ATOM     16  C   UNL A   1      42.573  28.115  28.384  1.00  0.00     0.074 A 
ATOM     17  C   UNL A   1      40.303  27.792  29.443  1.00  0.00     0.049 A 
ATOM     18  N   UNL A   1      43.465  28.485  29.249  1.00  0.00    -0.248 NA
ATOM     19  C   UNL A   1      42.957  28.371  26.986  1.00  0.00     0.031 C 
ATOM     20  C   UNL A   1      38.947  27.226  29.552  1.00  0.00     0.029 A 
ATOM     21  N   UNL A   1      40.238  28.867  30.266  1.00  0.00    -0.354 N 
ATOM     22  C   UNL A   1      44.407  29.218  28.527  1.00  0.00     0.074 A 
ATOM     23  C   UNL A   1      44.130  28.985  27.133  1.00  0.00     0.031 C 
ATOM     24  C   UNL A   1      38.139  28.117  30.159  1.00  0.00     0.029 A 
ATOM     25  C   UNL A   1      38.942  29.241  30.593  1.00  0.00     0.049 A 
ATOM     26  H   UNL A   1      41.035  29.338  30.600  1.00  0.00     0.167 HD
ATOM     27  C   UNL A   1      45.201  30.159  29.107  1.00  0.00     0.037 A 
ATOM     28  C   UNL A   1      38.557  30.459  31.044  1.00  0.00     0.037 A 
ATOM     29  C   UNL A   1      45.339  29.962  30.523  1.00  0.00     0.049 A 
ATOM     30  C   UNL A   1      39.772  31.115  31.596  1.00  0.00     0.074 A 
ATOM     31  C   UNL A   1      45.853  28.951  31.312  1.00  0.00     0.029 A 
ATOM     32  N   UNL A   1      44.607  30.756  31.372  1.00  0.00    -0.354 N 
ATOM     33  N   UNL A   1      40.424  30.672  32.641  1.00  0.00    -0.248 NA
ATOM     34  C   UNL A   1      40.536  31.985  30.715  1.00  0.00     0.031 C 
ATOM     35  C   UNL A   1      45.015  28.915  32.463  1.00  0.00     0.029 A 
ATOM     36  C   UNL A   1      44.066  29.929  32.326  1.00  0.00     0.049 A 
ATOM     37  H   UNL A   1      44.491  31.731  31.308  1.00  0.00     0.167 HD
ATOM     38  C   UNL A   1      41.766  30.880  32.349  1.00  0.00     0.074 A 
ATOM     39  C   UNL A   1      41.767  31.762  31.185  1.00  0.00     0.031 C 
ATOM     40  C   UNL A   1      42.747  30.100  32.897  1.00  0.00     0.037 A 
BRANCH  27  41
ATOM     41  C   UNL A   1      45.563  31.453  28.420  1.00  0.00     0.058 A 
ATOM     42  C   UNL A   1      44.589  32.449  28.214  1.00  0.00     0.135 A 
ATOM     43  C   UNL A   1      46.776  31.627  27.713  1.00  0.00     0.135 A 
ATOM     44  F   UNL A   1      43.392  32.368  28.817  1.00  0.00    -0.206 F 
ATOM     45  C   UNL A   1      44.788  33.510  27.326  1.00  0.00     0.059 A 
ATOM     46  C   UNL A   1      47.016  32.704  26.870  1.00  0.00     0.059 A 
ATOM     47  F   UNL A   1      47.743  30.700  27.726  1.00  0.00    -0.206 F 
ATOM     48  C   UNL A   1      46.000  33.616  26.646  1.00  0.00     0.060 A 
BRANCH  48  49
ATOM     49  S   UNL A   1      46.211  34.894  25.395  1.00  0.00     0.124 S 
ATOM     50  O   UNL A   1      47.651  34.841  25.169  1.00  0.00    -0.237 OA
ATOM     51  O   UNL A   1      45.376  34.399  24.306  1.00  0.00    -0.237 OA
ATOM     52  O   UNL A   1      45.718  36.098  26.056  1.00  0.00    -0.744 OA
ENDBRANCH  48  49
ENDBRANCH  27  41
BRANCH  28  53
ATOM     53  C   UNL A   1      37.350  31.191  30.571  1.00  0.00     0.058 A 
ATOM     54  C   UNL A   1      36.427  31.747  31.471  1.00  0.00     0.135 A 
ATOM     55  C   UNL A   1      37.187  31.556  29.214  1.00  0.00     0.135 A 
ATOM     56  F   UNL A   1      36.529  31.488  32.782  1.00  0.00    -0.206 F 
ATOM     57  C   UNL A   1      35.413  32.620  31.053  1.00  0.00     0.059 A 
ATOM     58  C   UNL A   1      36.176  32.404  28.773  1.00  0.00     0.059 A 
ATOM     59  F   UNL A   1      38.063  31.164  28.276  1.00  0.00    -0.206 F 
ATOM     60  C   UNL A   1      35.302  32.950  29.701  1.00  0.00     0.060 A 
BRANCH  60  61
ATOM     61  S   UNL A   1      34.082  34.174  29.172  1.00  0.00     0.124 S 
ATOM     62  O   UNL A   1      34.929  35.219  28.608  1.00  0.00    -0.237 OA
ATOM     63  O   UNL A   1      33.282  33.416  28.216  1.00  0.00    -0.237 OA
ATOM     64  O   UNL A   1      33.396  34.530  30.412  1.00  0.00    -0.744 OA
ENDBRANCH  60  61
ENDBRANCH  28  53
BRANCH  40  65
ATOM     65  C   UNL A   1      42.363  29.137  33.994  1.00  0.00     0.058 A 
ATOM     66  C   UNL A   1      41.832  27.857  33.745  1.00  0.00     0.135 A 
ATOM     67  C   UNL A   1      42.720  29.429  35.317  1.00  0.00     0.135 A 
ATOM     68  F   UNL A   1      41.575  27.455  32.495  1.00  0.00    -0.206 F 
ATOM     69  C   UNL A   1      41.632  26.926  34.765  1.00  0.00     0.059 A 
ATOM     70  C   UNL A   1      42.558  28.504  36.349  1.00  0.00     0.059 A 
ATOM     71  F   UNL A   1      43.300  30.605  35.611  1.00  0.00    -0.206 F 
ATOM     72  C   UNL A   1      42.005  27.255  36.066  1.00  0.00     0.060 A 
BRANCH  72  73
ATOM     73  S   UNL A   1      41.856  26.004  37.360  1.00  0.00     0.124 S 
ATOM     74  O   UNL A   1      42.838  26.456  38.340  1.00  0.00    -0.237 OA
ATOM     75  O   UNL A   1      40.457  26.129  37.764  1.00  0.00    -0.237 OA
ATOM     76  O   UNL A   1      42.186  24.759  36.671  1.00  0.00    -0.744 OA
ENDBRANCH  72  73
ENDBRANCH  40  65
ENDBRANCH  14  15
ENDBRANCH   7   9
ENDBRANCH   6   7
ENDBRANCH   5   6
ENDBRANCH   4   5
ENDBRANCH   3   4
ENDBRANCH   2   3
ENDBRANCH   1   2
BRANCH   1  77
ATOM     77  O   UNL A   1      45.022  23.729  27.318  1.00  0.00    -0.376 OA
BRANCH  77  78
ATOM     78  C   UNL A   1      44.740  24.923  28.031  1.00  0.00     0.202 C 
BRANCH  78  79
ATOM     79  C   UNL A   1      45.918  25.814  28.461  1.00  0.00     0.261 C 
BRANCH  79  80
ATOM     80  O   UNL A   1      46.432  26.704  27.451  1.00  0.00    -0.460 OA
BRANCH  80  81
ATOM     81  C   UNL A   1      47.544  26.291  26.792  1.00  0.00     0.338 C 
ATOM     82  O   UNL A   1      47.652  26.044  25.606  1.00  0.00    -0.246 OA
BRANCH  81  83
ATOM     83  C   UNL A   1      48.696  26.245  27.720  1.00  0.00     0.060 A 
ATOM     84  C   UNL A   1      49.052  27.409  28.416  1.00  0.00     0.018 A 
ATOM     85  C   UNL A   1      49.485  25.093  27.820  1.00  0.00     0.018 A 
ATOM     86  C   UNL A   1      50.204  27.436  29.201  1.00  0.00     0.029 A 
ATOM     87  C   UNL A   1      50.635  25.109  28.621  1.00  0.00     0.029 A 
ATOM     88  C   UNL A   1      50.993  26.288  29.293  1.00  0.00     0.066 A 
BRANCH  88  89
ATOM     89  N   UNL A   1      52.257  26.381  29.909  1.00  0.00    -0.220 N 
ATOM     90  C   UNL A   1      53.421  26.709  29.243  1.00  0.00     0.141 A 
ATOM     91  N   UNL A   1      52.552  25.802  31.084  1.00  0.00    -0.062 NA
ATOM     92  C   UNL A   1      54.444  26.246  30.036  1.00  0.00     0.093 A 
ATOM     93  N   UNL A   1      53.872  25.795  31.212  1.00  0.00    -0.134 NA
BRANCH  92  94
ATOM     94  C   UNL A   1      55.858  25.849  29.794  1.00  0.00     0.138 C 
BRANCH  94  95
ATOM     95  S   UNL A   1      56.867  26.102  28.351  1.00  0.00    -0.081 SA
BRANCH  95  96
ATOM     96  C   UNL A   1      56.073  25.859  26.829  1.00  0.00     0.176 A 
ATOM     97  N   UNL A   1      55.745  26.994  26.283  1.00  0.00    -0.223 NA
ATOM     98  N   UNL A   1      55.806  24.647  26.211  1.00  0.00    -0.255 N 
ATOM     99  C   UNL A   1      54.982  26.986  25.114  1.00  0.00     0.079 A 
ATOM    100  C   UNL A   1      54.592  24.632  25.507  1.00  0.00     0.266 A 
ATOM    101  C   UNL A   1      54.841  28.135  24.339  1.00  0.00     0.029 A 
ATOM    102  C   UNL A   1      54.254  25.858  24.775  1.00  0.00     0.066 A 
ATOM    103  O   UNL A   1      53.782  23.706  25.477  1.00  0.00    -0.268 OA
ATOM    104  C   UNL A   1      53.930  28.158  23.275  1.00  0.00     0.002 A 
ATOM    105  C   UNL A   1      53.299  25.880  23.756  1.00  0.00     0.016 A 
ATOM    106  C   UNL A   1      53.134  27.042  23.008  1.00  0.00     0.001 A 
BRANCH  98 107
ATOM    107  C   UNL A   1      56.581  23.417  26.286  1.00  0.00     0.051 A 
ATOM    108  C   UNL A   1      56.342  22.494  27.327  1.00  0.00     0.027 A 
ATOM    109  C   UNL A   1      57.579  23.049  25.377  1.00  0.00     0.027 A 
ATOM    110  C   UNL A   1      57.181  21.403  27.571  1.00  0.00     0.002 A 
ATOM    111  C   UNL A   1      58.454  21.984  25.637  1.00  0.00     0.002 A 
ATOM    112  C   UNL A   1      58.274  21.179  26.753  1.00  0.00     0.000 A 
ENDBRANCH  98 107
ENDBRANCH  95  96
ENDBRANCH  94  95
ENDBRANCH  92  94
ENDBRANCH  88  89
ENDBRANCH  81  83
ENDBRANCH  80  81
ENDBRANCH  79  80
ENDBRANCH  78  79
ENDBRANCH  77  78
ENDBRANCH   1  77
TORSDOF 25
ENDMDL
MODEL 2
REMARK VINA RESULT:      -8.8      7.782     14.309
REMARK SMILES O=C(OCCOCCOCCOC(=O)c1ccc(-n2cc(CSc3nc4ccccc4c(=O)n3-c3ccccc3)nn2)cc1)c1ccc(-c2c3nc(c(-c4c(F)cc(S(=O)(=O)[O-])cc4F)c4ccc([nH]4)c(-c4c(F)cc(S(=O)(=O)[O-])cc4F)c4nc(c(-c5c(F)cc(S(=O)(=O)[O-])cc5F)c5ccc2[nH]5)C=C4)C=C3)cc1
REMARK SMILES IDX 8 1 7 2 6 3 5 4 4 5 3 6 2 7 1 8 45 9 46 10 110 11 47 12
REMARK SMILES IDX 109 13 48 14 49 15 50 16 103 17 51 18 108 19 102 20 104 21
REMARK SMILES IDX 52 22 107 23 101 24 100 25 53 27 87 28 66 29 86 30 67 31
REMARK SMILES IDX 70 32 85 33 105 34 68 35 69 36 84 38 106 39 71 40 54 41
REMARK SMILES IDX 55 42 64 43 56 44 57 45 63 46 65 47 58 48 59 49 60 50 61 51
REMARK SMILES IDX 62 52 88 53 89 54 98 55 90 56 91 57 97 58 99 59 92 60 93 61
REMARK SMILES IDX 94 62 95 63 96 64 72 65 73 66 82 67 74 68 75 69 81 70 83 71
REMARK SMILES IDX 76 72 77 73 78 74 79 75 80 76 9 77 10 78 11 79 12 80 13 81
REMARK SMILES IDX 14 82 15 83 16 84 44 85 17 86 43 87 18 88 19 89 20 90 42 91
REMARK SMILES IDX 21 92 41 93 22 94 23 95 24 96 25 97 34 98 26 99 32 100
REMARK SMILES IDX 27 101 31 102 33 103 28 104 30 105 29 106 35 107 36 108
REMARK SMILES IDX 40 109 37 110 39 111 38 112
REMARK H PARENT 104 26 70 37
REMARK Flexibility Score: inf
ROOT
ATOM      1  C   UNL A   1      35.893  31.078  29.072  1.00  0.00     0.188 C 
ENDROOT
BRANCH   1   2
ATOM      2  C   UNL A   1      35.650  31.779  27.715  1.00  0.00     0.188 C 
BRANCH   2   3
ATOM      3  O   UNL A   1      35.390  33.163  27.828  1.00  0.00    -0.376 OA
BRANCH   3   4
ATOM      4  C   UNL A   1      34.126  33.593  28.291  1.00  0.00     0.202 C 
BRANCH   4   5
ATOM      5  C   UNL A   1      34.051  34.403  29.594  1.00  0.00     0.261 C 
BRANCH   5   6
ATOM      6  O   UNL A   1      35.115  34.198  30.533  1.00  0.00    -0.460 OA
BRANCH   6   7
ATOM      7  C   UNL A   1      35.118  33.505  31.689  1.00  0.00     0.338 C 
ATOM      8  O   UNL A   1      34.158  32.787  31.960  1.00  0.00    -0.246 OA
BRANCH   7   9
ATOM      9  C   UNL A   1      36.127  33.757  32.752  1.00  0.00     0.060 A 
ATOM     10  C   UNL A   1      37.074  34.785  32.745  1.00  0.00     0.016 A 
ATOM     11  C   UNL A   1      36.114  32.841  33.822  1.00  0.00     0.016 A 
ATOM     12  C   UNL A   1      38.081  34.813  33.691  1.00  0.00     0.010 A 
ATOM     13  C   UNL A   1      37.116  32.863  34.775  1.00  0.00     0.010 A 
ATOM     14  C   UNL A   1      38.152  33.782  34.618  1.00  0.00    -0.014 A 
BRANCH  14  15
ATOM     15  C   UNL A   1      39.455  33.540  35.217  1.00  0.00     0.031 A 
ATOM     16  C   UNL A   1      39.704  34.135  36.556  1.00  0.00     0.074 A 
ATOM     17  C   UNL A   1      40.314  32.754  34.532  1.00  0.00     0.049 A 
ATOM     18  N   UNL A   1      40.684  34.891  36.942  1.00  0.00    -0.248 NA
ATOM     19  C   UNL A   1      38.665  33.937  37.581  1.00  0.00     0.031 C 
ATOM     20  C   UNL A   1      40.039  31.985  33.306  1.00  0.00     0.029 A 
ATOM     21  N   UNL A   1      41.570  32.355  34.850  1.00  0.00    -0.354 N 
ATOM     22  C   UNL A   1      40.500  35.074  38.313  1.00  0.00     0.074 A 
ATOM     23  C   UNL A   1      39.174  34.601  38.617  1.00  0.00     0.031 C 
ATOM     24  C   UNL A   1      40.973  31.025  33.160  1.00  0.00     0.029 A 
ATOM     25  C   UNL A   1      41.971  31.199  34.195  1.00  0.00     0.049 A 
ATOM     26  H   UNL A   1      42.144  32.840  35.486  1.00  0.00     0.167 HD
ATOM     27  C   UNL A   1      41.527  35.375  39.154  1.00  0.00     0.037 A 
ATOM     28  C   UNL A   1      42.966  30.368  34.589  1.00  0.00     0.037 A 
ATOM     29  C   UNL A   1      42.640  35.969  38.468  1.00  0.00     0.049 A 
ATOM     30  C   UNL A   1      43.845  31.152  35.497  1.00  0.00     0.074 A 
ATOM     31  C   UNL A   1      42.818  37.125  37.735  1.00  0.00     0.029 A 
ATOM     32  N   UNL A   1      43.736  35.186  38.194  1.00  0.00    -0.354 N 
ATOM     33  N   UNL A   1      44.543  32.189  35.113  1.00  0.00    -0.248 NA
ATOM     34  C   UNL A   1      43.586  31.076  36.927  1.00  0.00     0.031 C 
ATOM     35  C   UNL A   1      43.736  36.774  36.703  1.00  0.00     0.029 A 
ATOM     36  C   UNL A   1      44.092  35.438  36.891  1.00  0.00     0.049 A 
ATOM     37  H   UNL A   1      44.180  34.563  38.812  1.00  0.00     0.167 HD
ATOM     38  C   UNL A   1      44.476  33.086  36.172  1.00  0.00     0.074 A 
ATOM     39  C   UNL A   1      43.940  32.313  37.289  1.00  0.00     0.031 C 
ATOM     40  C   UNL A   1      44.594  34.435  35.977  1.00  0.00     0.037 A 
BRANCH  27  41
ATOM     41  C   UNL A   1      41.631  34.804  40.547  1.00  0.00     0.058 A 
ATOM     42  C   UNL A   1      42.129  33.503  40.749  1.00  0.00     0.135 A 
ATOM     43  C   UNL A   1      40.996  35.398  41.663  1.00  0.00     0.135 A 
ATOM     44  F   UNL A   1      42.726  32.837  39.748  1.00  0.00    -0.206 F 
ATOM     45  C   UNL A   1      41.959  32.822  41.958  1.00  0.00     0.059 A 
ATOM     46  C   UNL A   1      40.868  34.762  42.891  1.00  0.00     0.059 A 
ATOM     47  F   UNL A   1      40.378  36.583  41.580  1.00  0.00    -0.206 F 
ATOM     48  C   UNL A   1      41.310  33.456  43.016  1.00  0.00     0.060 A 
BRANCH  48  49
ATOM     49  S   UNL A   1      40.958  32.538  44.525  1.00  0.00     0.124 S 
ATOM     50  O   UNL A   1      39.545  32.221  44.347  1.00  0.00    -0.237 OA
ATOM     51  O   UNL A   1      41.883  31.414  44.423  1.00  0.00    -0.237 OA
ATOM     52  O   UNL A   1      41.263  33.498  45.582  1.00  0.00    -0.744 OA
ENDBRANCH  48  49
ENDBRANCH  27  41
BRANCH  28  53
ATOM     53  C   UNL A   1      42.874  28.881  34.586  1.00  0.00     0.058 A 
ATOM     54  C   UNL A   1      43.735  28.093  33.807  1.00  0.00     0.135 A 
ATOM     55  C   UNL A   1      42.077  28.185  35.524  1.00  0.00     0.135 A 
ATOM     56  F   UNL A   1      44.557  28.672  32.920  1.00  0.00    -0.206 F 
ATOM     57  C   UNL A   1      43.811  26.702  33.958  1.00  0.00     0.059 A 
ATOM     58  C   UNL A   1      42.119  26.803  35.677  1.00  0.00     0.059 A 
ATOM     59  F   UNL A   1      41.285  28.839  36.388  1.00  0.00    -0.206 F 
ATOM     60  C   UNL A   1      43.004  26.066  34.903  1.00  0.00     0.060 A 
BRANCH  60  61
ATOM     61  S   UNL A   1      43.188  24.292  35.195  1.00  0.00     0.124 S 
ATOM     62  O   UNL A   1      43.785  24.266  36.526  1.00  0.00    -0.237 OA
ATOM     63  O   UNL A   1      41.809  23.822  35.104  1.00  0.00    -0.237 OA
ATOM     64  O   UNL A   1      44.065  23.857  34.110  1.00  0.00    -0.744 OA
ENDBRANCH  60  61
ENDBRANCH  28  53
BRANCH  40  65
ATOM     65  C   UNL A   1      45.009  34.924  34.610  1.00  0.00     0.058 A 
ATOM     66  C   UNL A   1      44.091  35.225  33.587  1.00  0.00     0.135 A 
ATOM     67  C   UNL A   1      46.345  35.285  34.390  1.00  0.00     0.135 A 
ATOM     68  F   UNL A   1      42.781  35.021  33.763  1.00  0.00    -0.206 F 
ATOM     69  C   UNL A   1      44.485  35.823  32.390  1.00  0.00     0.059 A 
ATOM     70  C   UNL A   1      46.758  35.912  33.214  1.00  0.00     0.059 A 
ATOM     71  F   UNL A   1      47.260  35.094  35.356  1.00  0.00    -0.206 F 
ATOM     72  C   UNL A   1      45.823  36.171  32.213  1.00  0.00     0.060 A 
BRANCH  72  73
ATOM     73  S   UNL A   1      46.305  37.052  30.712  1.00  0.00     0.124 S 
ATOM     74  O   UNL A   1      46.417  35.968  29.742  1.00  0.00    -0.237 OA
ATOM     75  O   UNL A   1      45.187  37.970  30.508  1.00  0.00    -0.237 OA
ATOM     76  O   UNL A   1      47.564  37.693  31.082  1.00  0.00    -0.744 OA
ENDBRANCH  72  73
ENDBRANCH  40  65
ENDBRANCH  14  15
ENDBRANCH   7   9
ENDBRANCH   6   7
ENDBRANCH   5   6
ENDBRANCH   4   5
ENDBRANCH   3   4
ENDBRANCH   2   3
ENDBRANCH   1   2
BRANCH   1  77
ATOM     77  O   UNL A   1      36.105  29.671  29.127  1.00  0.00    -0.376 OA
BRANCH  77  78
ATOM     78  C   UNL A   1      37.426  29.170  29.258  1.00  0.00     0.202 C 
BRANCH  78  79
ATOM     79  C   UNL A   1      38.588  30.176  29.306  1.00  0.00     0.261 C 
BRANCH  79  80
ATOM     80  O   UNL A   1      39.768  29.738  30.009  1.00  0.00    -0.460 OA
BRANCH  80  81
ATOM     81  C   UNL A   1      40.852  29.450  29.246  1.00  0.00     0.338 C 
ATOM     82  O   UNL A   1      41.866  30.110  29.122  1.00  0.00    -0.246 OA
BRANCH  81  83
ATOM     83  C   UNL A   1      40.684  28.127  28.604  1.00  0.00     0.060 A 
ATOM     84  C   UNL A   1      40.813  28.028  27.211  1.00  0.00     0.018 A 
ATOM     85  C   UNL A   1      40.295  27.014  29.358  1.00  0.00     0.018 A 
ATOM     86  C   UNL A   1      40.538  26.825  26.562  1.00  0.00     0.029 A 
ATOM     87  C   UNL A   1      40.034  25.798  28.712  1.00  0.00     0.029 A 
ATOM     88  C   UNL A   1      40.143  25.719  27.316  1.00  0.00     0.066 A 
BRANCH  88  89
ATOM     89  N   UNL A   1      39.665  24.576  26.643  1.00  0.00    -0.220 N 
ATOM     90  C   UNL A   1      38.370  24.430  26.188  1.00  0.00     0.141 A 
ATOM     91  N   UNL A   1      40.263  23.376  26.708  1.00  0.00    -0.062 NA
ATOM     92  C   UNL A   1      38.181  23.077  26.036  1.00  0.00     0.093 A 
ATOM     93  N   UNL A   1      39.404  22.471  26.258  1.00  0.00    -0.134 NA
BRANCH  92  94
ATOM     94  C   UNL A   1      36.993  22.182  26.021  1.00  0.00     0.138 C 
BRANCH  94  95
ATOM     95  S   UNL A   1      36.263  21.302  24.660  1.00  0.00    -0.081 SA
BRANCH  95  96
ATOM     96  C   UNL A   1      34.620  21.717  24.292  1.00  0.00     0.176 A 
ATOM     97  N   UNL A   1      34.517  22.966  23.944  1.00  0.00    -0.223 NA
ATOM     98  N   UNL A   1      33.518  20.876  24.329  1.00  0.00    -0.255 N 
ATOM     99  C   UNL A   1      33.247  23.508  23.737  1.00  0.00     0.079 A 
ATOM    100  C   UNL A   1      32.342  21.511  24.757  1.00  0.00     0.266 A 
ATOM    101  C   UNL A   1      33.083  24.736  23.100  1.00  0.00     0.029 A 
ATOM    102  C   UNL A   1      32.136  22.883  24.276  1.00  0.00     0.066 A 
ATOM    103  O   UNL A   1      31.497  21.038  25.516  1.00  0.00    -0.268 OA
ATOM    104  C   UNL A   1      31.824  25.348  23.064  1.00  0.00     0.002 A 
ATOM    105  C   UNL A   1      30.884  23.502  24.301  1.00  0.00     0.016 A 
ATOM    106  C   UNL A   1      30.733  24.747  23.696  1.00  0.00     0.001 A 
BRANCH  98 107
ATOM    107  C   UNL A   1      33.478  19.446  24.064  1.00  0.00     0.051 A 
ATOM    108  C   UNL A   1      34.444  18.593  24.639  1.00  0.00     0.027 A 
ATOM    109  C   UNL A   1      32.523  18.813  23.261  1.00  0.00     0.027 A 
ATOM    110  C   UNL A   1      34.582  17.253  24.266  1.00  0.00     0.002 A 
ATOM    111  C   UNL A   1      32.678  17.482  22.844  1.00  0.00     0.002 A 
ATOM    112  C   UNL A   1      33.728  16.711  23.322  1.00  0.00     0.000 A 
ENDBRANCH  98 107
ENDBRANCH  95  96
ENDBRANCH  94  95
ENDBRANCH  92  94
ENDBRANCH  88  89
ENDBRANCH  81  83
ENDBRANCH  80  81
ENDBRANCH  79  80
ENDBRANCH  78  79
ENDBRANCH  77  78
ENDBRANCH   1  77
TORSDOF 25
ENDMDL
MODEL 3
REMARK VINA RESULT:      -8.6      7.942     14.548
REMARK SMILES O=C(OCCOCCOCCOC(=O)c1ccc(-n2cc(CSc3nc4ccccc4c(=O)n3-c3ccccc3)nn2)cc1)c1ccc(-c2c3nc(c(-c4c(F)cc(S(=O)(=O)[O-])cc4F)c4ccc([nH]4)c(-c4c(F)cc(S(=O)(=O)[O-])cc4F)c4nc(c(-c5c(F)cc(S(=O)(=O)[O-])cc5F)c5ccc2[nH]5)C=C4)C=C3)cc1
REMARK SMILES IDX 8 1 7 2 6 3 5 4 4 5 3 6 2 7 1 8 45 9 46 10 110 11 47 12
REMARK SMILES IDX 109 13 48 14 49 15 50 16 103 17 51 18 108 19 102 20 104 21
REMARK SMILES IDX 52 22 107 23 101 24 100 25 53 27 87 28 66 29 86 30 67 31
REMARK SMILES IDX 70 32 85 33 105 34 68 35 69 36 84 38 106 39 71 40 54 41
REMARK SMILES IDX 55 42 64 43 56 44 57 45 63 46 65 47 58 48 59 49 60 50 61 51
REMARK SMILES IDX 62 52 88 53 89 54 98 55 90 56 91 57 97 58 99 59 92 60 93 61
REMARK SMILES IDX 94 62 95 63 96 64 72 65 73 66 82 67 74 68 75 69 81 70 83 71
REMARK SMILES IDX 76 72 77 73 78 74 79 75 80 76 9 77 10 78 11 79 12 80 13 81
REMARK SMILES IDX 14 82 15 83 16 84 44 85 17 86 43 87 18 88 19 89 20 90 42 91
REMARK SMILES IDX 21 92 41 93 22 94 23 95 24 96 25 97 34 98 26 99 32 100
REMARK SMILES IDX 27 101 31 102 33 103 28 104 30 105 29 106 35 107 36 108
REMARK SMILES IDX 40 109 37 110 39 111 38 112
REMARK H PARENT 104 26 70 37
REMARK Flexibility Score: inf
ROOT
ATOM      1  C   UNL A   1      45.768  36.716  28.874  1.00  0.00     0.188 C 
ENDROOT
BRANCH   1   2
ATOM      2  C   UNL A   1      46.286  38.172  28.939  1.00  0.00     0.188 C 
BRANCH   2   3
ATOM      3  O   UNL A   1      45.747  38.921  30.009  1.00  0.00    -0.376 OA
BRANCH   3   4
ATOM      4  C   UNL A   1      45.200  40.198  29.750  1.00  0.00     0.202 C 
BRANCH   4   5
ATOM      5  C   UNL A   1      44.556  40.977  30.908  1.00  0.00     0.261 C 
BRANCH   5   6
ATOM      6  O   UNL A   1      44.517  40.312  32.177  1.00  0.00    -0.460 OA
BRANCH   6   7
ATOM      7  C   UNL A   1      43.480  39.722  32.804  1.00  0.00     0.338 C 
ATOM      8  O   UNL A   1      42.669  40.420  33.409  1.00  0.00    -0.246 OA
BRANCH   7   9
ATOM      9  C   UNL A   1      43.410  38.248  32.988  1.00  0.00     0.060 A 
ATOM     10  C   UNL A   1      43.431  37.300  31.961  1.00  0.00     0.016 A 
ATOM     11  C   UNL A   1      43.282  37.814  34.322  1.00  0.00     0.016 A 
ATOM     12  C   UNL A   1      43.173  35.970  32.233  1.00  0.00     0.010 A 
ATOM     13  C   UNL A   1      43.027  36.484  34.604  1.00  0.00     0.010 A 
ATOM     14  C   UNL A   1      42.858  35.605  33.535  1.00  0.00    -0.014 A 
BRANCH  14  15
ATOM     15  C   UNL A   1      42.093  34.379  33.696  1.00  0.00     0.031 A 
ATOM     16  C   UNL A   1      42.698  33.131  33.163  1.00  0.00     0.074 A 
ATOM     17  C   UNL A   1      40.920  34.465  34.361  1.00  0.00     0.049 A 
ATOM     18  N   UNL A   1      42.187  32.263  32.347  1.00  0.00    -0.248 NA
ATOM     19  C   UNL A   1      44.103  32.865  33.512  1.00  0.00     0.031 C 
ATOM     20  C   UNL A   1      40.381  35.635  35.077  1.00  0.00     0.029 A 
ATOM     21  N   UNL A   1      40.021  33.498  34.666  1.00  0.00    -0.354 N 
ATOM     22  C   UNL A   1      43.122  31.230  32.263  1.00  0.00     0.074 A 
ATOM     23  C   UNL A   1      44.333  31.721  32.869  1.00  0.00     0.031 C 
ATOM     24  C   UNL A   1      39.428  35.231  35.940  1.00  0.00     0.029 A 
ATOM     25  C   UNL A   1      39.202  33.815  35.741  1.00  0.00     0.049 A 
ATOM     26  H   UNL A   1      39.954  32.649  34.170  1.00  0.00     0.167 HD
ATOM     27  C   UNL A   1      42.777  29.958  31.923  1.00  0.00     0.037 A 
ATOM     28  C   UNL A   1      38.514  32.931  36.502  1.00  0.00     0.037 A 
ATOM     29  C   UNL A   1      41.541  29.902  31.193  1.00  0.00     0.049 A 
ATOM     30  C   UNL A   1      38.380  31.686  35.699  1.00  0.00     0.074 A 
ATOM     31  C   UNL A   1      41.110  30.410  29.984  1.00  0.00     0.029 A 
ATOM     32  N   UNL A   1      40.403  29.515  31.858  1.00  0.00    -0.354 N 
ATOM     33  N   UNL A   1      37.702  31.613  34.583  1.00  0.00    -0.248 NA
ATOM     34  C   UNL A   1      39.382  30.647  35.882  1.00  0.00     0.031 C 
ATOM     35  C   UNL A   1      39.741  30.750  30.190  1.00  0.00     0.029 A 
ATOM     36  C   UNL A   1      39.411  30.395  31.498  1.00  0.00     0.049 A 
ATOM     37  H   UNL A   1      40.315  28.754  32.476  1.00  0.00     0.167 HD
ATOM     38  C   UNL A   1      38.443  30.774  33.760  1.00  0.00     0.074 A 
ATOM     39  C   UNL A   1      39.424  30.150  34.643  1.00  0.00     0.031 C 
ATOM     40  C   UNL A   1      38.381  30.870  32.397  1.00  0.00     0.037 A 
BRANCH  27  41
ATOM     41  C   UNL A   1      43.407  28.746  32.565  1.00  0.00     0.058 A 
ATOM     42  C   UNL A   1      44.150  27.835  31.792  1.00  0.00     0.135 A 
ATOM     43  C   UNL A   1      43.065  28.310  33.867  1.00  0.00     0.135 A 
ATOM     44  F   UNL A   1      44.505  28.138  30.533  1.00  0.00    -0.206 F 
ATOM     45  C   UNL A   1      44.484  26.561  32.261  1.00  0.00     0.059 A 
ATOM     46  C   UNL A   1      43.436  27.071  34.374  1.00  0.00     0.059 A 
ATOM     47  F   UNL A   1      42.265  29.026  34.668  1.00  0.00    -0.206 F 
ATOM     48  C   UNL A   1      44.104  26.184  33.548  1.00  0.00     0.060 A 
BRANCH  48  49
ATOM     49  S   UNL A   1      44.401  24.498  34.108  1.00  0.00     0.124 S 
ATOM     50  O   UNL A   1      43.737  24.505  35.407  1.00  0.00    -0.237 OA
ATOM     51  O   UNL A   1      43.754  23.710  33.064  1.00  0.00    -0.237 OA
ATOM     52  O   UNL A   1      45.857  24.406  34.142  1.00  0.00    -0.744 OA
ENDBRANCH  48  49
ENDBRANCH  27  41
BRANCH  28  53
ATOM     53  C   UNL A   1      38.429  32.984  37.988  1.00  0.00     0.058 A 
ATOM     54  C   UNL A   1      39.574  33.129  38.785  1.00  0.00     0.135 A 
ATOM     55  C   UNL A   1      37.188  33.114  38.656  1.00  0.00     0.135 A 
ATOM     56  F   UNL A   1      40.792  33.061  38.229  1.00  0.00    -0.206 F 
ATOM     57  C   UNL A   1      39.495  33.400  40.159  1.00  0.00     0.059 A 
ATOM     58  C   UNL A   1      37.086  33.361  40.022  1.00  0.00     0.059 A 
ATOM     59  F   UNL A   1      36.027  33.087  37.984  1.00  0.00    -0.206 F 
ATOM     60  C   UNL A   1      38.245  33.523  40.766  1.00  0.00     0.060 A 
BRANCH  60  61
ATOM     61  S   UNL A   1      38.134  34.000  42.506  1.00  0.00     0.124 S 
ATOM     62  O   UNL A   1      39.528  33.928  42.928  1.00  0.00    -0.237 OA
ATOM     63  O   UNL A   1      37.561  35.340  42.420  1.00  0.00    -0.237 OA
ATOM     64  O   UNL A   1      37.255  32.985  43.083  1.00  0.00    -0.744 OA
ENDBRANCH  60  61
ENDBRANCH  28  53
BRANCH  40  65
ATOM     65  C   UNL A   1      37.329  31.769  31.793  1.00  0.00     0.058 A 
ATOM     66  C   UNL A   1      37.554  33.125  31.491  1.00  0.00     0.135 A 
ATOM     67  C   UNL A   1      36.135  31.205  31.324  1.00  0.00     0.135 A 
ATOM     68  F   UNL A   1      38.718  33.709  31.798  1.00  0.00    -0.206 F 
ATOM     69  C   UNL A   1      36.625  33.894  30.791  1.00  0.00     0.059 A 
ATOM     70  C   UNL A   1      35.203  31.945  30.595  1.00  0.00     0.059 A 
ATOM     71  F   UNL A   1      35.890  29.898  31.512  1.00  0.00    -0.206 F 
ATOM     72  C   UNL A   1      35.451  33.293  30.339  1.00  0.00     0.060 A 
BRANCH  72  73
ATOM     73  S   UNL A   1      34.307  34.261  29.331  1.00  0.00     0.124 S 
ATOM     74  O   UNL A   1      33.780  33.256  28.414  1.00  0.00    -0.237 OA
ATOM     75  O   UNL A   1      33.363  34.772  30.321  1.00  0.00    -0.237 OA
ATOM     76  O   UNL A   1      35.164  35.276  28.721  1.00  0.00    -0.744 OA
ENDBRANCH  72  73
ENDBRANCH  40  65
ENDBRANCH  14  15
ENDBRANCH   7   9
ENDBRANCH   6   7
ENDBRANCH   5   6
ENDBRANCH   4   5
ENDBRANCH   3   4
ENDBRANCH   2   3
ENDBRANCH   1   2
BRANCH   1  77
ATOM     77  O   UNL A   1      44.393  36.452  28.616  1.00  0.00    -0.376 OA
BRANCH  77  78
ATOM     78  C   UNL A   1      43.854  36.753  27.339  1.00  0.00     0.202 C 
BRANCH  78  79
ATOM     79  C   UNL A   1      43.829  38.222  26.883  1.00  0.00     0.261 C 
BRANCH  79  80
ATOM     80  O   UNL A   1      42.539  38.739  26.503  1.00  0.00    -0.460 OA
BRANCH  80  81
ATOM     81  C   UNL A   1      42.205  39.955  27.005  1.00  0.00     0.338 C 
ATOM     82  O   UNL A   1      41.802  40.208  28.124  1.00  0.00    -0.246 OA
BRANCH  81  83
ATOM     83  C   UNL A   1      42.476  41.009  26.002  1.00  0.00     0.060 A 
ATOM     84  C   UNL A   1      41.574  41.184  24.942  1.00  0.00     0.018 A 
ATOM     85  C   UNL A   1      43.664  41.747  26.047  1.00  0.00     0.018 A 
ATOM     86  C   UNL A   1      41.862  42.080  23.914  1.00  0.00     0.029 A 
ATOM     87  C   UNL A   1      43.950  42.662  25.025  1.00  0.00     0.029 A 
ATOM     88  C   UNL A   1      43.052  42.809  23.957  1.00  0.00     0.066 A 
BRANCH  88  89
ATOM     89  N   UNL A   1      43.436  43.549  22.821  1.00  0.00    -0.220 N 
ATOM     90  C   UNL A   1      43.526  43.023  21.548  1.00  0.00     0.141 A 
ATOM     91  N   UNL A   1      44.118  44.704  22.886  1.00  0.00    -0.062 NA
ATOM     92  C   UNL A   1      44.347  43.877  20.851  1.00  0.00     0.093 A 
ATOM     93  N   UNL A   1      44.599  44.958  21.677  1.00  0.00    -0.134 NA
BRANCH  92  94
ATOM     94  C   UNL A   1      45.216  43.746  19.650  1.00  0.00     0.138 C 
BRANCH  94  95
ATOM     95  S   UNL A   1      46.275  44.954  18.888  1.00  0.00    -0.081 SA
BRANCH  95  96
ATOM     96  C   UNL A   1      47.947  44.876  19.339  1.00  0.00     0.176 A 
ATOM     97  N   UNL A   1      48.629  45.836  18.787  1.00  0.00    -0.223 NA
ATOM     98  N   UNL A   1      48.542  43.950  20.184  1.00  0.00    -0.255 N 
ATOM     99  C   UNL A   1      50.017  45.852  18.936  1.00  0.00     0.079 A 
ATOM    100  C   UNL A   1      49.847  43.601  19.804  1.00  0.00     0.266 A 
ATOM    101  C   UNL A   1      50.763  46.984  18.615  1.00  0.00     0.029 A 
ATOM    102  C   UNL A   1      50.685  44.692  19.292  1.00  0.00     0.066 A 
ATOM    103  O   UNL A   1      50.333  42.471  19.830  1.00  0.00    -0.268 OA
ATOM    104  C   UNL A   1      52.162  46.923  18.597  1.00  0.00     0.002 A 
ATOM    105  C   UNL A   1      52.076  44.595  19.224  1.00  0.00     0.016 A 
ATOM    106  C   UNL A   1      52.816  45.719  18.866  1.00  0.00     0.001 A 
BRANCH  98 107
ATOM    107  C   UNL A   1      47.945  43.270  21.324  1.00  0.00     0.051 A 
ATOM    108  C   UNL A   1      47.782  43.952  22.549  1.00  0.00     0.027 A 
ATOM    109  C   UNL A   1      47.492  41.946  21.311  1.00  0.00     0.027 A 
ATOM    110  C   UNL A   1      47.408  43.301  23.728  1.00  0.00     0.002 A 
ATOM    111  C   UNL A   1      47.157  41.272  22.495  1.00  0.00     0.002 A 
ATOM    112  C   UNL A   1      47.147  41.943  23.710  1.00  0.00     0.000 A 
ENDBRANCH  98 107
ENDBRANCH  95  96
ENDBRANCH  94  95
ENDBRANCH  92  94
ENDBRANCH  88  89
ENDBRANCH  81  83
ENDBRANCH  80  81
ENDBRANCH  79  80
ENDBRANCH  78  79
ENDBRANCH  77  78
ENDBRANCH   1  77
TORSDOF 25
ENDMDL
