MODEL 1
REMARK VINA RESULT:     -10.8      0.000      0.000
REMARK SMILES O=C(OCCOCCOCCOC(=O)[C@@]1(CCc2ccccc2)CCC[N@@H+](Cc2cccnc2)C1)c1ccc(-c2c3nc(c(-c4c(F)cc(S(=O)(=O)[O-])cc4F)c4ccc([nH]4)c(-c4c(F)cc(S(=O)(=O)[O-])cc4F)c4nc(c(-c5c(F)cc(S(=O)(=O)[O-])cc5F)c5ccc2[nH]5)C=C4)C=C3)cc1
REMARK SMILES IDX 7 1 6 2 5 3 4 4 3 5 2 6 1 7 36 8 37 9 101 10 38 11 100 12
REMARK SMILES IDX 39 13 40 14 41 15 94 16 42 17 99 18 93 19 95 20 43 21 98 22
REMARK SMILES IDX 92 23 91 24 44 26 78 27 57 28 77 29 58 30 61 31 76 32 96 33
REMARK SMILES IDX 59 34 60 35 75 37 97 38 62 39 45 40 46 41 55 42 47 43 48 44
REMARK SMILES IDX 54 45 56 46 49 47 50 48 51 49 52 50 53 51 79 52 80 53 89 54
REMARK SMILES IDX 81 55 82 56 88 57 90 58 83 59 84 60 85 61 86 62 87 63 63 64
REMARK SMILES IDX 64 65 73 66 65 67 66 68 72 69 74 70 67 71 68 72 69 73 70 74
REMARK SMILES IDX 71 75 8 76 9 77 10 78 11 79 12 80 13 81 14 82 15 83 24 84
REMARK SMILES IDX 35 85 25 86 27 87 26 88 16 90 17 91 18 92 19 93 23 94 20 95
REMARK SMILES IDX 22 96 21 97 28 98 29 99 30 100 34 101 31 102 33 103 32 104
REMARK H PARENT 95 25 61 36 27 89
REMARK Flexibility Score: inf
ROOT
ATOM      1  C   UNL A   1      42.043  21.196  27.346  1.00  0.00     0.188 C 
ENDROOT
BRANCH   1   2
ATOM      2  O   UNL A   1      42.697  21.253  26.079  1.00  0.00    -0.376 OA
BRANCH   2   3
ATOM      3  C   UNL A   1      42.614  22.543  25.469  1.00  0.00     0.202 C 
BRANCH   3   4
ATOM      4  C   UNL A   1      43.831  23.021  24.632  1.00  0.00     0.261 C 
BRANCH   4   5
ATOM      5  O   UNL A   1      44.174  24.440  24.723  1.00  0.00    -0.460 OA
BRANCH   5   6
ATOM      6  C   UNL A   1      44.705  25.064  25.835  1.00  0.00     0.338 C 
ATOM      7  O   UNL A   1      45.813  24.783  26.267  1.00  0.00    -0.246 OA
BRANCH   6   8
ATOM      8  C   UNL A   1      43.835  26.021  26.548  1.00  0.00     0.060 A 
ATOM      9  C   UNL A   1      44.461  27.113  26.999  1.00  0.00     0.016 A 
ATOM     10  C   UNL A   1      42.473  26.053  26.738  1.00  0.00     0.016 A 
ATOM     11  C   UNL A   1      44.074  27.505  28.255  1.00  0.00     0.010 A 
ATOM     12  C   UNL A   1      41.918  26.928  27.761  1.00  0.00     0.010 A 
ATOM     13  C   UNL A   1      42.686  27.702  28.867  1.00  0.00    -0.014 A 
BRANCH  13  14
ATOM     14  C   UNL A   1      42.107  28.607  30.713  1.00  0.00     0.031 A 
ATOM     15  C   UNL A   1      40.779  29.728  31.057  1.00  0.00     0.074 A 
ATOM     16  C   UNL A   1      42.430  28.540  32.169  1.00  0.00     0.049 A 
ATOM     17  N   UNL A   1      40.742  30.965  31.526  1.00  0.00    -0.248 NA
ATOM     18  C   UNL A   1      39.381  29.235  30.829  1.00  0.00     0.031 C 
ATOM     19  C   UNL A   1      43.060  27.443  32.962  1.00  0.00     0.029 A 
ATOM     20  N   UNL A   1      42.492  29.552  33.168  1.00  0.00    -0.354 N 
ATOM     21  C   UNL A   1      39.440  31.412  31.238  1.00  0.00     0.074 A 
ATOM     22  C   UNL A   1      38.826  30.376  30.450  1.00  0.00     0.031 C 
ATOM     23  C   UNL A   1      43.700  27.888  34.029  1.00  0.00     0.029 A 
ATOM     24  C   UNL A   1      43.383  29.263  34.214  1.00  0.00     0.049 A 
ATOM     25  H   UNL A   1      41.959  30.379  33.129  1.00  0.00     0.167 HD
ATOM     26  C   UNL A   1      38.636  32.382  31.756  1.00  0.00     0.037 A 
ATOM     27  C   UNL A   1      43.866  29.819  35.349  1.00  0.00     0.037 A 
ATOM     28  C   UNL A   1      38.839  32.991  33.041  1.00  0.00     0.049 A 
ATOM     29  C   UNL A   1      43.014  30.858  35.958  1.00  0.00     0.074 A 
ATOM     30  C   UNL A   1      38.051  33.939  33.675  1.00  0.00     0.029 A 
ATOM     31  N   UNL A   1      39.776  32.565  33.967  1.00  0.00    -0.354 N 
ATOM     32  N   UNL A   1      41.975  31.435  35.422  1.00  0.00    -0.248 NA
ATOM     33  C   UNL A   1      43.262  31.195  37.364  1.00  0.00     0.031 C 
ATOM     34  C   UNL A   1      38.511  34.088  34.987  1.00  0.00     0.029 A 
ATOM     35  C   UNL A   1      39.580  33.230  35.168  1.00  0.00     0.049 A 
ATOM     36  H   UNL A   1      40.475  31.893  33.798  1.00  0.00     0.167 HD
ATOM     37  C   UNL A   1      41.419  32.182  36.433  1.00  0.00     0.074 A 
ATOM     38  C   UNL A   1      42.201  31.941  37.629  1.00  0.00     0.031 C 
ATOM     39  C   UNL A   1      40.359  33.014  36.352  1.00  0.00     0.037 A 
BRANCH  26  40
ATOM     40  C   UNL A   1      37.388  32.774  30.975  1.00  0.00     0.058 A 
ATOM     41  C   UNL A   1      36.090  32.312  31.259  1.00  0.00     0.135 A 
ATOM     42  C   UNL A   1      37.528  33.645  29.879  1.00  0.00     0.135 A 
ATOM     43  F   UNL A   1      35.869  31.498  32.304  1.00  0.00    -0.206 F 
ATOM     44  C   UNL A   1      35.008  32.602  30.428  1.00  0.00     0.059 A 
ATOM     45  C   UNL A   1      36.448  33.998  29.071  1.00  0.00     0.059 A 
ATOM     46  F   UNL A   1      38.728  34.170  29.584  1.00  0.00    -0.206 F 
ATOM     47  C   UNL A   1      35.198  33.440  29.331  1.00  0.00     0.060 A 
BRANCH  47  48
ATOM     48  S   UNL A   1      33.791  33.803  28.257  1.00  0.00     0.124 S 
ATOM     49  O   UNL A   1      34.382  34.739  27.306  1.00  0.00    -0.237 OA
ATOM     50  O   UNL A   1      33.456  32.487  27.723  1.00  0.00    -0.237 OA
ATOM     51  O   UNL A   1      32.806  34.374  29.171  1.00  0.00    -0.744 OA
ENDBRANCH  47  48
ENDBRANCH  26  40
BRANCH  27  52
ATOM     52  C   UNL A   1      45.001  29.168  36.115  1.00  0.00     0.058 A 
ATOM     53  C   UNL A   1      46.336  29.607  36.026  1.00  0.00     0.135 A 
ATOM     54  C   UNL A   1      44.735  28.155  37.056  1.00  0.00     0.135 A 
ATOM     55  F   UNL A   1      46.652  30.620  35.207  1.00  0.00    -0.206 F 
ATOM     56  C   UNL A   1      47.362  29.037  36.786  1.00  0.00     0.059 A 
ATOM     57  C   UNL A   1      45.741  27.580  37.840  1.00  0.00     0.059 A 
ATOM     58  F   UNL A   1      43.474  27.736  37.249  1.00  0.00    -0.206 F 
ATOM     59  C   UNL A   1      47.057  28.014  37.684  1.00  0.00     0.060 A 
BRANCH  59  60
ATOM     60  S   UNL A   1      48.396  27.274  38.656  1.00  0.00     0.124 S 
ATOM     61  O   UNL A   1      48.916  26.277  37.726  1.00  0.00    -0.237 OA
ATOM     62  O   UNL A   1      49.267  28.416  38.914  1.00  0.00    -0.237 OA
ATOM     63  O   UNL A   1      47.706  26.739  39.827  1.00  0.00    -0.744 OA
ENDBRANCH  59  60
ENDBRANCH  27  52
BRANCH  39  64
ATOM     64  C   UNL A   1      40.065  33.794  37.582  1.00  0.00     0.058 A 
ATOM     65  C   UNL A   1      39.100  33.322  38.486  1.00  0.00     0.135 A 
ATOM     66  C   UNL A   1      40.697  35.014  37.846  1.00  0.00     0.135 A 
ATOM     67  F   UNL A   1      38.458  32.167  38.250  1.00  0.00    -0.206 F 
ATOM     68  C   UNL A   1      38.741  34.060  39.599  1.00  0.00     0.059 A 
ATOM     69  C   UNL A   1      40.374  35.755  38.975  1.00  0.00     0.059 A 
ATOM     70  F   UNL A   1      41.620  35.500  37.000  1.00  0.00    -0.206 F 
ATOM     71  C   UNL A   1      39.382  35.276  39.834  1.00  0.00     0.060 A 
BRANCH  71  72
ATOM     72  S   UNL A   1      38.907  36.214  41.294  1.00  0.00     0.124 S 
ATOM     73  O   UNL A   1      38.619  37.523  40.718  1.00  0.00    -0.237 OA
ATOM     74  O   UNL A   1      37.751  35.466  41.780  1.00  0.00    -0.237 OA
ATOM     75  O   UNL A   1      40.094  36.144  42.141  1.00  0.00    -0.744 OA
ENDBRANCH  71  72
ENDBRANCH  39  64
ENDBRANCH  13  14
ENDBRANCH   6   8
ENDBRANCH   5   6
ENDBRANCH   4   5
ENDBRANCH   3   4
ENDBRANCH   2   3
ENDBRANCH   1   2
BRANCH   1  76
ATOM     76  C   UNL A   1      41.419  22.514  27.805  1.00  0.00     0.188 C 
BRANCH  76  77
ATOM     77  O   UNL A   1      40.024  22.679  27.601  1.00  0.00    -0.376 OA
BRANCH  77  78
ATOM     78  C   UNL A   1      39.562  23.968  27.202  1.00  0.00     0.202 C 
BRANCH  78  79
ATOM     79  C   UNL A   1      38.391  24.067  26.208  1.00  0.00     0.261 C 
BRANCH  79  80
ATOM     80  O   UNL A   1      37.282  23.180  26.453  1.00  0.00    -0.463 OA
BRANCH  80  81
ATOM     81  C   UNL A   1      36.821  22.518  25.355  1.00  0.00     0.317 C 
ATOM     82  O   UNL A   1      37.461  21.641  24.779  1.00  0.00    -0.251 OA
BRANCH  81  83
ATOM     83  C   UNL A   1      35.390  22.891  24.939  1.00  0.00     0.117 C 
ATOM     84  C   UNL A   1      35.482  23.615  23.561  1.00  0.00     0.030 C 
ATOM     85  C   UNL A   1      34.493  21.668  24.690  1.00  0.00     0.281 C 
ATOM     86  C   UNL A   1      34.105  23.938  22.958  1.00  0.00     0.063 C 
ATOM     87  N   UNL A   1      33.155  22.082  24.273  1.00  0.00    -0.330 N 
ATOM     88  C   UNL A   1      33.137  22.749  22.978  1.00  0.00     0.262 C 
ATOM     89  H   UNL A   1      32.886  22.800  24.946  1.00  0.00     0.348 HD
BRANCH  83  90
ATOM     90  C   UNL A   1      34.870  23.884  26.038  1.00  0.00     0.029 C 
BRANCH  90  91
ATOM     91  C   UNL A   1      33.421  23.778  26.539  1.00  0.00     0.037 C 
BRANCH  91  92
ATOM     92  C   UNL A   1      32.463  24.893  26.207  1.00  0.00    -0.048 A 
ATOM     93  C   UNL A   1      31.091  24.621  26.214  1.00  0.00     0.004 A 
ATOM     94  C   UNL A   1      32.875  26.167  25.816  1.00  0.00     0.004 A 
ATOM     95  C   UNL A   1      30.146  25.598  25.906  1.00  0.00     0.000 A 
ATOM     96  C   UNL A   1      31.928  27.138  25.463  1.00  0.00     0.000 A 
ATOM     97  C   UNL A   1      30.564  26.860  25.522  1.00  0.00     0.000 A 
ENDBRANCH  91  92
ENDBRANCH  90  91
ENDBRANCH  83  90
BRANCH  87  98
ATOM     98  C   UNL A   1      32.119  21.066  24.443  1.00  0.00     0.300 C 
BRANCH  98  99
ATOM     99  C   UNL A   1      32.514  19.613  24.371  1.00  0.00     0.025 A 
ATOM    100  C   UNL A   1      32.839  18.530  25.826  1.00  0.00     0.013 A 
ATOM    101  C   UNL A   1      32.524  18.863  22.742  1.00  0.00     0.120 A 
ATOM    102  C   UNL A   1      33.316  16.769  25.583  1.00  0.00     0.021 A 
ATOM    103  N   UNL A   1      32.999  17.161  22.495  1.00  0.00    -0.264 NA
ATOM    104  C   UNL A   1      33.518  16.175  23.891  1.00  0.00     0.111 A 
ENDBRANCH  98  99
ENDBRANCH  87  98
ENDBRANCH  81  83
ENDBRANCH  80  81
ENDBRANCH  79  80
ENDBRANCH  78  79
ENDBRANCH  77  78
ENDBRANCH  76  77
ENDBRANCH   1  76
TORSDOF 25
ENDMDL
MODEL 2
REMARK VINA RESULT:      -9.2      2.907      5.152
REMARK SMILES O=C(OCCOCCOCCOC(=O)[C@@]1(CCc2ccccc2)CCC[N@@H+](Cc2cccnc2)C1)c1ccc(-c2c3nc(c(-c4c(F)cc(S(=O)(=O)[O-])cc4F)c4ccc([nH]4)c(-c4c(F)cc(S(=O)(=O)[O-])cc4F)c4nc(c(-c5c(F)cc(S(=O)(=O)[O-])cc5F)c5ccc2[nH]5)C=C4)C=C3)cc1
REMARK SMILES IDX 7 1 6 2 5 3 4 4 3 5 2 6 1 7 36 8 37 9 101 10 38 11 100 12
REMARK SMILES IDX 39 13 40 14 41 15 94 16 42 17 99 18 93 19 95 20 43 21 98 22
REMARK SMILES IDX 92 23 91 24 44 26 78 27 57 28 77 29 58 30 61 31 76 32 96 33
REMARK SMILES IDX 59 34 60 35 75 37 97 38 62 39 45 40 46 41 55 42 47 43 48 44
REMARK SMILES IDX 54 45 56 46 49 47 50 48 51 49 52 50 53 51 79 52 80 53 89 54
REMARK SMILES IDX 81 55 82 56 88 57 90 58 83 59 84 60 85 61 86 62 87 63 63 64
REMARK SMILES IDX 64 65 73 66 65 67 66 68 72 69 74 70 67 71 68 72 69 73 70 74
REMARK SMILES IDX 71 75 8 76 9 77 10 78 11 79 12 80 13 81 14 82 15 83 24 84
REMARK SMILES IDX 35 85 25 86 27 87 26 88 16 90 17 91 18 92 19 93 23 94 20 95
REMARK SMILES IDX 22 96 21 97 28 98 29 99 30 100 34 101 31 102 33 103 32 104
REMARK H PARENT 95 25 61 36 27 89
REMARK Flexibility Score: inf
ROOT
ATOM      1  C   UNL A   1      42.603  22.579  27.309  1.00  0.00     0.188 C 
ENDROOT
BRANCH   1   2
ATOM      2  O   UNL A   1      42.945  23.961  27.214  1.00  0.00    -0.376 OA
BRANCH   2   3
ATOM      3  C   UNL A   1      44.350  24.195  27.336  1.00  0.00     0.202 C 
BRANCH   3   4
ATOM      4  C   UNL A   1      44.966  24.136  28.760  1.00  0.00     0.261 C 
BRANCH   4   5
ATOM      5  O   UNL A   1      44.028  24.024  29.877  1.00  0.00    -0.460 OA
BRANCH   5   6
ATOM      6  C   UNL A   1      44.342  24.226  31.207  1.00  0.00     0.338 C 
ATOM      7  O   UNL A   1      44.476  23.295  31.988  1.00  0.00    -0.246 OA
BRANCH   6   8
ATOM      8  C   UNL A   1      44.412  25.624  31.677  1.00  0.00     0.060 A 
ATOM      9  C   UNL A   1      45.140  25.803  32.784  1.00  0.00     0.016 A 
ATOM     10  C   UNL A   1      43.961  26.799  31.123  1.00  0.00     0.016 A 
ATOM     11  C   UNL A   1      44.588  26.678  33.685  1.00  0.00     0.010 A 
ATOM     12  C   UNL A   1      43.868  27.990  31.957  1.00  0.00     0.010 A 
ATOM     13  C   UNL A   1      44.004  28.080  33.502  1.00  0.00    -0.014 A 
BRANCH  13  14
ATOM     14  C   UNL A   1      43.439  29.541  34.953  1.00  0.00     0.031 A 
ATOM     15  C   UNL A   1      42.107  30.708  34.925  1.00  0.00     0.074 A 
ATOM     16  C   UNL A   1      43.780  29.959  36.345  1.00  0.00     0.049 A 
ATOM     17  N   UNL A   1      42.066  32.030  34.960  1.00  0.00    -0.248 NA
ATOM     18  C   UNL A   1      40.710  30.163  34.892  1.00  0.00     0.031 C 
ATOM     19  C   UNL A   1      44.427  29.187  37.447  1.00  0.00     0.029 A 
ATOM     20  N   UNL A   1      43.845  31.244  36.954  1.00  0.00    -0.354 N 
ATOM     21  C   UNL A   1      40.758  32.354  34.559  1.00  0.00     0.074 A 
ATOM     22  C   UNL A   1      40.142  31.113  34.165  1.00  0.00     0.031 C 
ATOM     23  C   UNL A   1      45.076  29.962  38.299  1.00  0.00     0.029 A 
ATOM     24  C   UNL A   1      44.751  31.319  38.024  1.00  0.00     0.049 A 
ATOM     25  H   UNL A   1      43.305  32.010  36.651  1.00  0.00     0.167 HD
ATOM     26  C   UNL A   1      39.952  33.436  34.738  1.00  0.00     0.037 A 
ATOM     27  C   UNL A   1      45.242  32.221  38.906  1.00  0.00     0.037 A 
ATOM     28  C   UNL A   1      40.165  34.436  35.748  1.00  0.00     0.049 A 
ATOM     29  C   UNL A   1      44.390  33.399  39.149  1.00  0.00     0.074 A 
ATOM     30  C   UNL A   1      39.378  35.538  36.044  1.00  0.00     0.029 A 
ATOM     31  N   UNL A   1      41.116  34.343  36.750  1.00  0.00    -0.354 N 
ATOM     32  N   UNL A   1      43.340  33.764  38.467  1.00  0.00    -0.248 NA
ATOM     33  C   UNL A   1      44.651  34.182  40.362  1.00  0.00     0.031 C 
ATOM     34  C   UNL A   1      39.851  36.113  37.227  1.00  0.00     0.029 A 
ATOM     35  C   UNL A   1      40.928  35.366  37.667  1.00  0.00     0.049 A 
ATOM     36  H   UNL A   1      41.818  33.655  36.803  1.00  0.00     0.167 HD
ATOM     37  C   UNL A   1      42.789  34.801  39.182  1.00  0.00     0.074 A 
ATOM     38  C   UNL A   1      43.587  34.970  40.381  1.00  0.00     0.031 C 
ATOM     39  C   UNL A   1      41.723  35.555  38.845  1.00  0.00     0.037 A 
BRANCH  26  40
ATOM     40  C   UNL A   1      38.693  33.545  33.888  1.00  0.00     0.058 A 
ATOM     41  C   UNL A   1      37.425  33.070  34.273  1.00  0.00     0.135 A 
ATOM     42  C   UNL A   1      38.788  34.144  32.620  1.00  0.00     0.135 A 
ATOM     43  F   UNL A   1      37.245  32.507  35.480  1.00  0.00    -0.206 F 
ATOM     44  C   UNL A   1      36.339  33.079  33.399  1.00  0.00     0.059 A 
ATOM     45  C   UNL A   1      37.699  34.221  31.751  1.00  0.00     0.059 A 
ATOM     46  F   UNL A   1      39.952  34.671  32.208  1.00  0.00    -0.206 F 
ATOM     47  C   UNL A   1      36.488  33.650  32.136  1.00  0.00     0.060 A 
BRANCH  47  48
ATOM     48  S   UNL A   1      35.076  33.650  31.008  1.00  0.00     0.124 S 
ATOM     49  O   UNL A   1      34.421  32.393  31.358  1.00  0.00    -0.237 OA
ATOM     50  O   UNL A   1      34.364  34.862  31.398  1.00  0.00    -0.237 OA
ATOM     51  O   UNL A   1      35.696  33.690  29.688  1.00  0.00    -0.744 OA
ENDBRANCH  47  48
ENDBRANCH  26  40
BRANCH  27  52
ATOM     52  C   UNL A   1      46.391  31.862  39.829  1.00  0.00     0.058 A 
ATOM     53  C   UNL A   1      46.210  31.178  41.047  1.00  0.00     0.135 A 
ATOM     54  C   UNL A   1      47.721  32.099  39.434  1.00  0.00     0.135 A 
ATOM     55  F   UNL A   1      44.974  30.849  41.451  1.00  0.00    -0.206 F 
ATOM     56  C   UNL A   1      47.284  30.799  41.857  1.00  0.00     0.059 A 
ATOM     57  C   UNL A   1      48.813  31.715  40.219  1.00  0.00     0.059 A 
ATOM     58  F   UNL A   1      47.973  32.682  38.251  1.00  0.00    -0.206 F 
ATOM     59  C   UNL A   1      48.585  31.083  41.440  1.00  0.00     0.060 A 
BRANCH  59  60
ATOM     60  S   UNL A   1      49.970  30.597  42.503  1.00  0.00     0.124 S 
ATOM     61  O   UNL A   1      49.401  30.790  43.832  1.00  0.00    -0.237 OA
ATOM     62  O   UNL A   1      50.201  29.211  42.107  1.00  0.00    -0.237 OA
ATOM     63  O   UNL A   1      51.025  31.535  42.130  1.00  0.00    -0.744 OA
ENDBRANCH  59  60
ENDBRANCH  27  52
BRANCH  39  64
ATOM     64  C   UNL A   1      41.436  36.697  39.753  1.00  0.00     0.058 A 
ATOM     65  C   UNL A   1      42.100  37.919  39.558  1.00  0.00     0.135 A 
ATOM     66  C   UNL A   1      40.547  36.576  40.826  1.00  0.00     0.135 A 
ATOM     67  F   UNL A   1      42.977  38.061  38.552  1.00  0.00    -0.206 F 
ATOM     68  C   UNL A   1      41.921  38.977  40.430  1.00  0.00     0.059 A 
ATOM     69  C   UNL A   1      40.328  37.637  41.694  1.00  0.00     0.059 A 
ATOM     70  F   UNL A   1      39.900  35.420  41.048  1.00  0.00    -0.206 F 
ATOM     71  C   UNL A   1      41.034  38.826  41.496  1.00  0.00     0.060 A 
BRANCH  71  72
ATOM     72  S   UNL A   1      40.808  40.220  42.610  1.00  0.00     0.124 S 
ATOM     73  O   UNL A   1      40.690  41.329  41.669  1.00  0.00    -0.237 OA
ATOM     74  O   UNL A   1      39.584  39.856  43.318  1.00  0.00    -0.237 OA
ATOM     75  O   UNL A   1      42.022  40.206  43.420  1.00  0.00    -0.744 OA
ENDBRANCH  71  72
ENDBRANCH  39  64
ENDBRANCH  13  14
ENDBRANCH   6   8
ENDBRANCH   5   6
ENDBRANCH   4   5
ENDBRANCH   3   4
ENDBRANCH   2   3
ENDBRANCH   1   2
BRANCH   1  76
ATOM     76  C   UNL A   1      41.420  22.151  26.440  1.00  0.00     0.188 C 
BRANCH  76  77
ATOM     77  O   UNL A   1      40.137  22.139  27.048  1.00  0.00    -0.376 OA
BRANCH  77  78
ATOM     78  C   UNL A   1      39.019  22.498  26.240  1.00  0.00     0.202 C 
BRANCH  78  79
ATOM     79  C   UNL A   1      38.321  21.411  25.404  1.00  0.00     0.261 C 
BRANCH  79  80
ATOM     80  O   UNL A   1      37.164  21.838  24.658  1.00  0.00    -0.463 OA
BRANCH  80  81
ATOM     81  C   UNL A   1      36.036  21.106  24.877  1.00  0.00     0.317 C 
ATOM     82  O   UNL A   1      36.039  19.883  24.997  1.00  0.00    -0.251 OA
BRANCH  81  83
ATOM     83  C   UNL A   1      34.758  21.941  25.055  1.00  0.00     0.117 C 
ATOM     84  C   UNL A   1      35.040  22.985  26.179  1.00  0.00     0.030 C 
ATOM     85  C   UNL A   1      34.403  22.776  23.814  1.00  0.00     0.281 C 
ATOM     86  C   UNL A   1      33.884  23.979  26.380  1.00  0.00     0.063 C 
ATOM     87  N   UNL A   1      33.197  23.568  24.048  1.00  0.00    -0.330 N 
ATOM     88  C   UNL A   1      33.372  24.590  25.070  1.00  0.00     0.262 C 
ATOM     89  H   UNL A   1      32.529  22.907  24.444  1.00  0.00     0.348 HD
BRANCH  83  90
ATOM     90  C   UNL A   1      33.648  20.933  25.517  1.00  0.00     0.029 C 
BRANCH  90  91
ATOM     91  C   UNL A   1      32.873  20.118  24.470  1.00  0.00     0.037 C 
BRANCH  91  92
ATOM     92  C   UNL A   1      33.016  18.618  24.477  1.00  0.00    -0.048 A 
ATOM     93  C   UNL A   1      32.631  17.914  25.621  1.00  0.00     0.004 A 
ATOM     94  C   UNL A   1      33.587  17.897  23.427  1.00  0.00     0.004 A 
ATOM     95  C   UNL A   1      32.745  16.527  25.706  1.00  0.00     0.000 A 
ATOM     96  C   UNL A   1      33.743  16.508  23.527  1.00  0.00     0.000 A 
ATOM     97  C   UNL A   1      33.310  15.821  24.658  1.00  0.00     0.000 A 
ENDBRANCH  91  92
ENDBRANCH  90  91
ENDBRANCH  83  90
BRANCH  87  98
ATOM     98  C   UNL A   1      32.526  24.034  22.838  1.00  0.00     0.300 C 
BRANCH  98  99
ATOM     99  C   UNL A   1      31.564  25.189  22.944  1.00  0.00     0.025 A 
ATOM    100  C   UNL A   1      29.943  25.141  23.818  1.00  0.00     0.013 A 
ATOM    101  C   UNL A   1      32.122  26.762  22.290  1.00  0.00     0.120 A 
ATOM    102  C   UNL A   1      28.869  26.636  23.865  1.00  0.00     0.021 A 
ATOM    103  N   UNL A   1      31.085  28.213  22.318  1.00  0.00    -0.264 NA
ATOM    104  C   UNL A   1      29.428  28.104  22.977  1.00  0.00     0.111 A 
ENDBRANCH  98  99
ENDBRANCH  87  98
ENDBRANCH  81  83
ENDBRANCH  80  81
ENDBRANCH  79  80
ENDBRANCH  78  79
ENDBRANCH  77  78
ENDBRANCH  76  77
ENDBRANCH   1  76
TORSDOF 25
ENDMDL
MODEL 3
REMARK VINA RESULT:      -9.1      5.950     10.298
REMARK SMILES O=C(OCCOCCOCCOC(=O)[C@@]1(CCc2ccccc2)CCC[N@@H+](Cc2cccnc2)C1)c1ccc(-c2c3nc(c(-c4c(F)cc(S(=O)(=O)[O-])cc4F)c4ccc([nH]4)c(-c4c(F)cc(S(=O)(=O)[O-])cc4F)c4nc(c(-c5c(F)cc(S(=O)(=O)[O-])cc5F)c5ccc2[nH]5)C=C4)C=C3)cc1
REMARK SMILES IDX 7 1 6 2 5 3 4 4 3 5 2 6 1 7 36 8 37 9 101 10 38 11 100 12
REMARK SMILES IDX 39 13 40 14 41 15 94 16 42 17 99 18 93 19 95 20 43 21 98 22
REMARK SMILES IDX 92 23 91 24 44 26 78 27 57 28 77 29 58 30 61 31 76 32 96 33
REMARK SMILES IDX 59 34 60 35 75 37 97 38 62 39 45 40 46 41 55 42 47 43 48 44
REMARK SMILES IDX 54 45 56 46 49 47 50 48 51 49 52 50 53 51 79 52 80 53 89 54
REMARK SMILES IDX 81 55 82 56 88 57 90 58 83 59 84 60 85 61 86 62 87 63 63 64
REMARK SMILES IDX 64 65 73 66 65 67 66 68 72 69 74 70 67 71 68 72 69 73 70 74
REMARK SMILES IDX 71 75 8 76 9 77 10 78 11 79 12 80 13 81 14 82 15 83 24 84
REMARK SMILES IDX 35 85 25 86 27 87 26 88 16 90 17 91 18 92 19 93 23 94 20 95
REMARK SMILES IDX 22 96 21 97 28 98 29 99 30 100 34 101 31 102 33 103 32 104
REMARK H PARENT 95 25 61 36 27 89
REMARK Flexibility Score: inf
ROOT
ATOM      1  C   UNL A   1      40.678  21.115  26.885  1.00  0.00     0.188 C 
ENDROOT
BRANCH   1   2
ATOM      2  O   UNL A   1      40.157  22.052  25.943  1.00  0.00    -0.376 OA
BRANCH   2   3
ATOM      3  C   UNL A   1      38.803  22.421  26.217  1.00  0.00     0.202 C 
BRANCH   3   4
ATOM      4  C   UNL A   1      38.432  23.924  26.105  1.00  0.00     0.261 C 
BRANCH   4   5
ATOM      5  O   UNL A   1      39.471  24.886  26.472  1.00  0.00    -0.460 OA
BRANCH   5   6
ATOM      6  C   UNL A   1      39.621  25.463  27.718  1.00  0.00     0.338 C 
ATOM      7  O   UNL A   1      39.351  24.860  28.747  1.00  0.00    -0.246 OA
BRANCH   6   8
ATOM      8  C   UNL A   1      40.025  26.883  27.758  1.00  0.00     0.060 A 
ATOM      9  C   UNL A   1      41.346  27.087  27.704  1.00  0.00     0.016 A 
ATOM     10  C   UNL A   1      39.291  28.045  27.723  1.00  0.00     0.016 A 
ATOM     11  C   UNL A   1      41.799  28.068  28.550  1.00  0.00     0.010 A 
ATOM     12  C   UNL A   1      39.923  29.298  28.112  1.00  0.00     0.010 A 
ATOM     13  C   UNL A   1      41.303  29.493  28.798  1.00  0.00    -0.014 A 
BRANCH  13  14
ATOM     14  C   UNL A   1      42.203  31.099  29.881  1.00  0.00     0.031 A 
ATOM     15  C   UNL A   1      41.715  31.845  31.412  1.00  0.00     0.074 A 
ATOM     16  C   UNL A   1      43.434  31.943  29.859  1.00  0.00     0.049 A 
ATOM     17  N   UNL A   1      41.354  33.075  31.740  1.00  0.00    -0.248 NA
ATOM     18  C   UNL A   1      41.721  30.980  32.637  1.00  0.00     0.031 C 
ATOM     19  C   UNL A   1      44.767  31.679  29.241  1.00  0.00     0.029 A 
ATOM     20  N   UNL A   1      43.639  33.318  30.166  1.00  0.00    -0.354 N 
ATOM     21  C   UNL A   1      40.762  32.943  33.009  1.00  0.00     0.074 A 
ATOM     22  C   UNL A   1      40.700  31.529  33.275  1.00  0.00     0.031 C 
ATOM     23  C   UNL A   1      45.405  32.789  28.914  1.00  0.00     0.029 A 
ATOM     24  C   UNL A   1      44.714  33.898  29.475  1.00  0.00     0.049 A 
ATOM     25  H   UNL A   1      43.077  33.816  30.803  1.00  0.00     0.167 HD
ATOM     26  C   UNL A   1      40.543  33.797  34.046  1.00  0.00     0.037 A 
ATOM     27  C   UNL A   1      45.331  35.095  29.331  1.00  0.00     0.037 A 
ATOM     28  C   UNL A   1      41.226  35.050  34.212  1.00  0.00     0.049 A 
ATOM     29  C   UNL A   1      45.139  36.044  30.444  1.00  0.00     0.074 A 
ATOM     30  C   UNL A   1      41.114  35.957  35.253  1.00  0.00     0.029 A 
ATOM     31  N   UNL A   1      42.291  35.467  33.430  1.00  0.00    -0.354 N 
ATOM     32  N   UNL A   1      44.290  35.940  31.428  1.00  0.00    -0.248 NA
ATOM     33  C   UNL A   1      46.085  37.160  30.548  1.00  0.00     0.031 C 
ATOM     34  C   UNL A   1      42.111  36.926  35.103  1.00  0.00     0.029 A 
ATOM     35  C   UNL A   1      42.845  36.617  33.972  1.00  0.00     0.049 A 
ATOM     36  H   UNL A   1      42.606  35.016  32.614  1.00  0.00     0.167 HD
ATOM     37  C   UNL A   1      44.616  36.958  32.292  1.00  0.00     0.074 A 
ATOM     38  C   UNL A   1      45.777  37.634  31.746  1.00  0.00     0.031 C 
ATOM     39  C   UNL A   1      43.979  37.305  33.430  1.00  0.00     0.037 A 
BRANCH  26  40
ATOM     40  C   UNL A   1      39.591  33.358  35.151  1.00  0.00     0.058 A 
ATOM     41  C   UNL A   1      38.195  33.536  35.121  1.00  0.00     0.135 A 
ATOM     42  C   UNL A   1      40.128  32.746  36.297  1.00  0.00     0.135 A 
ATOM     43  F   UNL A   1      37.601  34.090  34.051  1.00  0.00    -0.206 F 
ATOM     44  C   UNL A   1      37.391  33.233  36.219  1.00  0.00     0.059 A 
ATOM     45  C   UNL A   1      39.335  32.378  37.383  1.00  0.00     0.059 A 
ATOM     46  F   UNL A   1      41.445  32.493  36.372  1.00  0.00    -0.206 F 
ATOM     47  C   UNL A   1      37.971  32.661  37.350  1.00  0.00     0.060 A 
BRANCH  47  48
ATOM     48  S   UNL A   1      36.921  32.279  38.769  1.00  0.00     0.124 S 
ATOM     49  O   UNL A   1      37.674  32.887  39.863  1.00  0.00    -0.237 OA
ATOM     50  O   UNL A   1      35.669  32.942  38.421  1.00  0.00    -0.237 OA
ATOM     51  O   UNL A   1      36.873  30.821  38.773  1.00  0.00    -0.744 OA
ENDBRANCH  47  48
ENDBRANCH  26  40
BRANCH  27  52
ATOM     52  C   UNL A   1      46.415  35.293  28.290  1.00  0.00     0.058 A 
ATOM     53  C   UNL A   1      46.166  35.853  27.022  1.00  0.00     0.135 A 
ATOM     54  C   UNL A   1      47.761  35.031  28.606  1.00  0.00     0.135 A 
ATOM     55  F   UNL A   1      44.917  36.200  26.679  1.00  0.00    -0.206 F 
ATOM     56  C   UNL A   1      47.186  36.088  26.096  1.00  0.00     0.059 A 
ATOM     57  C   UNL A   1      48.802  35.273  27.704  1.00  0.00     0.059 A 
ATOM     58  F   UNL A   1      48.083  34.565  29.824  1.00  0.00    -0.206 F 
ATOM     59  C   UNL A   1      48.503  35.783  26.441  1.00  0.00     0.060 A 
BRANCH  59  60
ATOM     60  S   UNL A   1      49.817  36.080  25.229  1.00  0.00     0.124 S 
ATOM     61  O   UNL A   1      49.214  37.110  24.390  1.00  0.00    -0.237 OA
ATOM     62  O   UNL A   1      50.928  36.517  26.069  1.00  0.00    -0.237 OA
ATOM     63  O   UNL A   1      49.992  34.777  24.595  1.00  0.00    -0.744 OA
ENDBRANCH  59  60
ENDBRANCH  27  52
BRANCH  39  64
ATOM     64  C   UNL A   1      44.481  38.538  34.092  1.00  0.00     0.058 A 
ATOM     65  C   UNL A   1      45.445  38.434  35.107  1.00  0.00     0.135 A 
ATOM     66  C   UNL A   1      43.987  39.803  33.757  1.00  0.00     0.135 A 
ATOM     67  F   UNL A   1      45.921  37.233  35.469  1.00  0.00    -0.206 F 
ATOM     68  C   UNL A   1      45.875  39.550  35.802  1.00  0.00     0.059 A 
ATOM     69  C   UNL A   1      44.429  40.940  34.419  1.00  0.00     0.059 A 
ATOM     70  F   UNL A   1      43.059  39.939  32.795  1.00  0.00    -0.206 F 
ATOM     71  C   UNL A   1      45.360  40.798  35.451  1.00  0.00     0.060 A 
BRANCH  71  72
ATOM     72  S   UNL A   1      45.944  42.237  36.360  1.00  0.00     0.124 S 
ATOM     73  O   UNL A   1      46.149  41.677  37.691  1.00  0.00    -0.237 OA
ATOM     74  O   UNL A   1      47.155  42.596  35.628  1.00  0.00    -0.237 OA
ATOM     75  O   UNL A   1      44.839  43.184  36.238  1.00  0.00    -0.744 OA
ENDBRANCH  71  72
ENDBRANCH  39  64
ENDBRANCH  13  14
ENDBRANCH   6   8
ENDBRANCH   5   6
ENDBRANCH   4   5
ENDBRANCH   3   4
ENDBRANCH   2   3
ENDBRANCH   1   2
BRANCH   1  76
ATOM     76  C   UNL A   1      41.287  21.740  28.140  1.00  0.00     0.188 C 
BRANCH  76  77
ATOM     77  O   UNL A   1      42.241  22.776  27.953  1.00  0.00    -0.376 OA
BRANCH  77  78
ATOM     78  C   UNL A   1      42.554  23.597  29.076  1.00  0.00     0.202 C 
BRANCH  78  79
ATOM     79  C   UNL A   1      43.934  24.272  29.147  1.00  0.00     0.261 C 
BRANCH  79  80
ATOM     80  O   UNL A   1      44.355  24.969  27.957  1.00  0.00    -0.463 OA
BRANCH  80  81
ATOM     81  C   UNL A   1      45.401  24.400  27.296  1.00  0.00     0.317 C 
ATOM     82  O   UNL A   1      45.894  23.320  27.617  1.00  0.00    -0.251 OA
BRANCH  81  83
ATOM     83  C   UNL A   1      45.868  25.173  26.053  1.00  0.00     0.117 C 
ATOM     84  C   UNL A   1      45.169  26.568  26.086  1.00  0.00     0.030 C 
ATOM     85  C   UNL A   1      47.374  25.479  26.060  1.00  0.00     0.281 C 
ATOM     86  C   UNL A   1      45.642  27.504  24.962  1.00  0.00     0.063 C 
ATOM     87  N   UNL A   1      47.755  26.237  24.870  1.00  0.00    -0.330 N 
ATOM     88  C   UNL A   1      47.168  27.569  24.824  1.00  0.00     0.262 C 
ATOM     89  H   UNL A   1      47.327  25.730  24.095  1.00  0.00     0.348 HD
BRANCH  83  90
ATOM     90  C   UNL A   1      45.364  24.344  24.819  1.00  0.00     0.029 C 
BRANCH  90  91
ATOM     91  C   UNL A   1      46.195  23.159  24.304  1.00  0.00     0.037 C 
BRANCH  91  92
ATOM     92  C   UNL A   1      45.709  21.762  24.588  1.00  0.00    -0.048 A 
ATOM     93  C   UNL A   1      44.376  21.582  24.969  1.00  0.00     0.004 A 
ATOM     94  C   UNL A   1      46.540  20.642  24.567  1.00  0.00     0.004 A 
ATOM     95  C   UNL A   1      43.857  20.321  25.259  1.00  0.00     0.000 A 
ATOM     96  C   UNL A   1      46.032  19.379  24.900  1.00  0.00     0.000 A 
ATOM     97  C   UNL A   1      44.688  19.215  25.232  1.00  0.00     0.000 A 
ENDBRANCH  91  92
ENDBRANCH  90  91
ENDBRANCH  83  90
BRANCH  87  98
ATOM     98  C   UNL A   1      49.179  26.194  24.547  1.00  0.00     0.300 C 
BRANCH  98  99
ATOM     99  C   UNL A   1      49.649  26.839  23.268  1.00  0.00     0.025 A 
ATOM    100  C   UNL A   1      51.016  28.069  23.142  1.00  0.00     0.013 A 
ATOM    101  C   UNL A   1      48.906  26.245  21.748  1.00  0.00     0.120 A 
ATOM    102  C   UNL A   1      51.480  28.775  21.506  1.00  0.00     0.021 A 
ATOM    103  N   UNL A   1      49.339  26.932  20.160  1.00  0.00    -0.264 NA
ATOM    104  C   UNL A   1      50.513  28.274  20.066  1.00  0.00     0.111 A 
ENDBRANCH  98  99
ENDBRANCH  87  98
ENDBRANCH  81  83
ENDBRANCH  80  81
ENDBRANCH  79  80
ENDBRANCH  78  79
ENDBRANCH  77  78
ENDBRANCH  76  77
ENDBRANCH   1  76
TORSDOF 25
ENDMDL
