MODEL 1
REMARK VINA RESULT:      -9.5      0.000      0.000
REMARK SMILES C[C@H](Nc1ccc(F)cc1Br)[C@@H](C)C(=O)OCCOCCOCCOC(=O)c1ccc(-c2c3nc(c(-c4c(F)cc(S(=O)(=O)[O-])cc4F)c4ccc([nH]4)c(-c4c(F)cc(S(=O)(=O)[O-])cc4F)c4nc(c(-c5c(F)cc(S(=O)(=O)[O-])cc5F)c5ccc2[nH]5)C=C4)C=C3)cc1
REMARK SMILES IDX 20 1 19 2 18 3 17 4 16 5 14 6 15 7 12 8 13 9 2 10 1 11 3 12
REMARK SMILES IDX 4 14 5 15 10 16 6 17 9 18 11 19 7 20 8 21 21 22 22 23 23 24
REMARK SMILES IDX 24 25 25 26 26 27 27 28 28 29 29 30 93 31 30 32 92 33 31 34
REMARK SMILES IDX 32 35 33 36 86 37 34 38 91 39 85 40 87 41 35 42 90 43 84 44
REMARK SMILES IDX 83 45 36 47 70 48 49 49 69 50 50 51 53 52 68 53 88 54 51 55
REMARK SMILES IDX 52 56 67 58 89 59 54 60 37 61 38 62 47 63 39 64 40 65 46 66
REMARK SMILES IDX 48 67 41 68 42 69 43 70 44 71 45 72 71 73 72 74 81 75 73 76
REMARK SMILES IDX 74 77 80 78 82 79 75 80 76 81 77 82 78 83 79 84 55 85 56 86
REMARK SMILES IDX 65 87 57 88 58 89 64 90 66 91 59 92 60 93 61 94 62 95 63 96
REMARK H PARENT 3 13 87 46 53 57
REMARK Flexibility Score: inf
ROOT
ATOM      1  C   UNL A   1      39.223  22.861  26.513  1.00  0.00     0.188 C 
ENDROOT
BRANCH   1   2
ATOM      2  O   UNL A   1      37.843  22.658  26.265  1.00  0.00    -0.376 OA
BRANCH   2   3
ATOM      3  C   UNL A   1      37.513  22.220  24.953  1.00  0.00     0.202 C 
BRANCH   3   4
ATOM      4  C   UNL A   1      36.493  23.056  24.157  1.00  0.00     0.261 C 
BRANCH   4   5
ATOM      5  O   UNL A   1      35.445  23.724  24.907  1.00  0.00    -0.463 OA
BRANCH   5   6
ATOM      6  C   UNL A   1      34.411  22.922  25.287  1.00  0.00     0.310 C 
ATOM      7  O   UNL A   1      33.955  22.026  24.579  1.00  0.00    -0.252 OA
BRANCH   6   8
ATOM      8  C   UNL A   1      33.776  23.243  26.640  1.00  0.00     0.118 C 
ATOM      9  C   UNL A   1      33.774  21.920  27.416  1.00  0.00     0.022 C 
BRANCH   8  10
ATOM     10  C   UNL A   1      32.403  23.970  26.651  1.00  0.00     0.090 C 
ATOM     11  C   UNL A   1      31.246  22.957  26.656  1.00  0.00     0.031 C 
BRANCH  10  12
ATOM     12  N   UNL A   1      32.245  24.769  25.416  1.00  0.00    -0.381 N 
ATOM     13  H   UNL A   1      32.030  24.313  24.570  1.00  0.00     0.160 HD
BRANCH  12  14
ATOM     14  C   UNL A   1      32.395  26.159  25.424  1.00  0.00     0.049 A 
ATOM     15  C   UNL A   1      33.535  26.761  25.970  1.00  0.00     0.030 A 
ATOM     16  C   UNL A   1      31.370  27.002  24.937  1.00  0.00     0.044 A 
ATOM     17  C   UNL A   1      33.658  28.154  26.011  1.00  0.00     0.041 A 
ATOM     18  C   UNL A   1      31.478  28.392  24.997  1.00  0.00     0.057 A 
ATOM     19  Br  UNL A   1      29.773  26.274  24.200  1.00  0.00    -0.048 Br
ATOM     20  C   UNL A   1      32.628  28.953  25.531  1.00  0.00     0.124 A 
ATOM     21  F   UNL A   1      32.750  30.286  25.579  1.00  0.00    -0.207 F 
ENDBRANCH  12  14
ENDBRANCH  10  12
ENDBRANCH   8  10
ENDBRANCH   6   8
ENDBRANCH   5   6
ENDBRANCH   4   5
ENDBRANCH   3   4
ENDBRANCH   2   3
ENDBRANCH   1   2
BRANCH   1  22
ATOM     22  C   UNL A   1      40.140  21.695  26.161  1.00  0.00     0.188 C 
BRANCH  22  23
ATOM     23  O   UNL A   1      41.465  21.748  26.658  1.00  0.00    -0.376 OA
BRANCH  23  24
ATOM     24  C   UNL A   1      42.477  22.226  25.768  1.00  0.00     0.202 C 
BRANCH  24  25
ATOM     25  C   UNL A   1      42.846  23.727  25.588  1.00  0.00     0.261 C 
BRANCH  25  26
ATOM     26  O   UNL A   1      41.818  24.722  25.755  1.00  0.00    -0.460 OA
BRANCH  26  27
ATOM     27  C   UNL A   1      42.190  26.021  25.683  1.00  0.00     0.338 C 
ATOM     28  O   UNL A   1      42.308  26.669  24.655  1.00  0.00    -0.246 OA
BRANCH  27  29
ATOM     29  C   UNL A   1      42.156  26.613  27.059  1.00  0.00     0.060 A 
ATOM     30  C   UNL A   1      41.091  26.252  27.900  1.00  0.00     0.016 A 
ATOM     31  C   UNL A   1      43.160  27.449  27.555  1.00  0.00     0.016 A 
ATOM     32  C   UNL A   1      41.000  26.751  29.204  1.00  0.00     0.010 A 
ATOM     33  C   UNL A   1      43.051  27.979  28.854  1.00  0.00     0.010 A 
ATOM     34  C   UNL A   1      41.952  27.662  29.676  1.00  0.00    -0.014 A 
BRANCH  34  35
ATOM     35  C   UNL A   1      41.670  28.461  30.905  1.00  0.00     0.031 A 
ATOM     36  C   UNL A   1      40.510  29.426  30.866  1.00  0.00     0.074 A 
ATOM     37  C   UNL A   1      42.374  28.327  32.045  1.00  0.00     0.049 A 
ATOM     38  N   UNL A   1      40.117  30.299  31.757  1.00  0.00    -0.248 NA
ATOM     39  C   UNL A   1      39.679  29.395  29.650  1.00  0.00     0.031 C 
ATOM     40  C   UNL A   1      43.464  27.380  32.266  1.00  0.00     0.029 A 
ATOM     41  N   UNL A   1      42.275  29.006  33.240  1.00  0.00    -0.354 N 
ATOM     42  C   UNL A   1      39.009  30.933  31.204  1.00  0.00     0.074 A 
ATOM     43  C   UNL A   1      38.804  30.358  29.893  1.00  0.00     0.031 C 
ATOM     44  C   UNL A   1      43.946  27.552  33.512  1.00  0.00     0.029 A 
ATOM     45  C   UNL A   1      43.230  28.649  34.164  1.00  0.00     0.049 A 
ATOM     46  H   UNL A   1      41.584  29.685  33.416  1.00  0.00     0.167 HD
ATOM     47  C   UNL A   1      38.229  31.905  31.738  1.00  0.00     0.037 A 
ATOM     48  C   UNL A   1      43.515  29.166  35.380  1.00  0.00     0.037 A 
ATOM     49  C   UNL A   1      38.425  32.477  33.044  1.00  0.00     0.049 A 
ATOM     50  C   UNL A   1      42.694  30.315  35.918  1.00  0.00     0.074 A 
ATOM     51  C   UNL A   1      37.688  33.471  33.664  1.00  0.00     0.029 A 
ATOM     52  N   UNL A   1      39.430  32.115  33.928  1.00  0.00    -0.354 N 
ATOM     53  N   UNL A   1      41.661  30.918  35.378  1.00  0.00    -0.248 NA
ATOM     54  C   UNL A   1      43.079  30.858  37.231  1.00  0.00     0.031 C 
ATOM     55  C   UNL A   1      38.280  33.749  34.900  1.00  0.00     0.029 A 
ATOM     56  C   UNL A   1      39.345  32.880  35.079  1.00  0.00     0.049 A 
ATOM     57  H   UNL A   1      40.103  31.415  33.763  1.00  0.00     0.167 HD
ATOM     58  C   UNL A   1      41.251  31.880  36.301  1.00  0.00     0.074 A 
ATOM     59  C   UNL A   1      42.145  31.779  37.434  1.00  0.00     0.031 C 
ATOM     60  C   UNL A   1      40.224  32.761  36.216  1.00  0.00     0.037 A 
BRANCH  47  61
ATOM     61  C   UNL A   1      37.112  32.443  30.887  1.00  0.00     0.058 A 
ATOM     62  C   UNL A   1      37.314  33.475  29.956  1.00  0.00     0.135 A 
ATOM     63  C   UNL A   1      35.822  31.894  30.984  1.00  0.00     0.135 A 
ATOM     64  F   UNL A   1      38.521  34.050  29.836  1.00  0.00    -0.206 F 
ATOM     65  C   UNL A   1      36.273  33.963  29.174  1.00  0.00     0.059 A 
ATOM     66  C   UNL A   1      34.773  32.345  30.189  1.00  0.00     0.059 A 
ATOM     67  F   UNL A   1      35.572  30.908  31.858  1.00  0.00    -0.206 F 
ATOM     68  C   UNL A   1      35.005  33.391  29.298  1.00  0.00     0.060 A 
BRANCH  68  69
ATOM     69  S   UNL A   1      33.664  34.035  28.275  1.00  0.00     0.124 S 
ATOM     70  O   UNL A   1      34.393  34.905  27.356  1.00  0.00    -0.237 OA
ATOM     71  O   UNL A   1      33.107  32.821  27.690  1.00  0.00    -0.237 OA
ATOM     72  O   UNL A   1      32.803  34.719  29.234  1.00  0.00    -0.744 OA
ENDBRANCH  68  69
ENDBRANCH  47  61
BRANCH  48  73
ATOM     73  C   UNL A   1      44.658  28.630  36.175  1.00  0.00     0.058 A 
ATOM     74  C   UNL A   1      45.952  29.159  36.043  1.00  0.00     0.135 A 
ATOM     75  C   UNL A   1      44.487  27.554  37.060  1.00  0.00     0.135 A 
ATOM     76  F   UNL A   1      46.178  30.172  35.192  1.00  0.00    -0.206 F 
ATOM     77  C   UNL A   1      47.034  28.634  36.745  1.00  0.00     0.059 A 
ATOM     78  C   UNL A   1      45.546  27.031  37.797  1.00  0.00     0.059 A 
ATOM     79  F   UNL A   1      43.273  27.005  37.225  1.00  0.00    -0.206 F 
ATOM     80  C   UNL A   1      46.819  27.571  37.624  1.00  0.00     0.060 A 
BRANCH  80  81
ATOM     81  S   UNL A   1      48.221  26.926  38.565  1.00  0.00     0.124 S 
ATOM     82  O   UNL A   1      47.941  25.494  38.566  1.00  0.00    -0.237 OA
ATOM     83  O   UNL A   1      49.355  27.355  37.753  1.00  0.00    -0.237 OA
ATOM     84  O   UNL A   1      48.095  27.595  39.857  1.00  0.00    -0.744 OA
ENDBRANCH  80  81
ENDBRANCH  48  73
BRANCH  60  85
ATOM     85  C   UNL A   1      39.954  33.654  37.400  1.00  0.00     0.058 A 
ATOM     86  C   UNL A   1      40.537  34.925  37.527  1.00  0.00     0.135 A 
ATOM     87  C   UNL A   1      39.034  33.259  38.387  1.00  0.00     0.135 A 
ATOM     88  F   UNL A   1      41.425  35.355  36.617  1.00  0.00    -0.206 F 
ATOM     89  C   UNL A   1      40.232  35.763  38.598  1.00  0.00     0.059 A 
ATOM     90  C   UNL A   1      38.692  34.091  39.449  1.00  0.00     0.059 A 
ATOM     91  F   UNL A   1      38.436  32.060  38.312  1.00  0.00    -0.206 F 
ATOM     92  C   UNL A   1      39.304  35.339  39.552  1.00  0.00     0.060 A 
BRANCH  92  93
ATOM     93  S   UNL A   1      38.884  36.454  40.909  1.00  0.00     0.124 S 
ATOM     94  O   UNL A   1      37.796  35.730  41.559  1.00  0.00    -0.237 OA
ATOM     95  O   UNL A   1      40.135  36.521  41.657  1.00  0.00    -0.237 OA
ATOM     96  O   UNL A   1      38.498  37.687  40.231  1.00  0.00    -0.744 OA
ENDBRANCH  92  93
ENDBRANCH  60  85
ENDBRANCH  34  35
ENDBRANCH  27  29
ENDBRANCH  26  27
ENDBRANCH  25  26
ENDBRANCH  24  25
ENDBRANCH  23  24
ENDBRANCH  22  23
ENDBRANCH   1  22
TORSDOF 23
ENDMDL
MODEL 2
REMARK VINA RESULT:      -9.3      6.329     11.073
REMARK SMILES C[C@H](Nc1ccc(F)cc1Br)[C@@H](C)C(=O)OCCOCCOCCOC(=O)c1ccc(-c2c3nc(c(-c4c(F)cc(S(=O)(=O)[O-])cc4F)c4ccc([nH]4)c(-c4c(F)cc(S(=O)(=O)[O-])cc4F)c4nc(c(-c5c(F)cc(S(=O)(=O)[O-])cc5F)c5ccc2[nH]5)C=C4)C=C3)cc1
REMARK SMILES IDX 20 1 19 2 18 3 17 4 16 5 14 6 15 7 12 8 13 9 2 10 1 11 3 12
REMARK SMILES IDX 4 14 5 15 10 16 6 17 9 18 11 19 7 20 8 21 21 22 22 23 23 24
REMARK SMILES IDX 24 25 25 26 26 27 27 28 28 29 29 30 93 31 30 32 92 33 31 34
REMARK SMILES IDX 32 35 33 36 86 37 34 38 91 39 85 40 87 41 35 42 90 43 84 44
REMARK SMILES IDX 83 45 36 47 70 48 49 49 69 50 50 51 53 52 68 53 88 54 51 55
REMARK SMILES IDX 52 56 67 58 89 59 54 60 37 61 38 62 47 63 39 64 40 65 46 66
REMARK SMILES IDX 48 67 41 68 42 69 43 70 44 71 45 72 71 73 72 74 81 75 73 76
REMARK SMILES IDX 74 77 80 78 82 79 75 80 76 81 77 82 78 83 79 84 55 85 56 86
REMARK SMILES IDX 65 87 57 88 58 89 64 90 66 91 59 92 60 93 61 94 62 95 63 96
REMARK H PARENT 3 13 87 46 53 57
REMARK Flexibility Score: inf
ROOT
ATOM      1  C   UNL A   1      37.103  23.177  25.024  1.00  0.00     0.188 C 
ENDROOT
BRANCH   1   2
ATOM      2  O   UNL A   1      35.969  23.858  24.516  1.00  0.00    -0.376 OA
BRANCH   2   3
ATOM      3  C   UNL A   1      34.771  23.700  25.265  1.00  0.00     0.202 C 
BRANCH   3   4
ATOM      4  C   UNL A   1      34.101  24.973  25.817  1.00  0.00     0.261 C 
BRANCH   4   5
ATOM      5  O   UNL A   1      33.743  26.007  24.863  1.00  0.00    -0.463 OA
BRANCH   5   6
ATOM      6  C   UNL A   1      33.084  27.074  25.395  1.00  0.00     0.310 C 
ATOM      7  O   UNL A   1      33.636  27.943  26.068  1.00  0.00    -0.252 OA
BRANCH   6   8
ATOM      8  C   UNL A   1      31.571  27.106  25.173  1.00  0.00     0.118 C 
ATOM      9  C   UNL A   1      30.951  26.771  26.536  1.00  0.00     0.022 C 
BRANCH   8  10
ATOM     10  C   UNL A   1      30.985  26.267  24.003  1.00  0.00     0.090 C 
ATOM     11  C   UNL A   1      29.795  26.992  23.352  1.00  0.00     0.031 C 
BRANCH  10  12
ATOM     12  N   UNL A   1      30.456  24.985  24.517  1.00  0.00    -0.381 N 
ATOM     13  H   UNL A   1      29.620  24.982  25.038  1.00  0.00     0.160 HD
BRANCH  12  14
ATOM     14  C   UNL A   1      31.117  23.777  24.277  1.00  0.00     0.049 A 
ATOM     15  C   UNL A   1      31.742  23.524  23.050  1.00  0.00     0.030 A 
ATOM     16  C   UNL A   1      31.123  22.748  25.247  1.00  0.00     0.044 A 
ATOM     17  C   UNL A   1      32.367  22.297  22.804  1.00  0.00     0.041 A 
ATOM     18  C   UNL A   1      31.724  21.513  24.997  1.00  0.00     0.057 A 
ATOM     19  Br  UNL A   1      30.278  22.990  26.935  1.00  0.00    -0.048 Br
ATOM     20  C   UNL A   1      32.346  21.305  23.776  1.00  0.00     0.124 A 
ATOM     21  F   UNL A   1      32.941  20.130  23.531  1.00  0.00    -0.207 F 
ENDBRANCH  12  14
ENDBRANCH  10  12
ENDBRANCH   8  10
ENDBRANCH   6   8
ENDBRANCH   5   6
ENDBRANCH   4   5
ENDBRANCH   3   4
ENDBRANCH   2   3
ENDBRANCH   1   2
BRANCH   1  22
ATOM     22  C   UNL A   1      36.885  21.719  25.411  1.00  0.00     0.188 C 
BRANCH  22  23
ATOM     23  O   UNL A   1      37.513  20.740  24.604  1.00  0.00    -0.376 OA
BRANCH  23  24
ATOM     24  C   UNL A   1      38.461  19.879  25.241  1.00  0.00     0.202 C 
BRANCH  24  25
ATOM     25  C   UNL A   1      39.698  20.379  26.040  1.00  0.00     0.261 C 
BRANCH  25  26
ATOM     26  O   UNL A   1      40.541  19.413  26.696  1.00  0.00    -0.460 OA
BRANCH  26  27
ATOM     27  C   UNL A   1      41.822  19.312  26.272  1.00  0.00     0.338 C 
ATOM     28  O   UNL A   1      42.291  18.371  25.651  1.00  0.00    -0.246 OA
BRANCH  27  29
ATOM     29  C   UNL A   1      42.493  20.642  26.431  1.00  0.00     0.060 A 
ATOM     30  C   UNL A   1      42.531  21.206  27.717  1.00  0.00     0.016 A 
ATOM     31  C   UNL A   1      43.130  21.306  25.379  1.00  0.00     0.016 A 
ATOM     32  C   UNL A   1      43.154  22.437  27.947  1.00  0.00     0.010 A 
ATOM     33  C   UNL A   1      43.727  22.560  25.602  1.00  0.00     0.010 A 
ATOM     34  C   UNL A   1      43.713  23.152  26.881  1.00  0.00    -0.014 A 
BRANCH  34  35
ATOM     35  C   UNL A   1      44.048  24.596  27.050  1.00  0.00     0.031 A 
ATOM     36  C   UNL A   1      45.486  25.013  26.858  1.00  0.00     0.074 A 
ATOM     37  C   UNL A   1      43.124  25.537  27.324  1.00  0.00     0.049 A 
ATOM     38  N   UNL A   1      46.053  26.177  27.041  1.00  0.00    -0.248 NA
ATOM     39  C   UNL A   1      46.410  23.964  26.392  1.00  0.00     0.031 C 
ATOM     40  C   UNL A   1      41.687  25.308  27.453  1.00  0.00     0.029 A 
ATOM     41  N   UNL A   1      43.267  26.889  27.551  1.00  0.00    -0.354 N 
ATOM     42  C   UNL A   1      47.397  25.998  26.732  1.00  0.00     0.074 A 
ATOM     43  C   UNL A   1      47.565  24.608  26.368  1.00  0.00     0.031 C 
ATOM     44  C   UNL A   1      41.084  26.473  27.756  1.00  0.00     0.029 A 
ATOM     45  C   UNL A   1      42.093  27.525  27.885  1.00  0.00     0.049 A 
ATOM     46  H   UNL A   1      44.131  27.357  27.480  1.00  0.00     0.167 HD
ATOM     47  C   UNL A   1      48.403  26.906  26.746  1.00  0.00     0.037 A 
ATOM     48  C   UNL A   1      41.862  28.797  28.280  1.00  0.00     0.037 A 
ATOM     49  C   UNL A   1      48.241  28.291  27.101  1.00  0.00     0.049 A 
ATOM     50  C   UNL A   1      43.014  29.771  28.383  1.00  0.00     0.074 A 
ATOM     51  C   UNL A   1      49.205  29.283  27.150  1.00  0.00     0.029 A 
ATOM     52  N   UNL A   1      47.043  28.882  27.474  1.00  0.00    -0.354 N 
ATOM     53  N   UNL A   1      44.283  29.584  28.106  1.00  0.00    -0.248 NA
ATOM     54  C   UNL A   1      42.703  31.130  28.855  1.00  0.00     0.031 C 
ATOM     55  C   UNL A   1      48.602  30.459  27.605  1.00  0.00     0.029 A 
ATOM     56  C   UNL A   1      47.248  30.218  27.775  1.00  0.00     0.049 A 
ATOM     57  H   UNL A   1      46.175  28.420  27.516  1.00  0.00     0.167 HD
ATOM     58  C   UNL A   1      44.910  30.809  28.332  1.00  0.00     0.074 A 
ATOM     59  C   UNL A   1      43.882  31.730  28.766  1.00  0.00     0.031 C 
ATOM     60  C   UNL A   1      46.217  31.139  28.186  1.00  0.00     0.037 A 
BRANCH  47  61
ATOM     61  C   UNL A   1      49.785  26.417  26.405  1.00  0.00     0.058 A 
ATOM     62  C   UNL A   1      50.245  26.349  25.081  1.00  0.00     0.135 A 
ATOM     63  C   UNL A   1      50.672  26.041  27.426  1.00  0.00     0.135 A 
ATOM     64  F   UNL A   1      49.432  26.677  24.064  1.00  0.00    -0.206 F 
ATOM     65  C   UNL A   1      51.526  25.897  24.779  1.00  0.00     0.059 A 
ATOM     66  C   UNL A   1      51.968  25.616  27.150  1.00  0.00     0.059 A 
ATOM     67  F   UNL A   1      50.284  26.084  28.710  1.00  0.00    -0.206 F 
ATOM     68  C   UNL A   1      52.380  25.532  25.822  1.00  0.00     0.060 A 
BRANCH  68  69
ATOM     69  S   UNL A   1      54.039  24.949  25.414  1.00  0.00     0.124 S 
ATOM     70  O   UNL A   1      54.471  25.955  24.448  1.00  0.00    -0.237 OA
ATOM     71  O   UNL A   1      54.710  24.984  26.708  1.00  0.00    -0.237 OA
ATOM     72  O   UNL A   1      53.806  23.616  24.867  1.00  0.00    -0.744 OA
ENDBRANCH  68  69
ENDBRANCH  47  61
BRANCH  48  73
ATOM     73  C   UNL A   1      40.483  29.231  28.649  1.00  0.00     0.058 A 
ATOM     74  C   UNL A   1      40.102  29.390  29.991  1.00  0.00     0.135 A 
ATOM     75  C   UNL A   1      39.507  29.462  27.667  1.00  0.00     0.135 A 
ATOM     76  F   UNL A   1      40.988  29.157  30.971  1.00  0.00    -0.206 F 
ATOM     77  C   UNL A   1      38.804  29.748  30.345  1.00  0.00     0.059 A 
ATOM     78  C   UNL A   1      38.211  29.851  27.994  1.00  0.00     0.059 A 
ATOM     79  F   UNL A   1      39.814  29.322  26.367  1.00  0.00    -0.206 F 
ATOM     80  C   UNL A   1      37.866  29.981  29.338  1.00  0.00     0.060 A 
BRANCH  80  81
ATOM     81  S   UNL A   1      36.196  30.489  29.807  1.00  0.00     0.124 S 
ATOM     82  O   UNL A   1      36.348  31.936  29.915  1.00  0.00    -0.237 OA
ATOM     83  O   UNL A   1      35.405  30.012  28.678  1.00  0.00    -0.237 OA
ATOM     84  O   UNL A   1      35.971  29.783  31.064  1.00  0.00    -0.744 OA
ENDBRANCH  80  81
ENDBRANCH  48  73
BRANCH  60  85
ATOM     85  C   UNL A   1      46.622  32.570  28.433  1.00  0.00     0.058 A 
ATOM     86  C   UNL A   1      47.108  33.006  29.675  1.00  0.00     0.135 A 
ATOM     87  C   UNL A   1      46.592  33.503  27.382  1.00  0.00     0.135 A 
ATOM     88  F   UNL A   1      47.157  32.160  30.717  1.00  0.00    -0.206 F 
ATOM     89  C   UNL A   1      47.533  34.318  29.872  1.00  0.00     0.059 A 
ATOM     90  C   UNL A   1      47.040  34.811  27.547  1.00  0.00     0.059 A 
ATOM     91  F   UNL A   1      46.149  33.140  26.168  1.00  0.00    -0.206 F 
ATOM     92  C   UNL A   1      47.500  35.212  28.800  1.00  0.00     0.060 A 
BRANCH  92  93
ATOM     93  S   UNL A   1      48.098  36.897  29.056  1.00  0.00     0.124 S 
ATOM     94  O   UNL A   1      48.023  37.445  27.706  1.00  0.00    -0.237 OA
ATOM     95  O   UNL A   1      47.130  37.430  30.010  1.00  0.00    -0.237 OA
ATOM     96  O   UNL A   1      49.446  36.705  29.581  1.00  0.00    -0.744 OA
ENDBRANCH  92  93
ENDBRANCH  60  85
ENDBRANCH  34  35
ENDBRANCH  27  29
ENDBRANCH  26  27
ENDBRANCH  25  26
ENDBRANCH  24  25
ENDBRANCH  23  24
ENDBRANCH  22  23
ENDBRANCH   1  22
TORSDOF 23
ENDMDL
MODEL 3
REMARK VINA RESULT:      -8.7      5.679     12.249
REMARK SMILES C[C@H](Nc1ccc(F)cc1Br)[C@@H](C)C(=O)OCCOCCOCCOC(=O)c1ccc(-c2c3nc(c(-c4c(F)cc(S(=O)(=O)[O-])cc4F)c4ccc([nH]4)c(-c4c(F)cc(S(=O)(=O)[O-])cc4F)c4nc(c(-c5c(F)cc(S(=O)(=O)[O-])cc5F)c5ccc2[nH]5)C=C4)C=C3)cc1
REMARK SMILES IDX 20 1 19 2 18 3 17 4 16 5 14 6 15 7 12 8 13 9 2 10 1 11 3 12
REMARK SMILES IDX 4 14 5 15 10 16 6 17 9 18 11 19 7 20 8 21 21 22 22 23 23 24
REMARK SMILES IDX 24 25 25 26 26 27 27 28 28 29 29 30 93 31 30 32 92 33 31 34
REMARK SMILES IDX 32 35 33 36 86 37 34 38 91 39 85 40 87 41 35 42 90 43 84 44
REMARK SMILES IDX 83 45 36 47 70 48 49 49 69 50 50 51 53 52 68 53 88 54 51 55
REMARK SMILES IDX 52 56 67 58 89 59 54 60 37 61 38 62 47 63 39 64 40 65 46 66
REMARK SMILES IDX 48 67 41 68 42 69 43 70 44 71 45 72 71 73 72 74 81 75 73 76
REMARK SMILES IDX 74 77 80 78 82 79 75 80 76 81 77 82 78 83 79 84 55 85 56 86
REMARK SMILES IDX 65 87 57 88 58 89 64 90 66 91 59 92 60 93 61 94 62 95 63 96
REMARK H PARENT 3 13 87 46 53 57
REMARK Flexibility Score: inf
ROOT
ATOM      1  C   UNL A   1      38.168  33.616  35.326  1.00  0.00     0.188 C 
ENDROOT
BRANCH   1   2
ATOM      2  O   UNL A   1      37.670  32.810  36.380  1.00  0.00    -0.376 OA
BRANCH   2   3
ATOM      3  C   UNL A   1      38.212  31.499  36.461  1.00  0.00     0.202 C 
BRANCH   3   4
ATOM      4  C   UNL A   1      38.226  30.652  35.174  1.00  0.00     0.261 C 
BRANCH   4   5
ATOM      5  O   UNL A   1      39.392  29.822  34.933  1.00  0.00    -0.463 OA
BRANCH   5   6
ATOM      6  C   UNL A   1      40.284  30.332  34.038  1.00  0.00     0.310 C 
ATOM      7  O   UNL A   1      40.056  31.321  33.345  1.00  0.00    -0.252 OA
BRANCH   6   8
ATOM      8  C   UNL A   1      41.590  29.552  33.876  1.00  0.00     0.118 C 
ATOM      9  C   UNL A   1      41.333  28.553  32.741  1.00  0.00     0.022 C 
BRANCH   8  10
ATOM     10  C   UNL A   1      42.217  28.904  35.142  1.00  0.00     0.090 C 
ATOM     11  C   UNL A   1      42.739  29.980  36.108  1.00  0.00     0.031 C 
BRANCH  10  12
ATOM     12  N   UNL A   1      43.390  28.087  34.762  1.00  0.00    -0.381 N 
ATOM     13  H   UNL A   1      44.254  28.530  34.597  1.00  0.00     0.160 HD
BRANCH  12  14
ATOM     14  C   UNL A   1      43.298  26.698  34.632  1.00  0.00     0.049 A 
ATOM     15  C   UNL A   1      42.455  25.948  35.461  1.00  0.00     0.030 A 
ATOM     16  C   UNL A   1      44.100  26.001  33.699  1.00  0.00     0.044 A 
ATOM     17  C   UNL A   1      42.399  24.554  35.351  1.00  0.00     0.041 A 
ATOM     18  C   UNL A   1      44.065  24.609  33.603  1.00  0.00     0.057 A 
ATOM     19  Br  UNL A   1      45.295  26.935  32.548  1.00  0.00    -0.048 Br
ATOM     20  C   UNL A   1      43.208  23.901  34.429  1.00  0.00     0.124 A 
ATOM     21  F   UNL A   1      43.154  22.566  34.335  1.00  0.00    -0.207 F 
ENDBRANCH  12  14
ENDBRANCH  10  12
ENDBRANCH   8  10
ENDBRANCH   6   8
ENDBRANCH   5   6
ENDBRANCH   4   5
ENDBRANCH   3   4
ENDBRANCH   2   3
ENDBRANCH   1   2
BRANCH   1  22
ATOM     22  C   UNL A   1      37.252  33.768  34.116  1.00  0.00     0.188 C 
BRANCH  22  23
ATOM     23  O   UNL A   1      35.866  33.574  34.332  1.00  0.00    -0.376 OA
BRANCH  23  24
ATOM     24  C   UNL A   1      34.968  34.363  33.547  1.00  0.00     0.202 C 
BRANCH  24  25
ATOM     25  C   UNL A   1      33.990  33.781  32.486  1.00  0.00     0.261 C 
BRANCH  25  26
ATOM     26  O   UNL A   1      34.309  32.524  31.861  1.00  0.00    -0.460 OA
BRANCH  26  27
ATOM     27  C   UNL A   1      34.496  32.522  30.521  1.00  0.00     0.338 C 
ATOM     28  O   UNL A   1      33.847  33.169  29.714  1.00  0.00    -0.246 OA
BRANCH  27  29
ATOM     29  C   UNL A   1      35.790  31.836  30.212  1.00  0.00     0.060 A 
ATOM     30  C   UNL A   1      36.452  31.182  31.264  1.00  0.00     0.016 A 
ATOM     31  C   UNL A   1      36.329  31.766  28.923  1.00  0.00     0.016 A 
ATOM     32  C   UNL A   1      37.658  30.504  31.049  1.00  0.00     0.010 A 
ATOM     33  C   UNL A   1      37.558  31.114  28.713  1.00  0.00     0.010 A 
ATOM     34  C   UNL A   1      38.250  30.509  29.781  1.00  0.00    -0.014 A 
BRANCH  34  35
ATOM     35  C   UNL A   1      39.680  30.111  29.628  1.00  0.00     0.031 A 
ATOM     36  C   UNL A   1      40.734  31.162  29.876  1.00  0.00     0.074 A 
ATOM     37  C   UNL A   1      40.063  28.856  29.322  1.00  0.00     0.049 A 
ATOM     38  N   UNL A   1      42.031  31.101  29.718  1.00  0.00    -0.248 NA
ATOM     39  C   UNL A   1      40.252  32.461  30.375  1.00  0.00     0.031 C 
ATOM     40  C   UNL A   1      39.171  27.714  29.137  1.00  0.00     0.029 A 
ATOM     41  N   UNL A   1      41.321  28.336  29.104  1.00  0.00    -0.354 N 
ATOM     42  C   UNL A   1      42.516  32.354  30.077  1.00  0.00     0.074 A 
ATOM     43  C   UNL A   1      41.373  33.161  30.444  1.00  0.00     0.031 C 
ATOM     44  C   UNL A   1      39.907  26.633  28.814  1.00  0.00     0.029 A 
ATOM     45  C   UNL A   1      41.318  27.012  28.726  1.00  0.00     0.049 A 
ATOM     46  H   UNL A   1      42.146  28.863  29.208  1.00  0.00     0.167 HD
ATOM     47  C   UNL A   1      43.797  32.796  30.104  1.00  0.00     0.037 A 
ATOM     48  C   UNL A   1      42.328  26.209  28.326  1.00  0.00     0.037 A 
ATOM     49  C   UNL A   1      44.939  31.996  29.746  1.00  0.00     0.049 A 
ATOM     50  C   UNL A   1      43.739  26.749  28.269  1.00  0.00     0.074 A 
ATOM     51  C   UNL A   1      46.274  32.363  29.736  1.00  0.00     0.029 A 
ATOM     52  N   UNL A   1      44.886  30.675  29.329  1.00  0.00    -0.354 N 
ATOM     53  N   UNL A   1      44.182  27.940  28.594  1.00  0.00    -0.248 NA
ATOM     54  C   UNL A   1      44.788  25.835  27.789  1.00  0.00     0.031 C 
ATOM     55  C   UNL A   1      47.022  31.281  29.261  1.00  0.00     0.029 A 
ATOM     56  C   UNL A   1      46.161  30.218  29.039  1.00  0.00     0.049 A 
ATOM     57  H   UNL A   1      44.063  30.139  29.253  1.00  0.00     0.167 HD
ATOM     58  C   UNL A   1      45.562  27.905  28.395  1.00  0.00     0.074 A 
ATOM     59  C   UNL A   1      45.882  26.575  27.925  1.00  0.00     0.031 C 
ATOM     60  C   UNL A   1      46.478  28.885  28.592  1.00  0.00     0.037 A 
BRANCH  47  61
ATOM     61  C   UNL A   1      44.029  34.230  30.496  1.00  0.00     0.058 A 
ATOM     62  C   UNL A   1      44.119  35.257  29.544  1.00  0.00     0.135 A 
ATOM     63  C   UNL A   1      44.132  34.584  31.851  1.00  0.00     0.135 A 
ATOM     64  F   UNL A   1      44.048  34.973  28.234  1.00  0.00    -0.206 F 
ATOM     65  C   UNL A   1      44.331  36.580  29.920  1.00  0.00     0.059 A 
ATOM     66  C   UNL A   1      44.313  35.904  32.252  1.00  0.00     0.059 A 
ATOM     67  F   UNL A   1      44.055  33.642  32.804  1.00  0.00    -0.206 F 
ATOM     68  C   UNL A   1      44.427  36.893  31.277  1.00  0.00     0.060 A 
BRANCH  68  69
ATOM     69  S   UNL A   1      44.703  38.613  31.748  1.00  0.00     0.124 S 
ATOM     70  O   UNL A   1      44.047  38.666  33.052  1.00  0.00    -0.237 OA
ATOM     71  O   UNL A   1      46.158  38.702  31.767  1.00  0.00    -0.237 OA
ATOM     72  O   UNL A   1      44.044  39.367  30.686  1.00  0.00    -0.744 OA
ENDBRANCH  68  69
ENDBRANCH  47  61
BRANCH  48  73
ATOM     73  C   UNL A   1      42.050  24.804  27.906  1.00  0.00     0.058 A 
ATOM     74  C   UNL A   1      41.453  24.516  26.668  1.00  0.00     0.135 A 
ATOM     75  C   UNL A   1      42.345  23.721  28.749  1.00  0.00     0.135 A 
ATOM     76  F   UNL A   1      41.126  25.515  25.834  1.00  0.00    -0.206 F 
ATOM     77  C   UNL A   1      41.146  23.212  26.289  1.00  0.00     0.059 A 
ATOM     78  C   UNL A   1      42.077  22.406  28.380  1.00  0.00     0.059 A 
ATOM     79  F   UNL A   1      42.914  23.937  29.946  1.00  0.00    -0.206 F 
ATOM     80  C   UNL A   1      41.467  22.163  27.151  1.00  0.00     0.060 A 
BRANCH  80  81
ATOM     81  S   UNL A   1      41.106  20.470  26.630  1.00  0.00     0.124 S 
ATOM     82  O   UNL A   1      41.232  19.741  27.887  1.00  0.00    -0.237 OA
ATOM     83  O   UNL A   1      39.753  20.598  26.098  1.00  0.00    -0.237 OA
ATOM     84  O   UNL A   1      42.139  20.197  25.636  1.00  0.00    -0.744 OA
ENDBRANCH  80  81
ENDBRANCH  48  73
BRANCH  60  85
ATOM     85  C   UNL A   1      47.932  28.556  28.364  1.00  0.00     0.058 A 
ATOM     86  C   UNL A   1      48.728  27.960  29.354  1.00  0.00     0.135 A 
ATOM     87  C   UNL A   1      48.514  28.772  27.103  1.00  0.00     0.135 A 
ATOM     88  F   UNL A   1      48.227  27.733  30.579  1.00  0.00    -0.206 F 
ATOM     89  C   UNL A   1      50.054  27.608  29.109  1.00  0.00     0.059 A 
ATOM     90  C   UNL A   1      49.827  28.400  26.826  1.00  0.00     0.059 A 
ATOM     91  F   UNL A   1      47.797  29.326  26.113  1.00  0.00    -0.206 F 
ATOM     92  C   UNL A   1      50.593  27.827  27.840  1.00  0.00     0.060 A 
BRANCH  92  93
ATOM     93  S   UNL A   1      52.298  27.323  27.522  1.00  0.00     0.124 S 
ATOM     94  O   UNL A   1      52.281  25.932  27.963  1.00  0.00    -0.237 OA
ATOM     95  O   UNL A   1      52.422  27.529  26.083  1.00  0.00    -0.237 OA
ATOM     96  O   UNL A   1      53.083  28.233  28.350  1.00  0.00    -0.744 OA
ENDBRANCH  92  93
ENDBRANCH  60  85
ENDBRANCH  34  35
ENDBRANCH  27  29
ENDBRANCH  26  27
ENDBRANCH  25  26
ENDBRANCH  24  25
ENDBRANCH  23  24
ENDBRANCH  22  23
ENDBRANCH   1  22
TORSDOF 23
ENDMDL
