MODEL 1
REMARK VINA RESULT:     -10.1      0.000      0.000
REMARK SMILES COc1cccc(C[N@@H+]2C[C@H](C(=O)OCCOCCOCCOC(=O)c3ccc(-c4c5nc(c(-c6c(F)cc(S(=O)(=O)[O-])cc6F)c6ccc([nH]6)c(-c6c(F)cc(S(=O)(=O)[O-])cc6F)c6nc(c(-c7c(F)cc(S(=O)(=O)[O-])cc7F)c7ccc4[nH]7)C=C6)C=C5)cc3)C3(CC[NH+](C)CC3)C2)c1
REMARK SMILES IDX 18 1 17 2 16 3 15 4 14 5 12 6 13 7 11 8 9 9 10 10 99 11
REMARK SMILES IDX 92 13 93 14 98 15 94 16 97 17 95 18 96 19 8 21 7 22 3 23
REMARK SMILES IDX 4 24 100 25 5 26 6 27 2 28 1 29 19 30 20 31 21 32 22 33
REMARK SMILES IDX 23 34 24 35 25 36 26 37 27 38 91 39 28 40 90 41 29 42 30 43
REMARK SMILES IDX 31 44 84 45 32 46 89 47 83 48 85 49 33 50 88 51 82 52 81 53
REMARK SMILES IDX 34 55 68 56 47 57 67 58 48 59 51 60 66 61 86 62 49 63 50 64
REMARK SMILES IDX 65 66 87 67 52 68 35 69 36 70 45 71 37 72 38 73 44 74 46 75
REMARK SMILES IDX 39 76 40 77 41 78 42 79 43 80 69 81 70 82 79 83 71 84 72 85
REMARK SMILES IDX 78 86 80 87 73 88 74 89 75 90 76 91 77 92 53 93 54 94 63 95
REMARK SMILES IDX 55 96 56 97 62 98 64 99 57 100 58 101 59 102 60 103 61 104
REMARK H PARENT 9 12 95 20 85 54 51 65
REMARK Flexibility Score: inf
ROOT
ATOM      1  C   UNL A   1      33.195  30.797  26.854  1.00  0.00     0.188 C 
ENDROOT
BRANCH   1   2
ATOM      2  O   UNL A   1      31.954  30.169  27.163  1.00  0.00    -0.376 OA
BRANCH   2   3
ATOM      3  C   UNL A   1      31.834  28.785  26.861  1.00  0.00     0.202 C 
BRANCH   3   4
ATOM      4  C   UNL A   1      31.708  28.423  25.375  1.00  0.00     0.261 C 
BRANCH   4   5
ATOM      5  O   UNL A   1      30.713  27.424  25.046  1.00  0.00    -0.463 OA
BRANCH   5   6
ATOM      6  C   UNL A   1      31.068  26.133  25.341  1.00  0.00     0.315 C 
ATOM      7  O   UNL A   1      30.304  25.328  25.838  1.00  0.00    -0.252 OA
BRANCH   6   8
ATOM      8  C   UNL A   1      32.558  25.876  25.071  1.00  0.00     0.166 C 
ATOM      9  N   UNL A   1      33.753  23.921  25.873  1.00  0.00    -0.330 N 
ATOM     10  C   UNL A   1      33.106  25.147  26.303  1.00  0.00     0.278 C 
ATOM     11  C   UNL A   1      33.798  23.839  24.427  1.00  0.00     0.271 C 
ATOM     12  H   UNL A   1      34.717  24.000  26.198  1.00  0.00     0.348 HD
ATOM     13  C   UNL A   1      33.002  25.024  23.843  1.00  0.00     0.049 C 
ATOM     14  C   UNL A   1      33.960  25.818  22.906  1.00  0.00     0.075 C 
ATOM     15  C   UNL A   1      31.847  24.501  22.972  1.00  0.00     0.075 C 
ATOM     16  C   UNL A   1      33.261  26.901  22.085  1.00  0.00     0.262 C 
ATOM     17  C   UNL A   1      31.222  25.641  22.180  1.00  0.00     0.262 C 
ATOM     18  N   UNL A   1      32.124  26.403  21.316  1.00  0.00    -0.337 N 
ATOM     19  C   UNL A   1      32.532  25.692  20.107  1.00  0.00     0.332 C 
ATOM     20  H   UNL A   1      31.594  27.202  20.967  1.00  0.00     0.347 HD
BRANCH   9  21
ATOM     21  C   UNL A   1      33.388  22.686  26.574  1.00  0.00     0.299 C 
BRANCH  21  22
ATOM     22  C   UNL A   1      33.617  21.378  25.845  1.00  0.00     0.010 A 
ATOM     23  C   UNL A   1      35.132  19.686  24.963  1.00  0.00     0.119 A 
ATOM     24  C   UNL A   1      34.043  18.976  24.465  1.00  0.00     0.046 A 
ATOM     25  C   UNL A   1      34.922  20.887  25.642  1.00  0.00     0.056 A 
ATOM     26  C   UNL A   1      32.747  19.435  24.674  1.00  0.00     0.004 A 
ATOM     27  C   UNL A   1      32.537  20.621  25.374  1.00  0.00     0.010 A 
BRANCH  23  28
ATOM     28  O   UNL A   1      36.360  19.164  24.672  1.00  0.00    -0.497 OA
ATOM     29  C   UNL A   1      37.458  20.054  24.831  1.00  0.00     0.278 C 
ENDBRANCH  23  28
ENDBRANCH  21  22
ENDBRANCH   9  21
ENDBRANCH   6   8
ENDBRANCH   5   6
ENDBRANCH   4   5
ENDBRANCH   3   4
ENDBRANCH   2   3
ENDBRANCH   1   2
BRANCH   1  30
ATOM     30  C   UNL A   1      34.086  31.155  28.047  1.00  0.00     0.188 C 
BRANCH  30  31
ATOM     31  O   UNL A   1      35.235  31.889  27.623  1.00  0.00    -0.376 OA
BRANCH  31  32
ATOM     32  C   UNL A   1      35.702  32.757  28.657  1.00  0.00     0.202 C 
BRANCH  32  33
ATOM     33  C   UNL A   1      35.249  32.288  30.046  1.00  0.00     0.261 C 
BRANCH  33  34
ATOM     34  O   UNL A   1      36.297  31.758  30.892  1.00  0.00    -0.460 OA
BRANCH  34  35
ATOM     35  C   UNL A   1      36.626  30.459  30.710  1.00  0.00     0.338 C 
ATOM     36  O   UNL A   1      35.873  29.498  30.799  1.00  0.00    -0.246 OA
BRANCH  35  37
ATOM     37  C   UNL A   1      38.059  30.333  30.355  1.00  0.00     0.060 A 
ATOM     38  C   UNL A   1      38.412  30.276  29.008  1.00  0.00     0.016 A 
ATOM     39  C   UNL A   1      39.046  30.140  31.325  1.00  0.00     0.016 A 
ATOM     40  C   UNL A   1      39.728  30.082  28.605  1.00  0.00     0.010 A 
ATOM     41  C   UNL A   1      40.369  29.873  30.925  1.00  0.00     0.010 A 
ATOM     42  C   UNL A   1      40.712  29.832  29.563  1.00  0.00    -0.014 A 
BRANCH  42  43
ATOM     43  C   UNL A   1      42.041  29.380  29.088  1.00  0.00     0.031 A 
ATOM     44  C   UNL A   1      43.224  30.291  29.267  1.00  0.00     0.074 A 
ATOM     45  C   UNL A   1      42.216  28.132  28.618  1.00  0.00     0.049 A 
ATOM     46  N   UNL A   1      44.464  30.118  28.898  1.00  0.00    -0.248 NA
ATOM     47  C   UNL A   1      42.976  31.563  29.968  1.00  0.00     0.031 C 
ATOM     48  C   UNL A   1      41.164  27.124  28.520  1.00  0.00     0.029 A 
ATOM     49  N   UNL A   1      43.344  27.488  28.171  1.00  0.00    -0.354 N 
ATOM     50  C   UNL A   1      45.133  31.279  29.266  1.00  0.00     0.074 A 
ATOM     51  C   UNL A   1      44.174  32.127  29.940  1.00  0.00     0.031 C 
ATOM     52  C   UNL A   1      41.703  25.980  28.068  1.00  0.00     0.029 A 
ATOM     53  C   UNL A   1      43.129  26.174  27.825  1.00  0.00     0.049 A 
ATOM     54  H   UNL A   1      44.223  27.926  28.104  1.00  0.00     0.167 HD
ATOM     55  C   UNL A   1      46.420  31.619  29.018  1.00  0.00     0.037 A 
ATOM     56  C   UNL A   1      43.983  25.238  27.361  1.00  0.00     0.037 A 
ATOM     57  C   UNL A   1      47.357  30.765  28.338  1.00  0.00     0.049 A 
ATOM     58  C   UNL A   1      45.409  25.644  27.086  1.00  0.00     0.074 A 
ATOM     59  C   UNL A   1      48.654  31.047  27.945  1.00  0.00     0.029 A 
ATOM     60  N   UNL A   1      47.097  29.458  27.950  1.00  0.00    -0.354 N 
ATOM     61  N   UNL A   1      46.008  26.785  27.343  1.00  0.00    -0.248 NA
ATOM     62  C   UNL A   1      46.265  24.656  26.414  1.00  0.00     0.031 C 
ATOM     63  C   UNL A   1      49.163  29.923  27.284  1.00  0.00     0.029 A 
ATOM     64  C   UNL A   1      48.202  28.924  27.311  1.00  0.00     0.049 A 
ATOM     65  H   UNL A   1      46.250  28.980  28.108  1.00  0.00     0.167 HD
ATOM     66  C   UNL A   1      47.299  26.659  26.843  1.00  0.00     0.074 A 
ATOM     67  C   UNL A   1      47.414  25.313  26.319  1.00  0.00     0.031 C 
ATOM     68  C   UNL A   1      48.291  27.582  26.792  1.00  0.00     0.037 A 
BRANCH  55  69
ATOM     69  C   UNL A   1      46.847  33.012  29.380  1.00  0.00     0.058 A 
ATOM     70  C   UNL A   1      46.732  34.092  28.492  1.00  0.00     0.135 A 
ATOM     71  C   UNL A   1      47.377  33.266  30.656  1.00  0.00     0.135 A 
ATOM     72  F   UNL A   1      46.260  33.899  27.250  1.00  0.00    -0.206 F 
ATOM     73  C   UNL A   1      47.141  35.373  28.853  1.00  0.00     0.059 A 
ATOM     74  C   UNL A   1      47.772  34.539  31.046  1.00  0.00     0.059 A 
ATOM     75  F   UNL A   1      47.519  32.263  31.538  1.00  0.00    -0.206 F 
ATOM     76  C   UNL A   1      47.660  35.587  30.134  1.00  0.00     0.060 A 
BRANCH  76  77
ATOM     77  S   UNL A   1      48.185  37.252  30.592  1.00  0.00     0.124 S 
ATOM     78  O   UNL A   1      48.643  37.047  31.964  1.00  0.00    -0.237 OA
ATOM     79  O   UNL A   1      49.228  37.532  29.611  1.00  0.00    -0.237 OA
ATOM     80  O   UNL A   1      46.967  38.044  30.451  1.00  0.00    -0.744 OA
ENDBRANCH  76  77
ENDBRANCH  55  69
BRANCH  56  81
ATOM     81  C   UNL A   1      43.525  23.843  27.092  1.00  0.00     0.058 A 
ATOM     82  C   UNL A   1      43.199  23.426  25.791  1.00  0.00     0.135 A 
ATOM     83  C   UNL A   1      43.378  22.903  28.125  1.00  0.00     0.135 A 
ATOM     84  F   UNL A   1      43.297  24.286  24.764  1.00  0.00    -0.206 F 
ATOM     85  C   UNL A   1      42.733  22.140  25.526  1.00  0.00     0.059 A 
ATOM     86  C   UNL A   1      42.946  21.602  27.881  1.00  0.00     0.059 A 
ATOM     87  F   UNL A   1      43.668  23.242  29.391  1.00  0.00    -0.206 F 
ATOM     88  C   UNL A   1      42.608  21.234  26.579  1.00  0.00     0.060 A 
BRANCH  88  89
ATOM     89  S   UNL A   1      42.030  19.558  26.236  1.00  0.00     0.124 S 
ATOM     90  O   UNL A   1      40.593  19.769  26.093  1.00  0.00    -0.237 OA
ATOM     91  O   UNL A   1      42.748  19.220  25.011  1.00  0.00    -0.237 OA
ATOM     92  O   UNL A   1      42.443  18.813  27.422  1.00  0.00    -0.744 OA
ENDBRANCH  88  89
ENDBRANCH  56  81
BRANCH  68  93
ATOM     93  C   UNL A   1      49.580  27.173  26.138  1.00  0.00     0.058 A 
ATOM     94  C   UNL A   1      50.609  26.562  26.872  1.00  0.00     0.135 A 
ATOM     95  C   UNL A   1      49.763  27.334  24.755  1.00  0.00     0.135 A 
ATOM     96  F   UNL A   1      50.481  26.388  28.197  1.00  0.00    -0.206 F 
ATOM     97  C   UNL A   1      51.786  26.144  26.262  1.00  0.00     0.059 A 
ATOM     98  C   UNL A   1      50.924  26.901  24.121  1.00  0.00     0.059 A 
ATOM     99  F   UNL A   1      48.805  27.900  24.007  1.00  0.00    -0.206 F 
ATOM    100  C   UNL A   1      51.934  26.317  24.885  1.00  0.00     0.060 A 
BRANCH 100 101
ATOM    101  S   UNL A   1      53.452  25.738  24.098  1.00  0.00     0.124 S 
ATOM    102  O   UNL A   1      53.124  25.880  22.684  1.00  0.00    -0.237 OA
ATOM    103  O   UNL A   1      54.449  26.672  24.615  1.00  0.00    -0.237 OA
ATOM    104  O   UNL A   1      53.581  24.365  24.580  1.00  0.00    -0.744 OA
ENDBRANCH 100 101
ENDBRANCH  68  93
ENDBRANCH  42  43
ENDBRANCH  35  37
ENDBRANCH  34  35
ENDBRANCH  33  34
ENDBRANCH  32  33
ENDBRANCH  31  32
ENDBRANCH  30  31
ENDBRANCH   1  30
TORSDOF 23
ENDMDL
MODEL 2
REMARK VINA RESULT:      -9.5      6.589     13.816
REMARK SMILES COc1cccc(C[N@@H+]2C[C@H](C(=O)OCCOCCOCCOC(=O)c3ccc(-c4c5nc(c(-c6c(F)cc(S(=O)(=O)[O-])cc6F)c6ccc([nH]6)c(-c6c(F)cc(S(=O)(=O)[O-])cc6F)c6nc(c(-c7c(F)cc(S(=O)(=O)[O-])cc7F)c7ccc4[nH]7)C=C6)C=C5)cc3)C3(CC[NH+](C)CC3)C2)c1
REMARK SMILES IDX 18 1 17 2 16 3 15 4 14 5 12 6 13 7 11 8 9 9 10 10 99 11
REMARK SMILES IDX 92 13 93 14 98 15 94 16 97 17 95 18 96 19 8 21 7 22 3 23
REMARK SMILES IDX 4 24 100 25 5 26 6 27 2 28 1 29 19 30 20 31 21 32 22 33
REMARK SMILES IDX 23 34 24 35 25 36 26 37 27 38 91 39 28 40 90 41 29 42 30 43
REMARK SMILES IDX 31 44 84 45 32 46 89 47 83 48 85 49 33 50 88 51 82 52 81 53
REMARK SMILES IDX 34 55 68 56 47 57 67 58 48 59 51 60 66 61 86 62 49 63 50 64
REMARK SMILES IDX 65 66 87 67 52 68 35 69 36 70 45 71 37 72 38 73 44 74 46 75
REMARK SMILES IDX 39 76 40 77 41 78 42 79 43 80 69 81 70 82 79 83 71 84 72 85
REMARK SMILES IDX 78 86 80 87 73 88 74 89 75 90 76 91 77 92 53 93 54 94 63 95
REMARK SMILES IDX 55 96 56 97 62 98 64 99 57 100 58 101 59 102 60 103 61 104
REMARK H PARENT 9 12 95 20 85 54 51 65
REMARK Flexibility Score: inf
ROOT
ATOM      1  C   UNL A   1      45.751  23.625  24.969  1.00  0.00     0.188 C 
ENDROOT
BRANCH   1   2
ATOM      2  O   UNL A   1      45.569  24.990  24.602  1.00  0.00    -0.376 OA
BRANCH   2   3
ATOM      3  C   UNL A   1      45.780  25.966  25.613  1.00  0.00     0.202 C 
BRANCH   3   4
ATOM      4  C   UNL A   1      46.783  27.080  25.283  1.00  0.00     0.261 C 
BRANCH   4   5
ATOM      5  O   UNL A   1      46.997  28.070  26.317  1.00  0.00    -0.463 OA
BRANCH   5   6
ATOM      6  C   UNL A   1      48.310  28.373  26.569  1.00  0.00     0.315 C 
ATOM      7  O   UNL A   1      48.994  29.048  25.823  1.00  0.00    -0.252 OA
BRANCH   6   8
ATOM      8  C   UNL A   1      48.825  27.667  27.832  1.00  0.00     0.166 C 
ATOM      9  N   UNL A   1      47.487  26.137  29.159  1.00  0.00    -0.330 N 
ATOM     10  C   UNL A   1      47.626  27.531  28.776  1.00  0.00     0.278 C 
ATOM     11  C   UNL A   1      48.588  25.348  28.646  1.00  0.00     0.271 C 
ATOM     12  H   UNL A   1      47.562  26.131  30.176  1.00  0.00     0.348 HD
ATOM     13  C   UNL A   1      49.456  26.244  27.739  1.00  0.00     0.049 C 
ATOM     14  C   UNL A   1      50.908  26.219  28.301  1.00  0.00     0.075 C 
ATOM     15  C   UNL A   1      49.509  25.656  26.319  1.00  0.00     0.075 C 
ATOM     16  C   UNL A   1      51.933  26.890  27.389  1.00  0.00     0.262 C 
ATOM     17  C   UNL A   1      50.566  26.372  25.488  1.00  0.00     0.262 C 
ATOM     18  N   UNL A   1      51.927  26.368  26.025  1.00  0.00    -0.337 N 
ATOM     19  C   UNL A   1      52.608  25.082  25.912  1.00  0.00     0.332 C 
ATOM     20  H   UNL A   1      52.478  26.994  25.436  1.00  0.00     0.347 HD
BRANCH   9  21
ATOM     21  C   UNL A   1      46.155  25.536  29.036  1.00  0.00     0.299 C 
BRANCH  21  22
ATOM     22  C   UNL A   1      45.520  24.987  30.297  1.00  0.00     0.010 A 
ATOM     23  C   UNL A   1      45.395  24.881  32.728  1.00  0.00     0.119 A 
ATOM     24  C   UNL A   1      44.370  23.944  32.630  1.00  0.00     0.046 A 
ATOM     25  C   UNL A   1      45.976  25.394  31.567  1.00  0.00     0.056 A 
ATOM     26  C   UNL A   1      43.895  23.546  31.386  1.00  0.00     0.004 A 
ATOM     27  C   UNL A   1      44.458  24.077  30.228  1.00  0.00     0.010 A 
BRANCH  23  28
ATOM     28  O   UNL A   1      45.807  25.175  33.997  1.00  0.00    -0.497 OA
ATOM     29  C   UNL A   1      45.542  24.174  34.973  1.00  0.00     0.278 C 
ENDBRANCH  23  28
ENDBRANCH  21  22
ENDBRANCH   9  21
ENDBRANCH   6   8
ENDBRANCH   5   6
ENDBRANCH   4   5
ENDBRANCH   3   4
ENDBRANCH   2   3
ENDBRANCH   1   2
BRANCH   1  30
ATOM     30  C   UNL A   1      44.995  22.593  24.127  1.00  0.00     0.188 C 
BRANCH  30  31
ATOM     31  O   UNL A   1      43.583  22.765  24.257  1.00  0.00    -0.376 OA
BRANCH  31  32
ATOM     32  C   UNL A   1      43.102  22.176  25.466  1.00  0.00     0.202 C 
BRANCH  32  33
ATOM     33  C   UNL A   1      42.057  23.062  26.159  1.00  0.00     0.261 C 
BRANCH  33  34
ATOM     34  O   UNL A   1      42.571  24.284  26.739  1.00  0.00    -0.460 OA
BRANCH  34  35
ATOM     35  C   UNL A   1      42.099  25.444  26.230  1.00  0.00     0.338 C 
ATOM     36  O   UNL A   1      42.015  25.737  25.044  1.00  0.00    -0.246 OA
BRANCH  35  37
ATOM     37  C   UNL A   1      41.658  26.346  27.319  1.00  0.00     0.060 A 
ATOM     38  C   UNL A   1      42.247  27.605  27.425  1.00  0.00     0.016 A 
ATOM     39  C   UNL A   1      40.772  25.925  28.313  1.00  0.00     0.016 A 
ATOM     40  C   UNL A   1      41.936  28.472  28.466  1.00  0.00     0.010 A 
ATOM     41  C   UNL A   1      40.505  26.769  29.408  1.00  0.00     0.010 A 
ATOM     42  C   UNL A   1      41.096  28.041  29.493  1.00  0.00    -0.014 A 
BRANCH  42  43
ATOM     43  C   UNL A   1      40.992  28.889  30.705  1.00  0.00     0.031 A 
ATOM     44  C   UNL A   1      39.852  29.863  30.812  1.00  0.00     0.074 A 
ATOM     45  C   UNL A   1      41.826  28.709  31.744  1.00  0.00     0.049 A 
ATOM     46  N   UNL A   1      39.586  30.724  31.758  1.00  0.00    -0.248 NA
ATOM     47  C   UNL A   1      38.873  29.857  29.711  1.00  0.00     0.031 C 
ATOM     48  C   UNL A   1      42.887  27.708  31.797  1.00  0.00     0.029 A 
ATOM     49  N   UNL A   1      41.891  29.335  32.966  1.00  0.00    -0.354 N 
ATOM     50  C   UNL A   1      38.447  31.402  31.342  1.00  0.00     0.074 A 
ATOM     51  C   UNL A   1      38.037  30.814  30.085  1.00  0.00     0.031 C 
ATOM     52  C   UNL A   1      43.480  27.768  33.001  1.00  0.00     0.029 A 
ATOM     53  C   UNL A   1      42.859  28.822  33.798  1.00  0.00     0.049 A 
ATOM     54  H   UNL A   1      41.301  30.080  33.221  1.00  0.00     0.167 HD
ATOM     55  C   UNL A   1      37.832  32.450  31.938  1.00  0.00     0.037 A 
ATOM     56  C   UNL A   1      43.207  29.165  35.056  1.00  0.00     0.037 A 
ATOM     57  C   UNL A   1      38.260  33.027  33.185  1.00  0.00     0.049 A 
ATOM     58  C   UNL A   1      42.512  30.343  35.693  1.00  0.00     0.074 A 
ATOM     59  C   UNL A   1      37.773  34.152  33.827  1.00  0.00     0.029 A 
ATOM     60  N   UNL A   1      39.277  32.521  33.981  1.00  0.00    -0.354 N 
ATOM     61  N   UNL A   1      41.499  31.047  35.243  1.00  0.00    -0.248 NA
ATOM     62  C   UNL A   1      43.036  30.805  36.986  1.00  0.00     0.031 C 
ATOM     63  C   UNL A   1      38.524  34.348  34.992  1.00  0.00     0.029 A 
ATOM     64  C   UNL A   1      39.444  33.316  35.101  1.00  0.00     0.049 A 
ATOM     65  H   UNL A   1      39.803  31.713  33.779  1.00  0.00     0.167 HD
ATOM     66  C   UNL A   1      41.282  32.047  36.185  1.00  0.00     0.074 A 
ATOM     67  C   UNL A   1      42.231  31.823  37.256  1.00  0.00     0.031 C 
ATOM     68  C   UNL A   1      40.400  33.076  36.153  1.00  0.00     0.037 A 
BRANCH  55  69
ATOM     69  C   UNL A   1      36.711  33.109  31.187  1.00  0.00     0.058 A 
ATOM     70  C   UNL A   1      36.915  33.827  30.000  1.00  0.00     0.135 A 
ATOM     71  C   UNL A   1      35.396  33.006  31.673  1.00  0.00     0.135 A 
ATOM     72  F   UNL A   1      38.155  33.982  29.509  1.00  0.00    -0.206 F 
ATOM     73  C   UNL A   1      35.857  34.432  29.328  1.00  0.00     0.059 A 
ATOM     74  C   UNL A   1      34.321  33.582  31.008  1.00  0.00     0.059 A 
ATOM     75  F   UNL A   1      35.149  32.340  32.812  1.00  0.00    -0.206 F 
ATOM     76  C   UNL A   1      34.562  34.304  29.840  1.00  0.00     0.060 A 
BRANCH  76  77
ATOM     77  S   UNL A   1      33.196  35.090  28.958  1.00  0.00     0.124 S 
ATOM     78  O   UNL A   1      32.217  35.258  30.028  1.00  0.00    -0.237 OA
ATOM     79  O   UNL A   1      33.810  36.318  28.463  1.00  0.00    -0.237 OA
ATOM     80  O   UNL A   1      32.844  34.112  27.934  1.00  0.00    -0.744 OA
ENDBRANCH  76  77
ENDBRANCH  55  69
BRANCH  56  81
ATOM     81  C   UNL A   1      44.276  28.426  35.788  1.00  0.00     0.058 A 
ATOM     82  C   UNL A   1      43.956  27.420  36.715  1.00  0.00     0.135 A 
ATOM     83  C   UNL A   1      45.636  28.720  35.603  1.00  0.00     0.135 A 
ATOM     84  F   UNL A   1      42.672  27.109  36.954  1.00  0.00    -0.206 F 
ATOM     85  C   UNL A   1      44.938  26.746  37.438  1.00  0.00     0.059 A 
ATOM     86  C   UNL A   1      46.638  28.038  36.288  1.00  0.00     0.059 A 
ATOM     87  F   UNL A   1      46.007  29.675  34.735  1.00  0.00    -0.206 F 
ATOM     88  C   UNL A   1      46.279  27.063  37.218  1.00  0.00     0.060 A 
BRANCH  88  89
ATOM     89  S   UNL A   1      47.556  26.172  38.133  1.00  0.00     0.124 S 
ATOM     90  O   UNL A   1      48.465  27.255  38.492  1.00  0.00    -0.237 OA
ATOM     91  O   UNL A   1      46.803  25.582  39.234  1.00  0.00    -0.237 OA
ATOM     92  O   UNL A   1      48.067  25.220  37.150  1.00  0.00    -0.744 OA
ENDBRANCH  88  89
ENDBRANCH  56  81
BRANCH  68  93
ATOM     93  C   UNL A   1      40.428  34.044  37.301  1.00  0.00     0.058 A 
ATOM     94  C   UNL A   1      41.296  35.148  37.303  1.00  0.00     0.135 A 
ATOM     95  C   UNL A   1      39.538  33.905  38.377  1.00  0.00     0.135 A 
ATOM     96  F   UNL A   1      42.167  35.323  36.297  1.00  0.00    -0.206 F 
ATOM     97  C   UNL A   1      41.296  36.069  38.344  1.00  0.00     0.059 A 
ATOM     98  C   UNL A   1      39.505  34.828  39.418  1.00  0.00     0.059 A 
ATOM     99  F   UNL A   1      38.679  32.874  38.417  1.00  0.00    -0.206 F 
ATOM    100  C   UNL A   1      40.395  35.902  39.397  1.00  0.00     0.060 A 
BRANCH 100 101
ATOM    101  S   UNL A   1      40.380  37.124  40.725  1.00  0.00     0.124 S 
ATOM    102  O   UNL A   1      40.400  38.375  39.974  1.00  0.00    -0.237 OA
ATOM    103  O   UNL A   1      39.131  36.820  41.418  1.00  0.00    -0.237 OA
ATOM    104  O   UNL A   1      41.595  36.823  41.477  1.00  0.00    -0.744 OA
ENDBRANCH 100 101
ENDBRANCH  68  93
ENDBRANCH  42  43
ENDBRANCH  35  37
ENDBRANCH  34  35
ENDBRANCH  33  34
ENDBRANCH  32  33
ENDBRANCH  31  32
ENDBRANCH  30  31
ENDBRANCH   1  30
TORSDOF 23
ENDMDL
MODEL 3
REMARK VINA RESULT:      -9.1      1.695      2.439
REMARK SMILES COc1cccc(C[N@@H+]2C[C@H](C(=O)OCCOCCOCCOC(=O)c3ccc(-c4c5nc(c(-c6c(F)cc(S(=O)(=O)[O-])cc6F)c6ccc([nH]6)c(-c6c(F)cc(S(=O)(=O)[O-])cc6F)c6nc(c(-c7c(F)cc(S(=O)(=O)[O-])cc7F)c7ccc4[nH]7)C=C6)C=C5)cc3)C3(CC[NH+](C)CC3)C2)c1
REMARK SMILES IDX 18 1 17 2 16 3 15 4 14 5 12 6 13 7 11 8 9 9 10 10 99 11
REMARK SMILES IDX 92 13 93 14 98 15 94 16 97 17 95 18 96 19 8 21 7 22 3 23
REMARK SMILES IDX 4 24 100 25 5 26 6 27 2 28 1 29 19 30 20 31 21 32 22 33
REMARK SMILES IDX 23 34 24 35 25 36 26 37 27 38 91 39 28 40 90 41 29 42 30 43
REMARK SMILES IDX 31 44 84 45 32 46 89 47 83 48 85 49 33 50 88 51 82 52 81 53
REMARK SMILES IDX 34 55 68 56 47 57 67 58 48 59 51 60 66 61 86 62 49 63 50 64
REMARK SMILES IDX 65 66 87 67 52 68 35 69 36 70 45 71 37 72 38 73 44 74 46 75
REMARK SMILES IDX 39 76 40 77 41 78 42 79 43 80 69 81 70 82 79 83 71 84 72 85
REMARK SMILES IDX 78 86 80 87 73 88 74 89 75 90 76 91 77 92 53 93 54 94 63 95
REMARK SMILES IDX 55 96 56 97 62 98 64 99 57 100 58 101 59 102 60 103 61 104
REMARK H PARENT 9 12 95 20 85 54 51 65
REMARK Flexibility Score: inf
ROOT
ATOM      1  C   UNL A   1      34.232  30.736  27.599  1.00  0.00     0.188 C 
ENDROOT
BRANCH   1   2
ATOM      2  O   UNL A   1      33.741  29.720  26.729  1.00  0.00    -0.376 OA
BRANCH   2   3
ATOM      3  C   UNL A   1      34.255  28.408  26.910  1.00  0.00     0.202 C 
BRANCH   3   4
ATOM      4  C   UNL A   1      33.496  27.277  26.202  1.00  0.00     0.261 C 
BRANCH   4   5
ATOM      5  O   UNL A   1      33.980  26.912  24.888  1.00  0.00    -0.463 OA
BRANCH   5   6
ATOM      6  C   UNL A   1      33.485  27.667  23.856  1.00  0.00     0.315 C 
ATOM      7  O   UNL A   1      33.933  28.756  23.552  1.00  0.00    -0.252 OA
BRANCH   6   8
ATOM      8  C   UNL A   1      32.244  27.022  23.222  1.00  0.00     0.166 C 
ATOM      9  N   UNL A   1      31.196  25.002  24.069  1.00  0.00    -0.330 N 
ATOM     10  C   UNL A   1      32.391  25.509  23.416  1.00  0.00     0.278 C 
ATOM     11  C   UNL A   1      30.200  26.045  24.206  1.00  0.00     0.271 C 
ATOM     12  H   UNL A   1      30.816  24.307  23.426  1.00  0.00     0.348 HD
ATOM     13  C   UNL A   1      30.817  27.379  23.740  1.00  0.00     0.049 C 
ATOM     14  C   UNL A   1      29.915  27.945  22.603  1.00  0.00     0.075 C 
ATOM     15  C   UNL A   1      30.788  28.400  24.890  1.00  0.00     0.075 C 
ATOM     16  C   UNL A   1      30.276  29.368  22.180  1.00  0.00     0.262 C 
ATOM     17  C   UNL A   1      31.142  29.789  24.376  1.00  0.00     0.262 C 
ATOM     18  N   UNL A   1      30.310  30.313  23.294  1.00  0.00    -0.337 N 
ATOM     19  C   UNL A   1      28.977  30.732  23.716  1.00  0.00     0.332 C 
ATOM     20  H   UNL A   1      30.752  31.175  22.972  1.00  0.00     0.347 HD
BRANCH   9  21
ATOM     21  C   UNL A   1      31.385  24.138  25.238  1.00  0.00     0.299 C 
BRANCH  21  22
ATOM     22  C   UNL A   1      32.382  23.004  25.111  1.00  0.00     0.010 A 
ATOM     23  C   UNL A   1      34.608  22.093  25.496  1.00  0.00     0.119 A 
ATOM     24  C   UNL A   1      34.236  20.920  24.845  1.00  0.00     0.046 A 
ATOM     25  C   UNL A   1      33.688  23.135  25.621  1.00  0.00     0.056 A 
ATOM     26  C   UNL A   1      32.945  20.765  24.354  1.00  0.00     0.004 A 
ATOM     27  C   UNL A   1      32.020  21.796  24.501  1.00  0.00     0.010 A 
BRANCH  23  28
ATOM     28  O   UNL A   1      35.909  22.152  25.908  1.00  0.00    -0.497 OA
ATOM     29  C   UNL A   1      36.511  23.440  25.854  1.00  0.00     0.278 C 
ENDBRANCH  23  28
ENDBRANCH  21  22
ENDBRANCH   9  21
ENDBRANCH   6   8
ENDBRANCH   5   6
ENDBRANCH   4   5
ENDBRANCH   3   4
ENDBRANCH   2   3
ENDBRANCH   1   2
BRANCH   1  30
ATOM     30  C   UNL A   1      33.421  32.034  27.647  1.00  0.00     0.188 C 
BRANCH  30  31
ATOM     31  O   UNL A   1      34.234  33.129  28.071  1.00  0.00    -0.376 OA
BRANCH  31  32
ATOM     32  C   UNL A   1      35.617  32.770  28.077  1.00  0.00     0.202 C 
BRANCH  32  33
ATOM     33  C   UNL A   1      36.300  33.143  29.400  1.00  0.00     0.261 C 
BRANCH  33  34
ATOM     34  O   UNL A   1      36.765  32.025  30.192  1.00  0.00    -0.460 OA
BRANCH  34  35
ATOM     35  C   UNL A   1      37.523  32.319  31.273  1.00  0.00     0.338 C 
ATOM     36  O   UNL A   1      37.164  32.938  32.266  1.00  0.00    -0.246 OA
BRANCH  35  37
ATOM     37  C   UNL A   1      38.886  31.762  31.116  1.00  0.00     0.060 A 
ATOM     38  C   UNL A   1      39.763  32.381  30.226  1.00  0.00     0.016 A 
ATOM     39  C   UNL A   1      39.272  30.568  31.730  1.00  0.00     0.016 A 
ATOM     40  C   UNL A   1      41.030  31.868  29.973  1.00  0.00     0.010 A 
ATOM     41  C   UNL A   1      40.525  30.005  31.426  1.00  0.00     0.010 A 
ATOM     42  C   UNL A   1      41.404  30.647  30.537  1.00  0.00    -0.014 A 
BRANCH  42  43
ATOM     43  C   UNL A   1      42.650  30.011  30.047  1.00  0.00     0.031 A 
ATOM     44  C   UNL A   1      43.963  30.699  30.297  1.00  0.00     0.074 A 
ATOM     45  C   UNL A   1      42.625  28.783  29.497  1.00  0.00     0.049 A 
ATOM     46  N   UNL A   1      45.165  30.345  29.929  1.00  0.00    -0.248 NA
ATOM     47  C   UNL A   1      43.915  31.947  31.078  1.00  0.00     0.031 C 
ATOM     48  C   UNL A   1      41.422  27.973  29.322  1.00  0.00     0.029 A 
ATOM     49  N   UNL A   1      43.639  27.990  29.020  1.00  0.00    -0.354 N 
ATOM     50  C   UNL A   1      46.009  31.352  30.380  1.00  0.00     0.074 A 
ATOM     51  C   UNL A   1      45.191  32.304  31.099  1.00  0.00     0.031 C 
ATOM     52  C   UNL A   1      41.774  26.786  28.801  1.00  0.00     0.029 A 
ATOM     53  C   UNL A   1      43.217  26.754  28.585  1.00  0.00     0.049 A 
ATOM     54  H   UNL A   1      44.580  28.278  28.991  1.00  0.00     0.167 HD
ATOM     55  C   UNL A   1      47.340  31.487  30.168  1.00  0.00     0.037 A 
ATOM     56  C   UNL A   1      43.913  25.720  28.070  1.00  0.00     0.037 A 
ATOM     57  C   UNL A   1      48.136  30.534  29.442  1.00  0.00     0.049 A 
ATOM     58  C   UNL A   1      45.392  25.900  27.836  1.00  0.00     0.074 A 
ATOM     59  C   UNL A   1      49.469  30.619  29.082  1.00  0.00     0.029 A 
ATOM     60  N   UNL A   1      47.671  29.316  28.966  1.00  0.00    -0.354 N 
ATOM     61  N   UNL A   1      46.166  26.906  28.173  1.00  0.00    -0.248 NA
ATOM     62  C   UNL A   1      46.086  24.828  27.108  1.00  0.00     0.031 C 
ATOM     63  C   UNL A   1      49.799  29.471  28.353  1.00  0.00     0.029 A 
ATOM     64  C   UNL A   1      48.685  28.647  28.304  1.00  0.00     0.049 A 
ATOM     65  H   UNL A   1      46.754  28.977  29.084  1.00  0.00     0.167 HD
ATOM     66  C   UNL A   1      47.429  26.598  27.679  1.00  0.00     0.074 A 
ATOM     67  C   UNL A   1      47.329  25.288  27.069  1.00  0.00     0.031 C 
ATOM     68  C   UNL A   1      48.561  27.344  27.699  1.00  0.00     0.037 A 
BRANCH  55  69
ATOM     69  C   UNL A   1      47.984  32.764  30.625  1.00  0.00     0.058 A 
ATOM     70  C   UNL A   1      48.051  33.908  29.816  1.00  0.00     0.135 A 
ATOM     71  C   UNL A   1      48.541  32.838  31.913  1.00  0.00     0.135 A 
ATOM     72  F   UNL A   1      47.562  33.882  28.566  1.00  0.00    -0.206 F 
ATOM     73  C   UNL A   1      48.660  35.077  30.265  1.00  0.00     0.059 A 
ATOM     74  C   UNL A   1      49.133  34.000  32.390  1.00  0.00     0.059 A 
ATOM     75  F   UNL A   1      48.513  31.765  32.721  1.00  0.00    -0.206 F 
ATOM     76  C   UNL A   1      49.198  35.113  31.554  1.00  0.00     0.060 A 
BRANCH  76  77
ATOM     77  S   UNL A   1      49.983  36.635  32.127  1.00  0.00     0.124 S 
ATOM     78  O   UNL A   1      50.516  36.220  33.421  1.00  0.00    -0.237 OA
ATOM     79  O   UNL A   1      50.973  36.887  31.084  1.00  0.00    -0.237 OA
ATOM     80  O   UNL A   1      48.878  37.588  32.181  1.00  0.00    -0.744 OA
ENDBRANCH  76  77
ENDBRANCH  55  69
BRANCH  56  81
ATOM     81  C   UNL A   1      43.236  24.441  27.705  1.00  0.00     0.058 A 
ATOM     82  C   UNL A   1      42.715  24.240  26.416  1.00  0.00     0.135 A 
ATOM     83  C   UNL A   1      43.069  23.403  28.635  1.00  0.00     0.135 A 
ATOM     84  F   UNL A   1      42.822  25.205  25.488  1.00  0.00    -0.206 F 
ATOM     85  C   UNL A   1      42.045  23.068  26.067  1.00  0.00     0.059 A 
ATOM     86  C   UNL A   1      42.433  22.210  28.302  1.00  0.00     0.059 A 
ATOM     87  F   UNL A   1      43.540  23.537  29.885  1.00  0.00    -0.206 F 
ATOM     88  C   UNL A   1      41.908  22.058  27.020  1.00  0.00     0.060 A 
BRANCH  88  89
ATOM     89  S   UNL A   1      41.064  20.527  26.565  1.00  0.00     0.124 S 
ATOM     90  O   UNL A   1      40.914  19.880  27.864  1.00  0.00    -0.237 OA
ATOM     91  O   UNL A   1      39.833  21.015  25.951  1.00  0.00    -0.237 OA
ATOM     92  O   UNL A   1      42.004  19.889  25.647  1.00  0.00    -0.744 OA
ENDBRANCH  88  89
ENDBRANCH  56  81
BRANCH  68  93
ATOM     93  C   UNL A   1      49.777  26.768  27.032  1.00  0.00     0.058 A 
ATOM     94  C   UNL A   1      50.008  26.945  25.658  1.00  0.00     0.135 A 
ATOM     95  C   UNL A   1      50.752  26.089  27.781  1.00  0.00     0.135 A 
ATOM     96  F   UNL A   1      49.105  27.585  24.899  1.00  0.00    -0.206 F 
ATOM     97  C   UNL A   1      51.153  26.449  25.045  1.00  0.00     0.059 A 
ATOM     98  C   UNL A   1      51.916  25.607  27.192  1.00  0.00     0.059 A 
ATOM     99  F   UNL A   1      50.584  25.905  29.100  1.00  0.00    -0.206 F 
ATOM    100  C   UNL A   1      52.103  25.782  25.821  1.00  0.00     0.060 A 
BRANCH 100 101
ATOM    101  S   UNL A   1      53.602  25.175  25.020  1.00  0.00     0.124 S 
ATOM    102  O   UNL A   1      53.578  23.763  25.384  1.00  0.00    -0.237 OA
ATOM    103  O   UNL A   1      53.349  25.472  23.613  1.00  0.00    -0.237 OA
ATOM    104  O   UNL A   1      54.662  25.967  25.639  1.00  0.00    -0.744 OA
ENDBRANCH 100 101
ENDBRANCH  68  93
ENDBRANCH  42  43
ENDBRANCH  35  37
ENDBRANCH  34  35
ENDBRANCH  33  34
ENDBRANCH  32  33
ENDBRANCH  31  32
ENDBRANCH  30  31
ENDBRANCH   1  30
TORSDOF 23
ENDMDL
