MODEL 1
REMARK VINA RESULT:     -11.4      0.000      0.000
REMARK SMILES NS(=O)(=O)c1ccc(N2N=C(C(=O)OCCOCCOCCOC(=O)c3ccc(-c4c5nc(c(-c6c(F)cc(S(=O)(=O)[O-])cc6F)c6ccc([nH]6)c(-c6c(F)cc(S(=O)(=O)[O-])cc6F)c6nc(c(-c7c(F)cc(S(=O)(=O)[O-])cc7F)c7ccc4[nH]7)C=C6)C=C5)cc3)C[C@H]2c2ccco2)cc1
REMARK SMILES IDX 18 1 17 2 16 3 15 4 14 5 12 6 13 7 11 8 9 9 10 10 93 11
REMARK SMILES IDX 92 12 8 13 5 14 6 15 100 16 7 17 99 18 2 19 3 20 4 21 1 22
REMARK SMILES IDX 94 25 95 26 98 27 96 28 97 29 19 30 20 31 21 32 22 33 23 34
REMARK SMILES IDX 24 35 25 36 26 37 27 38 91 39 28 40 90 41 29 42 30 43 31 44
REMARK SMILES IDX 84 45 32 46 89 47 83 48 85 49 33 50 88 51 82 52 81 53 34 55
REMARK SMILES IDX 68 56 47 57 67 58 48 59 51 60 66 61 86 62 49 63 50 64 65 66
REMARK SMILES IDX 87 67 52 68 35 69 36 70 45 71 37 72 38 73 44 74 46 75 39 76
REMARK SMILES IDX 40 77 41 78 42 79 43 80 69 81 70 82 79 83 71 84 72 85 78 86
REMARK SMILES IDX 80 87 73 88 74 89 75 90 76 91 77 92 53 93 54 94 63 95 55 96
REMARK SMILES IDX 56 97 62 98 64 99 57 100 58 101 59 102 60 103 61 104
REMARK H PARENT 1 23 1 24 85 54 51 65
REMARK Flexibility Score: inf
ROOT
ATOM      1  C   UNL A   1      35.118  22.128  24.301  1.00  0.00     0.188 C 
ENDROOT
BRANCH   1   2
ATOM      2  O   UNL A   1      34.288  20.968  24.331  1.00  0.00    -0.376 OA
BRANCH   2   3
ATOM      3  C   UNL A   1      33.514  20.691  25.496  1.00  0.00     0.202 C 
BRANCH   3   4
ATOM      4  C   UNL A   1      32.237  21.508  25.724  1.00  0.00     0.261 C 
BRANCH   4   5
ATOM      5  O   UNL A   1      32.465  22.653  26.559  1.00  0.00    -0.459 OA
BRANCH   5   6
ATOM      6  C   UNL A   1      31.405  23.472  26.714  1.00  0.00     0.354 C 
ATOM      7  O   UNL A   1      30.405  23.283  27.377  1.00  0.00    -0.245 OA
BRANCH   6   8
ATOM      8  C   UNL A   1      31.671  24.762  25.982  1.00  0.00     0.148 C 
ATOM      9  N   UNL A   1      31.369  26.639  25.050  1.00  0.00    -0.254 N 
ATOM     10  N   UNL A   1      30.748  25.647  25.756  1.00  0.00    -0.169 NA
ATOM     11  C   UNL A   1      32.688  26.217  24.541  1.00  0.00     0.180 C 
ATOM     12  C   UNL A   1      33.058  25.130  25.561  1.00  0.00     0.101 C 
BRANCH   9  13
ATOM     13  C   UNL A   1      30.590  27.618  24.439  1.00  0.00     0.060 A 
ATOM     14  C   UNL A   1      29.122  29.604  23.094  1.00  0.00     0.082 A 
ATOM     15  C   UNL A   1      30.248  29.960  23.837  1.00  0.00     0.024 A 
ATOM     16  C   UNL A   1      28.688  28.279  23.062  1.00  0.00     0.024 A 
ATOM     17  C   UNL A   1      30.978  28.965  24.500  1.00  0.00     0.029 A 
ATOM     18  C   UNL A   1      29.410  27.302  23.751  1.00  0.00     0.029 A 
BRANCH  14  19
ATOM     19  S   UNL A   1      28.248  30.828  22.163  1.00  0.00     0.238 S 
ATOM     20  O   UNL A   1      27.210  31.369  23.010  1.00  0.00    -0.207 OA
ATOM     21  O   UNL A   1      27.983  30.321  20.838  1.00  0.00    -0.207 OA
BRANCH  19  22
ATOM     22  N   UNL A   1      29.379  32.052  21.968  1.00  0.00    -0.225 NA
ATOM     23  H   UNL A   1      29.340  32.682  22.770  1.00  0.00     0.137 HD
ATOM     24  H   UNL A   1      29.172  32.574  21.116  1.00  0.00     0.137 HD
ENDBRANCH  19  22
ENDBRANCH  14  19
ENDBRANCH   9  13
BRANCH  11  25
ATOM     25  C   UNL A   1      32.760  25.687  23.134  1.00  0.00     0.128 A 
ATOM     26  C   UNL A   1      32.376  26.204  21.911  1.00  0.00     0.048 A 
ATOM     27  O   UNL A   1      33.307  24.447  22.950  1.00  0.00    -0.467 OA
ATOM     28  C   UNL A   1      32.685  25.220  20.941  1.00  0.00     0.042 A 
ATOM     29  C   UNL A   1      33.260  24.175  21.624  1.00  0.00     0.195 A 
ENDBRANCH  11  25
ENDBRANCH   6   8
ENDBRANCH   5   6
ENDBRANCH   4   5
ENDBRANCH   3   4
ENDBRANCH   2   3
ENDBRANCH   1   2
BRANCH   1  30
ATOM     30  C   UNL A   1      36.279  22.231  25.312  1.00  0.00     0.188 C 
BRANCH  30  31
ATOM     31  O   UNL A   1      37.166  23.303  25.058  1.00  0.00    -0.376 OA
BRANCH  31  32
ATOM     32  C   UNL A   1      38.035  23.700  26.108  1.00  0.00     0.202 C 
BRANCH  32  33
ATOM     33  C   UNL A   1      39.235  22.816  26.495  1.00  0.00     0.261 C 
BRANCH  33  34
ATOM     34  O   UNL A   1      40.117  23.318  27.509  1.00  0.00    -0.460 OA
BRANCH  34  35
ATOM     35  C   UNL A   1      41.041  24.234  27.137  1.00  0.00     0.338 C 
ATOM     36  O   UNL A   1      41.768  24.185  26.163  1.00  0.00    -0.246 OA
BRANCH  35  37
ATOM     37  C   UNL A   1      40.880  25.406  28.027  1.00  0.00     0.060 A 
ATOM     38  C   UNL A   1      41.951  26.293  28.187  1.00  0.00     0.016 A 
ATOM     39  C   UNL A   1      39.664  25.642  28.673  1.00  0.00     0.016 A 
ATOM     40  C   UNL A   1      41.811  27.415  29.010  1.00  0.00     0.010 A 
ATOM     41  C   UNL A   1      39.533  26.752  29.512  1.00  0.00     0.010 A 
ATOM     42  C   UNL A   1      40.611  27.634  29.701  1.00  0.00    -0.014 A 
BRANCH  42  43
ATOM     43  C   UNL A   1      40.524  28.703  30.727  1.00  0.00     0.031 A 
ATOM     44  C   UNL A   1      41.435  28.633  31.921  1.00  0.00     0.074 A 
ATOM     45  C   UNL A   1      39.649  29.718  30.602  1.00  0.00     0.049 A 
ATOM     46  N   UNL A   1      41.496  29.415  32.967  1.00  0.00    -0.248 NA
ATOM     47  C   UNL A   1      42.407  27.528  31.938  1.00  0.00     0.031 C 
ATOM     48  C   UNL A   1      38.737  29.915  29.476  1.00  0.00     0.029 A 
ATOM     49  N   UNL A   1      39.377  30.768  31.443  1.00  0.00    -0.354 N 
ATOM     50  C   UNL A   1      42.510  28.900  33.766  1.00  0.00     0.074 A 
ATOM     51  C   UNL A   1      43.016  27.720  33.099  1.00  0.00     0.031 C 
ATOM     52  C   UNL A   1      37.994  31.011  29.705  1.00  0.00     0.029 A 
ATOM     53  C   UNL A   1      38.354  31.575  31.005  1.00  0.00     0.049 A 
ATOM     54  H   UNL A   1      39.868  30.927  32.281  1.00  0.00     0.167 HD
ATOM     55  C   UNL A   1      42.981  29.372  34.944  1.00  0.00     0.037 A 
ATOM     56  C   UNL A   1      37.763  32.633  31.596  1.00  0.00     0.037 A 
ATOM     57  C   UNL A   1      42.469  30.542  35.608  1.00  0.00     0.049 A 
ATOM     58  C   UNL A   1      38.252  33.095  32.945  1.00  0.00     0.074 A 
ATOM     59  C   UNL A   1      42.892  31.112  36.796  1.00  0.00     0.029 A 
ATOM     60  N   UNL A   1      41.414  31.316  35.148  1.00  0.00    -0.354 N 
ATOM     61  N   UNL A   1      39.231  32.616  33.678  1.00  0.00    -0.248 NA
ATOM     62  C   UNL A   1      37.559  34.243  33.549  1.00  0.00     0.031 C 
ATOM     63  C   UNL A   1      42.061  32.202  37.079  1.00  0.00     0.029 A 
ATOM     64  C   UNL A   1      41.152  32.340  36.043  1.00  0.00     0.049 A 
ATOM     65  H   UNL A   1      40.924  31.160  34.308  1.00  0.00     0.167 HD
ATOM     66  C   UNL A   1      39.282  33.417  34.816  1.00  0.00     0.074 A 
ATOM     67  C   UNL A   1      38.246  34.417  34.670  1.00  0.00     0.031 C 
ATOM     68  C   UNL A   1      40.115  33.331  35.884  1.00  0.00     0.037 A 
BRANCH  55  69
ATOM     69  C   UNL A   1      44.089  28.601  35.605  1.00  0.00     0.058 A 
ATOM     70  C   UNL A   1      43.828  27.504  36.442  1.00  0.00     0.135 A 
ATOM     71  C   UNL A   1      45.430  28.950  35.382  1.00  0.00     0.135 A 
ATOM     72  F   UNL A   1      42.563  27.140  36.706  1.00  0.00    -0.206 F 
ATOM     73  C   UNL A   1      44.857  26.799  37.057  1.00  0.00     0.059 A 
ATOM     74  C   UNL A   1      46.476  28.242  35.965  1.00  0.00     0.059 A 
ATOM     75  F   UNL A   1      45.736  29.992  34.592  1.00  0.00    -0.206 F 
ATOM     76  C   UNL A   1      46.179  27.177  36.814  1.00  0.00     0.060 A 
BRANCH  76  77
ATOM     77  S   UNL A   1      47.505  26.255  37.622  1.00  0.00     0.124 S 
ATOM     78  O   UNL A   1      47.259  26.562  39.028  1.00  0.00    -0.237 OA
ATOM     79  O   UNL A   1      47.223  24.882  37.215  1.00  0.00    -0.237 OA
ATOM     80  O   UNL A   1      48.718  26.837  37.056  1.00  0.00    -0.744 OA
ENDBRANCH  76  77
ENDBRANCH  55  69
BRANCH  56  81
ATOM     81  C   UNL A   1      36.627  33.319  30.926  1.00  0.00     0.058 A 
ATOM     82  C   UNL A   1      36.834  34.157  29.821  1.00  0.00     0.135 A 
ATOM     83  C   UNL A   1      35.309  33.153  31.381  1.00  0.00     0.135 A 
ATOM     84  F   UNL A   1      38.077  34.362  29.358  1.00  0.00    -0.206 F 
ATOM     85  C   UNL A   1      35.778  34.816  29.198  1.00  0.00     0.059 A 
ATOM     86  C   UNL A   1      34.233  33.780  30.759  1.00  0.00     0.059 A 
ATOM     87  F   UNL A   1      35.056  32.358  32.433  1.00  0.00    -0.206 F 
ATOM     88  C   UNL A   1      34.480  34.618  29.672  1.00  0.00     0.060 A 
BRANCH  88  89
ATOM     89  S   UNL A   1      33.113  35.441  28.827  1.00  0.00     0.124 S 
ATOM     90  O   UNL A   1      33.817  36.442  28.033  1.00  0.00    -0.237 OA
ATOM     91  O   UNL A   1      32.508  34.344  28.078  1.00  0.00    -0.237 OA
ATOM     92  O   UNL A   1      32.304  35.963  29.924  1.00  0.00    -0.744 OA
ENDBRANCH  88  89
ENDBRANCH  56  81
BRANCH  68  93
ATOM     93  C   UNL A   1      39.958  34.358  36.972  1.00  0.00     0.058 A 
ATOM     94  C   UNL A   1      40.584  35.612  36.897  1.00  0.00     0.135 A 
ATOM     95  C   UNL A   1      39.127  34.107  38.076  1.00  0.00     0.135 A 
ATOM     96  F   UNL A   1      41.395  35.902  35.865  1.00  0.00    -0.206 F 
ATOM     97  C   UNL A   1      40.409  36.573  37.887  1.00  0.00     0.059 A 
ATOM     98  C   UNL A   1      38.916  35.063  39.065  1.00  0.00     0.059 A 
ATOM     99  F   UNL A   1      38.494  32.929  38.191  1.00  0.00    -0.206 F 
ATOM    100  C   UNL A   1      39.571  36.290  38.967  1.00  0.00     0.060 A 
BRANCH 100 101
ATOM    101  S   UNL A   1      39.324  37.557  40.230  1.00  0.00     0.124 S 
ATOM    102  O   UNL A   1      40.646  38.169  40.296  1.00  0.00    -0.237 OA
ATOM    103  O   UNL A   1      38.272  38.383  39.643  1.00  0.00    -0.237 OA
ATOM    104  O   UNL A   1      38.925  36.792  41.407  1.00  0.00    -0.744 OA
ENDBRANCH 100 101
ENDBRANCH  68  93
ENDBRANCH  42  43
ENDBRANCH  35  37
ENDBRANCH  34  35
ENDBRANCH  33  34
ENDBRANCH  32  33
ENDBRANCH  31  32
ENDBRANCH  30  31
ENDBRANCH   1  30
TORSDOF 24
ENDMDL
MODEL 2
REMARK VINA RESULT:     -11.0      2.907      9.194
REMARK SMILES NS(=O)(=O)c1ccc(N2N=C(C(=O)OCCOCCOCCOC(=O)c3ccc(-c4c5nc(c(-c6c(F)cc(S(=O)(=O)[O-])cc6F)c6ccc([nH]6)c(-c6c(F)cc(S(=O)(=O)[O-])cc6F)c6nc(c(-c7c(F)cc(S(=O)(=O)[O-])cc7F)c7ccc4[nH]7)C=C6)C=C5)cc3)C[C@H]2c2ccco2)cc1
REMARK SMILES IDX 18 1 17 2 16 3 15 4 14 5 12 6 13 7 11 8 9 9 10 10 93 11
REMARK SMILES IDX 92 12 8 13 5 14 6 15 100 16 7 17 99 18 2 19 3 20 4 21 1 22
REMARK SMILES IDX 94 25 95 26 98 27 96 28 97 29 19 30 20 31 21 32 22 33 23 34
REMARK SMILES IDX 24 35 25 36 26 37 27 38 91 39 28 40 90 41 29 42 30 43 31 44
REMARK SMILES IDX 84 45 32 46 89 47 83 48 85 49 33 50 88 51 82 52 81 53 34 55
REMARK SMILES IDX 68 56 47 57 67 58 48 59 51 60 66 61 86 62 49 63 50 64 65 66
REMARK SMILES IDX 87 67 52 68 35 69 36 70 45 71 37 72 38 73 44 74 46 75 39 76
REMARK SMILES IDX 40 77 41 78 42 79 43 80 69 81 70 82 79 83 71 84 72 85 78 86
REMARK SMILES IDX 80 87 73 88 74 89 75 90 76 91 77 92 53 93 54 94 63 95 55 96
REMARK SMILES IDX 56 97 62 98 64 99 57 100 58 101 59 102 60 103 61 104
REMARK H PARENT 1 23 1 24 85 54 51 65
REMARK Flexibility Score: inf
ROOT
ATOM      1  C   UNL A   1      31.540  29.346  25.105  1.00  0.00     0.188 C 
ENDROOT
BRANCH   1   2
ATOM      2  O   UNL A   1      31.795  28.193  24.305  1.00  0.00    -0.376 OA
BRANCH   2   3
ATOM      3  C   UNL A   1      30.746  27.649  23.507  1.00  0.00     0.202 C 
BRANCH   3   4
ATOM      4  C   UNL A   1      31.131  26.807  22.285  1.00  0.00     0.261 C 
BRANCH   4   5
ATOM      5  O   UNL A   1      32.553  26.680  22.138  1.00  0.00    -0.459 OA
BRANCH   5   6
ATOM      6  C   UNL A   1      32.975  25.514  21.609  1.00  0.00     0.354 C 
ATOM      7  O   UNL A   1      33.110  25.231  20.434  1.00  0.00    -0.245 OA
BRANCH   6   8
ATOM      8  C   UNL A   1      33.357  24.578  22.726  1.00  0.00     0.148 C 
ATOM      9  N   UNL A   1      33.787  22.802  23.798  1.00  0.00    -0.254 N 
ATOM     10  N   UNL A   1      33.462  23.293  22.564  1.00  0.00    -0.169 NA
ATOM     11  C   UNL A   1      33.581  23.802  24.865  1.00  0.00     0.180 C 
ATOM     12  C   UNL A   1      33.733  25.109  24.072  1.00  0.00     0.101 C 
BRANCH   9  13
ATOM     13  C   UNL A   1      33.724  21.429  24.012  1.00  0.00     0.060 A 
ATOM     14  C   UNL A   1      33.630  18.632  24.298  1.00  0.00     0.082 A 
ATOM     15  C   UNL A   1      32.563  19.303  23.699  1.00  0.00     0.024 A 
ATOM     16  C   UNL A   1      34.715  19.346  24.806  1.00  0.00     0.024 A 
ATOM     17  C   UNL A   1      32.619  20.695  23.555  1.00  0.00     0.029 A 
ATOM     18  C   UNL A   1      34.743  20.737  24.680  1.00  0.00     0.029 A 
BRANCH  14  19
ATOM     19  S   UNL A   1      33.629  16.867  24.394  1.00  0.00     0.238 S 
ATOM     20  O   UNL A   1      33.944  16.353  23.080  1.00  0.00    -0.207 OA
ATOM     21  O   UNL A   1      32.474  16.429  25.141  1.00  0.00    -0.207 OA
BRANCH  19  22
ATOM     22  N   UNL A   1      34.957  16.527  25.360  1.00  0.00    -0.225 NA
ATOM     23  H   UNL A   1      35.013  17.212  26.114  1.00  0.00     0.137 HD
ATOM     24  H   UNL A   1      35.807  16.570  24.798  1.00  0.00     0.137 HD
ENDBRANCH  19  22
ENDBRANCH  14  19
ENDBRANCH   9  13
BRANCH  11  25
ATOM     25  C   UNL A   1      32.274  23.769  25.612  1.00  0.00     0.128 A 
ATOM     26  C   UNL A   1      31.107  24.502  25.503  1.00  0.00     0.048 A 
ATOM     27  O   UNL A   1      32.140  22.851  26.617  1.00  0.00    -0.467 OA
ATOM     28  C   UNL A   1      30.231  24.020  26.507  1.00  0.00     0.042 A 
ATOM     29  C   UNL A   1      30.905  23.009  27.149  1.00  0.00     0.195 A 
ENDBRANCH  11  25
ENDBRANCH   6   8
ENDBRANCH   5   6
ENDBRANCH   4   5
ENDBRANCH   3   4
ENDBRANCH   2   3
ENDBRANCH   1   2
BRANCH   1  30
ATOM     30  C   UNL A   1      31.964  29.323  26.588  1.00  0.00     0.188 C 
BRANCH  30  31
ATOM     31  O   UNL A   1      32.144  30.607  27.152  1.00  0.00    -0.376 OA
BRANCH  31  32
ATOM     32  C   UNL A   1      33.452  30.963  27.575  1.00  0.00     0.202 C 
BRANCH  32  33
ATOM     33  C   UNL A   1      33.870  32.443  27.638  1.00  0.00     0.261 C 
BRANCH  33  34
ATOM     34  O   UNL A   1      32.888  33.382  28.097  1.00  0.00    -0.460 OA
BRANCH  34  35
ATOM     35  C   UNL A   1      33.328  34.475  28.762  1.00  0.00     0.338 C 
ATOM     36  O   UNL A   1      32.804  35.573  28.792  1.00  0.00    -0.246 OA
BRANCH  35  37
ATOM     37  C   UNL A   1      34.466  34.046  29.606  1.00  0.00     0.060 A 
ATOM     38  C   UNL A   1      35.769  34.372  29.211  1.00  0.00     0.016 A 
ATOM     39  C   UNL A   1      34.241  33.351  30.797  1.00  0.00     0.016 A 
ATOM     40  C   UNL A   1      36.855  33.990  30.005  1.00  0.00     0.010 A 
ATOM     41  C   UNL A   1      35.329  32.952  31.579  1.00  0.00     0.010 A 
ATOM     42  C   UNL A   1      36.643  33.251  31.177  1.00  0.00    -0.014 A 
BRANCH  42  43
ATOM     43  C   UNL A   1      37.793  32.671  31.914  1.00  0.00     0.031 A 
ATOM     44  C   UNL A   1      38.508  31.488  31.319  1.00  0.00     0.074 A 
ATOM     45  C   UNL A   1      38.195  33.183  33.091  1.00  0.00     0.049 A 
ATOM     46  N   UNL A   1      39.494  30.783  31.807  1.00  0.00    -0.248 NA
ATOM     47  C   UNL A   1      38.044  31.042  29.996  1.00  0.00     0.031 C 
ATOM     48  C   UNL A   1      37.607  34.346  33.754  1.00  0.00     0.029 A 
ATOM     49  N   UNL A   1      39.190  32.777  33.946  1.00  0.00    -0.354 N 
ATOM     50  C   UNL A   1      39.770  29.809  30.854  1.00  0.00     0.074 A 
ATOM     51  C   UNL A   1      38.827  29.996  29.773  1.00  0.00     0.031 C 
ATOM     52  C   UNL A   1      38.241  34.548  34.921  1.00  0.00     0.029 A 
ATOM     53  C   UNL A   1      39.259  33.515  35.103  1.00  0.00     0.049 A 
ATOM     54  H   UNL A   1      39.797  32.026  33.748  1.00  0.00     0.167 HD
ATOM     55  C   UNL A   1      40.726  28.851  30.874  1.00  0.00     0.037 A 
ATOM     56  C   UNL A   1      40.038  33.359  36.192  1.00  0.00     0.037 A 
ATOM     57  C   UNL A   1      41.658  28.664  31.956  1.00  0.00     0.049 A 
ATOM     58  C   UNL A   1      41.046  32.238  36.227  1.00  0.00     0.074 A 
ATOM     59  C   UNL A   1      42.677  27.734  32.063  1.00  0.00     0.029 A 
ATOM     60  N   UNL A   1      41.678  29.413  33.123  1.00  0.00    -0.354 N 
ATOM     61  N   UNL A   1      41.316  31.340  35.307  1.00  0.00    -0.248 NA
ATOM     62  C   UNL A   1      41.856  32.106  37.447  1.00  0.00     0.031 C 
ATOM     63  C   UNL A   1      43.282  27.889  33.315  1.00  0.00     0.029 A 
ATOM     64  C   UNL A   1      42.671  28.947  33.969  1.00  0.00     0.049 A 
ATOM     65  H   UNL A   1      41.074  30.166  33.321  1.00  0.00     0.167 HD
ATOM     66  C   UNL A   1      42.340  30.555  35.830  1.00  0.00     0.074 A 
ATOM     67  C   UNL A   1      42.649  31.089  37.139  1.00  0.00     0.031 C 
ATOM     68  C   UNL A   1      42.968  29.489  35.273  1.00  0.00     0.037 A 
BRANCH  55  69
ATOM     69  C   UNL A   1      40.793  27.914  29.701  1.00  0.00     0.058 A 
ATOM     70  C   UNL A   1      41.785  28.035  28.715  1.00  0.00     0.135 A 
ATOM     71  C   UNL A   1      39.866  26.869  29.572  1.00  0.00     0.135 A 
ATOM     72  F   UNL A   1      42.684  29.030  28.778  1.00  0.00    -0.206 F 
ATOM     73  C   UNL A   1      41.837  27.170  27.627  1.00  0.00     0.059 A 
ATOM     74  C   UNL A   1      39.915  25.975  28.507  1.00  0.00     0.059 A 
ATOM     75  F   UNL A   1      38.894  26.710  30.486  1.00  0.00    -0.206 F 
ATOM     76  C   UNL A   1      40.896  26.143  27.531  1.00  0.00     0.060 A 
BRANCH  76  77
ATOM     77  S   UNL A   1      40.973  25.029  26.112  1.00  0.00     0.124 S 
ATOM     78  O   UNL A   1      41.340  25.949  25.039  1.00  0.00    -0.237 OA
ATOM     79  O   UNL A   1      42.008  24.082  26.515  1.00  0.00    -0.237 OA
ATOM     80  O   UNL A   1      39.622  24.482  26.035  1.00  0.00    -0.744 OA
ENDBRANCH  76  77
ENDBRANCH  55  69
BRANCH  56  81
ATOM     81  C   UNL A   1      39.886  34.277  37.352  1.00  0.00     0.058 A 
ATOM     82  C   UNL A   1      39.135  33.907  38.478  1.00  0.00     0.135 A 
ATOM     83  C   UNL A   1      40.485  35.546  37.356  1.00  0.00     0.135 A 
ATOM     84  F   UNL A   1      38.528  32.710  38.516  1.00  0.00    -0.206 F 
ATOM     85  C   UNL A   1      38.974  34.765  39.561  1.00  0.00     0.059 A 
ATOM     86  C   UNL A   1      40.360  36.413  38.438  1.00  0.00     0.059 A 
ATOM     87  F   UNL A   1      41.217  35.947  36.305  1.00  0.00    -0.206 F 
ATOM     88  C   UNL A   1      39.594  36.016  39.534  1.00  0.00     0.060 A 
BRANCH  88  89
ATOM     89  S   UNL A   1      39.416  37.104  40.965  1.00  0.00     0.124 S 
ATOM     90  O   UNL A   1      40.807  37.300  41.358  1.00  0.00    -0.237 OA
ATOM     91  O   UNL A   1      38.748  38.266  40.387  1.00  0.00    -0.237 OA
ATOM     92  O   UNL A   1      38.605  36.316  41.887  1.00  0.00    -0.744 OA
ENDBRANCH  88  89
ENDBRANCH  56  81
BRANCH  68  93
ATOM     93  C   UNL A   1      44.069  28.839  36.065  1.00  0.00     0.058 A 
ATOM     94  C   UNL A   1      43.827  27.730  36.891  1.00  0.00     0.135 A 
ATOM     95  C   UNL A   1      45.393  29.294  35.952  1.00  0.00     0.135 A 
ATOM     96  F   UNL A   1      42.578  27.258  37.039  1.00  0.00    -0.206 F 
ATOM     97  C   UNL A   1      44.854  27.109  37.594  1.00  0.00     0.059 A 
ATOM     98  C   UNL A   1      46.440  28.671  36.626  1.00  0.00     0.059 A 
ATOM     99  F   UNL A   1      45.682  30.342  35.166  1.00  0.00    -0.206 F 
ATOM    100  C   UNL A   1      46.158  27.586  37.454  1.00  0.00     0.060 A 
BRANCH 100 101
ATOM    101  S   UNL A   1      47.489  26.751  38.345  1.00  0.00     0.124 S 
ATOM    102  O   UNL A   1      48.295  27.881  38.795  1.00  0.00    -0.237 OA
ATOM    103  O   UNL A   1      46.764  26.033  39.390  1.00  0.00    -0.237 OA
ATOM    104  O   UNL A   1      48.104  25.906  37.326  1.00  0.00    -0.744 OA
ENDBRANCH 100 101
ENDBRANCH  68  93
ENDBRANCH  42  43
ENDBRANCH  35  37
ENDBRANCH  34  35
ENDBRANCH  33  34
ENDBRANCH  32  33
ENDBRANCH  31  32
ENDBRANCH  30  31
ENDBRANCH   1  30
TORSDOF 24
ENDMDL
MODEL 3
REMARK VINA RESULT:     -10.9      6.562     12.178
REMARK SMILES NS(=O)(=O)c1ccc(N2N=C(C(=O)OCCOCCOCCOC(=O)c3ccc(-c4c5nc(c(-c6c(F)cc(S(=O)(=O)[O-])cc6F)c6ccc([nH]6)c(-c6c(F)cc(S(=O)(=O)[O-])cc6F)c6nc(c(-c7c(F)cc(S(=O)(=O)[O-])cc7F)c7ccc4[nH]7)C=C6)C=C5)cc3)C[C@H]2c2ccco2)cc1
REMARK SMILES IDX 18 1 17 2 16 3 15 4 14 5 12 6 13 7 11 8 9 9 10 10 93 11
REMARK SMILES IDX 92 12 8 13 5 14 6 15 100 16 7 17 99 18 2 19 3 20 4 21 1 22
REMARK SMILES IDX 94 25 95 26 98 27 96 28 97 29 19 30 20 31 21 32 22 33 23 34
REMARK SMILES IDX 24 35 25 36 26 37 27 38 91 39 28 40 90 41 29 42 30 43 31 44
REMARK SMILES IDX 84 45 32 46 89 47 83 48 85 49 33 50 88 51 82 52 81 53 34 55
REMARK SMILES IDX 68 56 47 57 67 58 48 59 51 60 66 61 86 62 49 63 50 64 65 66
REMARK SMILES IDX 87 67 52 68 35 69 36 70 45 71 37 72 38 73 44 74 46 75 39 76
REMARK SMILES IDX 40 77 41 78 42 79 43 80 69 81 70 82 79 83 71 84 72 85 78 86
REMARK SMILES IDX 80 87 73 88 74 89 75 90 76 91 77 92 53 93 54 94 63 95 55 96
REMARK SMILES IDX 56 97 62 98 64 99 57 100 58 101 59 102 60 103 61 104
REMARK H PARENT 1 23 1 24 85 54 51 65
REMARK Flexibility Score: inf
ROOT
ATOM      1  C   UNL A   1      31.379  29.687  25.237  1.00  0.00     0.188 C 
ENDROOT
BRANCH   1   2
ATOM      2  O   UNL A   1      30.929  29.315  23.935  1.00  0.00    -0.376 OA
BRANCH   2   3
ATOM      3  C   UNL A   1      30.004  28.240  23.795  1.00  0.00     0.202 C 
BRANCH   3   4
ATOM      4  C   UNL A   1      30.437  27.018  22.976  1.00  0.00     0.261 C 
BRANCH   4   5
ATOM      5  O   UNL A   1      31.740  26.546  23.350  1.00  0.00    -0.459 OA
BRANCH   5   6
ATOM      6  C   UNL A   1      31.757  25.613  24.323  1.00  0.00     0.354 C 
ATOM      7  O   UNL A   1      31.159  25.625  25.381  1.00  0.00    -0.245 OA
BRANCH   6   8
ATOM      8  C   UNL A   1      32.598  24.448  23.869  1.00  0.00     0.148 C 
ATOM      9  N   UNL A   1      33.286  22.468  23.564  1.00  0.00    -0.254 N 
ATOM     10  N   UNL A   1      32.267  23.212  24.092  1.00  0.00    -0.169 NA
ATOM     11  C   UNL A   1      34.472  23.291  23.258  1.00  0.00     0.180 C 
ATOM     12  C   UNL A   1      33.824  24.667  23.042  1.00  0.00     0.101 C 
BRANCH   9  13
ATOM     13  C   UNL A   1      33.352  21.111  23.863  1.00  0.00     0.060 A 
ATOM     14  C   UNL A   1      33.534  18.342  24.324  1.00  0.00     0.082 A 
ATOM     15  C   UNL A   1      32.466  18.851  23.584  1.00  0.00     0.024 A 
ATOM     16  C   UNL A   1      34.478  19.203  24.884  1.00  0.00     0.024 A 
ATOM     17  C   UNL A   1      32.385  20.231  23.353  1.00  0.00     0.029 A 
ATOM     18  C   UNL A   1      34.367  20.578  24.669  1.00  0.00     0.029 A 
BRANCH  14  19
ATOM     19  S   UNL A   1      33.715  16.596  24.536  1.00  0.00     0.238 S 
ATOM     20  O   UNL A   1      33.992  16.020  23.240  1.00  0.00    -0.207 OA
ATOM     21  O   UNL A   1      32.662  16.107  25.394  1.00  0.00    -0.207 OA
BRANCH  19  22
ATOM     22  N   UNL A   1      35.132  16.455  25.423  1.00  0.00    -0.225 NA
ATOM     23  H   UNL A   1      34.932  15.998  26.313  1.00  0.00     0.137 HD
ATOM     24  H   UNL A   1      35.518  17.383  25.598  1.00  0.00     0.137 HD
ENDBRANCH  19  22
ENDBRANCH  14  19
ENDBRANCH   9  13
BRANCH  11  25
ATOM     25  C   UNL A   1      35.563  23.361  24.293  1.00  0.00     0.128 A 
ATOM     26  C   UNL A   1      35.609  23.854  25.583  1.00  0.00     0.048 A 
ATOM     27  O   UNL A   1      36.788  22.849  23.960  1.00  0.00    -0.467 OA
ATOM     28  C   UNL A   1      36.932  23.652  26.047  1.00  0.00     0.042 A 
ATOM     29  C   UNL A   1      37.605  23.028  25.025  1.00  0.00     0.195 A 
ENDBRANCH  11  25
ENDBRANCH   6   8
ENDBRANCH   5   6
ENDBRANCH   4   5
ENDBRANCH   3   4
ENDBRANCH   2   3
ENDBRANCH   1   2
BRANCH   1  30
ATOM     30  C   UNL A   1      32.897  29.709  25.514  1.00  0.00     0.188 C 
BRANCH  30  31
ATOM     31  O   UNL A   1      33.227  29.850  26.882  1.00  0.00    -0.376 OA
BRANCH  31  32
ATOM     32  C   UNL A   1      33.417  31.165  27.381  1.00  0.00     0.202 C 
BRANCH  32  33
ATOM     33  C   UNL A   1      34.757  31.563  28.027  1.00  0.00     0.261 C 
BRANCH  33  34
ATOM     34  O   UNL A   1      35.553  30.508  28.584  1.00  0.00    -0.460 OA
BRANCH  34  35
ATOM     35  C   UNL A   1      36.364  30.817  29.622  1.00  0.00     0.338 C 
ATOM     36  O   UNL A   1      36.043  31.353  30.666  1.00  0.00    -0.246 OA
BRANCH  35  37
ATOM     37  C   UNL A   1      37.686  30.212  29.341  1.00  0.00     0.060 A 
ATOM     38  C   UNL A   1      38.548  29.931  30.408  1.00  0.00     0.016 A 
ATOM     39  C   UNL A   1      38.057  29.899  28.031  1.00  0.00     0.016 A 
ATOM     40  C   UNL A   1      39.793  29.344  30.163  1.00  0.00     0.010 A 
ATOM     41  C   UNL A   1      39.311  29.332  27.786  1.00  0.00     0.010 A 
ATOM     42  C   UNL A   1      40.194  29.070  28.849  1.00  0.00    -0.014 A 
BRANCH  42  43
ATOM     43  C   UNL A   1      41.586  28.639  28.566  1.00  0.00     0.031 A 
ATOM     44  C   UNL A   1      42.680  29.671  28.585  1.00  0.00     0.074 A 
ATOM     45  C   UNL A   1      41.875  27.352  28.295  1.00  0.00     0.049 A 
ATOM     46  N   UNL A   1      43.951  29.540  28.313  1.00  0.00    -0.248 NA
ATOM     47  C   UNL A   1      42.281  31.037  28.961  1.00  0.00     0.031 C 
ATOM     48  C   UNL A   1      40.910  26.254  28.280  1.00  0.00     0.029 A 
ATOM     49  N   UNL A   1      43.067  26.757  27.967  1.00  0.00    -0.354 N 
ATOM     50  C   UNL A   1      44.507  30.802  28.483  1.00  0.00     0.074 A 
ATOM     51  C   UNL A   1      43.428  31.693  28.852  1.00  0.00     0.031 C 
ATOM     52  C   UNL A   1      41.547  25.120  27.941  1.00  0.00     0.029 A 
ATOM     53  C   UNL A   1      42.956  25.416  27.687  1.00  0.00     0.049 A 
ATOM     54  H   UNL A   1      43.922  27.246  27.935  1.00  0.00     0.167 HD
ATOM     55  C   UNL A   1      45.799  31.184  28.349  1.00  0.00     0.037 A 
ATOM     56  C   UNL A   1      43.881  24.536  27.253  1.00  0.00     0.037 A 
ATOM     57  C   UNL A   1      46.868  30.295  27.974  1.00  0.00     0.049 A 
ATOM     58  C   UNL A   1      45.299  24.999  27.038  1.00  0.00     0.074 A 
ATOM     59  C   UNL A   1      48.214  30.581  27.830  1.00  0.00     0.029 A 
ATOM     60  N   UNL A   1      46.711  28.951  27.670  1.00  0.00    -0.354 N 
ATOM     61  N   UNL A   1      45.818  26.190  27.228  1.00  0.00    -0.248 NA
ATOM     62  C   UNL A   1      46.260  23.999  26.548  1.00  0.00     0.031 C 
ATOM     63  C   UNL A   1      48.864  29.421  27.393  1.00  0.00     0.029 A 
ATOM     64  C   UNL A   1      47.930  28.401  27.311  1.00  0.00     0.049 A 
ATOM     65  H   UNL A   1      45.858  28.460  27.705  1.00  0.00     0.167 HD
ATOM     66  C   UNL A   1      47.167  26.075  26.903  1.00  0.00     0.074 A 
ATOM     67  C   UNL A   1      47.387  24.698  26.516  1.00  0.00     0.031 C 
ATOM     68  C   UNL A   1      48.135  27.025  26.926  1.00  0.00     0.037 A 
BRANCH  55  69
ATOM     69  C   UNL A   1      46.121  32.633  28.584  1.00  0.00     0.058 A 
ATOM     70  C   UNL A   1      46.486  33.111  29.853  1.00  0.00     0.135 A 
ATOM     71  C   UNL A   1      46.084  33.551  27.524  1.00  0.00     0.135 A 
ATOM     72  F   UNL A   1      46.517  32.280  30.907  1.00  0.00    -0.206 F 
ATOM     73  C   UNL A   1      46.776  34.455  30.067  1.00  0.00     0.059 A 
ATOM     74  C   UNL A   1      46.395  34.894  27.709  1.00  0.00     0.059 A 
ATOM     75  F   UNL A   1      45.738  33.147  26.291  1.00  0.00    -0.206 F 
ATOM     76  C   UNL A   1      46.726  35.340  28.989  1.00  0.00     0.060 A 
BRANCH  76  77
ATOM     77  S   UNL A   1      47.101  37.082  29.281  1.00  0.00     0.124 S 
ATOM     78  O   UNL A   1      46.076  37.739  28.476  1.00  0.00    -0.237 OA
ATOM     79  O   UNL A   1      46.940  37.197  30.727  1.00  0.00    -0.237 OA
ATOM     80  O   UNL A   1      48.469  37.222  28.793  1.00  0.00    -0.744 OA
ENDBRANCH  76  77
ENDBRANCH  55  69
BRANCH  56  81
ATOM     81  C   UNL A   1      43.492  23.128  26.974  1.00  0.00     0.058 A 
ATOM     82  C   UNL A   1      43.212  22.231  28.016  1.00  0.00     0.135 A 
ATOM     83  C   UNL A   1      43.397  22.649  25.658  1.00  0.00     0.135 A 
ATOM     84  F   UNL A   1      43.306  22.635  29.292  1.00  0.00    -0.206 F 
ATOM     85  C   UNL A   1      42.863  20.908  27.765  1.00  0.00     0.059 A 
ATOM     86  C   UNL A   1      43.025  21.337  25.380  1.00  0.00     0.059 A 
ATOM     87  F   UNL A   1      43.651  23.467  24.625  1.00  0.00    -0.206 F 
ATOM     88  C   UNL A   1      42.769  20.470  26.443  1.00  0.00     0.060 A 
BRANCH  88  89
ATOM     89  S   UNL A   1      42.270  18.763  26.127  1.00  0.00     0.124 S 
ATOM     90  O   UNL A   1      40.865  18.929  25.774  1.00  0.00    -0.237 OA
ATOM     91  O   UNL A   1      43.160  18.379  25.035  1.00  0.00    -0.237 OA
ATOM     92  O   UNL A   1      42.527  18.097  27.400  1.00  0.00    -0.744 OA
ENDBRANCH  88  89
ENDBRANCH  56  81
BRANCH  68  93
ATOM     93  C   UNL A   1      49.529  26.607  26.543  1.00  0.00     0.058 A 
ATOM     94  C   UNL A   1      50.014  26.772  25.236  1.00  0.00     0.135 A 
ATOM     95  C   UNL A   1      50.409  26.090  27.507  1.00  0.00     0.135 A 
ATOM     96  F   UNL A   1      49.212  27.257  24.273  1.00  0.00    -0.206 F 
ATOM     97  C   UNL A   1      51.315  26.418  24.893  1.00  0.00     0.059 A 
ATOM     98  C   UNL A   1      51.722  25.754  27.193  1.00  0.00     0.059 A 
ATOM     99  F   UNL A   1      50.000  25.924  28.775  1.00  0.00    -0.206 F 
ATOM    100  C   UNL A   1      52.163  25.910  25.879  1.00  0.00     0.060 A 
BRANCH 100 101
ATOM    101  S   UNL A   1      53.860  25.486  25.432  1.00  0.00     0.124 S 
ATOM    102  O   UNL A   1      53.654  24.339  24.554  1.00  0.00    -0.237 OA
ATOM    103  O   UNL A   1      54.327  26.707  24.781  1.00  0.00    -0.237 OA
ATOM    104  O   UNL A   1      54.487  25.190  26.716  1.00  0.00    -0.744 OA
ENDBRANCH 100 101
ENDBRANCH  68  93
ENDBRANCH  42  43
ENDBRANCH  35  37
ENDBRANCH  34  35
ENDBRANCH  33  34
ENDBRANCH  32  33
ENDBRANCH  31  32
ENDBRANCH  30  31
ENDBRANCH   1  30
TORSDOF 24
ENDMDL
