MODEL 1
REMARK VINA RESULT:     -11.5      0.000      0.000
REMARK SMILES O=C1C[C@H](c2cn[nH]c2C(=O)OCCOCCOCCOC(=O)c2ccc(-c3c4nc(c(-c5c(F)cc(S(=O)(=O)[O-])cc5F)c5ccc([nH]5)c(-c5c(F)cc(S(=O)(=O)[O-])cc5F)c5nc(c(-c6c(F)cc(S(=O)(=O)[O-])cc6F)c6ccc3[nH]6)C=C5)C=C4)cc2)c2c(-c3cccs3)n[nH]c2N1
REMARK SMILES IDX 17 1 16 2 15 3 14 4 13 5 12 6 10 7 11 8 9 9 5 10 6 11 7 12
REMARK SMILES IDX 8 13 4 15 1 16 2 17 3 18 100 19 99 20 90 22 98 23 91 24
REMARK SMILES IDX 97 25 92 27 93 28 96 29 94 30 95 31 18 32 19 33 20 34 21 35
REMARK SMILES IDX 22 36 23 37 24 38 25 39 89 40 26 41 88 42 27 43 28 44 29 45
REMARK SMILES IDX 82 46 30 47 87 48 81 49 83 50 31 51 86 52 80 53 79 54 32 56
REMARK SMILES IDX 66 57 45 58 65 59 46 60 49 61 64 62 84 63 47 64 48 65 63 67
REMARK SMILES IDX 85 68 50 69 33 70 34 71 43 72 35 73 36 74 42 75 44 76 37 77
REMARK SMILES IDX 38 78 39 79 40 80 41 81 67 82 68 83 77 84 69 85 70 86 76 87
REMARK SMILES IDX 78 88 71 89 72 90 73 91 74 92 75 93 51 94 52 95 61 96 53 97
REMARK SMILES IDX 54 98 60 99 62 100 55 101 56 102 57 103 58 104 59 105
REMARK H PARENT 8 14 100 21 98 26 83 55 49 66
REMARK Flexibility Score: inf
ROOT
ATOM      1  C   UNL A   1      40.578  20.830  26.542  1.00  0.00     0.188 C 
ENDROOT
BRANCH   1   2
ATOM      2  C   UNL A   1      39.491  20.176  25.658  1.00  0.00     0.188 C 
BRANCH   2   3
ATOM      3  O   UNL A   1      38.330  20.929  25.313  1.00  0.00    -0.376 OA
BRANCH   3   4
ATOM      4  C   UNL A   1      38.052  22.131  26.029  1.00  0.00     0.202 C 
BRANCH   4   5
ATOM      5  C   UNL A   1      37.347  23.275  25.285  1.00  0.00     0.261 C 
BRANCH   5   6
ATOM      6  O   UNL A   1      36.022  22.945  24.817  1.00  0.00    -0.459 OA
BRANCH   6   7
ATOM      7  C   UNL A   1      35.832  22.995  23.474  1.00  0.00     0.356 C 
ATOM      8  O   UNL A   1      36.662  22.648  22.645  1.00  0.00    -0.244 OA
BRANCH   7   9
ATOM      9  C   UNL A   1      34.467  23.312  23.117  1.00  0.00     0.147 A 
ATOM     10  C   UNL A   1      33.169  22.846  23.362  1.00  0.00     0.013 A 
ATOM     11  C   UNL A   1      32.354  23.768  22.631  1.00  0.00     0.140 A 
ATOM     12  N   UNL A   1      33.047  24.697  21.985  1.00  0.00    -0.183 NA
ATOM     13  N   UNL A   1      34.309  24.412  22.305  1.00  0.00    -0.271 N 
ATOM     14  H   UNL A   1      35.070  24.947  21.985  1.00  0.00     0.190 HD
BRANCH  10  15
ATOM     15  C   UNL A   1      32.534  21.770  24.240  1.00  0.00     0.069 C 
ATOM     16  O   UNL A   1      33.954  18.296  23.942  1.00  0.00    -0.275 OA
ATOM     17  C   UNL A   1      33.571  19.349  24.453  1.00  0.00     0.226 C 
ATOM     18  C   UNL A   1      32.717  20.337  23.668  1.00  0.00     0.114 C 
ATOM     19  N   UNL A   1      33.822  19.587  25.777  1.00  0.00    -0.311 N 
ATOM     20  C   UNL A   1      33.473  20.783  26.328  1.00  0.00     0.132 A 
ATOM     21  H   UNL A   1      34.253  18.895  26.329  1.00  0.00     0.171 HD
ATOM     22  C   UNL A   1      32.847  21.814  25.687  1.00  0.00     0.031 A 
ATOM     23  N   UNL A   1      33.750  21.207  27.588  1.00  0.00    -0.262 N 
ATOM     24  C   UNL A   1      32.660  22.790  26.695  1.00  0.00     0.108 A 
ATOM     25  N   UNL A   1      33.272  22.443  27.840  1.00  0.00    -0.173 NA
ATOM     26  H   UNL A   1      34.246  20.670  28.248  1.00  0.00     0.192 HD
BRANCH  24  27
ATOM     27  C   UNL A   1      31.977  24.109  26.520  1.00  0.00     0.055 A 
ATOM     28  C   UNL A   1      32.650  25.306  26.391  1.00  0.00     0.022 A 
ATOM     29  S   UNL A   1      30.287  24.310  26.383  1.00  0.00    -0.142 S 
ATOM     30  C   UNL A   1      31.767  26.377  26.065  1.00  0.00     0.012 A 
ATOM     31  C   UNL A   1      30.449  25.980  26.068  1.00  0.00     0.065 A 
ENDBRANCH  24  27
ENDBRANCH  10  15
ENDBRANCH   7   9
ENDBRANCH   6   7
ENDBRANCH   5   6
ENDBRANCH   4   5
ENDBRANCH   3   4
ENDBRANCH   2   3
ENDBRANCH   1   2
BRANCH   1  32
ATOM     32  O   UNL A   1      41.670  19.969  26.822  1.00  0.00    -0.376 OA
BRANCH  32  33
ATOM     33  C   UNL A   1      42.238  19.219  25.763  1.00  0.00     0.202 C 
BRANCH  33  34
ATOM     34  C   UNL A   1      43.724  19.346  25.463  1.00  0.00     0.261 C 
BRANCH  34  35
ATOM     35  O   UNL A   1      44.065  20.449  24.653  1.00  0.00    -0.460 OA
BRANCH  35  36
ATOM     36  C   UNL A   1      44.877  21.354  25.235  1.00  0.00     0.338 C 
ATOM     37  O   UNL A   1      46.090  21.397  25.169  1.00  0.00    -0.246 OA
BRANCH  36  38
ATOM     38  C   UNL A   1      44.035  22.257  26.024  1.00  0.00     0.060 A 
ATOM     39  C   UNL A   1      43.168  23.094  25.323  1.00  0.00     0.016 A 
ATOM     40  C   UNL A   1      44.307  22.432  27.391  1.00  0.00     0.016 A 
ATOM     41  C   UNL A   1      42.745  24.246  25.945  1.00  0.00     0.010 A 
ATOM     42  C   UNL A   1      43.898  23.589  28.005  1.00  0.00     0.010 A 
ATOM     43  C   UNL A   1      43.203  24.518  27.239  1.00  0.00    -0.014 A 
BRANCH  43  44
ATOM     44  C   UNL A   1      43.007  25.858  27.736  1.00  0.00     0.031 A 
ATOM     45  C   UNL A   1      44.089  26.807  27.435  1.00  0.00     0.074 A 
ATOM     46  C   UNL A   1      41.886  26.207  28.390  1.00  0.00     0.049 A 
ATOM     47  N   UNL A   1      44.922  27.341  28.263  1.00  0.00    -0.248 NA
ATOM     48  C   UNL A   1      44.346  27.110  26.022  1.00  0.00     0.031 C 
ATOM     49  C   UNL A   1      40.625  25.468  28.489  1.00  0.00     0.029 A 
ATOM     50  N   UNL A   1      41.621  27.374  29.031  1.00  0.00    -0.354 N 
ATOM     51  C   UNL A   1      45.686  28.213  27.503  1.00  0.00     0.074 A 
ATOM     52  C   UNL A   1      45.399  27.921  26.120  1.00  0.00     0.031 C 
ATOM     53  C   UNL A   1      39.671  26.294  28.970  1.00  0.00     0.029 A 
ATOM     54  C   UNL A   1      40.282  27.565  29.325  1.00  0.00     0.049 A 
ATOM     55  H   UNL A   1      42.319  28.028  29.265  1.00  0.00     0.167 HD
ATOM     56  C   UNL A   1      46.338  29.266  28.060  1.00  0.00     0.037 A 
ATOM     57  C   UNL A   1      39.721  28.725  29.742  1.00  0.00     0.037 A 
ATOM     58  C   UNL A   1      46.458  29.144  29.487  1.00  0.00     0.049 A 
ATOM     59  C   UNL A   1      40.805  29.566  30.318  1.00  0.00     0.074 A 
ATOM     60  C   UNL A   1      47.044  28.220  30.332  1.00  0.00     0.029 A 
ATOM     61  N   UNL A   1      45.610  29.886  30.274  1.00  0.00    -0.354 N 
ATOM     62  N   UNL A   1      41.447  29.289  31.421  1.00  0.00    -0.248 NA
ATOM     63  C   UNL A   1      41.467  30.529  29.448  1.00  0.00     0.031 C 
ATOM     64  C   UNL A   1      46.193  28.159  31.474  1.00  0.00     0.029 A 
ATOM     65  C   UNL A   1      45.149  29.064  31.273  1.00  0.00     0.049 A 
ATOM     66  H   UNL A   1      45.375  30.833  30.144  1.00  0.00     0.167 HD
ATOM     67  C   UNL A   1      42.751  29.712  31.198  1.00  0.00     0.074 A 
ATOM     68  C   UNL A   1      42.672  30.568  30.021  1.00  0.00     0.031 C 
ATOM     69  C   UNL A   1      43.810  29.115  31.822  1.00  0.00     0.037 A 
BRANCH  56  70
ATOM     70  C   UNL A   1      46.572  30.552  27.326  1.00  0.00     0.058 A 
ATOM     71  C   UNL A   1      47.872  31.073  27.208  1.00  0.00     0.135 A 
ATOM     72  C   UNL A   1      45.519  31.413  26.943  1.00  0.00     0.135 A 
ATOM     73  F   UNL A   1      48.935  30.341  27.580  1.00  0.00    -0.206 F 
ATOM     74  C   UNL A   1      48.109  32.374  26.769  1.00  0.00     0.059 A 
ATOM     75  C   UNL A   1      45.734  32.690  26.448  1.00  0.00     0.059 A 
ATOM     76  F   UNL A   1      44.233  31.081  27.125  1.00  0.00    -0.206 F 
ATOM     77  C   UNL A   1      47.030  33.178  26.403  1.00  0.00     0.060 A 
BRANCH  77  78
ATOM     78  S   UNL A   1      47.318  34.893  25.935  1.00  0.00     0.124 S 
ATOM     79  O   UNL A   1      46.003  35.278  25.437  1.00  0.00    -0.237 OA
ATOM     80  O   UNL A   1      47.725  35.493  27.201  1.00  0.00    -0.237 OA
ATOM     81  O   UNL A   1      48.373  34.791  24.930  1.00  0.00    -0.744 OA
ENDBRANCH  77  78
ENDBRANCH  56  70
BRANCH  57  82
ATOM     82  C   UNL A   1      38.392  29.265  29.361  1.00  0.00     0.058 A 
ATOM     83  C   UNL A   1      37.447  29.612  30.341  1.00  0.00     0.135 A 
ATOM     84  C   UNL A   1      38.119  29.705  28.049  1.00  0.00     0.135 A 
ATOM     85  F   UNL A   1      37.640  29.258  31.620  1.00  0.00    -0.206 F 
ATOM     86  C   UNL A   1      36.325  30.391  30.047  1.00  0.00     0.059 A 
ATOM     87  C   UNL A   1      36.998  30.465  27.729  1.00  0.00     0.059 A 
ATOM     88  F   UNL A   1      38.985  29.492  27.046  1.00  0.00    -0.206 F 
ATOM     89  C   UNL A   1      36.119  30.830  28.739  1.00  0.00     0.060 A 
BRANCH  89  90
ATOM     90  S   UNL A   1      34.774  31.985  28.389  1.00  0.00     0.124 S 
ATOM     91  O   UNL A   1      34.372  32.392  29.731  1.00  0.00    -0.237 OA
ATOM     92  O   UNL A   1      35.445  33.002  27.587  1.00  0.00    -0.237 OA
ATOM     93  O   UNL A   1      33.803  31.167  27.667  1.00  0.00    -0.744 OA
ENDBRANCH  89  90
ENDBRANCH  57  82
BRANCH  69  94
ATOM     94  C   UNL A   1      43.528  28.233  33.010  1.00  0.00     0.058 A 
ATOM     95  C   UNL A   1      43.449  26.829  32.951  1.00  0.00     0.135 A 
ATOM     96  C   UNL A   1      43.480  28.822  34.284  1.00  0.00     0.135 A 
ATOM     97  F   UNL A   1      43.595  26.181  31.787  1.00  0.00    -0.206 F 
ATOM     98  C   UNL A   1      43.285  26.053  34.099  1.00  0.00     0.059 A 
ATOM     99  C   UNL A   1      43.348  28.065  35.446  1.00  0.00     0.059 A 
ATOM    100  F   UNL A   1      43.614  30.152  34.415  1.00  0.00    -0.206 F 
ATOM    101  C   UNL A   1      43.237  26.680  35.345  1.00  0.00     0.060 A 
BRANCH 101 102
ATOM    102  S   UNL A   1      43.112  25.667  36.835  1.00  0.00     0.124 S 
ATOM    103  O   UNL A   1      44.462  25.128  36.954  1.00  0.00    -0.237 OA
ATOM    104  O   UNL A   1      42.727  26.641  37.852  1.00  0.00    -0.237 OA
ATOM    105  O   UNL A   1      42.077  24.691  36.500  1.00  0.00    -0.744 OA
ENDBRANCH 101 102
ENDBRANCH  69  94
ENDBRANCH  43  44
ENDBRANCH  36  38
ENDBRANCH  35  36
ENDBRANCH  34  35
ENDBRANCH  33  34
ENDBRANCH  32  33
ENDBRANCH   1  32
TORSDOF 22
ENDMDL
MODEL 2
REMARK VINA RESULT:     -11.3      1.630      2.119
REMARK SMILES O=C1C[C@H](c2cn[nH]c2C(=O)OCCOCCOCCOC(=O)c2ccc(-c3c4nc(c(-c5c(F)cc(S(=O)(=O)[O-])cc5F)c5ccc([nH]5)c(-c5c(F)cc(S(=O)(=O)[O-])cc5F)c5nc(c(-c6c(F)cc(S(=O)(=O)[O-])cc6F)c6ccc3[nH]6)C=C5)C=C4)cc2)c2c(-c3cccs3)n[nH]c2N1
REMARK SMILES IDX 17 1 16 2 15 3 14 4 13 5 12 6 10 7 11 8 9 9 5 10 6 11 7 12
REMARK SMILES IDX 8 13 4 15 1 16 2 17 3 18 100 19 99 20 90 22 98 23 91 24
REMARK SMILES IDX 97 25 92 27 93 28 96 29 94 30 95 31 18 32 19 33 20 34 21 35
REMARK SMILES IDX 22 36 23 37 24 38 25 39 89 40 26 41 88 42 27 43 28 44 29 45
REMARK SMILES IDX 82 46 30 47 87 48 81 49 83 50 31 51 86 52 80 53 79 54 32 56
REMARK SMILES IDX 66 57 45 58 65 59 46 60 49 61 64 62 84 63 47 64 48 65 63 67
REMARK SMILES IDX 85 68 50 69 33 70 34 71 43 72 35 73 36 74 42 75 44 76 37 77
REMARK SMILES IDX 38 78 39 79 40 80 41 81 67 82 68 83 77 84 69 85 70 86 76 87
REMARK SMILES IDX 78 88 71 89 72 90 73 91 74 92 75 93 51 94 52 95 61 96 53 97
REMARK SMILES IDX 54 98 60 99 62 100 55 101 56 102 57 103 58 104 59 105
REMARK H PARENT 8 14 100 21 98 26 83 55 49 66
REMARK Flexibility Score: inf
ROOT
ATOM      1  C   UNL A   1      41.150  21.626  26.706  1.00  0.00     0.188 C 
ENDROOT
BRANCH   1   2
ATOM      2  C   UNL A   1      39.939  21.084  25.911  1.00  0.00     0.188 C 
BRANCH   2   3
ATOM      3  O   UNL A   1      38.645  21.629  26.159  1.00  0.00    -0.376 OA
BRANCH   3   4
ATOM      4  C   UNL A   1      37.767  21.844  25.056  1.00  0.00     0.202 C 
BRANCH   4   5
ATOM      5  C   UNL A   1      37.109  23.224  24.907  1.00  0.00     0.261 C 
BRANCH   5   6
ATOM      6  O   UNL A   1      35.762  23.181  24.391  1.00  0.00    -0.459 OA
BRANCH   6   7
ATOM      7  C   UNL A   1      34.972  24.243  24.692  1.00  0.00     0.356 C 
ATOM      8  O   UNL A   1      35.097  24.938  25.691  1.00  0.00    -0.244 OA
BRANCH   7   9
ATOM      9  C   UNL A   1      34.084  24.601  23.608  1.00  0.00     0.147 A 
ATOM     10  C   UNL A   1      32.812  24.270  23.122  1.00  0.00     0.013 A 
ATOM     11  C   UNL A   1      32.668  25.132  21.988  1.00  0.00     0.140 A 
ATOM     12  N   UNL A   1      33.723  25.905  21.767  1.00  0.00    -0.183 NA
ATOM     13  N   UNL A   1      34.551  25.580  22.760  1.00  0.00    -0.271 N 
ATOM     14  H   UNL A   1      35.429  26.007  22.878  1.00  0.00     0.190 HD
BRANCH  10  15
ATOM     15  C   UNL A   1      31.658  23.382  23.578  1.00  0.00     0.069 C 
ATOM     16  O   UNL A   1      32.539  19.869  24.608  1.00  0.00    -0.275 OA
ATOM     17  C   UNL A   1      32.067  21.006  24.660  1.00  0.00     0.226 C 
ATOM     18  C   UNL A   1      31.957  21.867  23.407  1.00  0.00     0.114 C 
ATOM     19  N   UNL A   1      31.532  21.462  25.834  1.00  0.00    -0.311 N 
ATOM     20  C   UNL A   1      31.082  22.746  25.919  1.00  0.00     0.132 A 
ATOM     21  H   UNL A   1      31.473  20.865  26.614  1.00  0.00     0.171 HD
ATOM     22  C   UNL A   1      31.079  23.667  24.911  1.00  0.00     0.031 A 
ATOM     23  N   UNL A   1      30.629  23.374  27.035  1.00  0.00    -0.262 N 
ATOM     24  C   UNL A   1      30.466  24.808  25.483  1.00  0.00     0.108 A 
ATOM     25  N   UNL A   1      30.253  24.648  26.800  1.00  0.00    -0.173 NA
ATOM     26  H   UNL A   1      30.579  22.945  27.919  1.00  0.00     0.192 HD
BRANCH  24  27
ATOM     27  C   UNL A   1      30.183  26.096  24.777  1.00  0.00     0.055 A 
ATOM     28  C   UNL A   1      31.074  27.146  24.718  1.00  0.00     0.022 A 
ATOM     29  S   UNL A   1      28.760  26.417  23.891  1.00  0.00    -0.142 S 
ATOM     30  C   UNL A   1      30.622  28.176  23.841  1.00  0.00     0.012 A 
ATOM     31  C   UNL A   1      29.358  27.924  23.356  1.00  0.00     0.065 A 
ENDBRANCH  24  27
ENDBRANCH  10  15
ENDBRANCH   7   9
ENDBRANCH   6   7
ENDBRANCH   5   6
ENDBRANCH   4   5
ENDBRANCH   3   4
ENDBRANCH   2   3
ENDBRANCH   1   2
BRANCH   1  32
ATOM     32  O   UNL A   1      42.207  20.690  26.831  1.00  0.00    -0.376 OA
BRANCH  32  33
ATOM     33  C   UNL A   1      42.141  19.482  26.094  1.00  0.00     0.202 C 
BRANCH  33  34
ATOM     34  C   UNL A   1      43.342  19.035  25.273  1.00  0.00     0.261 C 
BRANCH  34  35
ATOM     35  O   UNL A   1      43.926  20.053  24.489  1.00  0.00    -0.460 OA
BRANCH  35  36
ATOM     36  C   UNL A   1      45.139  20.467  24.905  1.00  0.00     0.338 C 
ATOM     37  O   UNL A   1      46.071  19.768  25.253  1.00  0.00    -0.246 OA
BRANCH  36  38
ATOM     38  C   UNL A   1      45.121  21.931  24.925  1.00  0.00     0.060 A 
ATOM     39  C   UNL A   1      46.184  22.572  25.562  1.00  0.00     0.016 A 
ATOM     40  C   UNL A   1      43.950  22.611  24.549  1.00  0.00     0.016 A 
ATOM     41  C   UNL A   1      45.978  23.852  26.022  1.00  0.00     0.010 A 
ATOM     42  C   UNL A   1      43.741  23.882  25.023  1.00  0.00     0.010 A 
ATOM     43  C   UNL A   1      44.724  24.442  25.832  1.00  0.00    -0.014 A 
BRANCH  43  44
ATOM     44  C   UNL A   1      44.437  25.635  26.590  1.00  0.00     0.031 A 
ATOM     45  C   UNL A   1      45.439  26.706  26.483  1.00  0.00     0.074 A 
ATOM     46  C   UNL A   1      43.307  25.757  27.307  1.00  0.00     0.049 A 
ATOM     47  N   UNL A   1      46.245  27.125  27.399  1.00  0.00    -0.248 NA
ATOM     48  C   UNL A   1      45.644  27.307  25.159  1.00  0.00     0.031 C 
ATOM     49  C   UNL A   1      42.107  24.917  27.259  1.00  0.00     0.029 A 
ATOM     50  N   UNL A   1      42.967  26.747  28.172  1.00  0.00    -0.354 N 
ATOM     51  C   UNL A   1      46.927  28.189  26.827  1.00  0.00     0.074 A 
ATOM     52  C   UNL A   1      46.634  28.160  25.415  1.00  0.00     0.031 C 
ATOM     53  C   UNL A   1      41.103  25.553  27.902  1.00  0.00     0.029 A 
ATOM     54  C   UNL A   1      41.624  26.770  28.504  1.00  0.00     0.049 A 
ATOM     55  H   UNL A   1      43.619  27.392  28.530  1.00  0.00     0.167 HD
ATOM     56  C   UNL A   1      47.509  29.156  27.582  1.00  0.00     0.037 A 
ATOM     57  C   UNL A   1      40.986  27.775  29.150  1.00  0.00     0.037 A 
ATOM     58  C   UNL A   1      47.666  28.759  28.955  1.00  0.00     0.049 A 
ATOM     59  C   UNL A   1      42.016  28.565  29.878  1.00  0.00     0.074 A 
ATOM     60  C   UNL A   1      48.336  27.731  29.593  1.00  0.00     0.029 A 
ATOM     61  N   UNL A   1      46.781  29.259  29.879  1.00  0.00    -0.354 N 
ATOM     62  N   UNL A   1      42.699  28.122  30.900  1.00  0.00    -0.248 NA
ATOM     63  C   UNL A   1      42.585  29.731  29.219  1.00  0.00     0.031 C 
ATOM     64  C   UNL A   1      47.516  27.377  30.703  1.00  0.00     0.029 A 
ATOM     65  C   UNL A   1      46.403  28.220  30.694  1.00  0.00     0.049 A 
ATOM     66  H   UNL A   1      46.472  30.192  29.945  1.00  0.00     0.167 HD
ATOM     67  C   UNL A   1      43.962  28.681  30.762  1.00  0.00     0.074 A 
ATOM     68  C   UNL A   1      43.796  29.748  29.782  1.00  0.00     0.031 C 
ATOM     69  C   UNL A   1      45.075  28.055  31.247  1.00  0.00     0.037 A 
BRANCH  56  70
ATOM     70  C   UNL A   1      47.631  30.577  27.122  1.00  0.00     0.058 A 
ATOM     71  C   UNL A   1      48.881  31.219  27.133  1.00  0.00     0.135 A 
ATOM     72  C   UNL A   1      46.507  31.405  26.900  1.00  0.00     0.135 A 
ATOM     73  F   UNL A   1      50.003  30.521  27.370  1.00  0.00    -0.206 F 
ATOM     74  C   UNL A   1      49.004  32.598  26.966  1.00  0.00     0.059 A 
ATOM     75  C   UNL A   1      46.611  32.769  26.672  1.00  0.00     0.059 A 
ATOM     76  F   UNL A   1      45.255  30.936  26.990  1.00  0.00    -0.206 F 
ATOM     77  C   UNL A   1      47.860  33.364  26.748  1.00  0.00     0.060 A 
BRANCH  77  78
ATOM     78  S   UNL A   1      47.999  35.156  26.635  1.00  0.00     0.124 S 
ATOM     79  O   UNL A   1      47.897  35.361  25.195  1.00  0.00    -0.237 OA
ATOM     80  O   UNL A   1      46.859  35.604  27.429  1.00  0.00    -0.237 OA
ATOM     81  O   UNL A   1      49.308  35.425  27.223  1.00  0.00    -0.744 OA
ENDBRANCH  77  78
ENDBRANCH  56  70
BRANCH  57  82
ATOM     82  C   UNL A   1      39.613  28.276  28.892  1.00  0.00     0.058 A 
ATOM     83  C   UNL A   1      38.629  28.230  29.893  1.00  0.00     0.135 A 
ATOM     84  C   UNL A   1      39.309  29.054  27.755  1.00  0.00     0.135 A 
ATOM     85  F   UNL A   1      38.845  27.536  31.020  1.00  0.00    -0.206 F 
ATOM     86  C   UNL A   1      37.436  28.952  29.796  1.00  0.00     0.059 A 
ATOM     87  C   UNL A   1      38.120  29.766  27.627  1.00  0.00     0.059 A 
ATOM     88  F   UNL A   1      40.201  29.227  26.768  1.00  0.00    -0.206 F 
ATOM     89  C   UNL A   1      37.199  29.734  28.665  1.00  0.00     0.060 A 
BRANCH  89  90
ATOM     90  S   UNL A   1      35.748  30.809  28.615  1.00  0.00     0.124 S 
ATOM     91  O   UNL A   1      36.171  31.841  27.675  1.00  0.00    -0.237 OA
ATOM     92  O   UNL A   1      34.709  29.901  28.144  1.00  0.00    -0.237 OA
ATOM     93  O   UNL A   1      35.605  31.248  30.002  1.00  0.00    -0.744 OA
ENDBRANCH  89  90
ENDBRANCH  57  82
BRANCH  69  94
ATOM     94  C   UNL A   1      44.884  26.932  32.234  1.00  0.00     0.058 A 
ATOM     95  C   UNL A   1      44.697  25.586  31.872  1.00  0.00     0.135 A 
ATOM     96  C   UNL A   1      45.041  27.210  33.602  1.00  0.00     0.135 A 
ATOM     97  F   UNL A   1      44.646  25.221  30.583  1.00  0.00    -0.206 F 
ATOM     98  C   UNL A   1      44.625  24.570  32.827  1.00  0.00     0.059 A 
ATOM     99  C   UNL A   1      45.005  26.209  34.569  1.00  0.00     0.059 A 
ATOM    100  F   UNL A   1      45.287  28.466  34.009  1.00  0.00    -0.206 F 
ATOM    101  C   UNL A   1      44.781  24.891  34.176  1.00  0.00     0.060 A 
BRANCH 101 102
ATOM    102  S   UNL A   1      44.775  23.565  35.402  1.00  0.00     0.124 S 
ATOM    103  O   UNL A   1      45.280  24.244  36.591  1.00  0.00    -0.237 OA
ATOM    104  O   UNL A   1      43.369  23.175  35.444  1.00  0.00    -0.237 OA
ATOM    105  O   UNL A   1      45.671  22.564  34.827  1.00  0.00    -0.744 OA
ENDBRANCH 101 102
ENDBRANCH  69  94
ENDBRANCH  43  44
ENDBRANCH  36  38
ENDBRANCH  35  36
ENDBRANCH  34  35
ENDBRANCH  33  34
ENDBRANCH  32  33
ENDBRANCH   1  32
TORSDOF 22
ENDMDL
MODEL 3
REMARK VINA RESULT:     -11.1      2.733      9.429
REMARK SMILES O=C1C[C@H](c2cn[nH]c2C(=O)OCCOCCOCCOC(=O)c2ccc(-c3c4nc(c(-c5c(F)cc(S(=O)(=O)[O-])cc5F)c5ccc([nH]5)c(-c5c(F)cc(S(=O)(=O)[O-])cc5F)c5nc(c(-c6c(F)cc(S(=O)(=O)[O-])cc6F)c6ccc3[nH]6)C=C5)C=C4)cc2)c2c(-c3cccs3)n[nH]c2N1
REMARK SMILES IDX 17 1 16 2 15 3 14 4 13 5 12 6 10 7 11 8 9 9 5 10 6 11 7 12
REMARK SMILES IDX 8 13 4 15 1 16 2 17 3 18 100 19 99 20 90 22 98 23 91 24
REMARK SMILES IDX 97 25 92 27 93 28 96 29 94 30 95 31 18 32 19 33 20 34 21 35
REMARK SMILES IDX 22 36 23 37 24 38 25 39 89 40 26 41 88 42 27 43 28 44 29 45
REMARK SMILES IDX 82 46 30 47 87 48 81 49 83 50 31 51 86 52 80 53 79 54 32 56
REMARK SMILES IDX 66 57 45 58 65 59 46 60 49 61 64 62 84 63 47 64 48 65 63 67
REMARK SMILES IDX 85 68 50 69 33 70 34 71 43 72 35 73 36 74 42 75 44 76 37 77
REMARK SMILES IDX 38 78 39 79 40 80 41 81 67 82 68 83 77 84 69 85 70 86 76 87
REMARK SMILES IDX 78 88 71 89 72 90 73 91 74 92 75 93 51 94 52 95 61 96 53 97
REMARK SMILES IDX 54 98 60 99 62 100 55 101 56 102 57 103 58 104 59 105
REMARK H PARENT 8 14 100 21 98 26 83 55 49 66
REMARK Flexibility Score: inf
ROOT
ATOM      1  C   UNL A   1      33.668  31.759  27.923  1.00  0.00     0.188 C 
ENDROOT
BRANCH   1   2
ATOM      2  C   UNL A   1      32.962  30.547  27.272  1.00  0.00     0.188 C 
BRANCH   2   3
ATOM      3  O   UNL A   1      33.453  30.041  26.032  1.00  0.00    -0.376 OA
BRANCH   3   4
ATOM      4  C   UNL A   1      32.642  29.129  25.293  1.00  0.00     0.202 C 
BRANCH   4   5
ATOM      5  C   UNL A   1      32.218  27.817  25.970  1.00  0.00     0.261 C 
BRANCH   5   6
ATOM      6  O   UNL A   1      33.322  27.011  26.433  1.00  0.00    -0.459 OA
BRANCH   6   7
ATOM      7  C   UNL A   1      33.433  25.775  25.883  1.00  0.00     0.356 C 
ATOM      8  O   UNL A   1      34.475  25.297  25.458  1.00  0.00    -0.244 OA
BRANCH   7   9
ATOM      9  C   UNL A   1      32.225  24.991  26.029  1.00  0.00     0.147 A 
ATOM     10  C   UNL A   1      31.094  24.634  25.285  1.00  0.00     0.013 A 
ATOM     11  C   UNL A   1      30.377  23.781  26.183  1.00  0.00     0.140 A 
ATOM     12  N   UNL A   1      30.968  23.626  27.360  1.00  0.00    -0.183 NA
ATOM     13  N   UNL A   1      32.082  24.348  27.238  1.00  0.00    -0.271 N 
ATOM     14  H   UNL A   1      32.750  24.417  27.956  1.00  0.00     0.190 HD
BRANCH  10  15
ATOM     15  C   UNL A   1      30.606  24.846  23.854  1.00  0.00     0.069 C 
ATOM     16  O   UNL A   1      29.766  28.381  22.866  1.00  0.00    -0.275 OA
ATOM     17  C   UNL A   1      30.280  27.261  22.833  1.00  0.00     0.226 C 
ATOM     18  C   UNL A   1      29.740  26.125  23.694  1.00  0.00     0.114 C 
ATOM     19  N   UNL A   1      31.277  27.002  21.933  1.00  0.00    -0.311 N 
ATOM     20  C   UNL A   1      31.904  25.792  21.947  1.00  0.00     0.132 A 
ATOM     21  H   UNL A   1      31.540  27.688  21.278  1.00  0.00     0.171 HD
ATOM     22  C   UNL A   1      31.620  24.747  22.779  1.00  0.00     0.031 A 
ATOM     23  N   UNL A   1      32.975  25.425  21.196  1.00  0.00    -0.262 N 
ATOM     24  C   UNL A   1      32.498  23.719  22.359  1.00  0.00     0.108 A 
ATOM     25  N   UNL A   1      33.370  24.158  21.436  1.00  0.00    -0.173 NA
ATOM     26  H   UNL A   1      33.414  26.019  20.546  1.00  0.00     0.192 HD
BRANCH  24  27
ATOM     27  C   UNL A   1      32.563  22.337  22.928  1.00  0.00     0.055 A 
ATOM     28  C   UNL A   1      31.924  21.250  22.369  1.00  0.00     0.022 A 
ATOM     29  S   UNL A   1      33.487  21.899  24.295  1.00  0.00    -0.142 S 
ATOM     30  C   UNL A   1      32.294  20.031  23.010  1.00  0.00     0.012 A 
ATOM     31  C   UNL A   1      33.108  20.246  24.100  1.00  0.00     0.065 A 
ENDBRANCH  24  27
ENDBRANCH  10  15
ENDBRANCH   7   9
ENDBRANCH   6   7
ENDBRANCH   5   6
ENDBRANCH   4   5
ENDBRANCH   3   4
ENDBRANCH   2   3
ENDBRANCH   1   2
BRANCH   1  32
ATOM     32  O   UNL A   1      35.024  31.899  27.533  1.00  0.00    -0.376 OA
BRANCH  32  33
ATOM     33  C   UNL A   1      35.706  33.100  27.848  1.00  0.00     0.202 C 
BRANCH  33  34
ATOM     34  C   UNL A   1      34.991  34.187  28.637  1.00  0.00     0.261 C 
BRANCH  34  35
ATOM     35  O   UNL A   1      35.569  34.474  29.891  1.00  0.00    -0.460 OA
BRANCH  35  36
ATOM     36  C   UNL A   1      35.156  33.683  30.902  1.00  0.00     0.338 C 
ATOM     37  O   UNL A   1      34.018  33.546  31.306  1.00  0.00    -0.246 OA
BRANCH  36  38
ATOM     38  C   UNL A   1      36.345  33.050  31.479  1.00  0.00     0.060 A 
ATOM     39  C   UNL A   1      37.579  33.633  31.192  1.00  0.00     0.016 A 
ATOM     40  C   UNL A   1      36.233  31.776  32.061  1.00  0.00     0.016 A 
ATOM     41  C   UNL A   1      38.700  32.841  31.286  1.00  0.00     0.010 A 
ATOM     42  C   UNL A   1      37.350  30.982  32.137  1.00  0.00     0.010 A 
ATOM     43  C   UNL A   1      38.547  31.501  31.658  1.00  0.00    -0.014 A 
BRANCH  43  44
ATOM     44  C   UNL A   1      39.675  30.628  31.441  1.00  0.00     0.031 A 
ATOM     45  C   UNL A   1      40.558  30.437  32.601  1.00  0.00     0.074 A 
ATOM     46  C   UNL A   1      39.865  30.006  30.265  1.00  0.00     0.049 A 
ATOM     47  N   UNL A   1      41.768  30.859  32.748  1.00  0.00    -0.248 NA
ATOM     48  C   UNL A   1      39.981  29.795  33.789  1.00  0.00     0.031 C 
ATOM     49  C   UNL A   1      38.923  29.863  29.151  1.00  0.00     0.029 A 
ATOM     50  N   UNL A   1      40.938  29.275  29.869  1.00  0.00    -0.354 N 
ATOM     51  C   UNL A   1      42.185  30.359  33.972  1.00  0.00     0.074 A 
ATOM     52  C   UNL A   1      41.009  29.848  34.635  1.00  0.00     0.031 C 
ATOM     53  C   UNL A   1      39.391  28.922  28.302  1.00  0.00     0.029 A 
ATOM     54  C   UNL A   1      40.710  28.498  28.747  1.00  0.00     0.049 A 
ATOM     55  H   UNL A   1      41.803  29.295  30.339  1.00  0.00     0.167 HD
ATOM     56  C   UNL A   1      43.499  30.196  34.270  1.00  0.00     0.037 A 
ATOM     57  C   UNL A   1      41.519  27.515  28.286  1.00  0.00     0.037 A 
ATOM     58  C   UNL A   1      44.358  30.927  33.378  1.00  0.00     0.049 A 
ATOM     59  C   UNL A   1      42.878  27.757  28.842  1.00  0.00     0.074 A 
ATOM     60  C   UNL A   1      44.504  32.263  33.058  1.00  0.00     0.029 A 
ATOM     61  N   UNL A   1      45.003  30.231  32.385  1.00  0.00    -0.354 N 
ATOM     62  N   UNL A   1      43.641  28.765  28.512  1.00  0.00    -0.248 NA
ATOM     63  C   UNL A   1      43.246  27.088  30.082  1.00  0.00     0.031 C 
ATOM     64  C   UNL A   1      44.834  32.285  31.671  1.00  0.00     0.029 A 
ATOM     65  C   UNL A   1      44.892  30.963  31.229  1.00  0.00     0.049 A 
ATOM     66  H   UNL A   1      45.460  29.364  32.484  1.00  0.00     0.167 HD
ATOM     67  C   UNL A   1      44.311  29.108  29.679  1.00  0.00     0.074 A 
ATOM     68  C   UNL A   1      44.115  27.974  30.574  1.00  0.00     0.031 C 
ATOM     69  C   UNL A   1      44.729  30.389  29.909  1.00  0.00     0.037 A 
BRANCH  56  70
ATOM     70  C   UNL A   1      43.994  29.108  35.175  1.00  0.00     0.058 A 
ATOM     71  C   UNL A   1      43.679  27.765  34.905  1.00  0.00     0.135 A 
ATOM     72  C   UNL A   1      44.568  29.371  36.439  1.00  0.00     0.135 A 
ATOM     73  F   UNL A   1      43.099  27.422  33.744  1.00  0.00    -0.206 F 
ATOM     74  C   UNL A   1      43.890  26.755  35.841  1.00  0.00     0.059 A 
ATOM     75  C   UNL A   1      44.841  28.374  37.364  1.00  0.00     0.059 A 
ATOM     76  F   UNL A   1      44.797  30.621  36.865  1.00  0.00    -0.206 F 
ATOM     77  C   UNL A   1      44.461  27.073  37.073  1.00  0.00     0.060 A 
BRANCH  77  78
ATOM     78  S   UNL A   1      44.640  25.794  38.327  1.00  0.00     0.124 S 
ATOM     79  O   UNL A   1      46.060  25.899  38.642  1.00  0.00    -0.237 OA
ATOM     80  O   UNL A   1      43.718  26.246  39.363  1.00  0.00    -0.237 OA
ATOM     81  O   UNL A   1      44.235  24.580  37.623  1.00  0.00    -0.744 OA
ENDBRANCH  77  78
ENDBRANCH  56  70
BRANCH  57  82
ATOM     82  C   UNL A   1      41.106  26.221  27.689  1.00  0.00     0.058 A 
ATOM     83  C   UNL A   1      41.890  25.598  26.705  1.00  0.00     0.135 A 
ATOM     84  C   UNL A   1      40.081  25.435  28.258  1.00  0.00     0.135 A 
ATOM     85  F   UNL A   1      42.904  26.262  26.129  1.00  0.00    -0.206 F 
ATOM     86  C   UNL A   1      41.703  24.261  26.341  1.00  0.00     0.059 A 
ATOM     87  C   UNL A   1      39.863  24.108  27.898  1.00  0.00     0.059 A 
ATOM     88  F   UNL A   1      39.315  25.902  29.256  1.00  0.00    -0.206 F 
ATOM     89  C   UNL A   1      40.697  23.518  26.959  1.00  0.00     0.060 A 
BRANCH  89  90
ATOM     90  S   UNL A   1      40.569  21.747  26.628  1.00  0.00     0.124 S 
ATOM     91  O   UNL A   1      41.692  21.528  25.723  1.00  0.00    -0.237 OA
ATOM     92  O   UNL A   1      40.704  21.175  27.963  1.00  0.00    -0.237 OA
ATOM     93  O   UNL A   1      39.245  21.609  26.025  1.00  0.00    -0.744 OA
ENDBRANCH  89  90
ENDBRANCH  57  82
BRANCH  69  94
ATOM     94  C   UNL A   1      44.768  31.343  28.743  1.00  0.00     0.058 A 
ATOM     95  C   UNL A   1      45.811  31.397  27.801  1.00  0.00     0.135 A 
ATOM     96  C   UNL A   1      43.635  32.134  28.488  1.00  0.00     0.135 A 
ATOM     97  F   UNL A   1      46.879  30.594  27.912  1.00  0.00    -0.206 F 
ATOM     98  C   UNL A   1      45.751  32.231  26.683  1.00  0.00     0.059 A 
ATOM     99  C   UNL A   1      43.540  32.949  27.363  1.00  0.00     0.059 A 
ATOM    100  F   UNL A   1      42.578  32.080  29.315  1.00  0.00    -0.206 F 
ATOM    101  C   UNL A   1      44.609  33.004  26.471  1.00  0.00     0.060 A 
BRANCH 101 102
ATOM    102  S   UNL A   1      44.496  34.015  24.979  1.00  0.00     0.124 S 
ATOM    103  O   UNL A   1      45.806  34.657  24.943  1.00  0.00    -0.237 OA
ATOM    104  O   UNL A   1      44.249  33.023  23.937  1.00  0.00    -0.237 OA
ATOM    105  O   UNL A   1      43.371  34.907  25.255  1.00  0.00    -0.744 OA
ENDBRANCH 101 102
ENDBRANCH  69  94
ENDBRANCH  43  44
ENDBRANCH  36  38
ENDBRANCH  35  36
ENDBRANCH  34  35
ENDBRANCH  33  34
ENDBRANCH  32  33
ENDBRANCH   1  32
TORSDOF 22
ENDMDL
