MODEL 1
REMARK VINA RESULT:      -6.8      0.000      0.000
REMARK SMILES Cc1ccc(S(=O)(=O)n2cc(C(=O)C(=O)N[C@H](Cc3c[nH]c4ccccc34)C(=O)NCC(=O)OCCOCCOCCOC(=O)c3ccc(-c4c5nc(c(-c6c(F)cc(S(=O)(=O)[O-])cc6F)c6ccc([nH]6)c(-c6c(F)cc(S(=O)(=O)[O-])cc6F)c6nc(c(-c7c(F)cc(S(=O)(=O)[O-])cc7F)c7ccc4[nH]7)C=C6)C=C5)cc3)c3ccccc32)cc1
REMARK SMILES IDX 36 1 35 2 34 3 32 4 33 5 31 6 30 7 28 8 29 9 17 11 16 12
REMARK SMILES IDX 14 13 15 14 12 16 13 17 11 18 9 19 10 20 117 21 112 22
REMARK SMILES IDX 116 23 113 24 115 25 114 26 6 27 7 28 8 29 5 30 1 31 2 32
REMARK SMILES IDX 3 33 119 34 4 35 118 36 18 37 19 38 20 39 27 40 21 41 22 42
REMARK SMILES IDX 26 43 23 45 25 46 24 47 37 48 38 49 39 50 40 51 41 52 42 53
REMARK SMILES IDX 43 54 44 55 45 56 46 57 47 58 111 59 48 60 110 61 49 62
REMARK SMILES IDX 50 63 51 64 104 65 52 66 109 67 103 68 105 69 53 70 108 71
REMARK SMILES IDX 102 72 101 73 54 75 88 76 67 77 87 78 68 79 71 80 86 81
REMARK SMILES IDX 106 82 69 83 70 84 85 86 107 87 72 88 55 89 56 90 65 91
REMARK SMILES IDX 57 92 58 93 64 94 66 95 59 96 60 97 61 98 62 99 63 100
REMARK SMILES IDX 89 101 90 102 99 103 91 104 92 105 98 106 100 107 93 108
REMARK SMILES IDX 94 109 95 110 96 111 97 112 73 113 74 114 83 115 75 116
REMARK SMILES IDX 76 117 82 118 84 119 77 120 78 121 79 122 80 123 81 124
REMARK H PARENT 30 10 16 15 21 44 105 74 71 85
REMARK Flexibility Score: inf
ROOT
ATOM      1  C   UNL A   1      44.612  44.068  24.329  1.00  0.00     0.202 C 
ENDROOT
BRANCH   1   2
ATOM      2  C   UNL A   1      43.492  43.055  24.145  1.00  0.00     0.261 C 
BRANCH   2   3
ATOM      3  O   UNL A   1      43.524  41.596  24.409  1.00  0.00    -0.462 OA
BRANCH   3   4
ATOM      4  C   UNL A   1      43.537  40.962  25.600  1.00  0.00     0.325 C 
ATOM      5  O   UNL A   1      42.631  41.200  26.398  1.00  0.00    -0.250 OA
BRANCH   4   6
ATOM      6  C   UNL A   1      44.967  40.227  26.119  1.00  0.00     0.238 C 
BRANCH   6   7
ATOM      7  N   UNL A   1      45.705  39.545  27.270  1.00  0.00    -0.343 N 
ATOM      8  C   UNL A   1      46.502  38.419  27.465  1.00  0.00     0.243 C 
ATOM      9  O   UNL A   1      47.192  38.479  28.504  1.00  0.00    -0.273 OA
ATOM     10  H   UNL A   1      45.585  40.042  28.110  1.00  0.00     0.164 HD
BRANCH   8  11
ATOM     11  C   UNL A   1      46.495  36.940  26.730  1.00  0.00     0.176 C 
BRANCH  11  12
ATOM     12  N   UNL A   1      45.338  35.977  26.957  1.00  0.00    -0.337 N 
ATOM     13  C   UNL A   1      44.193  36.030  27.765  1.00  0.00     0.293 C 
ATOM     14  O   UNL A   1      43.571  37.088  27.816  1.00  0.00    -0.265 OA
ATOM     15  H   UNL A   1      45.410  35.147  26.431  1.00  0.00     0.164 HD
BRANCH  13  16
ATOM     16  C   UNL A   1      43.549  34.632  28.338  1.00  0.00     0.252 C 
ATOM     17  O   UNL A   1      42.659  35.041  29.112  1.00  0.00    -0.283 OA
BRANCH  16  18
ATOM     18  C   UNL A   1      43.960  32.942  28.220  1.00  0.00     0.054 A 
ATOM     19  N   UNL A   1      45.615  31.471  27.465  1.00  0.00    -0.240 N 
ATOM     20  C   UNL A   1      45.076  32.702  27.499  1.00  0.00     0.117 A 
ATOM     21  C   UNL A   1      44.676  30.637  28.061  1.00  0.00     0.065 A 
ATOM     22  C   UNL A   1      43.617  31.453  28.529  1.00  0.00     0.012 A 
ATOM     23  C   UNL A   1      44.664  29.219  28.146  1.00  0.00     0.028 A 
ATOM     24  C   UNL A   1      42.527  30.658  29.057  1.00  0.00     0.011 A 
ATOM     25  C   UNL A   1      43.587  28.540  28.677  1.00  0.00     0.002 A 
ATOM     26  C   UNL A   1      42.515  29.258  29.131  1.00  0.00     0.001 A 
BRANCH  19  27
ATOM     27  S   UNL A   1      46.875  30.688  26.571  1.00  0.00     0.268 S 
ATOM     28  O   UNL A   1      47.808  31.801  26.395  1.00  0.00    -0.201 OA
ATOM     29  O   UNL A   1      46.131  30.210  25.405  1.00  0.00    -0.201 OA
BRANCH  27  30
ATOM     30  C   UNL A   1      47.986  29.303  26.774  1.00  0.00     0.088 A 
ATOM     31  C   UNL A   1      49.854  25.355  26.903  1.00  0.00     0.044 C 
ATOM     32  C   UNL A   1      49.248  26.727  26.848  1.00  0.00    -0.051 A 
ATOM     33  C   UNL A   1      48.196  26.964  25.976  1.00  0.00     0.005 A 
ATOM     34  C   UNL A   1      49.638  27.765  27.706  1.00  0.00     0.005 A 
ATOM     35  C   UNL A   1      47.600  28.226  25.932  1.00  0.00     0.022 A 
ATOM     36  C   UNL A   1      48.978  29.023  27.702  1.00  0.00     0.022 A 
ENDBRANCH  27  30
ENDBRANCH  19  27
ENDBRANCH  16  18
ENDBRANCH  13  16
ENDBRANCH  11  12
BRANCH  11  37
ATOM     37  C   UNL A   1      48.017  36.385  26.763  1.00  0.00     0.072 C 
BRANCH  37  38
ATOM     38  C   UNL A   1      49.100  35.591  27.632  1.00  0.00    -0.020 A 
ATOM     39  C   UNL A   1      50.476  35.562  27.379  1.00  0.00     0.087 A 
ATOM     40  C   UNL A   1      48.950  34.445  28.513  1.00  0.00     0.003 A 
ATOM     41  N   UNL A   1      51.087  34.462  27.882  1.00  0.00    -0.361 N 
ATOM     42  C   UNL A   1      50.156  33.716  28.522  1.00  0.00     0.046 A 
ATOM     43  C   UNL A   1      47.891  33.891  29.248  1.00  0.00     0.010 A 
ATOM     44  H   UNL A   1      52.042  34.243  27.797  1.00  0.00     0.166 HD
ATOM     45  C   UNL A   1      50.334  32.456  29.089  1.00  0.00     0.026 A 
ATOM     46  C   UNL A   1      48.077  32.662  29.909  1.00  0.00     0.001 A 
ATOM     47  C   UNL A   1      49.263  31.937  29.796  1.00  0.00     0.002 A 
ENDBRANCH  37  38
ENDBRANCH  11  37
ENDBRANCH   8  11
ENDBRANCH   6   7
ENDBRANCH   4   6
ENDBRANCH   3   4
ENDBRANCH   2   3
ENDBRANCH   1   2
BRANCH   1  48
ATOM     48  O   UNL A   1      45.074  44.229  25.639  1.00  0.00    -0.376 OA
BRANCH  48  49
ATOM     49  C   UNL A   1      46.463  43.990  25.810  1.00  0.00     0.188 C 
BRANCH  49  50
ATOM     50  C   UNL A   1      46.863  43.186  27.051  1.00  0.00     0.188 C 
BRANCH  50  51
ATOM     51  O   UNL A   1      46.859  43.922  28.270  1.00  0.00    -0.376 OA
BRANCH  51  52
ATOM     52  C   UNL A   1      46.088  43.481  29.370  1.00  0.00     0.202 C 
BRANCH  52  53
ATOM     53  C   UNL A   1      44.790  42.913  28.806  1.00  0.00     0.261 C 
BRANCH  53  54
ATOM     54  O   UNL A   1      44.641  41.564  29.312  1.00  0.00    -0.460 OA
BRANCH  54  55
ATOM     55  C   UNL A   1      43.810  41.467  30.384  1.00  0.00     0.338 C 
ATOM     56  O   UNL A   1      42.988  42.314  30.698  1.00  0.00    -0.246 OA
BRANCH  55  57
ATOM     57  C   UNL A   1      44.193  40.272  31.212  1.00  0.00     0.060 A 
ATOM     58  C   UNL A   1      44.331  39.088  30.544  1.00  0.00     0.016 A 
ATOM     59  C   UNL A   1      44.206  40.204  32.622  1.00  0.00     0.016 A 
ATOM     60  C   UNL A   1      44.299  37.902  31.306  1.00  0.00     0.010 A 
ATOM     61  C   UNL A   1      44.169  38.948  33.356  1.00  0.00     0.010 A 
ATOM     62  C   UNL A   1      44.138  37.710  32.704  1.00  0.00    -0.014 A 
BRANCH  62  63
ATOM     63  C   UNL A   1      43.905  36.218  33.317  1.00  0.00     0.031 A 
ATOM     64  C   UNL A   1      45.292  35.230  33.543  1.00  0.00     0.074 A 
ATOM     65  C   UNL A   1      42.576  35.788  33.700  1.00  0.00     0.049 A 
ATOM     66  N   UNL A   1      45.539  34.575  34.650  1.00  0.00    -0.248 NA
ATOM     67  C   UNL A   1      46.327  34.744  32.598  1.00  0.00     0.031 C 
ATOM     68  C   UNL A   1      41.811  36.200  34.918  1.00  0.00     0.029 A 
ATOM     69  N   UNL A   1      41.659  34.732  33.320  1.00  0.00    -0.354 N 
ATOM     70  C   UNL A   1      46.489  33.594  34.553  1.00  0.00     0.074 A 
ATOM     71  C   UNL A   1      46.986  33.760  33.218  1.00  0.00     0.031 C 
ATOM     72  C   UNL A   1      40.612  35.567  35.054  1.00  0.00     0.029 A 
ATOM     73  C   UNL A   1      40.471  34.539  34.039  1.00  0.00     0.049 A 
ATOM     74  H   UNL A   1      41.870  34.149  32.556  1.00  0.00     0.167 HD
ATOM     75  C   UNL A   1      46.697  32.488  35.341  1.00  0.00     0.037 A 
ATOM     76  C   UNL A   1      39.434  33.631  33.873  1.00  0.00     0.037 A 
ATOM     77  C   UNL A   1      45.524  31.643  35.859  1.00  0.00     0.049 A 
ATOM     78  C   UNL A   1      39.796  32.074  33.787  1.00  0.00     0.074 A 
ATOM     79  C   UNL A   1      44.968  31.298  37.089  1.00  0.00     0.029 A 
ATOM     80  N   UNL A   1      44.701  30.859  34.988  1.00  0.00    -0.354 N 
ATOM     81  N   UNL A   1      40.422  31.402  34.744  1.00  0.00    -0.248 NA
ATOM     82  C   UNL A   1      39.527  31.122  32.707  1.00  0.00     0.031 C 
ATOM     83  C   UNL A   1      43.756  30.488  36.901  1.00  0.00     0.029 A 
ATOM     84  C   UNL A   1      43.462  30.373  35.541  1.00  0.00     0.049 A 
ATOM     85  H   UNL A   1      44.968  30.664  34.061  1.00  0.00     0.167 HD
ATOM     86  C   UNL A   1      41.137  30.294  34.206  1.00  0.00     0.074 A 
ATOM     87  C   UNL A   1      40.320  30.062  33.008  1.00  0.00     0.031 C 
ATOM     88  C   UNL A   1      42.363  29.703  34.644  1.00  0.00     0.037 A 
BRANCH  75  89
ATOM     89  C   UNL A   1      48.161  32.514  35.881  1.00  0.00     0.058 A 
ATOM     90  C   UNL A   1      49.137  31.599  35.449  1.00  0.00     0.135 A 
ATOM     91  C   UNL A   1      48.630  33.388  36.922  1.00  0.00     0.135 A 
ATOM     92  F   UNL A   1      48.852  30.678  34.520  1.00  0.00    -0.206 F 
ATOM     93  C   UNL A   1      50.445  31.564  35.978  1.00  0.00     0.059 A 
ATOM     94  C   UNL A   1      49.926  33.392  37.434  1.00  0.00     0.059 A 
ATOM     95  F   UNL A   1      47.843  34.274  37.548  1.00  0.00    -0.206 F 
ATOM     96  C   UNL A   1      50.832  32.468  36.965  1.00  0.00     0.060 A 
BRANCH  96  97
ATOM     97  S   UNL A   1      52.507  32.456  37.637  1.00  0.00     0.124 S 
ATOM     98  O   UNL A   1      53.319  32.475  36.426  1.00  0.00    -0.237 OA
ATOM     99  O   UNL A   1      52.530  33.671  38.444  1.00  0.00    -0.237 OA
ATOM    100  O   UNL A   1      52.560  31.208  38.399  1.00  0.00    -0.744 OA
ENDBRANCH  96  97
ENDBRANCH  75  89
BRANCH  76 101
ATOM    101  C   UNL A   1      38.311  34.312  33.089  1.00  0.00     0.058 A 
ATOM    102  C   UNL A   1      38.341  34.361  31.670  1.00  0.00     0.135 A 
ATOM    103  C   UNL A   1      37.042  34.488  33.667  1.00  0.00     0.135 A 
ATOM    104  F   UNL A   1      39.516  34.245  31.028  1.00  0.00    -0.206 F 
ATOM    105  C   UNL A   1      37.170  34.353  30.883  1.00  0.00     0.059 A 
ATOM    106  C   UNL A   1      35.863  34.507  32.907  1.00  0.00     0.059 A 
ATOM    107  F   UNL A   1      36.895  34.440  34.998  1.00  0.00    -0.206 F 
ATOM    108  C   UNL A   1      35.931  34.324  31.525  1.00  0.00     0.060 A 
BRANCH 108 109
ATOM    109  S   UNL A   1      34.466  33.569  30.719  1.00  0.00     0.124 S 
ATOM    110  O   UNL A   1      34.143  32.479  31.634  1.00  0.00    -0.237 OA
ATOM    111  O   UNL A   1      33.476  34.640  30.656  1.00  0.00    -0.237 OA
ATOM    112  O   UNL A   1      35.006  33.152  29.422  1.00  0.00    -0.744 OA
ENDBRANCH 108 109
ENDBRANCH  76 101
BRANCH  88 113
ATOM    113  C   UNL A   1      42.652  28.223  34.352  1.00  0.00     0.058 A 
ATOM    114  C   UNL A   1      42.480  27.204  35.309  1.00  0.00     0.135 A 
ATOM    115  C   UNL A   1      43.394  27.842  33.205  1.00  0.00     0.135 A 
ATOM    116  F   UNL A   1      41.876  27.440  36.483  1.00  0.00    -0.206 F 
ATOM    117  C   UNL A   1      42.994  25.916  35.134  1.00  0.00     0.059 A 
ATOM    118  C   UNL A   1      43.987  26.594  33.053  1.00  0.00     0.059 A 
ATOM    119  F   UNL A   1      43.603  28.676  32.179  1.00  0.00    -0.206 F 
ATOM    120  C   UNL A   1      43.780  25.634  34.023  1.00  0.00     0.060 A 
BRANCH 120 121
ATOM    121  S   UNL A   1      44.560  24.019  33.883  1.00  0.00     0.124 S 
ATOM    122  O   UNL A   1      43.546  23.145  34.466  1.00  0.00    -0.237 OA
ATOM    123  O   UNL A   1      44.743  23.903  32.439  1.00  0.00    -0.237 OA
ATOM    124  O   UNL A   1      45.787  24.159  34.659  1.00  0.00    -0.744 OA
ENDBRANCH 120 121
ENDBRANCH  88 113
ENDBRANCH  62  63
ENDBRANCH  55  57
ENDBRANCH  54  55
ENDBRANCH  53  54
ENDBRANCH  52  53
ENDBRANCH  51  52
ENDBRANCH  50  51
ENDBRANCH  49  50
ENDBRANCH  48  49
ENDBRANCH   1  48
TORSDOF 29
ENDMDL
MODEL 2
REMARK VINA RESULT:      -6.7      4.024     11.399
REMARK SMILES Cc1ccc(S(=O)(=O)n2cc(C(=O)C(=O)N[C@H](Cc3c[nH]c4ccccc34)C(=O)NCC(=O)OCCOCCOCCOC(=O)c3ccc(-c4c5nc(c(-c6c(F)cc(S(=O)(=O)[O-])cc6F)c6ccc([nH]6)c(-c6c(F)cc(S(=O)(=O)[O-])cc6F)c6nc(c(-c7c(F)cc(S(=O)(=O)[O-])cc7F)c7ccc4[nH]7)C=C6)C=C5)cc3)c3ccccc32)cc1
REMARK SMILES IDX 36 1 35 2 34 3 32 4 33 5 31 6 30 7 28 8 29 9 17 11 16 12
REMARK SMILES IDX 14 13 15 14 12 16 13 17 11 18 9 19 10 20 117 21 112 22
REMARK SMILES IDX 116 23 113 24 115 25 114 26 6 27 7 28 8 29 5 30 1 31 2 32
REMARK SMILES IDX 3 33 119 34 4 35 118 36 18 37 19 38 20 39 27 40 21 41 22 42
REMARK SMILES IDX 26 43 23 45 25 46 24 47 37 48 38 49 39 50 40 51 41 52 42 53
REMARK SMILES IDX 43 54 44 55 45 56 46 57 47 58 111 59 48 60 110 61 49 62
REMARK SMILES IDX 50 63 51 64 104 65 52 66 109 67 103 68 105 69 53 70 108 71
REMARK SMILES IDX 102 72 101 73 54 75 88 76 67 77 87 78 68 79 71 80 86 81
REMARK SMILES IDX 106 82 69 83 70 84 85 86 107 87 72 88 55 89 56 90 65 91
REMARK SMILES IDX 57 92 58 93 64 94 66 95 59 96 60 97 61 98 62 99 63 100
REMARK SMILES IDX 89 101 90 102 99 103 91 104 92 105 98 106 100 107 93 108
REMARK SMILES IDX 94 109 95 110 96 111 97 112 73 113 74 114 83 115 75 116
REMARK SMILES IDX 76 117 82 118 84 119 77 120 78 121 79 122 80 123 81 124
REMARK H PARENT 30 10 16 15 21 44 105 74 71 85
REMARK Flexibility Score: inf
ROOT
ATOM      1  C   UNL A   1      46.221  42.655  33.200  1.00  0.00     0.202 C 
ENDROOT
BRANCH   1   2
ATOM      2  C   UNL A   1      46.772  41.787  32.079  1.00  0.00     0.261 C 
BRANCH   2   3
ATOM      3  O   UNL A   1      46.683  42.012  30.616  1.00  0.00    -0.462 OA
BRANCH   3   4
ATOM      4  C   UNL A   1      47.551  41.626  29.657  1.00  0.00     0.325 C 
ATOM      5  O   UNL A   1      48.207  42.494  29.080  1.00  0.00    -0.250 OA
BRANCH   4   6
ATOM      6  C   UNL A   1      47.403  40.079  28.995  1.00  0.00     0.238 C 
BRANCH   6   7
ATOM      7  N   UNL A   1      46.863  39.230  27.846  1.00  0.00    -0.343 N 
ATOM      8  C   UNL A   1      45.862  39.313  26.880  1.00  0.00     0.243 C 
ATOM      9  O   UNL A   1      46.045  38.543  25.914  1.00  0.00    -0.273 OA
ATOM     10  H   UNL A   1      47.363  38.387  27.764  1.00  0.00     0.164 HD
BRANCH   8  11
ATOM     11  C   UNL A   1      44.374  40.031  26.913  1.00  0.00     0.176 C 
BRANCH  11  12
ATOM     12  N   UNL A   1      44.169  41.398  26.278  1.00  0.00    -0.337 N 
ATOM     13  C   UNL A   1      43.382  41.848  25.207  1.00  0.00     0.293 C 
ATOM     14  O   UNL A   1      42.233  41.422  25.116  1.00  0.00    -0.265 OA
ATOM     15  H   UNL A   1      44.696  42.112  26.704  1.00  0.00     0.164 HD
BRANCH  13  16
ATOM     16  C   UNL A   1      43.887  43.139  24.326  1.00  0.00     0.252 C 
ATOM     17  O   UNL A   1      44.301  43.922  25.206  1.00  0.00    -0.283 OA
BRANCH  16  18
ATOM     18  C   UNL A   1      43.782  43.609  22.652  1.00  0.00     0.054 A 
ATOM     19  N   UNL A   1      44.942  44.714  20.946  1.00  0.00    -0.240 N 
ATOM     20  C   UNL A   1      44.789  44.412  22.247  1.00  0.00     0.117 A 
ATOM     21  C   UNL A   1      43.788  44.255  20.320  1.00  0.00     0.065 A 
ATOM     22  C   UNL A   1      43.009  43.589  21.298  1.00  0.00     0.012 A 
ATOM     23  C   UNL A   1      43.357  44.455  18.981  1.00  0.00     0.028 A 
ATOM     24  C   UNL A   1      41.724  43.182  20.766  1.00  0.00     0.011 A 
ATOM     25  C   UNL A   1      42.118  44.023  18.555  1.00  0.00     0.002 A 
ATOM     26  C   UNL A   1      41.297  43.389  19.447  1.00  0.00     0.001 A 
BRANCH  19  27
ATOM     27  S   UNL A   1      45.929  45.800  20.027  1.00  0.00     0.268 S 
ATOM     28  O   UNL A   1      46.780  44.848  19.313  1.00  0.00    -0.201 OA
ATOM     29  O   UNL A   1      46.525  46.603  21.095  1.00  0.00    -0.201 OA
BRANCH  27  30
ATOM     30  C   UNL A   1      45.709  47.087  18.807  1.00  0.00     0.088 A 
ATOM     31  C   UNL A   1      44.388  50.553  16.497  1.00  0.00     0.044 C 
ATOM     32  C   UNL A   1      44.880  49.370  17.279  1.00  0.00    -0.051 A 
ATOM     33  C   UNL A   1      44.663  49.331  18.648  1.00  0.00     0.005 A 
ATOM     34  C   UNL A   1      45.473  48.253  16.674  1.00  0.00     0.005 A 
ATOM     35  C   UNL A   1      45.088  48.225  19.388  1.00  0.00     0.022 A 
ATOM     36  C   UNL A   1      45.837  47.104  17.426  1.00  0.00     0.022 A 
ENDBRANCH  27  30
ENDBRANCH  19  27
ENDBRANCH  16  18
ENDBRANCH  13  16
ENDBRANCH  11  12
BRANCH  11  37
ATOM     37  C   UNL A   1      43.727  39.717  28.365  1.00  0.00     0.072 C 
BRANCH  37  38
ATOM     38  C   UNL A   1      43.851  39.985  29.936  1.00  0.00    -0.020 A 
ATOM     39  C   UNL A   1      43.976  38.995  30.918  1.00  0.00     0.087 A 
ATOM     40  C   UNL A   1      43.444  41.128  30.736  1.00  0.00     0.003 A 
ATOM     41  N   UNL A   1      43.545  39.399  32.138  1.00  0.00    -0.361 N 
ATOM     42  C   UNL A   1      43.140  40.687  32.040  1.00  0.00     0.046 A 
ATOM     43  C   UNL A   1      43.217  42.488  30.479  1.00  0.00     0.010 A 
ATOM     44  H   UNL A   1      43.530  38.850  32.955  1.00  0.00     0.166 HD
ATOM     45  C   UNL A   1      42.528  41.453  33.030  1.00  0.00     0.026 A 
ATOM     46  C   UNL A   1      42.687  43.306  31.496  1.00  0.00     0.001 A 
ATOM     47  C   UNL A   1      42.310  42.787  32.735  1.00  0.00     0.002 A 
ENDBRANCH  37  38
ENDBRANCH  11  37
ENDBRANCH   8  11
ENDBRANCH   6   7
ENDBRANCH   4   6
ENDBRANCH   3   4
ENDBRANCH   2   3
ENDBRANCH   1   2
BRANCH   1  48
ATOM     48  O   UNL A   1      46.846  43.895  33.368  1.00  0.00    -0.376 OA
BRANCH  48  49
ATOM     49  C   UNL A   1      47.201  44.201  34.708  1.00  0.00     0.188 C 
BRANCH  49  50
ATOM     50  C   UNL A   1      46.429  45.349  35.367  1.00  0.00     0.188 C 
BRANCH  50  51
ATOM     51  O   UNL A   1      46.624  45.474  36.772  1.00  0.00    -0.376 OA
BRANCH  51  52
ATOM     52  C   UNL A   1      47.101  44.378  37.528  1.00  0.00     0.202 C 
BRANCH  52  53
ATOM     53  C   UNL A   1      45.980  43.968  38.477  1.00  0.00     0.261 C 
BRANCH  53  54
ATOM     54  O   UNL A   1      45.220  42.915  37.835  1.00  0.00    -0.460 OA
BRANCH  54  55
ATOM     55  C   UNL A   1      45.388  41.691  38.400  1.00  0.00     0.338 C 
ATOM     56  O   UNL A   1      46.124  41.465  39.349  1.00  0.00    -0.246 OA
BRANCH  55  57
ATOM     57  C   UNL A   1      44.694  40.650  37.566  1.00  0.00     0.060 A 
ATOM     58  C   UNL A   1      44.289  39.520  38.218  1.00  0.00     0.016 A 
ATOM     59  C   UNL A   1      44.619  40.625  36.156  1.00  0.00     0.016 A 
ATOM     60  C   UNL A   1      44.001  38.383  37.434  1.00  0.00     0.010 A 
ATOM     61  C   UNL A   1      44.320  39.419  35.399  1.00  0.00     0.010 A 
ATOM     62  C   UNL A   1      44.064  38.195  36.027  1.00  0.00    -0.014 A 
BRANCH  62  63
ATOM     63  C   UNL A   1      43.899  36.708  35.380  1.00  0.00     0.031 A 
ATOM     64  C   UNL A   1      42.330  36.008  35.393  1.00  0.00     0.074 A 
ATOM     65  C   UNL A   1      45.037  36.049  34.773  1.00  0.00     0.049 A 
ATOM     66  N   UNL A   1      41.780  35.452  34.344  1.00  0.00    -0.248 NA
ATOM     67  C   UNL A   1      41.395  35.693  36.501  1.00  0.00     0.031 C 
ATOM     68  C   UNL A   1      45.651  36.352  33.442  1.00  0.00     0.029 A 
ATOM     69  N   UNL A   1      45.785  34.826  34.986  1.00  0.00    -0.354 N 
ATOM     70  C   UNL A   1      40.689  34.664  34.601  1.00  0.00     0.074 A 
ATOM     71  C   UNL A   1      40.465  34.873  36.002  1.00  0.00     0.031 C 
ATOM     72  C   UNL A   1      46.666  35.510  33.100  1.00  0.00     0.029 A 
ATOM     73  C   UNL A   1      46.776  34.438  34.073  1.00  0.00     0.049 A 
ATOM     74  H   UNL A   1      45.598  34.266  35.774  1.00  0.00     0.167 HD
ATOM     75  C   UNL A   1      40.143  33.646  33.857  1.00  0.00     0.037 A 
ATOM     76  C   UNL A   1      47.632  33.346  34.056  1.00  0.00     0.037 A 
ATOM     77  C   UNL A   1      41.027  32.614  33.142  1.00  0.00     0.049 A 
ATOM     78  C   UNL A   1      46.997  31.883  34.199  1.00  0.00     0.074 A 
ATOM     79  C   UNL A   1      41.291  32.214  31.835  1.00  0.00     0.029 A 
ATOM     80  N   UNL A   1      41.819  31.659  33.857  1.00  0.00    -0.354 N 
ATOM     81  N   UNL A   1      46.101  31.375  33.362  1.00  0.00    -0.248 NA
ATOM     82  C   UNL A   1      47.257  30.859  35.214  1.00  0.00     0.031 C 
ATOM     83  C   UNL A   1      42.339  31.184  31.809  1.00  0.00     0.029 A 
ATOM     84  C   UNL A   1      42.831  30.967  33.097  1.00  0.00     0.049 A 
ATOM     85  H   UNL A   1      41.680  31.485  34.815  1.00  0.00     0.167 HD
ATOM     86  C   UNL A   1      45.288  30.403  34.013  1.00  0.00     0.074 A 
ATOM     87  C   UNL A   1      46.236  29.979  35.051  1.00  0.00     0.031 C 
ATOM     88  C   UNL A   1      43.916  30.070  33.791  1.00  0.00     0.037 A 
BRANCH  75  89
ATOM     89  C   UNL A   1      38.641  33.967  33.578  1.00  0.00     0.058 A 
ATOM     90  C   UNL A   1      38.201  34.482  32.346  1.00  0.00     0.135 A 
ATOM     91  C   UNL A   1      37.592  33.868  34.555  1.00  0.00     0.135 A 
ATOM     92  F   UNL A   1      39.059  34.689  31.341  1.00  0.00    -0.206 F 
ATOM     93  C   UNL A   1      36.858  34.843  32.101  1.00  0.00     0.059 A 
ATOM     94  C   UNL A   1      36.255  34.187  34.323  1.00  0.00     0.059 A 
ATOM     95  F   UNL A   1      37.802  33.493  35.825  1.00  0.00    -0.206 F 
ATOM     96  C   UNL A   1      35.892  34.687  33.092  1.00  0.00     0.060 A 
BRANCH  96  97
ATOM     97  S   UNL A   1      34.166  35.120  32.791  1.00  0.00     0.124 S 
ATOM     98  O   UNL A   1      34.178  35.438  31.368  1.00  0.00    -0.237 OA
ATOM     99  O   UNL A   1      33.465  33.897  33.168  1.00  0.00    -0.237 OA
ATOM    100  O   UNL A   1      33.940  36.259  33.679  1.00  0.00    -0.744 OA
ENDBRANCH  96  97
ENDBRANCH  75  89
BRANCH  76 101
ATOM    101  C   UNL A   1      48.981  33.774  34.637  1.00  0.00     0.058 A 
ATOM    102  C   UNL A   1      49.982  34.340  33.805  1.00  0.00     0.135 A 
ATOM    103  C   UNL A   1      49.110  34.056  36.008  1.00  0.00     0.135 A 
ATOM    104  F   UNL A   1      49.966  34.091  32.485  1.00  0.00    -0.206 F 
ATOM    105  C   UNL A   1      50.906  35.300  34.272  1.00  0.00     0.059 A 
ATOM    106  C   UNL A   1      50.035  34.989  36.501  1.00  0.00     0.059 A 
ATOM    107  F   UNL A   1      48.207  33.589  36.881  1.00  0.00    -0.206 F 
ATOM    108  C   UNL A   1      50.849  35.689  35.610  1.00  0.00     0.060 A 
BRANCH 108 109
ATOM    109  S   UNL A   1      51.402  37.358  36.135  1.00  0.00     0.124 S 
ATOM    110  O   UNL A   1      51.303  37.269  37.588  1.00  0.00    -0.237 OA
ATOM    111  O   UNL A   1      52.758  37.490  35.611  1.00  0.00    -0.237 OA
ATOM    112  O   UNL A   1      50.409  38.227  35.496  1.00  0.00    -0.744 OA
ENDBRANCH 108 109
ENDBRANCH  76 101
BRANCH  88 113
ATOM    113  C   UNL A   1      43.402  28.662  34.124  1.00  0.00     0.058 A 
ATOM    114  C   UNL A   1      42.718  28.357  35.316  1.00  0.00     0.135 A 
ATOM    115  C   UNL A   1      43.854  27.533  33.393  1.00  0.00     0.135 A 
ATOM    116  F   UNL A   1      42.310  29.320  36.156  1.00  0.00    -0.206 F 
ATOM    117  C   UNL A   1      42.494  27.044  35.739  1.00  0.00     0.059 A 
ATOM    118  C   UNL A   1      43.718  26.224  33.839  1.00  0.00     0.059 A 
ATOM    119  F   UNL A   1      44.475  27.649  32.213  1.00  0.00    -0.206 F 
ATOM    120  C   UNL A   1      43.034  25.987  35.014  1.00  0.00     0.060 A 
BRANCH 120 121
ATOM    121  S   UNL A   1      42.869  24.310  35.646  1.00  0.00     0.124 S 
ATOM    122  O   UNL A   1      41.609  24.389  36.378  1.00  0.00    -0.237 OA
ATOM    123  O   UNL A   1      42.838  23.531  34.411  1.00  0.00    -0.237 OA
ATOM    124  O   UNL A   1      44.061  24.132  36.468  1.00  0.00    -0.744 OA
ENDBRANCH 120 121
ENDBRANCH  88 113
ENDBRANCH  62  63
ENDBRANCH  55  57
ENDBRANCH  54  55
ENDBRANCH  53  54
ENDBRANCH  52  53
ENDBRANCH  51  52
ENDBRANCH  50  51
ENDBRANCH  49  50
ENDBRANCH  48  49
ENDBRANCH   1  48
TORSDOF 29
ENDMDL
MODEL 3
REMARK VINA RESULT:      -6.5      3.402     11.950
REMARK SMILES Cc1ccc(S(=O)(=O)n2cc(C(=O)C(=O)N[C@H](Cc3c[nH]c4ccccc34)C(=O)NCC(=O)OCCOCCOCCOC(=O)c3ccc(-c4c5nc(c(-c6c(F)cc(S(=O)(=O)[O-])cc6F)c6ccc([nH]6)c(-c6c(F)cc(S(=O)(=O)[O-])cc6F)c6nc(c(-c7c(F)cc(S(=O)(=O)[O-])cc7F)c7ccc4[nH]7)C=C6)C=C5)cc3)c3ccccc32)cc1
REMARK SMILES IDX 36 1 35 2 34 3 32 4 33 5 31 6 30 7 28 8 29 9 17 11 16 12
REMARK SMILES IDX 14 13 15 14 12 16 13 17 11 18 9 19 10 20 117 21 112 22
REMARK SMILES IDX 116 23 113 24 115 25 114 26 6 27 7 28 8 29 5 30 1 31 2 32
REMARK SMILES IDX 3 33 119 34 4 35 118 36 18 37 19 38 20 39 27 40 21 41 22 42
REMARK SMILES IDX 26 43 23 45 25 46 24 47 37 48 38 49 39 50 40 51 41 52 42 53
REMARK SMILES IDX 43 54 44 55 45 56 46 57 47 58 111 59 48 60 110 61 49 62
REMARK SMILES IDX 50 63 51 64 104 65 52 66 109 67 103 68 105 69 53 70 108 71
REMARK SMILES IDX 102 72 101 73 54 75 88 76 67 77 87 78 68 79 71 80 86 81
REMARK SMILES IDX 106 82 69 83 70 84 85 86 107 87 72 88 55 89 56 90 65 91
REMARK SMILES IDX 57 92 58 93 64 94 66 95 59 96 60 97 61 98 62 99 63 100
REMARK SMILES IDX 89 101 90 102 99 103 91 104 92 105 98 106 100 107 93 108
REMARK SMILES IDX 94 109 95 110 96 111 97 112 73 113 74 114 83 115 75 116
REMARK SMILES IDX 76 117 82 118 84 119 77 120 78 121 79 122 80 123 81 124
REMARK H PARENT 30 10 16 15 21 44 105 74 71 85
REMARK Flexibility Score: inf
ROOT
ATOM      1  C   UNL A   1      46.587  26.317  28.688  1.00  0.00     0.202 C 
ENDROOT
BRANCH   1   2
ATOM      2  C   UNL A   1      47.116  27.088  29.888  1.00  0.00     0.261 C 
BRANCH   2   3
ATOM      3  O   UNL A   1      48.308  27.967  29.961  1.00  0.00    -0.462 OA
BRANCH   3   4
ATOM      4  C   UNL A   1      48.362  29.275  30.287  1.00  0.00     0.325 C 
ATOM      5  O   UNL A   1      49.375  29.697  30.845  1.00  0.00    -0.250 OA
BRANCH   4   6
ATOM      6  C   UNL A   1      46.929  30.169  30.320  1.00  0.00     0.238 C 
BRANCH   6   7
ATOM      7  N   UNL A   1      45.724  30.618  31.145  1.00  0.00    -0.343 N 
ATOM      8  C   UNL A   1      44.706  31.564  31.059  1.00  0.00     0.243 C 
ATOM      9  O   UNL A   1      43.728  31.303  31.791  1.00  0.00    -0.273 OA
ATOM     10  H   UNL A   1      45.644  30.088  31.971  1.00  0.00     0.164 HD
BRANCH   8  11
ATOM     11  C   UNL A   1      44.676  33.073  30.387  1.00  0.00     0.176 C 
BRANCH  11  12
ATOM     12  N   UNL A   1      44.829  33.244  28.882  1.00  0.00    -0.337 N 
ATOM     13  C   UNL A   1      45.228  32.376  27.856  1.00  0.00     0.293 C 
ATOM     14  O   UNL A   1      44.798  31.225  27.873  1.00  0.00    -0.265 OA
ATOM     15  H   UNL A   1      44.603  34.149  28.566  1.00  0.00     0.164 HD
BRANCH  13  16
ATOM     16  C   UNL A   1      45.968  32.993  26.525  1.00  0.00     0.252 C 
ATOM     17  O   UNL A   1      45.763  32.109  25.668  1.00  0.00    -0.283 OA
BRANCH  16  18
ATOM     18  C   UNL A   1      46.995  34.363  26.206  1.00  0.00     0.054 A 
ATOM     19  N   UNL A   1      47.069  36.701  26.283  1.00  0.00    -0.240 N 
ATOM     20  C   UNL A   1      46.369  35.553  26.326  1.00  0.00     0.117 A 
ATOM     21  C   UNL A   1      48.347  36.342  25.870  1.00  0.00     0.065 A 
ATOM     22  C   UNL A   1      48.382  34.929  25.773  1.00  0.00     0.012 A 
ATOM     23  C   UNL A   1      49.438  37.177  25.508  1.00  0.00     0.028 A 
ATOM     24  C   UNL A   1      49.643  34.466  25.228  1.00  0.00     0.011 A 
ATOM     25  C   UNL A   1      50.610  36.650  25.007  1.00  0.00     0.002 A 
ATOM     26  C   UNL A   1      50.714  35.294  24.863  1.00  0.00     0.001 A 
BRANCH  19  27
ATOM     27  S   UNL A   1      46.688  38.389  26.211  1.00  0.00     0.268 S 
ATOM     28  O   UNL A   1      45.294  38.367  26.656  1.00  0.00    -0.201 OA
ATOM     29  O   UNL A   1      46.966  38.676  24.804  1.00  0.00    -0.201 OA
BRANCH  27  30
ATOM     30  C   UNL A   1      47.279  39.917  26.926  1.00  0.00     0.088 A 
ATOM     31  C   UNL A   1      49.407  42.990  29.188  1.00  0.00     0.044 C 
ATOM     32  C   UNL A   1      48.673  41.961  28.379  1.00  0.00    -0.051 A 
ATOM     33  C   UNL A   1      49.297  40.754  28.101  1.00  0.00     0.005 A 
ATOM     34  C   UNL A   1      47.343  42.125  27.966  1.00  0.00     0.005 A 
ATOM     35  C   UNL A   1      48.619  39.772  27.375  1.00  0.00     0.022 A 
ATOM     36  C   UNL A   1      46.640  41.092  27.290  1.00  0.00     0.022 A 
ENDBRANCH  27  30
ENDBRANCH  19  27
ENDBRANCH  16  18
ENDBRANCH  13  16
ENDBRANCH  11  12
BRANCH  11  37
ATOM     37  C   UNL A   1      45.481  34.058  31.391  1.00  0.00     0.072 C 
BRANCH  37  38
ATOM     38  C   UNL A   1      45.341  35.058  32.631  1.00  0.00    -0.020 A 
ATOM     39  C   UNL A   1      45.189  34.673  33.967  1.00  0.00     0.087 A 
ATOM     40  C   UNL A   1      44.904  36.443  32.684  1.00  0.00     0.003 A 
ATOM     41  N   UNL A   1      44.583  35.616  34.728  1.00  0.00    -0.361 N 
ATOM     42  C   UNL A   1      44.326  36.690  33.946  1.00  0.00     0.046 A 
ATOM     43  C   UNL A   1      44.858  37.505  31.768  1.00  0.00     0.010 A 
ATOM     44  H   UNL A   1      44.366  35.534  35.684  1.00  0.00     0.166 HD
ATOM     45  C   UNL A   1      43.619  37.838  34.299  1.00  0.00     0.026 A 
ATOM     46  C   UNL A   1      44.230  38.710  32.137  1.00  0.00     0.001 A 
ATOM     47  C   UNL A   1      43.586  38.858  33.365  1.00  0.00     0.002 A 
ENDBRANCH  37  38
ENDBRANCH  11  37
ENDBRANCH   8  11
ENDBRANCH   6   7
ENDBRANCH   4   6
ENDBRANCH   3   4
ENDBRANCH   2   3
ENDBRANCH   1   2
BRANCH   1  48
ATOM     48  O   UNL A   1      46.510  24.929  28.846  1.00  0.00    -0.376 OA
BRANCH  48  49
ATOM     49  C   UNL A   1      46.296  24.208  27.642  1.00  0.00     0.188 C 
BRANCH  49  50
ATOM     50  C   UNL A   1      44.842  23.845  27.321  1.00  0.00     0.188 C 
BRANCH  50  51
ATOM     51  O   UNL A   1      44.596  23.500  25.961  1.00  0.00    -0.376 OA
BRANCH  51  52
ATOM     52  C   UNL A   1      43.351  23.799  25.361  1.00  0.00     0.202 C 
BRANCH  52  53
ATOM     53  C   UNL A   1      42.496  24.481  26.423  1.00  0.00     0.261 C 
BRANCH  53  54
ATOM     54  O   UNL A   1      42.112  25.781  25.914  1.00  0.00    -0.460 OA
BRANCH  54  55
ATOM     55  C   UNL A   1      42.812  26.813  26.455  1.00  0.00     0.338 C 
ATOM     56  O   UNL A   1      43.998  27.025  26.249  1.00  0.00    -0.246 OA
BRANCH  55  57
ATOM     57  C   UNL A   1      41.964  27.518  27.475  1.00  0.00     0.060 A 
ATOM     58  C   UNL A   1      42.292  28.817  27.747  1.00  0.00     0.016 A 
ATOM     59  C   UNL A   1      41.016  26.917  28.332  1.00  0.00     0.016 A 
ATOM     60  C   UNL A   1      41.798  29.379  28.942  1.00  0.00     0.010 A 
ATOM     61  C   UNL A   1      40.544  27.544  29.558  1.00  0.00     0.010 A 
ATOM     62  C   UNL A   1      40.987  28.809  29.961  1.00  0.00    -0.014 A 
BRANCH  62  63
ATOM     63  C   UNL A   1      40.739  29.599  31.364  1.00  0.00     0.031 A 
ATOM     64  C   UNL A   1      39.856  31.071  31.298  1.00  0.00     0.074 A 
ATOM     65  C   UNL A   1      41.207  29.031  32.611  1.00  0.00     0.049 A 
ATOM     66  N   UNL A   1      38.861  31.352  32.102  1.00  0.00    -0.248 NA
ATOM     67  C   UNL A   1      40.092  32.336  30.560  1.00  0.00     0.031 C 
ATOM     68  C   UNL A   1      40.601  27.890  33.367  1.00  0.00     0.029 A 
ATOM     69  N   UNL A   1      42.123  29.415  33.667  1.00  0.00    -0.354 N 
ATOM     70  C   UNL A   1      38.489  32.670  32.138  1.00  0.00     0.074 A 
ATOM     71  C   UNL A   1      39.294  33.259  31.107  1.00  0.00     0.031 C 
ATOM     72  C   UNL A   1      41.216  27.629  34.555  1.00  0.00     0.029 A 
ATOM     73  C   UNL A   1      42.216  28.643  34.834  1.00  0.00     0.049 A 
ATOM     74  H   UNL A   1      42.682  30.218  33.565  1.00  0.00     0.167 HD
ATOM     75  C   UNL A   1      37.817  33.369  33.110  1.00  0.00     0.037 A 
ATOM     76  C   UNL A   1      43.012  28.778  35.963  1.00  0.00     0.037 A 
ATOM     77  C   UNL A   1      38.120  33.160  34.601  1.00  0.00     0.049 A 
ATOM     78  C   UNL A   1      43.009  30.184  36.729  1.00  0.00     0.074 A 
ATOM     79  C   UNL A   1      37.450  32.706  35.734  1.00  0.00     0.029 A 
ATOM     80  N   UNL A   1      39.365  33.550  35.191  1.00  0.00    -0.354 N 
ATOM     81  N   UNL A   1      41.926  30.746  37.250  1.00  0.00    -0.248 NA
ATOM     82  C   UNL A   1      44.129  31.088  37.004  1.00  0.00     0.031 C 
ATOM     83  C   UNL A   1      38.353  32.673  36.893  1.00  0.00     0.029 A 
ATOM     84  C   UNL A   1      39.647  33.022  36.503  1.00  0.00     0.049 A 
ATOM     85  H   UNL A   1      39.994  34.147  34.725  1.00  0.00     0.167 HD
ATOM     86  C   UNL A   1      42.060  32.163  37.300  1.00  0.00     0.074 A 
ATOM     87  C   UNL A   1      43.524  32.246  37.372  1.00  0.00     0.031 C 
ATOM     88  C   UNL A   1      41.060  33.175  37.169  1.00  0.00     0.037 A 
BRANCH  75  89
ATOM     89  C   UNL A   1      36.547  34.024  32.482  1.00  0.00     0.058 A 
ATOM     90  C   UNL A   1      35.782  34.985  33.165  1.00  0.00     0.135 A 
ATOM     91  C   UNL A   1      35.982  33.653  31.213  1.00  0.00     0.135 A 
ATOM     92  F   UNL A   1      36.137  35.406  34.385  1.00  0.00    -0.206 F 
ATOM     93  C   UNL A   1      34.593  35.536  32.640  1.00  0.00     0.059 A 
ATOM     94  C   UNL A   1      34.829  34.209  30.662  1.00  0.00     0.059 A 
ATOM     95  F   UNL A   1      36.492  32.687  30.435  1.00  0.00    -0.206 F 
ATOM     96  C   UNL A   1      34.127  35.147  31.386  1.00  0.00     0.060 A 
BRANCH  96  97
ATOM     97  S   UNL A   1      32.623  35.856  30.686  1.00  0.00     0.124 S 
ATOM     98  O   UNL A   1      31.612  35.427  31.645  1.00  0.00    -0.237 OA
ATOM     99  O   UNL A   1      32.926  37.283  30.670  1.00  0.00    -0.237 OA
ATOM    100  O   UNL A   1      32.532  35.231  29.367  1.00  0.00    -0.744 OA
ENDBRANCH  96  97
ENDBRANCH  75  89
BRANCH  76 101
ATOM    101  C   UNL A   1      44.231  27.867  35.812  1.00  0.00     0.058 A 
ATOM    102  C   UNL A   1      44.207  26.534  36.300  1.00  0.00     0.135 A 
ATOM    103  C   UNL A   1      45.198  28.126  34.824  1.00  0.00     0.135 A 
ATOM    104  F   UNL A   1      43.345  26.201  37.276  1.00  0.00    -0.206 F 
ATOM    105  C   UNL A   1      44.930  25.487  35.689  1.00  0.00     0.059 A 
ATOM    106  C   UNL A   1      45.946  27.107  34.217  1.00  0.00     0.059 A 
ATOM    107  F   UNL A   1      45.294  29.346  34.279  1.00  0.00    -0.206 F 
ATOM    108  C   UNL A   1      45.721  25.778  34.578  1.00  0.00     0.060 A 
BRANCH 108 109
ATOM    109  S   UNL A   1      46.060  24.506  33.299  1.00  0.00     0.124 S 
ATOM    110  O   UNL A   1      44.747  24.336  32.685  1.00  0.00    -0.237 OA
ATOM    111  O   UNL A   1      47.077  25.099  32.436  1.00  0.00    -0.237 OA
ATOM    112  O   UNL A   1      46.521  23.372  34.105  1.00  0.00    -0.744 OA
ENDBRANCH 108 109
ENDBRANCH  76 101
BRANCH  88 113
ATOM    113  C   UNL A   1      41.261  34.547  37.830  1.00  0.00     0.058 A 
ATOM    114  C   UNL A   1      41.598  35.706  37.106  1.00  0.00     0.135 A 
ATOM    115  C   UNL A   1      41.418  34.657  39.236  1.00  0.00     0.135 A 
ATOM    116  F   UNL A   1      41.584  35.724  35.765  1.00  0.00    -0.206 F 
ATOM    117  C   UNL A   1      42.043  36.877  37.727  1.00  0.00     0.059 A 
ATOM    118  C   UNL A   1      41.942  35.781  39.864  1.00  0.00     0.059 A 
ATOM    119  F   UNL A   1      41.092  33.664  40.072  1.00  0.00    -0.206 F 
ATOM    120  C   UNL A   1      42.251  36.890  39.102  1.00  0.00     0.060 A 
BRANCH 120 121
ATOM    121  S   UNL A   1      42.965  38.351  39.871  1.00  0.00     0.124 S 
ATOM    122  O   UNL A   1      44.076  38.649  38.973  1.00  0.00    -0.237 OA
ATOM    123  O   UNL A   1      41.844  39.285  39.828  1.00  0.00    -0.237 OA
ATOM    124  O   UNL A   1      43.342  37.890  41.203  1.00  0.00    -0.744 OA
ENDBRANCH 120 121
ENDBRANCH  88 113
ENDBRANCH  62  63
ENDBRANCH  55  57
ENDBRANCH  54  55
ENDBRANCH  53  54
ENDBRANCH  52  53
ENDBRANCH  51  52
ENDBRANCH  50  51
ENDBRANCH  49  50
ENDBRANCH  48  49
ENDBRANCH   1  48
TORSDOF 29
ENDMDL
