MODEL 1
REMARK VINA RESULT:     -10.9      0.000      0.000
REMARK SMILES Cc1nn(-c2cc(Cl)ccc2Cl)nc1C(=O)OCCOCCOCCOC(=O)c1ccc(-c2c3nc(c(-c4c(F)cc(S(=O)(=O)[O-])cc4F)c4ccc([nH]4)c(-c4c(F)cc(S(=O)(=O)[O-])cc4F)c4nc(c(-c5c(F)cc(S(=O)(=O)[O-])cc5F)c5ccc2[nH]5)C=C4)C=C3)cc1
REMARK SMILES IDX 22 1 21 2 20 3 19 4 18 5 17 6 15 7 16 8 14 9 1 10 2 11 3 12
REMARK SMILES IDX 4 13 13 14 5 15 6 16 11 17 7 18 10 19 12 20 8 21 9 22 23 23
REMARK SMILES IDX 24 24 25 25 26 26 27 27 28 28 29 29 30 30 94 31 31 32 93 33
REMARK SMILES IDX 32 34 33 35 34 36 87 37 35 38 92 39 86 40 88 41 36 42 91 43
REMARK SMILES IDX 85 44 84 45 37 47 71 48 50 49 70 50 51 51 54 52 69 53 89 54
REMARK SMILES IDX 52 55 53 56 68 58 90 59 55 60 38 61 39 62 48 63 40 64 41 65
REMARK SMILES IDX 47 66 49 67 42 68 43 69 44 70 45 71 46 72 72 73 73 74 82 75
REMARK SMILES IDX 74 76 75 77 81 78 83 79 76 80 77 81 78 82 79 83 80 84 56 85
REMARK SMILES IDX 57 86 66 87 58 88 59 89 65 90 67 91 60 92 61 93 62 94 63 95
REMARK SMILES IDX 64 96
REMARK H PARENT 88 46 54 57
REMARK Flexibility Score: inf
ROOT
ATOM      1  C   UNL A   1      39.367  22.469  26.403  1.00  0.00     0.188 C 
ENDROOT
BRANCH   1   2
ATOM      2  C   UNL A   1      37.948  22.707  25.833  1.00  0.00     0.188 C 
BRANCH   2   3
ATOM      3  O   UNL A   1      37.573  22.205  24.557  1.00  0.00    -0.376 OA
BRANCH   3   4
ATOM      4  C   UNL A   1      36.718  22.950  23.705  1.00  0.00     0.202 C 
BRANCH   4   5
ATOM      5  C   UNL A   1      35.237  22.555  23.525  1.00  0.00     0.261 C 
BRANCH   5   6
ATOM      6  O   UNL A   1      34.457  23.410  22.674  1.00  0.00    -0.458 OA
BRANCH   6   7
ATOM      7  C   UNL A   1      33.108  23.385  22.864  1.00  0.00     0.360 C 
ATOM      8  O   UNL A   1      32.400  22.405  22.640  1.00  0.00    -0.244 OA
BRANCH   7   9
ATOM      9  C   UNL A   1      32.609  24.612  23.491  1.00  0.00     0.193 A 
ATOM     10  C   UNL A   1      33.276  24.411  26.029  1.00  0.00     0.071 C 
ATOM     11  C   UNL A   1      32.663  25.052  24.843  1.00  0.00     0.095 A 
ATOM     12  N   UNL A   1      31.999  26.213  24.967  1.00  0.00    -0.153 NA
ATOM     13  N   UNL A   1      31.560  26.423  23.709  1.00  0.00    -0.149 N 
ATOM     14  N   UNL A   1      31.864  25.490  22.791  1.00  0.00    -0.141 NA
BRANCH  13  15
ATOM     15  C   UNL A   1      30.791  27.537  23.354  1.00  0.00     0.106 A 
ATOM     16  C   UNL A   1      29.398  27.476  23.514  1.00  0.00     0.052 A 
ATOM     17  C   UNL A   1      31.400  28.621  22.720  1.00  0.00     0.068 A 
ATOM     18  C   UNL A   1      28.619  28.529  23.038  1.00  0.00     0.043 A 
ATOM     19  C   UNL A   1      30.602  29.660  22.233  1.00  0.00     0.024 A 
ATOM     20  Cl  UNL A   1      33.104  28.714  22.448  1.00  0.00    -0.082 Cl
ATOM     21  Cl  UNL A   1      26.911  28.489  23.228  1.00  0.00    -0.084 Cl
ATOM     22  C   UNL A   1      29.213  29.614  22.392  1.00  0.00     0.022 A 
ENDBRANCH  13  15
ENDBRANCH   7   9
ENDBRANCH   6   7
ENDBRANCH   5   6
ENDBRANCH   4   5
ENDBRANCH   3   4
ENDBRANCH   2   3
ENDBRANCH   1   2
BRANCH   1  23
ATOM     23  O   UNL A   1      39.642  21.130  26.770  1.00  0.00    -0.376 OA
BRANCH  23  24
ATOM     24  C   UNL A   1      40.969  20.753  27.114  1.00  0.00     0.202 C 
BRANCH  24  25
ATOM     25  C   UNL A   1      41.917  20.174  26.064  1.00  0.00     0.261 C 
BRANCH  25  26
ATOM     26  O   UNL A   1      43.277  20.509  26.239  1.00  0.00    -0.460 OA
BRANCH  26  27
ATOM     27  C   UNL A   1      43.958  20.696  25.093  1.00  0.00     0.338 C 
ATOM     28  O   UNL A   1      44.156  19.870  24.216  1.00  0.00    -0.246 OA
BRANCH  27  29
ATOM     29  C   UNL A   1      44.482  22.063  25.089  1.00  0.00     0.060 A 
ATOM     30  C   UNL A   1      45.434  22.353  26.067  1.00  0.00     0.016 A 
ATOM     31  C   UNL A   1      43.734  23.054  24.435  1.00  0.00     0.016 A 
ATOM     32  C   UNL A   1      45.389  23.601  26.631  1.00  0.00     0.010 A 
ATOM     33  C   UNL A   1      43.674  24.291  25.016  1.00  0.00     0.010 A 
ATOM     34  C   UNL A   1      44.412  24.493  26.177  1.00  0.00    -0.014 A 
BRANCH  34  35
ATOM     35  C   UNL A   1      44.161  25.661  26.982  1.00  0.00     0.031 A 
ATOM     36  C   UNL A   1      45.204  26.690  26.830  1.00  0.00     0.074 A 
ATOM     37  C   UNL A   1      43.038  25.773  27.716  1.00  0.00     0.049 A 
ATOM     38  N   UNL A   1      46.061  27.089  27.707  1.00  0.00    -0.248 NA
ATOM     39  C   UNL A   1      45.450  27.189  25.467  1.00  0.00     0.031 C 
ATOM     40  C   UNL A   1      41.841  24.924  27.696  1.00  0.00     0.029 A 
ATOM     41  N   UNL A   1      42.694  26.758  28.580  1.00  0.00    -0.354 N 
ATOM     42  C   UNL A   1      46.812  28.062  27.059  1.00  0.00     0.074 A 
ATOM     43  C   UNL A   1      46.542  27.925  25.653  1.00  0.00     0.031 C 
ATOM     44  C   UNL A   1      40.832  25.566  28.329  1.00  0.00     0.029 A 
ATOM     45  C   UNL A   1      41.345  26.799  28.900  1.00  0.00     0.049 A 
ATOM     46  H   UNL A   1      43.349  27.392  28.951  1.00  0.00     0.167 HD
ATOM     47  C   UNL A   1      47.396  29.080  27.746  1.00  0.00     0.037 A 
ATOM     48  C   UNL A   1      40.712  27.844  29.494  1.00  0.00     0.037 A 
ATOM     49  C   UNL A   1      47.533  28.764  29.144  1.00  0.00     0.049 A 
ATOM     50  C   UNL A   1      41.769  28.671  30.148  1.00  0.00     0.074 A 
ATOM     51  C   UNL A   1      48.201  27.772  29.838  1.00  0.00     0.029 A 
ATOM     52  N   UNL A   1      46.602  29.271  30.018  1.00  0.00    -0.354 N 
ATOM     53  N   UNL A   1      42.490  28.263  31.158  1.00  0.00    -0.248 NA
ATOM     54  C   UNL A   1      42.353  29.756  29.372  1.00  0.00     0.031 C 
ATOM     55  C   UNL A   1      47.332  27.417  30.910  1.00  0.00     0.029 A 
ATOM     56  C   UNL A   1      46.212  28.248  30.848  1.00  0.00     0.049 A 
ATOM     57  H   UNL A   1      46.274  30.200  30.045  1.00  0.00     0.167 HD
ATOM     58  C   UNL A   1      43.771  28.743  30.911  1.00  0.00     0.074 A 
ATOM     59  C   UNL A   1      43.607  29.714  29.831  1.00  0.00     0.031 C 
ATOM     60  C   UNL A   1      44.879  28.108  31.399  1.00  0.00     0.037 A 
BRANCH  47  61
ATOM     61  C   UNL A   1      47.516  30.472  27.184  1.00  0.00     0.058 A 
ATOM     62  C   UNL A   1      48.768  31.112  27.170  1.00  0.00     0.135 A 
ATOM     63  C   UNL A   1      46.405  31.294  26.880  1.00  0.00     0.135 A 
ATOM     64  F   UNL A   1      49.886  30.434  27.473  1.00  0.00    -0.206 F 
ATOM     65  C   UNL A   1      48.900  32.477  26.912  1.00  0.00     0.059 A 
ATOM     66  C   UNL A   1      46.519  32.637  26.558  1.00  0.00     0.059 A 
ATOM     67  F   UNL A   1      45.142  30.861  26.979  1.00  0.00    -0.206 F 
ATOM     68  C   UNL A   1      47.767  33.232  26.615  1.00  0.00     0.060 A 
BRANCH  68  69
ATOM     69  S   UNL A   1      47.916  35.009  26.378  1.00  0.00     0.124 S 
ATOM     70  O   UNL A   1      49.326  35.136  26.025  1.00  0.00    -0.237 OA
ATOM     71  O   UNL A   1      46.961  35.252  25.302  1.00  0.00    -0.237 OA
ATOM     72  O   UNL A   1      47.539  35.554  27.679  1.00  0.00    -0.744 OA
ENDBRANCH  68  69
ENDBRANCH  47  61
BRANCH  48  73
ATOM     73  C   UNL A   1      39.363  28.379  29.161  1.00  0.00     0.058 A 
ATOM     74  C   UNL A   1      38.344  28.436  30.128  1.00  0.00     0.135 A 
ATOM     75  C   UNL A   1      39.125  29.099  27.971  1.00  0.00     0.135 A 
ATOM     76  F   UNL A   1      38.494  27.802  31.302  1.00  0.00    -0.206 F 
ATOM     77  C   UNL A   1      37.182  29.194  29.946  1.00  0.00     0.059 A 
ATOM     78  C   UNL A   1      37.972  29.852  27.762  1.00  0.00     0.059 A 
ATOM     79  F   UNL A   1      40.052  29.171  27.005  1.00  0.00    -0.206 F 
ATOM     80  C   UNL A   1      37.013  29.916  28.764  1.00  0.00     0.060 A 
BRANCH  80  81
ATOM     81  S   UNL A   1      35.603  31.035  28.592  1.00  0.00     0.124 S 
ATOM     82  O   UNL A   1      35.353  31.421  29.976  1.00  0.00    -0.237 OA
ATOM     83  O   UNL A   1      36.140  32.078  27.725  1.00  0.00    -0.237 OA
ATOM     84  O   UNL A   1      34.574  30.192  27.985  1.00  0.00    -0.744 OA
ENDBRANCH  80  81
ENDBRANCH  48  73
BRANCH  60  85
ATOM     85  C   UNL A   1      44.679  27.017  32.425  1.00  0.00     0.058 A 
ATOM     86  C   UNL A   1      44.507  27.245  33.803  1.00  0.00     0.135 A 
ATOM     87  C   UNL A   1      44.492  25.702  31.972  1.00  0.00     0.135 A 
ATOM     88  F   UNL A   1      44.560  28.486  34.306  1.00  0.00    -0.206 F 
ATOM     89  C   UNL A   1      44.208  26.211  34.693  1.00  0.00     0.059 A 
ATOM     90  C   UNL A   1      44.162  24.660  32.836  1.00  0.00     0.059 A 
ATOM     91  F   UNL A   1      44.576  25.426  30.661  1.00  0.00    -0.206 F 
ATOM     92  C   UNL A   1      44.035  24.919  34.199  1.00  0.00     0.060 A 
BRANCH  92  93
ATOM     93  S   UNL A   1      43.572  23.593  35.337  1.00  0.00     0.124 S 
ATOM     94  O   UNL A   1      42.117  23.688  35.342  1.00  0.00    -0.237 OA
ATOM     95  O   UNL A   1      44.128  22.408  34.690  1.00  0.00    -0.237 OA
ATOM     96  O   UNL A   1      44.226  23.973  36.587  1.00  0.00    -0.744 OA
ENDBRANCH  92  93
ENDBRANCH  60  85
ENDBRANCH  34  35
ENDBRANCH  27  29
ENDBRANCH  26  27
ENDBRANCH  25  26
ENDBRANCH  24  25
ENDBRANCH  23  24
ENDBRANCH   1  23
TORSDOF 21
ENDMDL
MODEL 2
REMARK VINA RESULT:     -10.9      2.460      3.672
REMARK SMILES Cc1nn(-c2cc(Cl)ccc2Cl)nc1C(=O)OCCOCCOCCOC(=O)c1ccc(-c2c3nc(c(-c4c(F)cc(S(=O)(=O)[O-])cc4F)c4ccc([nH]4)c(-c4c(F)cc(S(=O)(=O)[O-])cc4F)c4nc(c(-c5c(F)cc(S(=O)(=O)[O-])cc5F)c5ccc2[nH]5)C=C4)C=C3)cc1
REMARK SMILES IDX 22 1 21 2 20 3 19 4 18 5 17 6 15 7 16 8 14 9 1 10 2 11 3 12
REMARK SMILES IDX 4 13 13 14 5 15 6 16 11 17 7 18 10 19 12 20 8 21 9 22 23 23
REMARK SMILES IDX 24 24 25 25 26 26 27 27 28 28 29 29 30 30 94 31 31 32 93 33
REMARK SMILES IDX 32 34 33 35 34 36 87 37 35 38 92 39 86 40 88 41 36 42 91 43
REMARK SMILES IDX 85 44 84 45 37 47 71 48 50 49 70 50 51 51 54 52 69 53 89 54
REMARK SMILES IDX 52 55 53 56 68 58 90 59 55 60 38 61 39 62 48 63 40 64 41 65
REMARK SMILES IDX 47 66 49 67 42 68 43 69 44 70 45 71 46 72 72 73 73 74 82 75
REMARK SMILES IDX 74 76 75 77 81 78 83 79 76 80 77 81 78 82 79 83 80 84 56 85
REMARK SMILES IDX 57 86 66 87 58 88 59 89 65 90 67 91 60 92 61 93 62 94 63 95
REMARK SMILES IDX 64 96
REMARK H PARENT 88 46 54 57
REMARK Flexibility Score: inf
ROOT
ATOM      1  C   UNL A   1      39.574  21.182  26.429  1.00  0.00     0.188 C 
ENDROOT
BRANCH   1   2
ATOM      2  C   UNL A   1      38.512  21.595  25.382  1.00  0.00     0.188 C 
BRANCH   2   3
ATOM      3  O   UNL A   1      37.894  22.876  25.425  1.00  0.00    -0.376 OA
BRANCH   3   4
ATOM      4  C   UNL A   1      36.578  23.064  24.931  1.00  0.00     0.202 C 
BRANCH   4   5
ATOM      5  C   UNL A   1      35.735  24.282  25.363  1.00  0.00     0.261 C 
BRANCH   5   6
ATOM      6  O   UNL A   1      34.603  23.998  26.202  1.00  0.00    -0.458 OA
BRANCH   6   7
ATOM      7  C   UNL A   1      33.375  24.232  25.660  1.00  0.00     0.360 C 
ATOM      8  O   UNL A   1      32.994  25.335  25.271  1.00  0.00    -0.244 OA
BRANCH   7   9
ATOM      9  C   UNL A   1      32.604  23.001  25.469  1.00  0.00     0.193 A 
ATOM     10  C   UNL A   1      30.325  23.413  26.721  1.00  0.00     0.071 C 
ATOM     11  C   UNL A   1      31.308  22.636  25.930  1.00  0.00     0.095 A 
ATOM     12  N   UNL A   1      31.043  21.368  25.576  1.00  0.00    -0.153 NA
ATOM     13  N   UNL A   1      32.176  21.011  24.938  1.00  0.00    -0.149 N 
ATOM     14  N   UNL A   1      33.154  21.929  24.868  1.00  0.00    -0.141 NA
BRANCH  13  15
ATOM     15  C   UNL A   1      32.365  19.736  24.392  1.00  0.00     0.106 A 
ATOM     16  C   UNL A   1      32.779  18.694  25.236  1.00  0.00     0.052 A 
ATOM     17  C   UNL A   1      32.279  19.558  23.010  1.00  0.00     0.068 A 
ATOM     18  C   UNL A   1      33.096  17.458  24.674  1.00  0.00     0.043 A 
ATOM     19  C   UNL A   1      32.619  18.318  22.463  1.00  0.00     0.024 A 
ATOM     20  Cl  UNL A   1      31.831  20.826  21.926  1.00  0.00    -0.082 Cl
ATOM     21  Cl  UNL A   1      33.597  16.159  25.682  1.00  0.00    -0.084 Cl
ATOM     22  C   UNL A   1      33.027  17.269  23.293  1.00  0.00     0.022 A 
ENDBRANCH  13  15
ENDBRANCH   7   9
ENDBRANCH   6   7
ENDBRANCH   5   6
ENDBRANCH   4   5
ENDBRANCH   3   4
ENDBRANCH   2   3
ENDBRANCH   1   2
BRANCH   1  23
ATOM     23  O   UNL A   1      40.891  21.613  26.140  1.00  0.00    -0.376 OA
BRANCH  23  24
ATOM     24  C   UNL A   1      41.998  20.905  26.680  1.00  0.00     0.202 C 
BRANCH  24  25
ATOM     25  C   UNL A   1      42.734  19.849  25.853  1.00  0.00     0.261 C 
BRANCH  25  26
ATOM     26  O   UNL A   1      44.127  20.047  25.738  1.00  0.00    -0.460 OA
BRANCH  26  27
ATOM     27  C   UNL A   1      44.542  20.385  24.503  1.00  0.00     0.338 C 
ATOM     28  O   UNL A   1      44.574  19.663  23.518  1.00  0.00    -0.246 OA
BRANCH  27  29
ATOM     29  C   UNL A   1      45.011  21.771  24.540  1.00  0.00     0.060 A 
ATOM     30  C   UNL A   1      46.015  22.050  25.466  1.00  0.00     0.016 A 
ATOM     31  C   UNL A   1      44.182  22.762  23.992  1.00  0.00     0.016 A 
ATOM     32  C   UNL A   1      45.960  23.263  26.101  1.00  0.00     0.010 A 
ATOM     33  C   UNL A   1      44.113  23.963  24.643  1.00  0.00     0.010 A 
ATOM     34  C   UNL A   1      44.920  24.135  25.762  1.00  0.00    -0.014 A 
BRANCH  34  35
ATOM     35  C   UNL A   1      44.680  25.248  26.645  1.00  0.00     0.031 A 
ATOM     36  C   UNL A   1      45.725  26.281  26.554  1.00  0.00     0.074 A 
ATOM     37  C   UNL A   1      43.564  25.313  27.394  1.00  0.00     0.049 A 
ATOM     38  N   UNL A   1      46.591  26.619  27.449  1.00  0.00    -0.248 NA
ATOM     39  C   UNL A   1      45.961  26.869  25.225  1.00  0.00     0.031 C 
ATOM     40  C   UNL A   1      42.363  24.470  27.328  1.00  0.00     0.029 A 
ATOM     41  N   UNL A   1      43.229  26.239  28.325  1.00  0.00    -0.354 N 
ATOM     42  C   UNL A   1      47.340  27.631  26.861  1.00  0.00     0.074 A 
ATOM     43  C   UNL A   1      47.058  27.588  25.451  1.00  0.00     0.031 C 
ATOM     44  C   UNL A   1      41.361  25.072  28.010  1.00  0.00     0.029 A 
ATOM     45  C   UNL A   1      41.883  26.262  28.659  1.00  0.00     0.049 A 
ATOM     46  H   UNL A   1      43.889  26.846  28.732  1.00  0.00     0.167 HD
ATOM     47  C   UNL A   1      47.932  28.599  27.609  1.00  0.00     0.037 A 
ATOM     48  C   UNL A   1      41.259  27.268  29.326  1.00  0.00     0.037 A 
ATOM     49  C   UNL A   1      48.079  28.190  28.981  1.00  0.00     0.049 A 
ATOM     50  C   UNL A   1      42.323  28.046  30.025  1.00  0.00     0.074 A 
ATOM     51  C   UNL A   1      48.750  27.152  29.603  1.00  0.00     0.029 A 
ATOM     52  N   UNL A   1      47.157  28.640  29.895  1.00  0.00    -0.354 N 
ATOM     53  N   UNL A   1      43.051  27.570  31.000  1.00  0.00    -0.248 NA
ATOM     54  C   UNL A   1      42.905  29.179  29.318  1.00  0.00     0.031 C 
ATOM     55  C   UNL A   1      47.888  26.729  30.656  1.00  0.00     0.029 A 
ATOM     56  C   UNL A   1      46.770  27.565  30.658  1.00  0.00     0.049 A 
ATOM     57  H   UNL A   1      46.833  29.566  29.987  1.00  0.00     0.167 HD
ATOM     58  C   UNL A   1      44.331  28.061  30.774  1.00  0.00     0.074 A 
ATOM     59  C   UNL A   1      44.162  29.103  29.763  1.00  0.00     0.031 C 
ATOM     60  C   UNL A   1      45.441  27.392  31.210  1.00  0.00     0.037 A 
BRANCH  47  61
ATOM     61  C   UNL A   1      48.053  30.025  27.141  1.00  0.00     0.058 A 
ATOM     62  C   UNL A   1      49.311  30.653  27.135  1.00  0.00     0.135 A 
ATOM     63  C   UNL A   1      46.942  30.876  26.924  1.00  0.00     0.135 A 
ATOM     64  F   UNL A   1      50.429  29.945  27.360  1.00  0.00    -0.206 F 
ATOM     65  C   UNL A   1      49.450  32.032  26.967  1.00  0.00     0.059 A 
ATOM     66  C   UNL A   1      47.063  32.237  26.692  1.00  0.00     0.059 A 
ATOM     67  F   UNL A   1      45.678  30.449  27.028  1.00  0.00    -0.206 F 
ATOM     68  C   UNL A   1      48.318  32.815  26.754  1.00  0.00     0.060 A 
BRANCH  68  69
ATOM     69  S   UNL A   1      48.480  34.602  26.634  1.00  0.00     0.124 S 
ATOM     70  O   UNL A   1      49.411  34.882  27.723  1.00  0.00    -0.237 OA
ATOM     71  O   UNL A   1      49.005  34.769  25.283  1.00  0.00    -0.237 OA
ATOM     72  O   UNL A   1      47.114  35.078  26.834  1.00  0.00    -0.744 OA
ENDBRANCH  68  69
ENDBRANCH  47  61
BRANCH  48  73
ATOM     73  C   UNL A   1      39.908  27.827  29.041  1.00  0.00     0.058 A 
ATOM     74  C   UNL A   1      38.909  27.857  30.029  1.00  0.00     0.135 A 
ATOM     75  C   UNL A   1      39.654  28.593  27.883  1.00  0.00     0.135 A 
ATOM     76  F   UNL A   1      39.076  27.178  31.175  1.00  0.00    -0.206 F 
ATOM     77  C   UNL A   1      37.751  28.633  29.899  1.00  0.00     0.059 A 
ATOM     78  C   UNL A   1      38.505  29.364  27.725  1.00  0.00     0.059 A 
ATOM     79  F   UNL A   1      40.562  28.692  26.901  1.00  0.00    -0.206 F 
ATOM     80  C   UNL A   1      37.567  29.400  28.749  1.00  0.00     0.060 A 
BRANCH  80  81
ATOM     81  S   UNL A   1      36.165  30.538  28.647  1.00  0.00     0.124 S 
ATOM     82  O   UNL A   1      36.754  31.682  27.962  1.00  0.00    -0.237 OA
ATOM     83  O   UNL A   1      35.194  29.764  27.880  1.00  0.00    -0.237 OA
ATOM     84  O   UNL A   1      35.810  30.764  30.047  1.00  0.00    -0.744 OA
ENDBRANCH  80  81
ENDBRANCH  48  73
BRANCH  60  85
ATOM     85  C   UNL A   1      45.246  26.236  32.163  1.00  0.00     0.058 A 
ATOM     86  C   UNL A   1      44.911  24.928  31.765  1.00  0.00     0.135 A 
ATOM     87  C   UNL A   1      45.572  26.424  33.514  1.00  0.00     0.135 A 
ATOM     88  F   UNL A   1      44.691  24.637  30.476  1.00  0.00    -0.206 F 
ATOM     89  C   UNL A   1      44.858  23.869  32.674  1.00  0.00     0.059 A 
ATOM     90  C   UNL A   1      45.558  25.376  34.433  1.00  0.00     0.059 A 
ATOM     91  F   UNL A   1      45.965  27.632  33.949  1.00  0.00    -0.206 F 
ATOM     92  C   UNL A   1      45.186  24.102  34.009  1.00  0.00     0.060 A 
BRANCH  92  93
ATOM     93  S   UNL A   1      45.194  22.718  35.170  1.00  0.00     0.124 S 
ATOM     94  O   UNL A   1      44.907  23.380  36.438  1.00  0.00    -0.237 OA
ATOM     95  O   UNL A   1      44.135  21.858  34.650  1.00  0.00    -0.237 OA
ATOM     96  O   UNL A   1      46.545  22.174  35.043  1.00  0.00    -0.744 OA
ENDBRANCH  92  93
ENDBRANCH  60  85
ENDBRANCH  34  35
ENDBRANCH  27  29
ENDBRANCH  26  27
ENDBRANCH  25  26
ENDBRANCH  24  25
ENDBRANCH  23  24
ENDBRANCH   1  23
TORSDOF 21
ENDMDL
MODEL 3
REMARK VINA RESULT:     -10.7      1.390      2.265
REMARK SMILES Cc1nn(-c2cc(Cl)ccc2Cl)nc1C(=O)OCCOCCOCCOC(=O)c1ccc(-c2c3nc(c(-c4c(F)cc(S(=O)(=O)[O-])cc4F)c4ccc([nH]4)c(-c4c(F)cc(S(=O)(=O)[O-])cc4F)c4nc(c(-c5c(F)cc(S(=O)(=O)[O-])cc5F)c5ccc2[nH]5)C=C4)C=C3)cc1
REMARK SMILES IDX 22 1 21 2 20 3 19 4 18 5 17 6 15 7 16 8 14 9 1 10 2 11 3 12
REMARK SMILES IDX 4 13 13 14 5 15 6 16 11 17 7 18 10 19 12 20 8 21 9 22 23 23
REMARK SMILES IDX 24 24 25 25 26 26 27 27 28 28 29 29 30 30 94 31 31 32 93 33
REMARK SMILES IDX 32 34 33 35 34 36 87 37 35 38 92 39 86 40 88 41 36 42 91 43
REMARK SMILES IDX 85 44 84 45 37 47 71 48 50 49 70 50 51 51 54 52 69 53 89 54
REMARK SMILES IDX 52 55 53 56 68 58 90 59 55 60 38 61 39 62 48 63 40 64 41 65
REMARK SMILES IDX 47 66 49 67 42 68 43 69 44 70 45 71 46 72 72 73 73 74 82 75
REMARK SMILES IDX 74 76 75 77 81 78 83 79 76 80 77 81 78 82 79 83 80 84 56 85
REMARK SMILES IDX 57 86 66 87 58 88 59 89 65 90 67 91 60 92 61 93 62 94 63 95
REMARK SMILES IDX 64 96
REMARK H PARENT 88 46 54 57
REMARK Flexibility Score: inf
ROOT
ATOM      1  C   UNL A   1      41.266  21.246  27.243  1.00  0.00     0.188 C 
ENDROOT
BRANCH   1   2
ATOM      2  C   UNL A   1      40.082  20.731  26.390  1.00  0.00     0.188 C 
BRANCH   2   3
ATOM      3  O   UNL A   1      39.042  21.604  25.970  1.00  0.00    -0.376 OA
BRANCH   3   4
ATOM      4  C   UNL A   1      39.012  22.956  26.398  1.00  0.00     0.202 C 
BRANCH   4   5
ATOM      5  C   UNL A   1      37.812  23.868  26.063  1.00  0.00     0.261 C 
BRANCH   5   6
ATOM      6  O   UNL A   1      36.568  23.528  26.697  1.00  0.00    -0.458 OA
BRANCH   6   7
ATOM      7  C   UNL A   1      35.741  22.699  26.001  1.00  0.00     0.360 C 
ATOM      8  O   UNL A   1      35.551  21.518  26.288  1.00  0.00    -0.244 OA
BRANCH   7   9
ATOM      9  C   UNL A   1      35.000  23.400  24.951  1.00  0.00     0.193 A 
ATOM     10  C   UNL A   1      36.366  22.978  22.741  1.00  0.00     0.071 C 
ATOM     11  C   UNL A   1      35.266  23.538  23.559  1.00  0.00     0.095 A 
ATOM     12  N   UNL A   1      34.347  24.343  23.001  1.00  0.00    -0.153 NA
ATOM     13  N   UNL A   1      33.580  24.672  24.059  1.00  0.00    -0.149 N 
ATOM     14  N   UNL A   1      33.935  24.168  25.253  1.00  0.00    -0.141 NA
BRANCH  13  15
ATOM     15  C   UNL A   1      32.476  25.527  23.955  1.00  0.00     0.106 A 
ATOM     16  C   UNL A   1      32.637  26.882  24.283  1.00  0.00     0.052 A 
ATOM     17  C   UNL A   1      31.218  24.995  23.669  1.00  0.00     0.068 A 
ATOM     18  C   UNL A   1      31.513  27.706  24.309  1.00  0.00     0.043 A 
ATOM     19  C   UNL A   1      30.100  25.832  23.717  1.00  0.00     0.024 A 
ATOM     20  Cl  UNL A   1      30.962  23.324  23.316  1.00  0.00    -0.082 Cl
ATOM     21  Cl  UNL A   1      31.678  29.373  24.698  1.00  0.00    -0.084 Cl
ATOM     22  C   UNL A   1      30.247  27.186  24.037  1.00  0.00     0.022 A 
ENDBRANCH  13  15
ENDBRANCH   7   9
ENDBRANCH   6   7
ENDBRANCH   5   6
ENDBRANCH   4   5
ENDBRANCH   3   4
ENDBRANCH   2   3
ENDBRANCH   1   2
BRANCH   1  23
ATOM     23  O   UNL A   1      42.446  20.470  27.151  1.00  0.00    -0.376 OA
BRANCH  23  24
ATOM     24  C   UNL A   1      42.433  19.255  26.412  1.00  0.00     0.202 C 
BRANCH  24  25
ATOM     25  C   UNL A   1      43.394  19.039  25.242  1.00  0.00     0.261 C 
BRANCH  25  26
ATOM     26  O   UNL A   1      43.774  20.213  24.558  1.00  0.00    -0.460 OA
BRANCH  26  27
ATOM     27  C   UNL A   1      45.040  20.608  24.788  1.00  0.00     0.338 C 
ATOM     28  O   UNL A   1      45.980  19.900  25.114  1.00  0.00    -0.246 OA
BRANCH  27  29
ATOM     29  C   UNL A   1      45.102  22.062  24.636  1.00  0.00     0.060 A 
ATOM     30  C   UNL A   1      46.228  22.684  25.175  1.00  0.00     0.016 A 
ATOM     31  C   UNL A   1      43.908  22.749  24.368  1.00  0.00     0.016 A 
ATOM     32  C   UNL A   1      46.045  23.908  25.763  1.00  0.00     0.010 A 
ATOM     33  C   UNL A   1      43.720  23.959  24.976  1.00  0.00     0.010 A 
ATOM     34  C   UNL A   1      44.756  24.450  25.764  1.00  0.00    -0.014 A 
BRANCH  34  35
ATOM     35  C   UNL A   1      44.508  25.558  26.650  1.00  0.00     0.031 A 
ATOM     36  C   UNL A   1      45.543  26.602  26.558  1.00  0.00     0.074 A 
ATOM     37  C   UNL A   1      43.394  25.612  27.403  1.00  0.00     0.049 A 
ATOM     38  N   UNL A   1      46.408  26.946  27.450  1.00  0.00    -0.248 NA
ATOM     39  C   UNL A   1      45.769  27.195  25.230  1.00  0.00     0.031 C 
ATOM     40  C   UNL A   1      42.201  24.757  27.339  1.00  0.00     0.029 A 
ATOM     41  N   UNL A   1      43.054  26.532  28.338  1.00  0.00    -0.354 N 
ATOM     42  C   UNL A   1      47.146  27.966  26.862  1.00  0.00     0.074 A 
ATOM     43  C   UNL A   1      46.860  27.924  25.453  1.00  0.00     0.031 C 
ATOM     44  C   UNL A   1      41.196  25.348  28.026  1.00  0.00     0.029 A 
ATOM     45  C   UNL A   1      41.709  26.542  28.676  1.00  0.00     0.049 A 
ATOM     46  H   UNL A   1      43.710  27.144  28.744  1.00  0.00     0.167 HD
ATOM     47  C   UNL A   1      47.732  28.938  27.610  1.00  0.00     0.037 A 
ATOM     48  C   UNL A   1      41.077  27.540  29.347  1.00  0.00     0.037 A 
ATOM     49  C   UNL A   1      47.887  28.527  28.981  1.00  0.00     0.049 A 
ATOM     50  C   UNL A   1      42.137  28.326  30.045  1.00  0.00     0.074 A 
ATOM     51  C   UNL A   1      48.570  27.495  29.598  1.00  0.00     0.029 A 
ATOM     52  N   UNL A   1      46.964  28.967  29.899  1.00  0.00    -0.354 N 
ATOM     53  N   UNL A   1      42.872  27.855  31.016  1.00  0.00    -0.248 NA
ATOM     54  C   UNL A   1      42.705  29.467  29.338  1.00  0.00     0.031 C 
ATOM     55  C   UNL A   1      47.716  27.061  30.653  1.00  0.00     0.029 A 
ATOM     56  C   UNL A   1      46.590  27.886  30.661  1.00  0.00     0.049 A 
ATOM     57  H   UNL A   1      46.631  29.889  29.994  1.00  0.00     0.167 HD
ATOM     58  C   UNL A   1      44.147  28.359  30.787  1.00  0.00     0.074 A 
ATOM     59  C   UNL A   1      43.964  29.401  29.779  1.00  0.00     0.031 C 
ATOM     60  C   UNL A   1      45.265  27.700  31.217  1.00  0.00     0.037 A 
BRANCH  47  61
ATOM     61  C   UNL A   1      47.837  30.366  27.145  1.00  0.00     0.058 A 
ATOM     62  C   UNL A   1      49.089  31.007  27.137  1.00  0.00     0.135 A 
ATOM     63  C   UNL A   1      46.718  31.207  26.933  1.00  0.00     0.135 A 
ATOM     64  F   UNL A   1      50.214  30.310  27.358  1.00  0.00    -0.206 F 
ATOM     65  C   UNL A   1      49.214  32.387  26.972  1.00  0.00     0.059 A 
ATOM     66  C   UNL A   1      46.824  32.570  26.703  1.00  0.00     0.059 A 
ATOM     67  F   UNL A   1      45.458  30.767  27.039  1.00  0.00    -0.206 F 
ATOM     68  C   UNL A   1      48.074  33.160  26.763  1.00  0.00     0.060 A 
BRANCH  68  69
ATOM     69  S   UNL A   1      48.218  34.949  26.647  1.00  0.00     0.124 S 
ATOM     70  O   UNL A   1      49.646  35.140  26.877  1.00  0.00    -0.237 OA
ATOM     71  O   UNL A   1      47.747  35.203  25.291  1.00  0.00    -0.237 OA
ATOM     72  O   UNL A   1      47.339  35.427  27.711  1.00  0.00    -0.744 OA
ENDBRANCH  68  69
ENDBRANCH  47  61
BRANCH  48  73
ATOM     73  C   UNL A   1      39.720  28.087  29.068  1.00  0.00     0.058 A 
ATOM     74  C   UNL A   1      38.724  28.102  30.059  1.00  0.00     0.135 A 
ATOM     75  C   UNL A   1      39.456  28.856  27.915  1.00  0.00     0.135 A 
ATOM     76  F   UNL A   1      38.900  27.420  31.202  1.00  0.00    -0.206 F 
ATOM     77  C   UNL A   1      37.558  28.867  29.936  1.00  0.00     0.059 A 
ATOM     78  C   UNL A   1      38.298  29.616  27.764  1.00  0.00     0.059 A 
ATOM     79  F   UNL A   1      40.361  28.969  26.931  1.00  0.00    -0.206 F 
ATOM     80  C   UNL A   1      37.363  29.638  28.790  1.00  0.00     0.060 A 
BRANCH  80  81
ATOM     81  S   UNL A   1      35.949  30.762  28.697  1.00  0.00     0.124 S 
ATOM     82  O   UNL A   1      34.945  29.930  28.044  1.00  0.00    -0.237 OA
ATOM     83  O   UNL A   1      35.708  31.071  30.102  1.00  0.00    -0.237 OA
ATOM     84  O   UNL A   1      36.453  31.875  27.894  1.00  0.00    -0.744 OA
ENDBRANCH  80  81
ENDBRANCH  48  73
BRANCH  60  85
ATOM     85  C   UNL A   1      45.084  26.539  32.168  1.00  0.00     0.058 A 
ATOM     86  C   UNL A   1      44.848  25.213  31.764  1.00  0.00     0.135 A 
ATOM     87  C   UNL A   1      45.323  26.754  33.534  1.00  0.00     0.135 A 
ATOM     88  F   UNL A   1      44.717  24.902  30.467  1.00  0.00    -0.206 F 
ATOM     89  C   UNL A   1      44.806  24.157  32.678  1.00  0.00     0.059 A 
ATOM     90  C   UNL A   1      45.318  25.712  34.460  1.00  0.00     0.059 A 
ATOM     91  F   UNL A   1      45.621  27.985  33.979  1.00  0.00    -0.206 F 
ATOM     92  C   UNL A   1      45.045  24.416  34.027  1.00  0.00     0.060 A 
BRANCH  92  93
ATOM     93  S   UNL A   1      45.068  23.041  35.199  1.00  0.00     0.124 S 
ATOM     94  O   UNL A   1      46.465  22.624  35.155  1.00  0.00    -0.237 OA
ATOM     95  O   UNL A   1      44.634  23.674  36.442  1.00  0.00    -0.237 OA
ATOM     96  O   UNL A   1      44.115  22.091  34.630  1.00  0.00    -0.744 OA
ENDBRANCH  92  93
ENDBRANCH  60  85
ENDBRANCH  34  35
ENDBRANCH  27  29
ENDBRANCH  26  27
ENDBRANCH  25  26
ENDBRANCH  24  25
ENDBRANCH  23  24
ENDBRANCH   1  23
TORSDOF 21
ENDMDL
