MODEL 1
REMARK VINA RESULT:     -10.0      0.000      0.000
REMARK SMILES Cc1cc(S(=O)(=O)N[C@H](CO)C(C)C)sc1C(=O)OCCOCCOCCOC(=O)c1ccc(-c2c3nc(c(-c4c(F)cc(S(=O)(=O)[O-])cc4F)c4ccc([nH]4)c(-c4c(F)cc(S(=O)(=O)[O-])cc4F)c4nc(c(-c5c(F)cc(S(=O)(=O)[O-])cc5F)c5ccc2[nH]5)C=C4)C=C3)cc1
REMARK SMILES IDX 23 1 22 2 21 3 20 4 19 5 17 6 18 7 16 8 1 9 2 10 3 11 4 12
REMARK SMILES IDX 15 13 5 14 6 15 7 16 8 17 9 19 12 20 13 21 14 22 10 23 11 24
REMARK SMILES IDX 24 26 25 27 26 28 27 29 28 30 29 31 30 32 31 33 32 34 96 35
REMARK SMILES IDX 33 36 95 37 34 38 35 39 36 40 89 41 37 42 94 43 88 44 90 45
REMARK SMILES IDX 38 46 93 47 87 48 86 49 39 51 73 52 52 53 72 54 53 55 56 56
REMARK SMILES IDX 71 57 91 58 54 59 55 60 70 62 92 63 57 64 40 65 41 66 50 67
REMARK SMILES IDX 42 68 43 69 49 70 51 71 44 72 45 73 46 74 47 75 48 76 74 77
REMARK SMILES IDX 75 78 84 79 76 80 77 81 83 82 85 83 78 84 79 85 80 86 81 87
REMARK SMILES IDX 82 88 58 89 59 90 68 91 60 92 61 93 67 94 69 95 62 96 63 97
REMARK SMILES IDX 64 98 65 99 66 100
REMARK H PARENT 8 18 11 25 90 50 56 61
REMARK Flexibility Score: inf
ROOT
ATOM      1  C   UNL A   1      31.459  23.637  26.644  1.00  0.00     0.188 C 
ENDROOT
BRANCH   1   2
ATOM      2  O   UNL A   1      31.968  22.758  27.639  1.00  0.00    -0.376 OA
BRANCH   2   3
ATOM      3  C   UNL A   1      33.378  22.699  27.840  1.00  0.00     0.202 C 
BRANCH   3   4
ATOM      4  C   UNL A   1      34.143  21.506  27.253  1.00  0.00     0.261 C 
BRANCH   4   5
ATOM      5  O   UNL A   1      35.252  21.909  26.428  1.00  0.00    -0.459 OA
BRANCH   5   6
ATOM      6  C   UNL A   1      35.294  21.359  25.176  1.00  0.00     0.348 C 
ATOM      7  O   UNL A   1      36.042  20.438  24.866  1.00  0.00    -0.245 OA
BRANCH   6   8
ATOM      8  C   UNL A   1      34.270  21.951  24.320  1.00  0.00     0.116 A 
ATOM      9  C   UNL A   1      32.454  20.123  24.124  1.00  0.00     0.046 C 
ATOM     10  C   UNL A   1      33.086  21.439  23.795  1.00  0.00    -0.024 A 
ATOM     11  C   UNL A   1      32.501  22.361  22.854  1.00  0.00     0.038 A 
ATOM     12  C   UNL A   1      33.222  23.529  22.708  1.00  0.00     0.135 A 
ATOM     13  S   UNL A   1      34.499  23.594  23.841  1.00  0.00    -0.115 S 
BRANCH  12  14
ATOM     14  S   UNL A   1      33.048  24.923  21.601  1.00  0.00     0.250 S 
ATOM     15  O   UNL A   1      34.017  25.890  22.052  1.00  0.00    -0.206 OA
ATOM     16  O   UNL A   1      33.128  24.345  20.272  1.00  0.00    -0.206 OA
BRANCH  14  17
ATOM     17  N   UNL A   1      31.500  25.561  21.775  1.00  0.00    -0.205 NA
ATOM     18  H   UNL A   1      30.877  24.762  21.892  1.00  0.00     0.141 HD
BRANCH  17  19
ATOM     19  C   UNL A   1      31.144  26.531  22.865  1.00  0.00     0.098 C 
BRANCH  19  20
ATOM     20  C   UNL A   1      31.039  27.998  22.406  1.00  0.00     0.003 C 
ATOM     21  C   UNL A   1      29.669  28.617  22.705  1.00  0.00     0.009 C 
ATOM     22  C   UNL A   1      32.140  28.838  23.047  1.00  0.00     0.009 C 
ENDBRANCH  19  20
BRANCH  19  23
ATOM     23  C   UNL A   1      29.900  26.018  23.618  1.00  0.00     0.176 C 
BRANCH  23  24
ATOM     24  O   UNL A   1      29.915  24.589  23.659  1.00  0.00    -0.395 OA
ATOM     25  H   UNL A   1      30.452  24.250  22.926  1.00  0.00     0.210 HD
ENDBRANCH  23  24
ENDBRANCH  19  23
ENDBRANCH  17  19
ENDBRANCH  14  17
ENDBRANCH  12  14
ENDBRANCH   6   8
ENDBRANCH   5   6
ENDBRANCH   4   5
ENDBRANCH   3   4
ENDBRANCH   2   3
ENDBRANCH   1   2
BRANCH   1  26
ATOM     26  C   UNL A   1      32.133  25.010  26.446  1.00  0.00     0.188 C 
BRANCH  26  27
ATOM     27  O   UNL A   1      31.399  26.133  26.874  1.00  0.00    -0.376 OA
BRANCH  27  28
ATOM     28  C   UNL A   1      31.831  27.445  26.555  1.00  0.00     0.202 C 
BRANCH  28  29
ATOM     29  C   UNL A   1      32.493  28.450  27.518  1.00  0.00     0.261 C 
BRANCH  29  30
ATOM     30  O   UNL A   1      33.909  28.609  27.453  1.00  0.00    -0.460 OA
BRANCH  30  31
ATOM     31  C   UNL A   1      34.367  29.855  27.731  1.00  0.00     0.338 C 
ATOM     32  O   UNL A   1      33.738  30.898  27.726  1.00  0.00    -0.246 OA
BRANCH  31  33
ATOM     33  C   UNL A   1      35.776  29.772  28.140  1.00  0.00     0.060 A 
ATOM     34  C   UNL A   1      36.754  30.028  27.185  1.00  0.00     0.016 A 
ATOM     35  C   UNL A   1      36.133  29.338  29.417  1.00  0.00     0.016 A 
ATOM     36  C   UNL A   1      38.098  29.865  27.508  1.00  0.00     0.010 A 
ATOM     37  C   UNL A   1      37.489  29.164  29.734  1.00  0.00     0.010 A 
ATOM     38  C   UNL A   1      38.480  29.413  28.771  1.00  0.00    -0.014 A 
BRANCH  38  39
ATOM     39  C   UNL A   1      39.902  29.044  28.980  1.00  0.00     0.031 A 
ATOM     40  C   UNL A   1      40.821  30.051  29.612  1.00  0.00     0.074 A 
ATOM     41  C   UNL A   1      40.345  27.795  28.737  1.00  0.00     0.049 A 
ATOM     42  N   UNL A   1      42.110  29.986  29.815  1.00  0.00    -0.248 NA
ATOM     43  C   UNL A   1      40.196  31.292  30.098  1.00  0.00     0.031 C 
ATOM     44  C   UNL A   1      39.524  26.682  28.262  1.00  0.00     0.029 A 
ATOM     45  N   UNL A   1      41.600  27.251  28.871  1.00  0.00    -0.354 N 
ATOM     46  C   UNL A   1      42.458  31.188  30.417  1.00  0.00     0.074 A 
ATOM     47  C   UNL A   1      41.244  31.962  30.554  1.00  0.00     0.031 C 
ATOM     48  C   UNL A   1      40.300  25.592  28.130  1.00  0.00     0.029 A 
ATOM     49  C   UNL A   1      41.681  25.943  28.457  1.00  0.00     0.049 A 
ATOM     50  H   UNL A   1      42.368  27.752  29.230  1.00  0.00     0.167 HD
ATOM     51  C   UNL A   1      43.682  31.610  30.812  1.00  0.00     0.037 A 
ATOM     52  C   UNL A   1      42.753  25.137  28.314  1.00  0.00     0.037 A 
ATOM     53  C   UNL A   1      44.884  30.831  30.686  1.00  0.00     0.049 A 
ATOM     54  C   UNL A   1      44.123  25.665  28.659  1.00  0.00     0.074 A 
ATOM     55  C   UNL A   1      46.179  31.184  31.024  1.00  0.00     0.029 A 
ATOM     56  N   UNL A   1      44.941  29.537  30.189  1.00  0.00    -0.354 N 
ATOM     57  N   UNL A   1      44.456  26.834  29.152  1.00  0.00    -0.248 NA
ATOM     58  C   UNL A   1      45.264  24.771  28.412  1.00  0.00     0.031 C 
ATOM     59  C   UNL A   1      47.023  30.119  30.690  1.00  0.00     0.029 A 
ATOM     60  C   UNL A   1      46.248  29.084  30.192  1.00  0.00     0.049 A 
ATOM     61  H   UNL A   1      44.163  29.018  29.879  1.00  0.00     0.167 HD
ATOM     62  C   UNL A   1      45.840  26.809  29.292  1.00  0.00     0.074 A 
ATOM     63  C   UNL A   1      46.281  25.504  28.844  1.00  0.00     0.031 C 
ATOM     64  C   UNL A   1      46.672  27.780  29.748  1.00  0.00     0.037 A 
BRANCH  51  65
ATOM     65  C   UNL A   1      43.785  33.006  31.357  1.00  0.00     0.058 A 
ATOM     66  C   UNL A   1      43.838  34.131  30.522  1.00  0.00     0.135 A 
ATOM     67  C   UNL A   1      43.824  33.216  32.746  1.00  0.00     0.135 A 
ATOM     68  F   UNL A   1      43.833  33.984  29.187  1.00  0.00    -0.206 F 
ATOM     69  C   UNL A   1      43.951  35.417  31.043  1.00  0.00     0.059 A 
ATOM     70  C   UNL A   1      43.910  34.493  33.290  1.00  0.00     0.059 A 
ATOM     71  F   UNL A   1      43.784  32.171  33.588  1.00  0.00    -0.206 F 
ATOM     72  C   UNL A   1      43.988  35.587  32.429  1.00  0.00     0.060 A 
BRANCH  72  73
ATOM     73  S   UNL A   1      44.140  37.258  33.093  1.00  0.00     0.124 S 
ATOM     74  O   UNL A   1      45.272  37.106  34.003  1.00  0.00    -0.237 OA
ATOM     75  O   UNL A   1      44.395  38.048  31.893  1.00  0.00    -0.237 OA
ATOM     76  O   UNL A   1      42.848  37.490  33.731  1.00  0.00    -0.744 OA
ENDBRANCH  72  73
ENDBRANCH  51  65
BRANCH  52  77
ATOM     77  C   UNL A   1      42.587  23.766  27.756  1.00  0.00     0.058 A 
ATOM     78  C   UNL A   1      42.442  22.648  28.590  1.00  0.00     0.135 A 
ATOM     79  C   UNL A   1      42.587  23.548  26.369  1.00  0.00     0.135 A 
ATOM     80  F   UNL A   1      42.457  22.800  29.924  1.00  0.00    -0.206 F 
ATOM     81  C   UNL A   1      42.310  21.363  28.072  1.00  0.00     0.059 A 
ATOM     82  C   UNL A   1      42.428  22.277  25.825  1.00  0.00     0.059 A 
ATOM     83  F   UNL A   1      42.723  24.583  25.524  1.00  0.00    -0.206 F 
ATOM     84  C   UNL A   1      42.301  21.189  26.686  1.00  0.00     0.060 A 
BRANCH  84  85
ATOM     85  S   UNL A   1      42.083  19.525  26.017  1.00  0.00     0.124 S 
ATOM     86  O   UNL A   1      42.528  18.699  27.133  1.00  0.00    -0.237 OA
ATOM     87  O   UNL A   1      40.652  19.495  25.729  1.00  0.00    -0.237 OA
ATOM     88  O   UNL A   1      42.951  19.521  24.842  1.00  0.00    -0.744 OA
ENDBRANCH  84  85
ENDBRANCH  52  77
BRANCH  64  89
ATOM     89  C   UNL A   1      48.140  27.462  29.820  1.00  0.00     0.058 A 
ATOM     90  C   UNL A   1      48.999  27.694  28.735  1.00  0.00     0.135 A 
ATOM     91  C   UNL A   1      48.704  26.977  31.012  1.00  0.00     0.135 A 
ATOM     92  F   UNL A   1      48.509  28.153  27.572  1.00  0.00    -0.206 F 
ATOM     93  C   UNL A   1      50.364  27.438  28.821  1.00  0.00     0.059 A 
ATOM     94  C   UNL A   1      50.069  26.737  31.129  1.00  0.00     0.059 A 
ATOM     95  F   UNL A   1      47.928  26.750  32.083  1.00  0.00    -0.206 F 
ATOM     96  C   UNL A   1      50.891  26.961  30.024  1.00  0.00     0.060 A 
BRANCH  96  97
ATOM     97  S   UNL A   1      52.668  26.667  30.136  1.00  0.00     0.124 S 
ATOM     98  O   UNL A   1      53.153  27.965  30.594  1.00  0.00    -0.237 OA
ATOM     99  O   UNL A   1      52.747  25.582  31.108  1.00  0.00    -0.237 OA
ATOM    100  O   UNL A   1      53.039  26.304  28.771  1.00  0.00    -0.744 OA
ENDBRANCH  96  97
ENDBRANCH  64  89
ENDBRANCH  38  39
ENDBRANCH  31  33
ENDBRANCH  30  31
ENDBRANCH  29  30
ENDBRANCH  28  29
ENDBRANCH  27  28
ENDBRANCH  26  27
ENDBRANCH   1  26
TORSDOF 26
ENDMDL
MODEL 2
REMARK VINA RESULT:      -9.3      2.475      3.098
REMARK SMILES Cc1cc(S(=O)(=O)N[C@H](CO)C(C)C)sc1C(=O)OCCOCCOCCOC(=O)c1ccc(-c2c3nc(c(-c4c(F)cc(S(=O)(=O)[O-])cc4F)c4ccc([nH]4)c(-c4c(F)cc(S(=O)(=O)[O-])cc4F)c4nc(c(-c5c(F)cc(S(=O)(=O)[O-])cc5F)c5ccc2[nH]5)C=C4)C=C3)cc1
REMARK SMILES IDX 23 1 22 2 21 3 20 4 19 5 17 6 18 7 16 8 1 9 2 10 3 11 4 12
REMARK SMILES IDX 15 13 5 14 6 15 7 16 8 17 9 19 12 20 13 21 14 22 10 23 11 24
REMARK SMILES IDX 24 26 25 27 26 28 27 29 28 30 29 31 30 32 31 33 32 34 96 35
REMARK SMILES IDX 33 36 95 37 34 38 35 39 36 40 89 41 37 42 94 43 88 44 90 45
REMARK SMILES IDX 38 46 93 47 87 48 86 49 39 51 73 52 52 53 72 54 53 55 56 56
REMARK SMILES IDX 71 57 91 58 54 59 55 60 70 62 92 63 57 64 40 65 41 66 50 67
REMARK SMILES IDX 42 68 43 69 49 70 51 71 44 72 45 73 46 74 47 75 48 76 74 77
REMARK SMILES IDX 75 78 84 79 76 80 77 81 83 82 85 83 78 84 79 85 80 86 81 87
REMARK SMILES IDX 82 88 58 89 59 90 68 91 60 92 61 93 67 94 69 95 62 96 63 97
REMARK SMILES IDX 64 98 65 99 66 100
REMARK H PARENT 8 18 11 25 90 50 56 61
REMARK Flexibility Score: inf
ROOT
ATOM      1  C   UNL A   1      30.939  23.765  26.599  1.00  0.00     0.188 C 
ENDROOT
BRANCH   1   2
ATOM      2  O   UNL A   1      31.603  22.690  27.249  1.00  0.00    -0.376 OA
BRANCH   2   3
ATOM      3  C   UNL A   1      32.983  22.838  27.573  1.00  0.00     0.202 C 
BRANCH   3   4
ATOM      4  C   UNL A   1      33.923  21.658  27.296  1.00  0.00     0.261 C 
BRANCH   4   5
ATOM      5  O   UNL A   1      35.063  22.030  26.501  1.00  0.00    -0.459 OA
BRANCH   5   6
ATOM      6  C   UNL A   1      35.150  21.438  25.270  1.00  0.00     0.348 C 
ATOM      7  O   UNL A   1      35.902  20.502  25.021  1.00  0.00    -0.245 OA
BRANCH   6   8
ATOM      8  C   UNL A   1      34.168  22.009  24.354  1.00  0.00     0.116 A 
ATOM      9  C   UNL A   1      32.413  20.139  24.037  1.00  0.00     0.046 C 
ATOM     10  C   UNL A   1      33.031  21.472  23.754  1.00  0.00    -0.024 A 
ATOM     11  C   UNL A   1      32.484  22.384  22.782  1.00  0.00     0.038 A 
ATOM     12  C   UNL A   1      33.183  23.570  22.686  1.00  0.00     0.135 A 
ATOM     13  S   UNL A   1      34.385  23.661  23.897  1.00  0.00    -0.115 S 
BRANCH  12  14
ATOM     14  S   UNL A   1      33.044  24.966  21.576  1.00  0.00     0.250 S 
ATOM     15  O   UNL A   1      34.000  25.931  22.057  1.00  0.00    -0.206 OA
ATOM     16  O   UNL A   1      33.162  24.389  20.249  1.00  0.00    -0.206 OA
BRANCH  14  17
ATOM     17  N   UNL A   1      31.493  25.606  21.705  1.00  0.00    -0.205 NA
ATOM     18  H   UNL A   1      30.860  24.807  21.746  1.00  0.00     0.141 HD
BRANCH  17  19
ATOM     19  C   UNL A   1      31.085  26.518  22.826  1.00  0.00     0.098 C 
BRANCH  19  20
ATOM     20  C   UNL A   1      30.912  27.994  22.418  1.00  0.00     0.003 C 
ATOM     21  C   UNL A   1      29.572  28.583  22.878  1.00  0.00     0.009 C 
ATOM     22  C   UNL A   1      32.063  28.836  22.960  1.00  0.00     0.009 C 
ENDBRANCH  19  20
BRANCH  19  23
ATOM     23  C   UNL A   1      29.865  25.919  23.553  1.00  0.00     0.176 C 
BRANCH  23  24
ATOM     24  O   UNL A   1      29.852  24.499  23.387  1.00  0.00    -0.395 OA
ATOM     25  H   UNL A   1      30.762  24.166  23.382  1.00  0.00     0.210 HD
ENDBRANCH  23  24
ENDBRANCH  19  23
ENDBRANCH  17  19
ENDBRANCH  14  17
ENDBRANCH  12  14
ENDBRANCH   6   8
ENDBRANCH   5   6
ENDBRANCH   4   5
ENDBRANCH   3   4
ENDBRANCH   2   3
ENDBRANCH   1   2
BRANCH   1  26
ATOM     26  C   UNL A   1      31.707  25.081  26.357  1.00  0.00     0.188 C 
BRANCH  26  27
ATOM     27  O   UNL A   1      31.085  26.259  26.810  1.00  0.00    -0.376 OA
BRANCH  27  28
ATOM     28  C   UNL A   1      31.631  27.531  26.504  1.00  0.00     0.202 C 
BRANCH  28  29
ATOM     29  C   UNL A   1      32.480  28.413  27.441  1.00  0.00     0.261 C 
BRANCH  29  30
ATOM     30  O   UNL A   1      33.868  28.562  27.147  1.00  0.00    -0.460 OA
BRANCH  30  31
ATOM     31  C   UNL A   1      34.351  29.825  27.253  1.00  0.00     0.338 C 
ATOM     32  O   UNL A   1      33.836  30.856  26.855  1.00  0.00    -0.246 OA
BRANCH  31  33
ATOM     33  C   UNL A   1      35.604  29.800  28.020  1.00  0.00     0.060 A 
ATOM     34  C   UNL A   1      36.790  30.087  27.353  1.00  0.00     0.016 A 
ATOM     35  C   UNL A   1      35.626  29.390  29.354  1.00  0.00     0.016 A 
ATOM     36  C   UNL A   1      38.005  29.979  28.022  1.00  0.00     0.010 A 
ATOM     37  C   UNL A   1      36.855  29.272  30.020  1.00  0.00     0.010 A 
ATOM     38  C   UNL A   1      38.056  29.553  29.349  1.00  0.00    -0.014 A 
BRANCH  38  39
ATOM     39  C   UNL A   1      39.384  29.240  29.932  1.00  0.00     0.031 A 
ATOM     40  C   UNL A   1      39.832  30.003  31.148  1.00  0.00     0.074 A 
ATOM     41  C   UNL A   1      40.126  28.212  29.477  1.00  0.00     0.049 A 
ATOM     42  N   UNL A   1      40.977  29.964  31.776  1.00  0.00    -0.248 NA
ATOM     43  C   UNL A   1      38.847  30.918  31.746  1.00  0.00     0.031 C 
ATOM     44  C   UNL A   1      39.741  27.301  28.400  1.00  0.00     0.029 A 
ATOM     45  N   UNL A   1      41.358  27.755  29.877  1.00  0.00    -0.354 N 
ATOM     46  C   UNL A   1      40.866  30.874  32.819  1.00  0.00     0.074 A 
ATOM     47  C   UNL A   1      39.539  31.445  32.744  1.00  0.00     0.031 C 
ATOM     48  C   UNL A   1      40.724  26.403  28.215  1.00  0.00     0.029 A 
ATOM     49  C   UNL A   1      41.830  26.709  29.121  1.00  0.00     0.049 A 
ATOM     50  H   UNL A   1      41.856  28.141  30.634  1.00  0.00     0.167 HD
ATOM     51  C   UNL A   1      41.790  31.208  33.750  1.00  0.00     0.037 A 
ATOM     52  C   UNL A   1      43.033  26.100  29.127  1.00  0.00     0.037 A 
ATOM     53  C   UNL A   1      43.103  30.626  33.827  1.00  0.00     0.049 A 
ATOM     54  C   UNL A   1      44.088  26.561  30.102  1.00  0.00     0.074 A 
ATOM     55  C   UNL A   1      44.126  30.924  34.711  1.00  0.00     0.029 A 
ATOM     56  N   UNL A   1      43.576  29.624  32.994  1.00  0.00    -0.354 N 
ATOM     57  N   UNL A   1      44.003  27.481  31.034  1.00  0.00    -0.248 NA
ATOM     58  C   UNL A   1      45.406  25.915  30.015  1.00  0.00     0.031 C 
ATOM     59  C   UNL A   1      45.231  30.130  34.384  1.00  0.00     0.029 A 
ATOM     60  C   UNL A   1      44.880  29.303  33.329  1.00  0.00     0.049 A 
ATOM     61  H   UNL A   1      43.058  29.201  32.270  1.00  0.00     0.167 HD
ATOM     62  C   UNL A   1      45.249  27.510  31.655  1.00  0.00     0.074 A 
ATOM     63  C   UNL A   1      46.064  26.507  31.002  1.00  0.00     0.031 C 
ATOM     64  C   UNL A   1      45.678  28.297  32.674  1.00  0.00     0.037 A 
BRANCH  51  65
ATOM     65  C   UNL A   1      41.430  32.299  34.716  1.00  0.00     0.058 A 
ATOM     66  C   UNL A   1      41.666  33.653  34.435  1.00  0.00     0.135 A 
ATOM     67  C   UNL A   1      40.830  31.978  35.946  1.00  0.00     0.135 A 
ATOM     68  F   UNL A   1      42.262  34.011  33.286  1.00  0.00    -0.206 F 
ATOM     69  C   UNL A   1      41.341  34.651  35.349  1.00  0.00     0.059 A 
ATOM     70  C   UNL A   1      40.474  32.961  36.863  1.00  0.00     0.059 A 
ATOM     71  F   UNL A   1      40.591  30.697  36.266  1.00  0.00    -0.206 F 
ATOM     72  C   UNL A   1      40.747  34.294  36.561  1.00  0.00     0.060 A 
BRANCH  72  73
ATOM     73  S   UNL A   1      40.336  35.596  37.741  1.00  0.00     0.124 S 
ATOM     74  O   UNL A   1      40.036  36.712  36.848  1.00  0.00    -0.237 OA
ATOM     75  O   UNL A   1      39.192  35.027  38.448  1.00  0.00    -0.237 OA
ATOM     76  O   UNL A   1      41.553  35.736  38.533  1.00  0.00    -0.744 OA
ENDBRANCH  72  73
ENDBRANCH  51  65
BRANCH  52  77
ATOM     77  C   UNL A   1      43.334  25.031  28.135  1.00  0.00     0.058 A 
ATOM     78  C   UNL A   1      43.776  25.336  26.840  1.00  0.00     0.135 A 
ATOM     79  C   UNL A   1      43.168  23.675  28.464  1.00  0.00     0.135 A 
ATOM     80  F   UNL A   1      43.930  26.617  26.468  1.00  0.00    -0.206 F 
ATOM     81  C   UNL A   1      44.036  24.340  25.903  1.00  0.00     0.059 A 
ATOM     82  C   UNL A   1      43.448  22.660  27.555  1.00  0.00     0.059 A 
ATOM     83  F   UNL A   1      42.747  23.327  29.690  1.00  0.00    -0.206 F 
ATOM     84  C   UNL A   1      43.871  23.003  26.272  1.00  0.00     0.060 A 
BRANCH  84  85
ATOM     85  S   UNL A   1      44.254  21.711  25.068  1.00  0.00     0.124 S 
ATOM     86  O   UNL A   1      44.187  22.451  23.814  1.00  0.00    -0.237 OA
ATOM     87  O   UNL A   1      45.585  21.284  25.489  1.00  0.00    -0.237 OA
ATOM     88  O   UNL A   1      43.193  20.731  25.282  1.00  0.00    -0.744 OA
ENDBRANCH  84  85
ENDBRANCH  52  77
BRANCH  64  89
ATOM     89  C   UNL A   1      47.082  28.088  33.171  1.00  0.00     0.058 A 
ATOM     90  C   UNL A   1      48.163  28.820  32.657  1.00  0.00     0.135 A 
ATOM     91  C   UNL A   1      47.337  27.188  34.219  1.00  0.00     0.135 A 
ATOM     92  F   UNL A   1      47.974  29.689  31.652  1.00  0.00    -0.206 F 
ATOM     93  C   UNL A   1      49.454  28.652  33.151  1.00  0.00     0.059 A 
ATOM     94  C   UNL A   1      48.614  27.023  34.745  1.00  0.00     0.059 A 
ATOM     95  F   UNL A   1      46.335  26.473  34.754  1.00  0.00    -0.206 F 
ATOM     96  C   UNL A   1      49.669  27.752  34.197  1.00  0.00     0.060 A 
BRANCH  96  97
ATOM     97  S   UNL A   1      51.340  27.571  34.855  1.00  0.00     0.124 S 
ATOM     98  O   UNL A   1      52.146  27.672  33.643  1.00  0.00    -0.237 OA
ATOM     99  O   UNL A   1      51.439  28.697  35.778  1.00  0.00    -0.237 OA
ATOM    100  O   UNL A   1      51.316  26.254  35.485  1.00  0.00    -0.744 OA
ENDBRANCH  96  97
ENDBRANCH  64  89
ENDBRANCH  38  39
ENDBRANCH  31  33
ENDBRANCH  30  31
ENDBRANCH  29  30
ENDBRANCH  28  29
ENDBRANCH  27  28
ENDBRANCH  26  27
ENDBRANCH   1  26
TORSDOF 26
ENDMDL
MODEL 3
REMARK VINA RESULT:      -9.0      2.798      8.374
REMARK SMILES Cc1cc(S(=O)(=O)N[C@H](CO)C(C)C)sc1C(=O)OCCOCCOCCOC(=O)c1ccc(-c2c3nc(c(-c4c(F)cc(S(=O)(=O)[O-])cc4F)c4ccc([nH]4)c(-c4c(F)cc(S(=O)(=O)[O-])cc4F)c4nc(c(-c5c(F)cc(S(=O)(=O)[O-])cc5F)c5ccc2[nH]5)C=C4)C=C3)cc1
REMARK SMILES IDX 23 1 22 2 21 3 20 4 19 5 17 6 18 7 16 8 1 9 2 10 3 11 4 12
REMARK SMILES IDX 15 13 5 14 6 15 7 16 8 17 9 19 12 20 13 21 14 22 10 23 11 24
REMARK SMILES IDX 24 26 25 27 26 28 27 29 28 30 29 31 30 32 31 33 32 34 96 35
REMARK SMILES IDX 33 36 95 37 34 38 35 39 36 40 89 41 37 42 94 43 88 44 90 45
REMARK SMILES IDX 38 46 93 47 87 48 86 49 39 51 73 52 52 53 72 54 53 55 56 56
REMARK SMILES IDX 71 57 91 58 54 59 55 60 70 62 92 63 57 64 40 65 41 66 50 67
REMARK SMILES IDX 42 68 43 69 49 70 51 71 44 72 45 73 46 74 47 75 48 76 74 77
REMARK SMILES IDX 75 78 84 79 76 80 77 81 83 82 85 83 78 84 79 85 80 86 81 87
REMARK SMILES IDX 82 88 58 89 59 90 68 91 60 92 61 93 67 94 69 95 62 96 63 97
REMARK SMILES IDX 64 98 65 99 66 100
REMARK H PARENT 8 18 11 25 90 50 56 61
REMARK Flexibility Score: inf
ROOT
ATOM      1  C   UNL A   1      31.437  23.189  27.176  1.00  0.00     0.188 C 
ENDROOT
BRANCH   1   2
ATOM      2  O   UNL A   1      32.274  22.472  28.074  1.00  0.00    -0.376 OA
BRANCH   2   3
ATOM      3  C   UNL A   1      33.685  22.634  27.967  1.00  0.00     0.202 C 
BRANCH   3   4
ATOM      4  C   UNL A   1      34.431  21.805  26.914  1.00  0.00     0.261 C 
BRANCH   4   5
ATOM      5  O   UNL A   1      35.260  22.611  26.056  1.00  0.00    -0.459 OA
BRANCH   5   6
ATOM      6  C   UNL A   1      35.306  22.231  24.743  1.00  0.00     0.348 C 
ATOM      7  O   UNL A   1      36.096  21.403  24.305  1.00  0.00    -0.245 OA
BRANCH   6   8
ATOM      8  C   UNL A   1      34.234  22.870  23.986  1.00  0.00     0.116 A 
ATOM      9  C   UNL A   1      32.368  21.087  23.874  1.00  0.00     0.046 C 
ATOM     10  C   UNL A   1      33.002  22.400  23.537  1.00  0.00    -0.024 A 
ATOM     11  C   UNL A   1      32.369  23.362  22.671  1.00  0.00     0.038 A 
ATOM     12  C   UNL A   1      33.102  24.519  22.506  1.00  0.00     0.135 A 
ATOM     13  S   UNL A   1      34.463  24.523  23.540  1.00  0.00    -0.115 S 
BRANCH  12  14
ATOM     14  S   UNL A   1      32.876  25.951  21.458  1.00  0.00     0.250 S 
ATOM     15  O   UNL A   1      33.746  26.963  22.003  1.00  0.00    -0.206 OA
ATOM     16  O   UNL A   1      33.063  25.448  20.109  1.00  0.00    -0.206 OA
BRANCH  14  17
ATOM     17  N   UNL A   1      31.278  26.464  21.581  1.00  0.00    -0.205 NA
ATOM     18  H   UNL A   1      30.703  25.648  21.372  1.00  0.00     0.141 HD
BRANCH  17  19
ATOM     19  C   UNL A   1      30.716  27.060  22.840  1.00  0.00     0.098 C 
BRANCH  19  20
ATOM     20  C   UNL A   1      30.479  28.580  22.777  1.00  0.00     0.003 C 
ATOM     21  C   UNL A   1      28.991  28.947  22.719  1.00  0.00     0.009 C 
ATOM     22  C   UNL A   1      31.139  29.274  23.966  1.00  0.00     0.009 C 
ENDBRANCH  19  20
BRANCH  19  23
ATOM     23  C   UNL A   1      29.481  26.249  23.280  1.00  0.00     0.176 C 
BRANCH  23  24
ATOM     24  O   UNL A   1      29.858  25.294  24.275  1.00  0.00    -0.395 OA
ATOM     25  H   UNL A   1      30.465  24.645  23.887  1.00  0.00     0.210 HD
ENDBRANCH  23  24
ENDBRANCH  19  23
ENDBRANCH  17  19
ENDBRANCH  14  17
ENDBRANCH  12  14
ENDBRANCH   6   8
ENDBRANCH   5   6
ENDBRANCH   4   5
ENDBRANCH   3   4
ENDBRANCH   2   3
ENDBRANCH   1   2
BRANCH   1  26
ATOM     26  C   UNL A   1      32.015  24.409  26.430  1.00  0.00     0.188 C 
BRANCH  26  27
ATOM     27  O   UNL A   1      31.612  25.674  26.896  1.00  0.00    -0.376 OA
BRANCH  27  28
ATOM     28  C   UNL A   1      32.194  26.857  26.375  1.00  0.00     0.202 C 
BRANCH  28  29
ATOM     29  C   UNL A   1      32.824  28.004  27.191  1.00  0.00     0.261 C 
BRANCH  29  30
ATOM     30  O   UNL A   1      34.183  28.348  26.925  1.00  0.00    -0.460 OA
BRANCH  30  31
ATOM     31  C   UNL A   1      34.500  29.652  27.122  1.00  0.00     0.338 C 
ATOM     32  O   UNL A   1      33.891  30.634  26.734  1.00  0.00    -0.246 OA
BRANCH  31  33
ATOM     33  C   UNL A   1      35.692  29.736  27.977  1.00  0.00     0.060 A 
ATOM     34  C   UNL A   1      36.906  30.066  27.383  1.00  0.00     0.016 A 
ATOM     35  C   UNL A   1      35.639  29.385  29.327  1.00  0.00     0.016 A 
ATOM     36  C   UNL A   1      38.073  30.060  28.141  1.00  0.00     0.010 A 
ATOM     37  C   UNL A   1      36.820  29.370  30.083  1.00  0.00     0.010 A 
ATOM     38  C   UNL A   1      38.050  29.693  29.487  1.00  0.00    -0.014 A 
BRANCH  38  39
ATOM     39  C   UNL A   1      39.347  29.487  30.177  1.00  0.00     0.031 A 
ATOM     40  C   UNL A   1      40.280  28.432  29.652  1.00  0.00     0.074 A 
ATOM     41  C   UNL A   1      39.752  30.304  31.168  1.00  0.00     0.049 A 
ATOM     42  N   UNL A   1      41.420  28.016  30.138  1.00  0.00    -0.248 NA
ATOM     43  C   UNL A   1      39.880  27.770  28.400  1.00  0.00     0.031 C 
ATOM     44  C   UNL A   1      39.007  31.456  31.675  1.00  0.00     0.029 A 
ATOM     45  N   UNL A   1      40.902  30.293  31.920  1.00  0.00    -0.354 N 
ATOM     46  C   UNL A   1      41.857  27.021  29.274  1.00  0.00     0.074 A 
ATOM     47  C   UNL A   1      40.863  26.899  28.229  1.00  0.00     0.031 C 
ATOM     48  C   UNL A   1      39.713  32.033  32.663  1.00  0.00     0.029 A 
ATOM     49  C   UNL A   1      40.931  31.259  32.898  1.00  0.00     0.049 A 
ATOM     50  H   UNL A   1      41.635  29.653  31.772  1.00  0.00     0.167 HD
ATOM     51  C   UNL A   1      42.981  26.271  29.350  1.00  0.00     0.037 A 
ATOM     52  C   UNL A   1      41.814  31.466  33.895  1.00  0.00     0.037 A 
ATOM     53  C   UNL A   1      43.972  26.407  30.383  1.00  0.00     0.049 A 
ATOM     54  C   UNL A   1      43.005  30.550  34.026  1.00  0.00     0.074 A 
ATOM     55  C   UNL A   1      45.129  25.670  30.569  1.00  0.00     0.029 A 
ATOM     56  N   UNL A   1      43.929  27.345  31.403  1.00  0.00    -0.354 N 
ATOM     57  N   UNL A   1      43.371  29.556  33.251  1.00  0.00    -0.248 NA
ATOM     58  C   UNL A   1      43.895  30.772  35.175  1.00  0.00     0.031 C 
ATOM     59  C   UNL A   1      45.763  26.135  31.726  1.00  0.00     0.029 A 
ATOM     60  C   UNL A   1      45.028  27.195  32.232  1.00  0.00     0.049 A 
ATOM     61  H   UNL A   1      43.221  28.019  31.520  1.00  0.00     0.167 HD
ATOM     62  C   UNL A   1      44.541  29.048  33.809  1.00  0.00     0.074 A 
ATOM     63  C   UNL A   1      44.830  29.852  34.978  1.00  0.00     0.031 C 
ATOM     64  C   UNL A   1      45.305  28.008  33.390  1.00  0.00     0.037 A 
BRANCH  51  65
ATOM     65  C   UNL A   1      43.161  25.193  28.320  1.00  0.00     0.058 A 
ATOM     66  C   UNL A   1      42.822  23.856  28.572  1.00  0.00     0.135 A 
ATOM     67  C   UNL A   1      43.675  25.513  27.052  1.00  0.00     0.135 A 
ATOM     68  F   UNL A   1      42.353  23.493  29.777  1.00  0.00    -0.206 F 
ATOM     69  C   UNL A   1      43.011  22.866  27.612  1.00  0.00     0.059 A 
ATOM     70  C   UNL A   1      43.848  24.545  26.068  1.00  0.00     0.059 A 
ATOM     71  F   UNL A   1      44.022  26.777  26.763  1.00  0.00    -0.206 F 
ATOM     72  C   UNL A   1      43.526  23.221  26.364  1.00  0.00     0.060 A 
BRANCH  72  73
ATOM     73  S   UNL A   1      43.771  21.928  25.128  1.00  0.00     0.124 S 
ATOM     74  O   UNL A   1      45.150  21.528  25.398  1.00  0.00    -0.237 OA
ATOM     75  O   UNL A   1      42.748  20.953  25.490  1.00  0.00    -0.237 OA
ATOM     76  O   UNL A   1      43.554  22.620  23.862  1.00  0.00    -0.744 OA
ENDBRANCH  72  73
ENDBRANCH  51  65
BRANCH  52  77
ATOM     77  C   UNL A   1      41.574  32.545  34.894  1.00  0.00     0.058 A 
ATOM     78  C   UNL A   1      42.185  33.801  34.776  1.00  0.00     0.135 A 
ATOM     79  C   UNL A   1      40.736  32.329  36.000  1.00  0.00     0.135 A 
ATOM     80  F   UNL A   1      43.012  34.051  33.749  1.00  0.00    -0.206 F 
ATOM     81  C   UNL A   1      41.980  34.803  35.720  1.00  0.00     0.059 A 
ATOM     82  C   UNL A   1      40.493  33.323  36.942  1.00  0.00     0.059 A 
ATOM     83  F   UNL A   1      40.127  31.143  36.161  1.00  0.00    -0.206 F 
ATOM     84  C   UNL A   1      41.129  34.555  36.799  1.00  0.00     0.060 A 
BRANCH  84  85
ATOM     85  S   UNL A   1      40.830  35.873  37.997  1.00  0.00     0.124 S 
ATOM     86  O   UNL A   1      40.377  35.117  39.158  1.00  0.00    -0.237 OA
ATOM     87  O   UNL A   1      42.147  36.491  38.109  1.00  0.00    -0.237 OA
ATOM     88  O   UNL A   1      39.815  36.695  37.343  1.00  0.00    -0.744 OA
ENDBRANCH  84  85
ENDBRANCH  52  77
BRANCH  64  89
ATOM     89  C   UNL A   1      46.548  27.696  34.178  1.00  0.00     0.058 A 
ATOM     90  C   UNL A   1      46.530  26.803  35.261  1.00  0.00     0.135 A 
ATOM     91  C   UNL A   1      47.783  28.251  33.805  1.00  0.00     0.135 A 
ATOM     92  F   UNL A   1      45.374  26.249  35.661  1.00  0.00    -0.206 F 
ATOM     93  C   UNL A   1      47.691  26.486  35.960  1.00  0.00     0.059 A 
ATOM     94  C   UNL A   1      48.960  27.929  34.474  1.00  0.00     0.059 A 
ATOM     95  F   UNL A   1      47.856  29.100  32.769  1.00  0.00    -0.206 F 
ATOM     96  C   UNL A   1      48.902  27.052  35.558  1.00  0.00     0.060 A 
BRANCH  96  97
ATOM     97  S   UNL A   1      50.407  26.605  36.448  1.00  0.00     0.124 S 
ATOM     98  O   UNL A   1      50.025  25.332  37.051  1.00  0.00    -0.237 OA
ATOM     99  O   UNL A   1      51.395  26.528  35.377  1.00  0.00    -0.237 OA
ATOM    100  O   UNL A   1      50.591  27.712  37.382  1.00  0.00    -0.744 OA
ENDBRANCH  96  97
ENDBRANCH  64  89
ENDBRANCH  38  39
ENDBRANCH  31  33
ENDBRANCH  30  31
ENDBRANCH  29  30
ENDBRANCH  28  29
ENDBRANCH  27  28
ENDBRANCH  26  27
ENDBRANCH   1  26
TORSDOF 26
ENDMDL
