MODEL 1
REMARK VINA RESULT:      -9.4      0.000      0.000
REMARK SMILES CC[C@](C)([NH3+])C(=O)Nc1ccc(C(F)(F)F)cc1C(=O)OCCOCCOCCOC(=O)c1ccc(-c2c3nc(c(-c4c(F)cc(S(=O)(=O)[O-])cc4F)c4ccc([nH]4)c(-c4c(F)cc(S(=O)(=O)[O-])cc4F)c4nc(c(-c5c(F)cc(S(=O)(=O)[O-])cc5F)c5ccc2[nH]5)C=C4)C=C3)cc1
REMARK SMILES IDX 25 1 24 2 23 3 22 4 21 5 19 6 20 7 18 8 9 9 10 10 11 11
REMARK SMILES IDX 17 12 12 13 8 14 6 15 7 16 3 18 4 19 2 20 1 21 5 22 13 26
REMARK SMILES IDX 14 27 15 28 16 29 26 30 27 31 28 32 29 33 30 34 31 35 32 36
REMARK SMILES IDX 33 37 34 38 98 39 35 40 97 41 36 42 37 43 38 44 91 45 39 46
REMARK SMILES IDX 96 47 90 48 92 49 40 50 95 51 89 52 88 53 41 55 75 56 54 57
REMARK SMILES IDX 74 58 55 59 58 60 73 61 93 62 56 63 57 64 72 66 94 67 59 68
REMARK SMILES IDX 42 69 43 70 52 71 44 72 45 73 51 74 53 75 46 76 47 77 48 78
REMARK SMILES IDX 49 79 50 80 76 81 77 82 86 83 78 84 79 85 85 86 87 87 80 88
REMARK SMILES IDX 81 89 82 90 83 91 84 92 60 93 61 94 70 95 62 96 63 97 69 98
REMARK SMILES IDX 71 99 64 100 65 101 66 102 67 103 68 104
REMARK H PARENT 8 17 5 23 5 24 5 25 92 54 58 65
REMARK Flexibility Score: inf
ROOT
ATOM      1  C   UNL A   1      33.396  27.373  24.381  1.00  0.00     0.188 C 
ENDROOT
BRANCH   1   2
ATOM      2  O   UNL A   1      33.897  26.201  23.756  1.00  0.00    -0.376 OA
BRANCH   2   3
ATOM      3  C   UNL A   1      33.633  26.111  22.364  1.00  0.00     0.202 C 
BRANCH   3   4
ATOM      4  C   UNL A   1      32.812  24.882  22.009  1.00  0.00     0.261 C 
BRANCH   4   5
ATOM      5  O   UNL A   1      33.457  23.617  22.251  1.00  0.00    -0.460 OA
BRANCH   5   6
ATOM      6  C   UNL A   1      32.859  22.631  22.949  1.00  0.00     0.340 C 
ATOM      7  O   UNL A   1      31.889  21.987  22.593  1.00  0.00    -0.246 OA
BRANCH   6   8
ATOM      8  C   UNL A   1      33.565  22.438  24.252  1.00  0.00     0.084 A 
ATOM      9  C   UNL A   1      32.903  22.201  25.471  1.00  0.00     0.056 A 
ATOM     10  C   UNL A   1      33.626  22.311  26.669  1.00  0.00     0.027 A 
ATOM     11  C   UNL A   1      35.004  22.521  26.662  1.00  0.00     0.015 A 
ATOM     12  C   UNL A   1      34.962  22.635  24.249  1.00  0.00     0.031 A 
ATOM     13  C   UNL A   1      35.693  22.663  25.452  1.00  0.00     0.057 A 
BRANCH   9  14
ATOM     14  N   UNL A   1      31.529  21.978  25.637  1.00  0.00    -0.320 N 
ATOM     15  C   UNL A   1      30.521  22.697  26.210  1.00  0.00     0.285 C 
ATOM     16  O   UNL A   1      29.547  22.028  26.587  1.00  0.00    -0.267 OA
ATOM     17  H   UNL A   1      31.228  21.121  25.259  1.00  0.00     0.170 HD
BRANCH  15  18
ATOM     18  C   UNL A   1      30.436  24.263  26.169  1.00  0.00     0.171 C 
ATOM     19  C   UNL A   1      29.117  24.670  26.856  1.00  0.00     0.090 C 
BRANCH  18  20
ATOM     20  C   UNL A   1      30.531  24.777  24.720  1.00  0.00     0.075 C 
ATOM     21  C   UNL A   1      30.138  26.230  24.519  1.00  0.00     0.011 C 
ENDBRANCH  18  20
BRANCH  18  22
ATOM     22  N   UNL A   1      31.461  25.011  26.902  1.00  0.00    -0.345 N 
ATOM     23  H   UNL A   1      32.295  24.433  27.006  1.00  0.00     0.345 HD
ATOM     24  H   UNL A   1      31.105  25.261  27.825  1.00  0.00     0.345 HD
ATOM     25  H   UNL A   1      31.697  25.859  26.388  1.00  0.00     0.345 HD
ENDBRANCH  18  22
ENDBRANCH  15  18
ENDBRANCH   9  14
BRANCH  13  26
ATOM     26  C   UNL A   1      37.196  22.838  25.475  1.00  0.00     0.416 C 
ATOM     27  F   UNL A   1      37.816  21.846  26.171  1.00  0.00    -0.166 F 
ATOM     28  F   UNL A   1      37.729  22.805  24.223  1.00  0.00    -0.166 F 
ATOM     29  F   UNL A   1      37.597  24.005  26.037  1.00  0.00    -0.166 F 
ENDBRANCH  13  26
ENDBRANCH   6   8
ENDBRANCH   5   6
ENDBRANCH   4   5
ENDBRANCH   3   4
ENDBRANCH   2   3
ENDBRANCH   1   2
BRANCH   1  30
ATOM     30  C   UNL A   1      33.646  27.461  25.905  1.00  0.00     0.188 C 
BRANCH  30  31
ATOM     31  O   UNL A   1      32.600  27.777  26.811  1.00  0.00    -0.376 OA
BRANCH  31  32
ATOM     32  C   UNL A   1      31.816  28.936  26.583  1.00  0.00     0.202 C 
BRANCH  32  33
ATOM     33  C   UNL A   1      32.507  30.309  26.629  1.00  0.00     0.261 C 
BRANCH  33  34
ATOM     34  O   UNL A   1      33.419  30.494  27.724  1.00  0.00    -0.460 OA
BRANCH  34  35
ATOM     35  C   UNL A   1      34.312  31.508  27.593  1.00  0.00     0.338 C 
ATOM     36  O   UNL A   1      34.067  32.657  27.259  1.00  0.00    -0.246 OA
BRANCH  35  37
ATOM     37  C   UNL A   1      35.624  31.094  28.157  1.00  0.00     0.060 A 
ATOM     38  C   UNL A   1      35.766  29.762  28.583  1.00  0.00     0.016 A 
ATOM     39  C   UNL A   1      36.709  31.969  28.238  1.00  0.00     0.016 A 
ATOM     40  C   UNL A   1      36.977  29.309  29.111  1.00  0.00     0.010 A 
ATOM     41  C   UNL A   1      37.913  31.526  28.806  1.00  0.00     0.010 A 
ATOM     42  C   UNL A   1      38.039  30.205  29.277  1.00  0.00    -0.014 A 
BRANCH  42  43
ATOM     43  C   UNL A   1      39.148  29.849  30.201  1.00  0.00     0.031 A 
ATOM     44  C   UNL A   1      40.142  28.823  29.719  1.00  0.00     0.074 A 
ATOM     45  C   UNL A   1      39.305  30.423  31.407  1.00  0.00     0.049 A 
ATOM     46  N   UNL A   1      41.161  28.291  30.342  1.00  0.00    -0.248 NA
ATOM     47  C   UNL A   1      39.957  28.333  28.342  1.00  0.00     0.031 C 
ATOM     48  C   UNL A   1      38.457  31.471  31.969  1.00  0.00     0.029 A 
ATOM     49  N   UNL A   1      40.243  30.190  32.385  1.00  0.00    -0.354 N 
ATOM     50  C   UNL A   1      41.735  27.408  29.436  1.00  0.00     0.074 A 
ATOM     51  C   UNL A   1      40.937  27.450  28.233  1.00  0.00     0.031 C 
ATOM     52  C   UNL A   1      38.905  31.780  33.202  1.00  0.00     0.029 A 
ATOM     53  C   UNL A   1      40.051  30.930  33.527  1.00  0.00     0.049 A 
ATOM     54  H   UNL A   1      40.985  29.551  32.276  1.00  0.00     0.167 HD
ATOM     55  C   UNL A   1      42.834  26.633  29.586  1.00  0.00     0.037 A 
ATOM     56  C   UNL A   1      40.712  30.906  34.704  1.00  0.00     0.037 A 
ATOM     57  C   UNL A   1      43.624  26.576  30.785  1.00  0.00     0.049 A 
ATOM     58  C   UNL A   1      41.877  29.959  34.884  1.00  0.00     0.074 A 
ATOM     59  C   UNL A   1      44.748  25.809  31.040  1.00  0.00     0.029 A 
ATOM     60  N   UNL A   1      43.372  27.311  31.932  1.00  0.00    -0.354 N 
ATOM     61  N   UNL A   1      42.410  29.128  34.020  1.00  0.00    -0.248 NA
ATOM     62  C   UNL A   1      42.529  29.947  36.203  1.00  0.00     0.031 C 
ATOM     63  C   UNL A   1      45.150  26.049  32.357  1.00  0.00     0.029 A 
ATOM     64  C   UNL A   1      44.307  27.003  32.904  1.00  0.00     0.049 A 
ATOM     65  H   UNL A   1      42.636  27.957  32.039  1.00  0.00     0.167 HD
ATOM     66  C   UNL A   1      43.478  28.523  34.679  1.00  0.00     0.074 A 
ATOM     67  C   UNL A   1      43.520  29.087  36.011  1.00  0.00     0.031 C 
ATOM     68  C   UNL A   1      44.349  27.587  34.222  1.00  0.00     0.037 A 
BRANCH  55  69
ATOM     69  C   UNL A   1      43.226  25.762  28.426  1.00  0.00     0.058 A 
ATOM     70  C   UNL A   1      42.596  24.531  28.185  1.00  0.00     0.135 A 
ATOM     71  C   UNL A   1      44.234  26.170  27.538  1.00  0.00     0.135 A 
ATOM     72  F   UNL A   1      41.646  24.083  29.021  1.00  0.00    -0.206 F 
ATOM     73  C   UNL A   1      42.967  23.724  27.116  1.00  0.00     0.059 A 
ATOM     74  C   UNL A   1      44.603  25.390  26.446  1.00  0.00     0.059 A 
ATOM     75  F   UNL A   1      44.873  27.334  27.731  1.00  0.00    -0.206 F 
ATOM     76  C   UNL A   1      43.972  24.163  26.251  1.00  0.00     0.060 A 
BRANCH  76  77
ATOM     77  S   UNL A   1      44.436  23.107  24.863  1.00  0.00     0.124 S 
ATOM     78  O   UNL A   1      45.338  23.982  24.122  1.00  0.00    -0.237 OA
ATOM     79  O   UNL A   1      45.063  21.971  25.532  1.00  0.00    -0.237 OA
ATOM     80  O   UNL A   1      43.161  22.821  24.212  1.00  0.00    -0.744 OA
ENDBRANCH  76  77
ENDBRANCH  55  69
BRANCH  56  81
ATOM     81  C   UNL A   1      40.286  31.783  35.830  1.00  0.00     0.058 A 
ATOM     82  C   UNL A   1      41.026  32.922  36.182  1.00  0.00     0.135 A 
ATOM     83  C   UNL A   1      39.156  31.477  36.605  1.00  0.00     0.135 A 
ATOM     84  F   UNL A   1      42.125  33.249  35.485  1.00  0.00    -0.206 F 
ATOM     85  C   UNL A   1      40.677  33.713  37.273  1.00  0.00     0.059 A 
ATOM     86  C   UNL A   1      38.771  32.266  37.685  1.00  0.00     0.059 A 
ATOM     87  F   UNL A   1      38.412  30.399  36.311  1.00  0.00    -0.206 F 
ATOM     88  C   UNL A   1      39.547  33.376  38.021  1.00  0.00     0.060 A 
BRANCH  88  89
ATOM     89  S   UNL A   1      39.085  34.423  39.418  1.00  0.00     0.124 S 
ATOM     90  O   UNL A   1      39.084  35.746  38.805  1.00  0.00    -0.237 OA
ATOM     91  O   UNL A   1      37.778  33.887  39.785  1.00  0.00    -0.237 OA
ATOM     92  O   UNL A   1      40.148  34.177  40.387  1.00  0.00    -0.744 OA
ENDBRANCH  88  89
ENDBRANCH  56  81
BRANCH  68  93
ATOM     93  C   UNL A   1      45.454  27.145  35.142  1.00  0.00     0.058 A 
ATOM     94  C   UNL A   1      45.310  26.042  35.996  1.00  0.00     0.135 A 
ATOM     95  C   UNL A   1      46.699  27.795  35.116  1.00  0.00     0.135 A 
ATOM     96  F   UNL A   1      44.141  25.386  36.062  1.00  0.00    -0.206 F 
ATOM     97  C   UNL A   1      46.355  25.609  36.807  1.00  0.00     0.059 A 
ATOM     98  C   UNL A   1      47.767  27.364  35.898  1.00  0.00     0.059 A 
ATOM     99  F   UNL A   1      46.896  28.848  34.306  1.00  0.00    -0.206 F 
ATOM    100  C   UNL A   1      47.581  26.276  36.749  1.00  0.00     0.060 A 
BRANCH 100 101
ATOM    101  S   UNL A   1      48.942  25.682  37.778  1.00  0.00     0.124 S 
ATOM    102  O   UNL A   1      50.076  26.406  37.213  1.00  0.00    -0.237 OA
ATOM    103  O   UNL A   1      48.528  26.096  39.115  1.00  0.00    -0.237 OA
ATOM    104  O   UNL A   1      48.938  24.240  37.546  1.00  0.00    -0.744 OA
ENDBRANCH 100 101
ENDBRANCH  68  93
ENDBRANCH  42  43
ENDBRANCH  35  37
ENDBRANCH  34  35
ENDBRANCH  33  34
ENDBRANCH  32  33
ENDBRANCH  31  32
ENDBRANCH  30  31
ENDBRANCH   1  30
TORSDOF 25
ENDMDL
MODEL 2
REMARK VINA RESULT:      -9.2      5.384     10.298
REMARK SMILES CC[C@](C)([NH3+])C(=O)Nc1ccc(C(F)(F)F)cc1C(=O)OCCOCCOCCOC(=O)c1ccc(-c2c3nc(c(-c4c(F)cc(S(=O)(=O)[O-])cc4F)c4ccc([nH]4)c(-c4c(F)cc(S(=O)(=O)[O-])cc4F)c4nc(c(-c5c(F)cc(S(=O)(=O)[O-])cc5F)c5ccc2[nH]5)C=C4)C=C3)cc1
REMARK SMILES IDX 25 1 24 2 23 3 22 4 21 5 19 6 20 7 18 8 9 9 10 10 11 11
REMARK SMILES IDX 17 12 12 13 8 14 6 15 7 16 3 18 4 19 2 20 1 21 5 22 13 26
REMARK SMILES IDX 14 27 15 28 16 29 26 30 27 31 28 32 29 33 30 34 31 35 32 36
REMARK SMILES IDX 33 37 34 38 98 39 35 40 97 41 36 42 37 43 38 44 91 45 39 46
REMARK SMILES IDX 96 47 90 48 92 49 40 50 95 51 89 52 88 53 41 55 75 56 54 57
REMARK SMILES IDX 74 58 55 59 58 60 73 61 93 62 56 63 57 64 72 66 94 67 59 68
REMARK SMILES IDX 42 69 43 70 52 71 44 72 45 73 51 74 53 75 46 76 47 77 48 78
REMARK SMILES IDX 49 79 50 80 76 81 77 82 86 83 78 84 79 85 85 86 87 87 80 88
REMARK SMILES IDX 81 89 82 90 83 91 84 92 60 93 61 94 70 95 62 96 63 97 69 98
REMARK SMILES IDX 71 99 64 100 65 101 66 102 67 103 68 104
REMARK H PARENT 8 17 5 23 5 24 5 25 92 54 58 65
REMARK Flexibility Score: inf
ROOT
ATOM      1  C   UNL A   1      34.271  32.962  29.401  1.00  0.00     0.188 C 
ENDROOT
BRANCH   1   2
ATOM      2  O   UNL A   1      33.729  32.724  28.111  1.00  0.00    -0.376 OA
BRANCH   2   3
ATOM      3  C   UNL A   1      33.695  31.360  27.723  1.00  0.00     0.202 C 
BRANCH   3   4
ATOM      4  C   UNL A   1      32.517  31.045  26.816  1.00  0.00     0.261 C 
BRANCH   4   5
ATOM      5  O   UNL A   1      32.439  29.683  26.355  1.00  0.00    -0.460 OA
BRANCH   5   6
ATOM      6  C   UNL A   1      32.779  29.332  25.100  1.00  0.00     0.340 C 
ATOM      7  O   UNL A   1      33.906  29.326  24.637  1.00  0.00    -0.246 OA
BRANCH   6   8
ATOM      8  C   UNL A   1      31.553  28.947  24.336  1.00  0.00     0.084 A 
ATOM      9  C   UNL A   1      31.405  27.718  23.666  1.00  0.00     0.056 A 
ATOM     10  C   UNL A   1      30.348  27.564  22.755  1.00  0.00     0.027 A 
ATOM     11  C   UNL A   1      29.377  28.553  22.605  1.00  0.00     0.015 A 
ATOM     12  C   UNL A   1      30.561  29.938  24.192  1.00  0.00     0.031 A 
ATOM     13  C   UNL A   1      29.459  29.743  23.338  1.00  0.00     0.057 A 
BRANCH   9  14
ATOM     14  N   UNL A   1      32.294  26.635  23.716  1.00  0.00    -0.320 N 
ATOM     15  C   UNL A   1      32.395  25.536  24.519  1.00  0.00     0.285 C 
ATOM     16  O   UNL A   1      33.530  25.040  24.589  1.00  0.00    -0.267 OA
ATOM     17  H   UNL A   1      32.993  26.677  23.025  1.00  0.00     0.170 HD
BRANCH  15  18
ATOM     18  C   UNL A   1      31.158  24.768  25.104  1.00  0.00     0.171 C 
ATOM     19  C   UNL A   1      30.417  25.740  26.044  1.00  0.00     0.090 C 
BRANCH  18  20
ATOM     20  C   UNL A   1      31.603  23.479  25.818  1.00  0.00     0.075 C 
ATOM     21  C   UNL A   1      30.504  22.460  26.065  1.00  0.00     0.011 C 
ENDBRANCH  18  20
BRANCH  18  22
ATOM     22  N   UNL A   1      30.126  24.338  24.157  1.00  0.00    -0.345 N 
ATOM     23  H   UNL A   1      29.215  24.676  24.469  1.00  0.00     0.345 HD
ATOM     24  H   UNL A   1      30.111  23.319  24.109  1.00  0.00     0.345 HD
ATOM     25  H   UNL A   1      30.332  24.718  23.234  1.00  0.00     0.345 HD
ENDBRANCH  18  22
ENDBRANCH  15  18
ENDBRANCH   9  14
BRANCH  13  26
ATOM     26  C   UNL A   1      28.362  30.776  23.191  1.00  0.00     0.416 C 
ATOM     27  F   UNL A   1      28.551  31.844  24.015  1.00  0.00    -0.166 F 
ATOM     28  F   UNL A   1      28.309  31.282  21.929  1.00  0.00    -0.166 F 
ATOM     29  F   UNL A   1      27.125  30.296  23.469  1.00  0.00    -0.166 F 
ENDBRANCH  13  26
ENDBRANCH   6   8
ENDBRANCH   5   6
ENDBRANCH   4   5
ENDBRANCH   3   4
ENDBRANCH   2   3
ENDBRANCH   1   2
BRANCH   1  30
ATOM     30  C   UNL A   1      34.433  34.454  29.779  1.00  0.00     0.188 C 
BRANCH  30  31
ATOM     31  O   UNL A   1      34.631  34.862  31.124  1.00  0.00    -0.376 OA
BRANCH  31  32
ATOM     32  C   UNL A   1      35.874  34.590  31.751  1.00  0.00     0.202 C 
BRANCH  32  33
ATOM     33  C   UNL A   1      36.892  33.709  31.008  1.00  0.00     0.261 C 
BRANCH  33  34
ATOM     34  O   UNL A   1      37.482  32.664  31.798  1.00  0.00    -0.460 OA
BRANCH  34  35
ATOM     35  C   UNL A   1      37.062  31.401  31.529  1.00  0.00     0.338 C 
ATOM     36  O   UNL A   1      35.922  30.975  31.627  1.00  0.00    -0.246 OA
BRANCH  35  37
ATOM     37  C   UNL A   1      38.150  30.648  30.850  1.00  0.00     0.060 A 
ATOM     38  C   UNL A   1      38.988  29.845  31.643  1.00  0.00     0.016 A 
ATOM     39  C   UNL A   1      38.333  30.690  29.467  1.00  0.00     0.016 A 
ATOM     40  C   UNL A   1      40.020  29.105  31.063  1.00  0.00     0.010 A 
ATOM     41  C   UNL A   1      39.395  29.979  28.888  1.00  0.00     0.010 A 
ATOM     42  C   UNL A   1      40.264  29.213  29.689  1.00  0.00    -0.014 A 
BRANCH  42  43
ATOM     43  C   UNL A   1      41.581  28.780  29.151  1.00  0.00     0.031 A 
ATOM     44  C   UNL A   1      42.674  29.817  29.092  1.00  0.00     0.074 A 
ATOM     45  C   UNL A   1      41.830  27.518  28.757  1.00  0.00     0.049 A 
ATOM     46  N   UNL A   1      43.888  29.724  28.616  1.00  0.00    -0.248 NA
ATOM     47  C   UNL A   1      42.347  31.141  29.650  1.00  0.00     0.031 C 
ATOM     48  C   UNL A   1      40.887  26.404  28.820  1.00  0.00     0.029 A 
ATOM     49  N   UNL A   1      42.965  26.966  28.214  1.00  0.00    -0.354 N 
ATOM     50  C   UNL A   1      44.466  30.972  28.816  1.00  0.00     0.074 A 
ATOM     51  C   UNL A   1      43.464  31.815  29.428  1.00  0.00     0.031 C 
ATOM     52  C   UNL A   1      41.479  25.303  28.319  1.00  0.00     0.029 A 
ATOM     53  C   UNL A   1      42.830  25.642  27.871  1.00  0.00     0.049 A 
ATOM     54  H   UNL A   1      43.799  27.473  28.083  1.00  0.00     0.167 HD
ATOM     55  C   UNL A   1      45.722  31.383  28.524  1.00  0.00     0.037 A 
ATOM     56  C   UNL A   1      43.691  24.809  27.248  1.00  0.00     0.037 A 
ATOM     57  C   UNL A   1      46.718  30.554  27.903  1.00  0.00     0.049 A 
ATOM     58  C   UNL A   1      45.055  25.318  26.841  1.00  0.00     0.074 A 
ATOM     59  C   UNL A   1      48.015  30.884  27.553  1.00  0.00     0.029 A 
ATOM     60  N   UNL A   1      46.527  29.232  27.535  1.00  0.00    -0.354 N 
ATOM     61  N   UNL A   1      45.590  26.501  27.035  1.00  0.00    -0.248 NA
ATOM     62  C   UNL A   1      45.933  24.378  26.127  1.00  0.00     0.031 C 
ATOM     63  C   UNL A   1      48.596  29.773  26.933  1.00  0.00     0.029 A 
ATOM     64  C   UNL A   1      47.676  28.736  26.945  1.00  0.00     0.049 A 
ATOM     65  H   UNL A   1      45.697  28.721  27.674  1.00  0.00     0.167 HD
ATOM     66  C   UNL A   1      46.875  26.432  26.500  1.00  0.00     0.074 A 
ATOM     67  C   UNL A   1      47.039  25.093  25.979  1.00  0.00     0.031 C 
ATOM     68  C   UNL A   1      47.833  27.392  26.447  1.00  0.00     0.037 A 
BRANCH  55  69
ATOM     69  C   UNL A   1      46.074  32.805  28.852  1.00  0.00     0.058 A 
ATOM     70  C   UNL A   1      46.679  33.151  30.071  1.00  0.00     0.135 A 
ATOM     71  C   UNL A   1      45.818  33.834  27.932  1.00  0.00     0.135 A 
ATOM     72  F   UNL A   1      46.919  32.209  30.997  1.00  0.00    -0.206 F 
ATOM     73  C   UNL A   1      46.997  34.469  30.376  1.00  0.00     0.059 A 
ATOM     74  C   UNL A   1      46.152  35.156  28.204  1.00  0.00     0.059 A 
ATOM     75  F   UNL A   1      45.232  33.557  26.756  1.00  0.00    -0.206 F 
ATOM     76  C   UNL A   1      46.729  35.465  29.434  1.00  0.00     0.060 A 
BRANCH  76  77
ATOM     77  S   UNL A   1      47.155  37.171  29.841  1.00  0.00     0.124 S 
ATOM     78  O   UNL A   1      46.104  37.514  30.793  1.00  0.00    -0.237 OA
ATOM     79  O   UNL A   1      48.497  37.033  30.400  1.00  0.00    -0.237 OA
ATOM     80  O   UNL A   1      47.084  37.856  28.553  1.00  0.00    -0.744 OA
ENDBRANCH  76  77
ENDBRANCH  55  69
BRANCH  56  81
ATOM     81  C   UNL A   1      43.298  23.407  26.938  1.00  0.00     0.058 A 
ATOM     82  C   UNL A   1      43.157  22.451  27.956  1.00  0.00     0.135 A 
ATOM     83  C   UNL A   1      43.099  22.981  25.615  1.00  0.00     0.135 A 
ATOM     84  F   UNL A   1      43.354  22.801  29.236  1.00  0.00    -0.206 F 
ATOM     85  C   UNL A   1      42.855  21.121  27.674  1.00  0.00     0.059 A 
ATOM     86  C   UNL A   1      42.772  21.663  25.309  1.00  0.00     0.059 A 
ATOM     87  F   UNL A   1      43.221  23.854  24.603  1.00  0.00    -0.206 F 
ATOM     88  C   UNL A   1      42.666  20.736  26.346  1.00  0.00     0.060 A 
BRANCH  88  89
ATOM     89  S   UNL A   1      42.247  19.015  25.992  1.00  0.00     0.124 S 
ATOM     90  O   UNL A   1      42.711  18.345  27.201  1.00  0.00    -0.237 OA
ATOM     91  O   UNL A   1      40.800  19.081  25.812  1.00  0.00    -0.237 OA
ATOM     92  O   UNL A   1      43.009  18.728  24.779  1.00  0.00    -0.744 OA
ENDBRANCH  88  89
ENDBRANCH  56  81
BRANCH  68  93
ATOM     93  C   UNL A   1      49.166  27.024  25.854  1.00  0.00     0.058 A 
ATOM     94  C   UNL A   1      49.420  27.132  24.479  1.00  0.00     0.135 A 
ATOM     95  C   UNL A   1      50.225  26.622  26.685  1.00  0.00     0.135 A 
ATOM     96  F   UNL A   1      48.443  27.509  23.638  1.00  0.00    -0.206 F 
ATOM     97  C   UNL A   1      50.671  26.837  23.945  1.00  0.00     0.059 A 
ATOM     98  C   UNL A   1      51.491  26.348  26.178  1.00  0.00     0.059 A 
ATOM     99  F   UNL A   1      50.040  26.516  28.011  1.00  0.00    -0.206 F 
ATOM    100  C   UNL A   1      51.702  26.447  24.804  1.00  0.00     0.060 A 
BRANCH 100 101
ATOM    101  S   UNL A   1      53.331  26.104  24.104  1.00  0.00     0.124 S 
ATOM    102  O   UNL A   1      53.536  24.715  24.502  1.00  0.00    -0.237 OA
ATOM    103  O   UNL A   1      53.114  26.330  22.678  1.00  0.00    -0.237 OA
ATOM    104  O   UNL A   1      54.195  27.080  24.762  1.00  0.00    -0.744 OA
ENDBRANCH 100 101
ENDBRANCH  68  93
ENDBRANCH  42  43
ENDBRANCH  35  37
ENDBRANCH  34  35
ENDBRANCH  33  34
ENDBRANCH  32  33
ENDBRANCH  31  32
ENDBRANCH  30  31
ENDBRANCH   1  30
TORSDOF 25
ENDMDL
MODEL 3
REMARK VINA RESULT:      -8.9      5.878      8.653
REMARK SMILES CC[C@](C)([NH3+])C(=O)Nc1ccc(C(F)(F)F)cc1C(=O)OCCOCCOCCOC(=O)c1ccc(-c2c3nc(c(-c4c(F)cc(S(=O)(=O)[O-])cc4F)c4ccc([nH]4)c(-c4c(F)cc(S(=O)(=O)[O-])cc4F)c4nc(c(-c5c(F)cc(S(=O)(=O)[O-])cc5F)c5ccc2[nH]5)C=C4)C=C3)cc1
REMARK SMILES IDX 25 1 24 2 23 3 22 4 21 5 19 6 20 7 18 8 9 9 10 10 11 11
REMARK SMILES IDX 17 12 12 13 8 14 6 15 7 16 3 18 4 19 2 20 1 21 5 22 13 26
REMARK SMILES IDX 14 27 15 28 16 29 26 30 27 31 28 32 29 33 30 34 31 35 32 36
REMARK SMILES IDX 33 37 34 38 98 39 35 40 97 41 36 42 37 43 38 44 91 45 39 46
REMARK SMILES IDX 96 47 90 48 92 49 40 50 95 51 89 52 88 53 41 55 75 56 54 57
REMARK SMILES IDX 74 58 55 59 58 60 73 61 93 62 56 63 57 64 72 66 94 67 59 68
REMARK SMILES IDX 42 69 43 70 52 71 44 72 45 73 51 74 53 75 46 76 47 77 48 78
REMARK SMILES IDX 49 79 50 80 76 81 77 82 86 83 78 84 79 85 85 86 87 87 80 88
REMARK SMILES IDX 81 89 82 90 83 91 84 92 60 93 61 94 70 95 62 96 63 97 69 98
REMARK SMILES IDX 71 99 64 100 65 101 66 102 67 103 68 104
REMARK H PARENT 8 17 5 23 5 24 5 25 92 54 58 65
REMARK Flexibility Score: inf
ROOT
ATOM      1  C   UNL A   1      32.218  36.108  30.713  1.00  0.00     0.188 C 
ENDROOT
BRANCH   1   2
ATOM      2  O   UNL A   1      32.517  36.304  29.340  1.00  0.00    -0.376 OA
BRANCH   2   3
ATOM      3  C   UNL A   1      33.647  35.587  28.869  1.00  0.00     0.202 C 
BRANCH   3   4
ATOM      4  C   UNL A   1      33.258  34.351  28.074  1.00  0.00     0.261 C 
BRANCH   4   5
ATOM      5  O   UNL A   1      34.357  33.579  27.555  1.00  0.00    -0.460 OA
BRANCH   5   6
ATOM      6  C   UNL A   1      35.363  33.147  28.340  1.00  0.00     0.340 C 
ATOM      7  O   UNL A   1      35.952  33.805  29.178  1.00  0.00    -0.246 OA
BRANCH   6   8
ATOM      8  C   UNL A   1      35.664  31.716  28.030  1.00  0.00     0.084 A 
ATOM      9  C   UNL A   1      34.674  30.746  27.781  1.00  0.00     0.056 A 
ATOM     10  C   UNL A   1      35.038  29.391  27.776  1.00  0.00     0.027 A 
ATOM     11  C   UNL A   1      36.372  29.002  27.882  1.00  0.00     0.015 A 
ATOM     12  C   UNL A   1      37.014  31.319  28.121  1.00  0.00     0.031 A 
ATOM     13  C   UNL A   1      37.380  29.963  28.033  1.00  0.00     0.057 A 
BRANCH   9  14
ATOM     14  N   UNL A   1      33.299  30.982  27.653  1.00  0.00    -0.320 N 
ATOM     15  C   UNL A   1      32.397  30.778  26.648  1.00  0.00     0.285 C 
ATOM     16  O   UNL A   1      31.391  31.502  26.690  1.00  0.00    -0.267 OA
ATOM     17  H   UNL A   1      32.897  31.379  28.459  1.00  0.00     0.170 HD
BRANCH  15  18
ATOM     18  C   UNL A   1      32.454  29.557  25.663  1.00  0.00     0.171 C 
ATOM     19  C   UNL A   1      31.284  29.714  24.671  1.00  0.00     0.090 C 
BRANCH  18  20
ATOM     20  C   UNL A   1      32.399  28.227  26.437  1.00  0.00     0.075 C 
ATOM     21  C   UNL A   1      31.441  28.200  27.616  1.00  0.00     0.011 C 
ENDBRANCH  18  20
BRANCH  18  22
ATOM     22  N   UNL A   1      33.634  29.444  24.801  1.00  0.00    -0.345 N 
ATOM     23  H   UNL A   1      33.886  28.460  24.697  1.00  0.00     0.345 HD
ATOM     24  H   UNL A   1      34.413  29.951  25.222  1.00  0.00     0.345 HD
ATOM     25  H   UNL A   1      33.426  29.840  23.885  1.00  0.00     0.345 HD
ENDBRANCH  18  22
ENDBRANCH  15  18
ENDBRANCH   9  14
BRANCH  13  26
ATOM     26  C   UNL A   1      38.824  29.514  28.094  1.00  0.00     0.416 C 
ATOM     27  F   UNL A   1      39.629  30.454  28.660  1.00  0.00    -0.166 F 
ATOM     28  F   UNL A   1      38.974  28.391  28.848  1.00  0.00    -0.166 F 
ATOM     29  F   UNL A   1      39.357  29.238  26.878  1.00  0.00    -0.166 F 
ENDBRANCH  13  26
ENDBRANCH   6   8
ENDBRANCH   5   6
ENDBRANCH   4   5
ENDBRANCH   3   4
ENDBRANCH   2   3
ENDBRANCH   1   2
BRANCH   1  30
ATOM     30  C   UNL A   1      33.355  35.470  31.546  1.00  0.00     0.188 C 
BRANCH  30  31
ATOM     31  O   UNL A   1      34.369  36.262  32.146  1.00  0.00    -0.376 OA
BRANCH  31  32
ATOM     32  C   UNL A   1      35.159  35.703  33.182  1.00  0.00     0.202 C 
BRANCH  32  33
ATOM     33  C   UNL A   1      34.483  34.756  34.188  1.00  0.00     0.261 C 
BRANCH  33  34
ATOM     34  O   UNL A   1      35.099  33.463  34.312  1.00  0.00    -0.460 OA
BRANCH  34  35
ATOM     35  C   UNL A   1      35.094  32.688  33.196  1.00  0.00     0.338 C 
ATOM     36  O   UNL A   1      34.131  32.434  32.490  1.00  0.00    -0.246 OA
BRANCH  35  37
ATOM     37  C   UNL A   1      36.493  32.380  32.798  1.00  0.00     0.060 A 
ATOM     38  C   UNL A   1      37.532  32.898  33.588  1.00  0.00     0.016 A 
ATOM     39  C   UNL A   1      36.792  31.572  31.699  1.00  0.00     0.016 A 
ATOM     40  C   UNL A   1      38.866  32.634  33.272  1.00  0.00     0.010 A 
ATOM     41  C   UNL A   1      38.132  31.339  31.356  1.00  0.00     0.010 A 
ATOM     42  C   UNL A   1      39.174  31.899  32.121  1.00  0.00    -0.014 A 
BRANCH  42  43
ATOM     43  C   UNL A   1      40.548  31.975  31.560  1.00  0.00     0.031 A 
ATOM     44  C   UNL A   1      41.464  30.806  31.824  1.00  0.00     0.074 A 
ATOM     45  C   UNL A   1      40.978  33.011  30.817  1.00  0.00     0.049 A 
ATOM     46  N   UNL A   1      42.721  30.642  31.505  1.00  0.00    -0.248 NA
ATOM     47  C   UNL A   1      40.874  29.667  32.548  1.00  0.00     0.031 C 
ATOM     48  C   UNL A   1      40.180  34.172  30.432  1.00  0.00     0.029 A 
ATOM     49  N   UNL A   1      42.210  33.250  30.257  1.00  0.00    -0.354 N 
ATOM     50  C   UNL A   1      43.070  29.387  31.988  1.00  0.00     0.074 A 
ATOM     51  C   UNL A   1      41.905  28.844  32.648  1.00  0.00     0.031 C 
ATOM     52  C   UNL A   1      40.949  35.010  29.711  1.00  0.00     0.029 A 
ATOM     53  C   UNL A   1      42.301  34.460  29.610  1.00  0.00     0.049 A 
ATOM     54  H   UNL A   1      42.959  32.613  30.314  1.00  0.00     0.167 HD
ATOM     55  C   UNL A   1      44.252  28.737  31.888  1.00  0.00     0.037 A 
ATOM     56  C   UNL A   1      43.360  35.059  29.025  1.00  0.00     0.037 A 
ATOM     57  C   UNL A   1      45.418  29.277  31.245  1.00  0.00     0.049 A 
ATOM     58  C   UNL A   1      44.699  34.356  29.011  1.00  0.00     0.074 A 
ATOM     59  C   UNL A   1      46.668  28.701  31.105  1.00  0.00     0.029 A 
ATOM     60  N   UNL A   1      45.480  30.521  30.638  1.00  0.00    -0.354 N 
ATOM     61  N   UNL A   1      45.017  33.170  29.473  1.00  0.00    -0.248 NA
ATOM     62  C   UNL A   1      45.825  35.078  28.398  1.00  0.00     0.031 C 
ATOM     63  C   UNL A   1      47.500  29.616  30.451  1.00  0.00     0.029 A 
ATOM     64  C   UNL A   1      46.751  30.740  30.138  1.00  0.00     0.049 A 
ATOM     65  H   UNL A   1      44.730  31.156  30.572  1.00  0.00     0.167 HD
ATOM     66  C   UNL A   1      46.365  32.991  29.173  1.00  0.00     0.074 A 
ATOM     67  C   UNL A   1      46.803  34.187  28.488  1.00  0.00     0.031 C 
ATOM     68  C   UNL A   1      47.169  31.930  29.439  1.00  0.00     0.037 A 
BRANCH  55  69
ATOM     69  C   UNL A   1      44.345  27.375  32.515  1.00  0.00     0.058 A 
ATOM     70  C   UNL A   1      44.150  26.205  31.764  1.00  0.00     0.135 A 
ATOM     71  C   UNL A   1      44.644  27.238  33.880  1.00  0.00     0.135 A 
ATOM     72  F   UNL A   1      43.834  26.282  30.462  1.00  0.00    -0.206 F 
ATOM     73  C   UNL A   1      44.229  24.946  32.349  1.00  0.00     0.059 A 
ATOM     74  C   UNL A   1      44.754  25.988  34.480  1.00  0.00     0.059 A 
ATOM     75  F   UNL A   1      44.830  28.327  34.643  1.00  0.00    -0.206 F 
ATOM     76  C   UNL A   1      44.532  24.849  33.709  1.00  0.00     0.060 A 
BRANCH  76  77
ATOM     77  S   UNL A   1      44.638  23.208  34.452  1.00  0.00     0.124 S 
ATOM     78  O   UNL A   1      43.520  22.525  33.809  1.00  0.00    -0.237 OA
ATOM     79  O   UNL A   1      45.969  22.766  34.045  1.00  0.00    -0.237 OA
ATOM     80  O   UNL A   1      44.477  23.469  35.879  1.00  0.00    -0.744 OA
ENDBRANCH  76  77
ENDBRANCH  55  69
BRANCH  56  81
ATOM     81  C   UNL A   1      43.224  36.413  28.419  1.00  0.00     0.058 A 
ATOM     82  C   UNL A   1      43.420  37.573  29.183  1.00  0.00     0.135 A 
ATOM     83  C   UNL A   1      42.851  36.575  27.075  1.00  0.00     0.135 A 
ATOM     84  F   UNL A   1      43.759  37.474  30.478  1.00  0.00    -0.206 F 
ATOM     85  C   UNL A   1      43.231  38.844  28.646  1.00  0.00     0.059 A 
ATOM     86  C   UNL A   1      42.681  37.834  26.508  1.00  0.00     0.059 A 
ATOM     87  F   UNL A   1      42.651  35.498  26.299  1.00  0.00    -0.206 F 
ATOM     88  C   UNL A   1      42.859  38.964  27.306  1.00  0.00     0.060 A 
BRANCH  88  89
ATOM     89  S   UNL A   1      42.643  40.617  26.610  1.00  0.00     0.124 S 
ATOM     90  O   UNL A   1      43.300  40.479  25.316  1.00  0.00    -0.237 OA
ATOM     91  O   UNL A   1      41.190  40.749  26.577  1.00  0.00    -0.237 OA
ATOM     92  O   UNL A   1      43.321  41.478  27.574  1.00  0.00    -0.744 OA
ENDBRANCH  88  89
ENDBRANCH  56  81
BRANCH  68  93
ATOM     93  C   UNL A   1      48.590  31.983  28.948  1.00  0.00     0.058 A 
ATOM     94  C   UNL A   1      49.627  32.503  29.736  1.00  0.00     0.135 A 
ATOM     95  C   UNL A   1      48.927  31.441  27.696  1.00  0.00     0.135 A 
ATOM     96  F   UNL A   1      49.361  33.035  30.939  1.00  0.00    -0.206 F 
ATOM     97  C   UNL A   1      50.947  32.502  29.293  1.00  0.00     0.059 A 
ATOM     98  C   UNL A   1      50.243  31.404  27.244  1.00  0.00     0.059 A 
ATOM     99  F   UNL A   1      47.975  30.917  26.908  1.00  0.00    -0.206 F 
ATOM    100  C   UNL A   1      51.245  31.948  28.045  1.00  0.00     0.060 A 
BRANCH 100 101
ATOM    101  S   UNL A   1      52.966  31.917  27.498  1.00  0.00     0.124 S 
ATOM    102  O   UNL A   1      53.031  33.114  26.666  1.00  0.00    -0.237 OA
ATOM    103  O   UNL A   1      53.698  31.981  28.760  1.00  0.00    -0.237 OA
ATOM    104  O   UNL A   1      53.073  30.649  26.783  1.00  0.00    -0.744 OA
ENDBRANCH 100 101
ENDBRANCH  68  93
ENDBRANCH  42  43
ENDBRANCH  35  37
ENDBRANCH  34  35
ENDBRANCH  33  34
ENDBRANCH  32  33
ENDBRANCH  31  32
ENDBRANCH  30  31
ENDBRANCH   1  30
TORSDOF 25
ENDMDL
