MODEL 1
REMARK VINA RESULT:     -10.5      0.000      0.000
REMARK SMILES Cc1cc(C(=O)OCCOCCOCCOC(=O)c2ccc(-c3c4nc(c(-c5c(F)cc(S(=O)(=O)[O-])cc5F)c5ccc([nH]5)c(-c5c(F)cc(S(=O)(=O)[O-])cc5F)c5nc(c(-c6c(F)cc(S(=O)(=O)[O-])cc6F)c6ccc3[nH]6)C=C5)C=C4)cc2)nn1[C@H]1CCS(=O)(=O)C1
REMARK SMILES IDX 12 1 11 2 10 3 9 4 8 5 7 6 5 7 6 8 4 9 1 10 2 11 3 12 86 13
REMARK SMILES IDX 85 14 87 15 88 16 93 17 89 18 90 19 91 20 92 21 13 22 14 23
REMARK SMILES IDX 15 24 16 25 17 26 18 27 19 28 20 29 84 30 21 31 83 32 22 33
REMARK SMILES IDX 23 34 24 35 77 36 25 37 82 38 76 39 78 40 26 41 81 42 75 43
REMARK SMILES IDX 74 44 27 46 61 47 40 48 60 49 41 50 44 51 59 52 79 53 42 54
REMARK SMILES IDX 43 55 58 57 80 58 45 59 28 60 29 61 38 62 30 63 31 64 37 65
REMARK SMILES IDX 39 66 32 67 33 68 34 69 35 70 36 71 62 72 63 73 72 74 64 75
REMARK SMILES IDX 65 76 71 77 73 78 66 79 67 80 68 81 69 82 70 83 46 84 47 85
REMARK SMILES IDX 56 86 48 87 49 88 55 89 57 90 50 91 51 92 52 93 53 94 54 95
REMARK H PARENT 78 45 44 56
REMARK Flexibility Score: inf
ROOT
ATOM      1  C   UNL A   1      40.100  21.840  26.165  1.00  0.00     0.188 C 
ENDROOT
BRANCH   1   2
ATOM      2  C   UNL A   1      38.592  22.166  26.050  1.00  0.00     0.188 C 
BRANCH   2   3
ATOM      3  O   UNL A   1      37.679  21.251  25.461  1.00  0.00    -0.376 OA
BRANCH   3   4
ATOM      4  C   UNL A   1      36.368  21.673  25.119  1.00  0.00     0.202 C 
BRANCH   4   5
ATOM      5  C   UNL A   1      35.902  23.075  25.545  1.00  0.00     0.261 C 
BRANCH   5   6
ATOM      6  O   UNL A   1      35.357  23.881  24.486  1.00  0.00    -0.458 OA
BRANCH   6   7
ATOM      7  C   UNL A   1      34.390  24.783  24.842  1.00  0.00     0.358 C 
ATOM      8  O   UNL A   1      34.264  25.246  25.972  1.00  0.00    -0.244 OA
BRANCH   7   9
ATOM      9  C   UNL A   1      33.578  25.214  23.686  1.00  0.00     0.170 A 
ATOM     10  C   UNL A   1      32.531  25.570  20.160  1.00  0.00     0.066 C 
ATOM     11  C   UNL A   1      32.786  25.592  21.621  1.00  0.00     0.037 A 
ATOM     12  C   UNL A   1      33.743  24.878  22.320  1.00  0.00     0.061 A 
ATOM     13  N   UNL A   1      32.132  26.346  22.565  1.00  0.00    -0.265 N 
ATOM     14  N   UNL A   1      32.572  26.095  23.816  1.00  0.00    -0.165 NA
BRANCH  13  15
ATOM     15  C   UNL A   1      31.061  27.323  22.471  1.00  0.00     0.123 C 
ATOM     16  C   UNL A   1      29.842  26.989  23.354  1.00  0.00     0.044 C 
ATOM     17  C   UNL A   1      31.380  28.775  22.787  1.00  0.00     0.164 C 
ATOM     18  C   UNL A   1      28.826  28.110  23.128  1.00  0.00     0.139 C 
ATOM     19  S   UNL A   1      29.790  29.565  22.739  1.00  0.00     0.152 S 
ATOM     20  O   UNL A   1      29.528  29.952  21.369  1.00  0.00    -0.229 OA
ATOM     21  O   UNL A   1      29.716  30.509  23.834  1.00  0.00    -0.229 OA
ENDBRANCH  13  15
ENDBRANCH   7   9
ENDBRANCH   6   7
ENDBRANCH   5   6
ENDBRANCH   4   5
ENDBRANCH   3   4
ENDBRANCH   2   3
ENDBRANCH   1   2
BRANCH   1  22
ATOM     22  O   UNL A   1      40.557  21.434  27.449  1.00  0.00    -0.376 OA
BRANCH  22  23
ATOM     23  C   UNL A   1      41.804  20.744  27.474  1.00  0.00     0.202 C 
BRANCH  23  24
ATOM     24  C   UNL A   1      42.183  20.079  26.151  1.00  0.00     0.261 C 
BRANCH  24  25
ATOM     25  O   UNL A   1      43.578  19.854  26.001  1.00  0.00    -0.460 OA
BRANCH  25  26
ATOM     26  C   UNL A   1      44.102  20.204  24.810  1.00  0.00     0.338 C 
ATOM     27  O   UNL A   1      44.228  19.495  23.827  1.00  0.00    -0.246 OA
BRANCH  26  28
ATOM     28  C   UNL A   1      44.558  21.596  24.894  1.00  0.00     0.060 A 
ATOM     29  C   UNL A   1      45.586  21.867  25.799  1.00  0.00     0.016 A 
ATOM     30  C   UNL A   1      43.783  22.610  24.313  1.00  0.00     0.016 A 
ATOM     31  C   UNL A   1      45.666  23.136  26.323  1.00  0.00     0.010 A 
ATOM     32  C   UNL A   1      43.852  23.872  24.849  1.00  0.00     0.010 A 
ATOM     33  C   UNL A   1      44.717  24.080  25.920  1.00  0.00    -0.014 A 
BRANCH  33  34
ATOM     34  C   UNL A   1      44.572  25.259  26.745  1.00  0.00     0.031 A 
ATOM     35  C   UNL A   1      45.622  26.278  26.569  1.00  0.00     0.074 A 
ATOM     36  C   UNL A   1      43.491  25.409  27.534  1.00  0.00     0.049 A 
ATOM     37  N   UNL A   1      46.462  26.721  27.441  1.00  0.00    -0.248 NA
ATOM     38  C   UNL A   1      45.835  26.783  25.204  1.00  0.00     0.031 C 
ATOM     39  C   UNL A   1      42.265  24.601  27.520  1.00  0.00     0.029 A 
ATOM     40  N   UNL A   1      43.204  26.397  28.423  1.00  0.00    -0.354 N 
ATOM     41  C   UNL A   1      47.160  27.733  26.791  1.00  0.00     0.074 A 
ATOM     42  C   UNL A   1      46.872  27.597  25.388  1.00  0.00     0.031 C 
ATOM     43  C   UNL A   1      41.294  25.265  28.183  1.00  0.00     0.029 A 
ATOM     44  C   UNL A   1      41.860  26.475  28.757  1.00  0.00     0.049 A 
ATOM     45  H   UNL A   1      43.886  27.002  28.795  1.00  0.00     0.167 HD
ATOM     46  C   UNL A   1      47.696  28.775  27.477  1.00  0.00     0.037 A 
ATOM     47  C   UNL A   1      41.241  27.517  29.359  1.00  0.00     0.037 A 
ATOM     48  C   UNL A   1      47.877  28.461  28.871  1.00  0.00     0.049 A 
ATOM     49  C   UNL A   1      42.284  28.339  30.028  1.00  0.00     0.074 A 
ATOM     50  C   UNL A   1      48.579  27.496  29.567  1.00  0.00     0.029 A 
ATOM     51  N   UNL A   1      47.000  29.016  29.771  1.00  0.00    -0.354 N 
ATOM     52  N   UNL A   1      42.998  27.945  31.048  1.00  0.00    -0.248 NA
ATOM     53  C   UNL A   1      42.815  29.489  29.311  1.00  0.00     0.031 C 
ATOM     54  C   UNL A   1      47.807  27.230  30.733  1.00  0.00     0.029 A 
ATOM     55  C   UNL A   1      46.683  28.057  30.700  1.00  0.00     0.049 A 
ATOM     56  H   UNL A   1      46.659  29.939  29.752  1.00  0.00     0.167 HD
ATOM     57  C   UNL A   1      44.245  28.524  30.859  1.00  0.00     0.074 A 
ATOM     58  C   UNL A   1      44.032  29.557  29.853  1.00  0.00     0.031 C 
ATOM     59  C   UNL A   1      45.382  27.930  31.326  1.00  0.00     0.037 A 
BRANCH  46  60
ATOM     60  C   UNL A   1      47.688  30.192  26.953  1.00  0.00     0.058 A 
ATOM     61  C   UNL A   1      48.875  30.947  26.996  1.00  0.00     0.135 A 
ATOM     62  C   UNL A   1      46.507  30.923  26.687  1.00  0.00     0.135 A 
ATOM     63  F   UNL A   1      50.053  30.355  27.248  1.00  0.00    -0.206 F 
ATOM     64  C   UNL A   1      48.877  32.337  26.871  1.00  0.00     0.059 A 
ATOM     65  C   UNL A   1      46.495  32.298  26.497  1.00  0.00     0.059 A 
ATOM     66  F   UNL A   1      45.292  30.362  26.704  1.00  0.00    -0.206 F 
ATOM     67  C   UNL A   1      47.675  33.003  26.646  1.00  0.00     0.060 A 
BRANCH  67  68
ATOM     68  S   UNL A   1      47.639  34.802  26.647  1.00  0.00     0.124 S 
ATOM     69  O   UNL A   1      46.841  35.069  27.837  1.00  0.00    -0.237 OA
ATOM     70  O   UNL A   1      49.056  35.136  26.735  1.00  0.00    -0.237 OA
ATOM     71  O   UNL A   1      47.003  35.123  25.372  1.00  0.00    -0.744 OA
ENDBRANCH  67  68
ENDBRANCH  46  60
BRANCH  47  72
ATOM     72  C   UNL A   1      39.870  28.015  29.075  1.00  0.00     0.058 A 
ATOM     73  C   UNL A   1      38.868  28.002  30.059  1.00  0.00     0.135 A 
ATOM     74  C   UNL A   1      39.578  28.742  27.900  1.00  0.00     0.135 A 
ATOM     75  F   UNL A   1      39.075  27.367  31.222  1.00  0.00    -0.206 F 
ATOM     76  C   UNL A   1      37.658  28.687  29.898  1.00  0.00     0.059 A 
ATOM     77  C   UNL A   1      38.374  29.414  27.709  1.00  0.00     0.059 A 
ATOM     78  F   UNL A   1      40.493  28.897  26.933  1.00  0.00    -0.206 F 
ATOM     79  C   UNL A   1      37.425  29.400  28.722  1.00  0.00     0.060 A 
BRANCH  79  80
ATOM     80  S   UNL A   1      35.926  30.396  28.562  1.00  0.00     0.124 S 
ATOM     81  O   UNL A   1      34.972  29.422  28.041  1.00  0.00    -0.237 OA
ATOM     82  O   UNL A   1      35.704  30.837  29.934  1.00  0.00    -0.237 OA
ATOM     83  O   UNL A   1      36.314  31.448  27.626  1.00  0.00    -0.744 OA
ENDBRANCH  79  80
ENDBRANCH  47  72
BRANCH  59  84
ATOM     84  C   UNL A   1      45.247  26.870  32.388  1.00  0.00     0.058 A 
ATOM     85  C   UNL A   1      45.205  27.135  33.768  1.00  0.00     0.135 A 
ATOM     86  C   UNL A   1      44.990  25.552  31.978  1.00  0.00     0.135 A 
ATOM     87  F   UNL A   1      45.338  28.384  34.233  1.00  0.00    -0.206 F 
ATOM     88  C   UNL A   1      44.952  26.125  34.699  1.00  0.00     0.059 A 
ATOM     89  C   UNL A   1      44.705  24.536  32.887  1.00  0.00     0.059 A 
ATOM     90  F   UNL A   1      44.954  25.250  30.669  1.00  0.00    -0.206 F 
ATOM     91  C   UNL A   1      44.698  24.829  34.249  1.00  0.00     0.060 A 
BRANCH  91  92
ATOM     92  S   UNL A   1      44.265  23.550  35.450  1.00  0.00     0.124 S 
ATOM     93  O   UNL A   1      43.128  22.900  34.809  1.00  0.00    -0.237 OA
ATOM     94  O   UNL A   1      45.489  22.757  35.527  1.00  0.00    -0.237 OA
ATOM     95  O   UNL A   1      43.952  24.309  36.658  1.00  0.00    -0.744 OA
ENDBRANCH  91  92
ENDBRANCH  59  84
ENDBRANCH  33  34
ENDBRANCH  26  28
ENDBRANCH  25  26
ENDBRANCH  24  25
ENDBRANCH  23  24
ENDBRANCH  22  23
ENDBRANCH   1  22
TORSDOF 21
ENDMDL
MODEL 2
REMARK VINA RESULT:      -9.7      1.419      2.058
REMARK SMILES Cc1cc(C(=O)OCCOCCOCCOC(=O)c2ccc(-c3c4nc(c(-c5c(F)cc(S(=O)(=O)[O-])cc5F)c5ccc([nH]5)c(-c5c(F)cc(S(=O)(=O)[O-])cc5F)c5nc(c(-c6c(F)cc(S(=O)(=O)[O-])cc6F)c6ccc3[nH]6)C=C5)C=C4)cc2)nn1[C@H]1CCS(=O)(=O)C1
REMARK SMILES IDX 12 1 11 2 10 3 9 4 8 5 7 6 5 7 6 8 4 9 1 10 2 11 3 12 86 13
REMARK SMILES IDX 85 14 87 15 88 16 93 17 89 18 90 19 91 20 92 21 13 22 14 23
REMARK SMILES IDX 15 24 16 25 17 26 18 27 19 28 20 29 84 30 21 31 83 32 22 33
REMARK SMILES IDX 23 34 24 35 77 36 25 37 82 38 76 39 78 40 26 41 81 42 75 43
REMARK SMILES IDX 74 44 27 46 61 47 40 48 60 49 41 50 44 51 59 52 79 53 42 54
REMARK SMILES IDX 43 55 58 57 80 58 45 59 28 60 29 61 38 62 30 63 31 64 37 65
REMARK SMILES IDX 39 66 32 67 33 68 34 69 35 70 36 71 62 72 63 73 72 74 64 75
REMARK SMILES IDX 65 76 71 77 73 78 66 79 67 80 68 81 69 82 70 83 46 84 47 85
REMARK SMILES IDX 56 86 48 87 49 88 55 89 57 90 50 91 51 92 52 93 53 94 54 95
REMARK H PARENT 78 45 44 56
REMARK Flexibility Score: inf
ROOT
ATOM      1  C   UNL A   1      39.711  21.958  26.122  1.00  0.00     0.188 C 
ENDROOT
BRANCH   1   2
ATOM      2  C   UNL A   1      38.216  22.310  25.937  1.00  0.00     0.188 C 
BRANCH   2   3
ATOM      3  O   UNL A   1      37.308  21.397  25.335  1.00  0.00    -0.376 OA
BRANCH   3   4
ATOM      4  C   UNL A   1      35.909  21.594  25.464  1.00  0.00     0.202 C 
BRANCH   4   5
ATOM      5  C   UNL A   1      35.320  22.981  25.158  1.00  0.00     0.261 C 
BRANCH   5   6
ATOM      6  O   UNL A   1      33.891  23.012  25.001  1.00  0.00    -0.458 OA
BRANCH   6   7
ATOM      7  C   UNL A   1      33.226  24.016  25.654  1.00  0.00     0.358 C 
ATOM      8  O   UNL A   1      32.898  23.966  26.836  1.00  0.00    -0.244 OA
BRANCH   7   9
ATOM      9  C   UNL A   1      33.038  25.206  24.802  1.00  0.00     0.170 A 
ATOM     10  C   UNL A   1      33.934  28.030  22.592  1.00  0.00     0.066 C 
ATOM     11  C   UNL A   1      33.359  26.996  23.487  1.00  0.00     0.037 A 
ATOM     12  C   UNL A   1      34.008  25.912  24.049  1.00  0.00     0.061 A 
ATOM     13  N   UNL A   1      32.067  26.928  23.951  1.00  0.00    -0.265 N 
ATOM     14  N   UNL A   1      31.852  25.832  24.710  1.00  0.00    -0.165 NA
BRANCH  13  15
ATOM     15  C   UNL A   1      30.909  27.784  23.762  1.00  0.00     0.123 C 
ATOM     16  C   UNL A   1      31.163  29.258  24.139  1.00  0.00     0.044 C 
ATOM     17  C   UNL A   1      30.272  27.842  22.384  1.00  0.00     0.164 C 
ATOM     18  C   UNL A   1      29.850  30.000  23.883  1.00  0.00     0.139 C 
ATOM     19  S   UNL A   1      29.048  29.118  22.550  1.00  0.00     0.152 S 
ATOM     20  O   UNL A   1      27.835  28.507  23.053  1.00  0.00    -0.229 OA
ATOM     21  O   UNL A   1      29.064  29.925  21.349  1.00  0.00    -0.229 OA
ENDBRANCH  13  15
ENDBRANCH   7   9
ENDBRANCH   6   7
ENDBRANCH   5   6
ENDBRANCH   4   5
ENDBRANCH   3   4
ENDBRANCH   2   3
ENDBRANCH   1   2
BRANCH   1  22
ATOM     22  O   UNL A   1      40.059  21.325  27.346  1.00  0.00    -0.376 OA
BRANCH  22  23
ATOM     23  C   UNL A   1      40.890  20.172  27.234  1.00  0.00     0.202 C 
BRANCH  23  24
ATOM     24  C   UNL A   1      41.898  20.231  26.087  1.00  0.00     0.261 C 
BRANCH  24  25
ATOM     25  O   UNL A   1      43.075  20.965  26.395  1.00  0.00    -0.460 OA
BRANCH  25  26
ATOM     26  C   UNL A   1      43.821  21.345  25.340  1.00  0.00     0.338 C 
ATOM     27  O   UNL A   1      44.118  20.670  24.369  1.00  0.00    -0.246 OA
BRANCH  26  28
ATOM     28  C   UNL A   1      44.276  22.721  25.564  1.00  0.00     0.060 A 
ATOM     29  C   UNL A   1      45.124  22.933  26.653  1.00  0.00     0.016 A 
ATOM     30  C   UNL A   1      43.639  23.776  24.893  1.00  0.00     0.016 A 
ATOM     31  C   UNL A   1      45.127  24.179  27.235  1.00  0.00     0.010 A 
ATOM     32  C   UNL A   1      43.629  25.014  25.484  1.00  0.00     0.010 A 
ATOM     33  C   UNL A   1      44.285  25.160  26.703  1.00  0.00    -0.014 A 
BRANCH  33  34
ATOM     34  C   UNL A   1      44.010  26.311  27.536  1.00  0.00     0.031 A 
ATOM     35  C   UNL A   1      45.048  27.356  27.521  1.00  0.00     0.074 A 
ATOM     36  C   UNL A   1      42.836  26.414  28.188  1.00  0.00     0.049 A 
ATOM     37  N   UNL A   1      45.763  27.790  28.503  1.00  0.00    -0.248 NA
ATOM     38  C   UNL A   1      45.416  27.907  26.208  1.00  0.00     0.031 C 
ATOM     39  C   UNL A   1      41.641  25.582  28.000  1.00  0.00     0.029 A 
ATOM     40  N   UNL A   1      42.416  27.368  29.061  1.00  0.00    -0.354 N 
ATOM     41  C   UNL A   1      46.510  28.835  27.973  1.00  0.00     0.074 A 
ATOM     42  C   UNL A   1      46.402  28.737  26.542  1.00  0.00     0.031 C 
ATOM     43  C   UNL A   1      40.579  26.205  28.554  1.00  0.00     0.029 A 
ATOM     44  C   UNL A   1      41.040  27.408  29.228  1.00  0.00     0.049 A 
ATOM     45  H   UNL A   1      43.032  27.976  29.532  1.00  0.00     0.167 HD
ATOM     46  C   UNL A   1      46.932  29.867  28.749  1.00  0.00     0.037 A 
ATOM     47  C   UNL A   1      40.325  28.418  29.776  1.00  0.00     0.037 A 
ATOM     48  C   UNL A   1      46.946  29.516  30.145  1.00  0.00     0.049 A 
ATOM     49  C   UNL A   1      41.257  29.241  30.592  1.00  0.00     0.074 A 
ATOM     50  C   UNL A   1      47.580  28.544  30.896  1.00  0.00     0.029 A 
ATOM     51  N   UNL A   1      45.951  30.024  30.944  1.00  0.00    -0.354 N 
ATOM     52  N   UNL A   1      41.849  28.831  31.682  1.00  0.00    -0.248 NA
ATOM     53  C   UNL A   1      41.844  30.424  29.978  1.00  0.00     0.031 C 
ATOM     54  C   UNL A   1      46.676  28.227  31.949  1.00  0.00     0.029 A 
ATOM     55  C   UNL A   1      45.544  29.031  31.799  1.00  0.00     0.049 A 
ATOM     56  H   UNL A   1      45.592  30.940  30.908  1.00  0.00     0.167 HD
ATOM     57  C   UNL A   1      43.095  29.442  31.666  1.00  0.00     0.074 A 
ATOM     58  C   UNL A   1      42.984  30.500  30.670  1.00  0.00     0.031 C 
ATOM     59  C   UNL A   1      44.180  28.858  32.254  1.00  0.00     0.037 A 
BRANCH  46  60
ATOM     60  C   UNL A   1      46.954  31.299  28.267  1.00  0.00     0.058 A 
ATOM     61  C   UNL A   1      45.781  31.863  27.731  1.00  0.00     0.135 A 
ATOM     62  C   UNL A   1      48.143  32.032  28.043  1.00  0.00     0.135 A 
ATOM     63  F   UNL A   1      44.598  31.245  27.878  1.00  0.00    -0.206 F 
ATOM     64  C   UNL A   1      45.800  33.022  26.955  1.00  0.00     0.059 A 
ATOM     65  C   UNL A   1      48.175  33.222  27.328  1.00  0.00     0.059 A 
ATOM     66  F   UNL A   1      49.348  31.583  28.412  1.00  0.00    -0.206 F 
ATOM     67  C   UNL A   1      47.009  33.679  26.741  1.00  0.00     0.060 A 
BRANCH  67  68
ATOM     68  S   UNL A   1      47.075  35.079  25.612  1.00  0.00     0.124 S 
ATOM     69  O   UNL A   1      48.136  34.660  24.703  1.00  0.00    -0.237 OA
ATOM     70  O   UNL A   1      45.725  35.090  25.060  1.00  0.00    -0.237 OA
ATOM     71  O   UNL A   1      47.398  36.200  26.490  1.00  0.00    -0.744 OA
ENDBRANCH  67  68
ENDBRANCH  46  60
BRANCH  47  72
ATOM     72  C   UNL A   1      38.989  28.896  29.338  1.00  0.00     0.058 A 
ATOM     73  C   UNL A   1      37.939  29.075  30.253  1.00  0.00     0.135 A 
ATOM     74  C   UNL A   1      38.781  29.420  28.043  1.00  0.00     0.135 A 
ATOM     75  F   UNL A   1      38.065  28.641  31.516  1.00  0.00    -0.206 F 
ATOM     76  C   UNL A   1      36.763  29.754  29.912  1.00  0.00     0.059 A 
ATOM     77  C   UNL A   1      37.612  30.080  27.675  1.00  0.00     0.059 A 
ATOM     78  F   UNL A   1      39.748  29.385  27.115  1.00  0.00    -0.206 F 
ATOM     79  C   UNL A   1      36.614  30.262  28.622  1.00  0.00     0.060 A 
BRANCH  79  80
ATOM     80  S   UNL A   1      35.160  31.255  28.215  1.00  0.00     0.124 S 
ATOM     81  O   UNL A   1      34.348  30.305  27.462  1.00  0.00    -0.237 OA
ATOM     82  O   UNL A   1      34.658  31.619  29.535  1.00  0.00    -0.237 OA
ATOM     83  O   UNL A   1      35.710  32.360  27.433  1.00  0.00    -0.744 OA
ENDBRANCH  79  80
ENDBRANCH  47  72
BRANCH  59  84
ATOM     84  C   UNL A   1      43.940  27.764  33.262  1.00  0.00     0.058 A 
ATOM     85  C   UNL A   1      43.965  26.391  32.959  1.00  0.00     0.135 A 
ATOM     86  C   UNL A   1      43.842  28.122  34.616  1.00  0.00     0.135 A 
ATOM     87  F   UNL A   1      44.160  25.967  31.703  1.00  0.00    -0.206 F 
ATOM     88  C   UNL A   1      43.861  25.419  33.957  1.00  0.00     0.059 A 
ATOM     89  C   UNL A   1      43.769  27.170  35.630  1.00  0.00     0.059 A 
ATOM     90  F   UNL A   1      43.877  29.416  34.973  1.00  0.00    -0.206 F 
ATOM     91  C   UNL A   1      43.769  25.819  35.291  1.00  0.00     0.060 A 
BRANCH  91  92
ATOM     92  S   UNL A   1      43.744  24.559  36.586  1.00  0.00     0.124 S 
ATOM     93  O   UNL A   1      43.235  23.394  35.872  1.00  0.00    -0.237 OA
ATOM     94  O   UNL A   1      45.146  24.491  36.993  1.00  0.00    -0.237 OA
ATOM     95  O   UNL A   1      42.843  25.120  37.590  1.00  0.00    -0.744 OA
ENDBRANCH  91  92
ENDBRANCH  59  84
ENDBRANCH  33  34
ENDBRANCH  26  28
ENDBRANCH  25  26
ENDBRANCH  24  25
ENDBRANCH  23  24
ENDBRANCH  22  23
ENDBRANCH   1  22
TORSDOF 21
ENDMDL
MODEL 3
REMARK VINA RESULT:      -9.4      4.842     10.832
REMARK SMILES Cc1cc(C(=O)OCCOCCOCCOC(=O)c2ccc(-c3c4nc(c(-c5c(F)cc(S(=O)(=O)[O-])cc5F)c5ccc([nH]5)c(-c5c(F)cc(S(=O)(=O)[O-])cc5F)c5nc(c(-c6c(F)cc(S(=O)(=O)[O-])cc6F)c6ccc3[nH]6)C=C5)C=C4)cc2)nn1[C@H]1CCS(=O)(=O)C1
REMARK SMILES IDX 12 1 11 2 10 3 9 4 8 5 7 6 5 7 6 8 4 9 1 10 2 11 3 12 86 13
REMARK SMILES IDX 85 14 87 15 88 16 93 17 89 18 90 19 91 20 92 21 13 22 14 23
REMARK SMILES IDX 15 24 16 25 17 26 18 27 19 28 20 29 84 30 21 31 83 32 22 33
REMARK SMILES IDX 23 34 24 35 77 36 25 37 82 38 76 39 78 40 26 41 81 42 75 43
REMARK SMILES IDX 74 44 27 46 61 47 40 48 60 49 41 50 44 51 59 52 79 53 42 54
REMARK SMILES IDX 43 55 58 57 80 58 45 59 28 60 29 61 38 62 30 63 31 64 37 65
REMARK SMILES IDX 39 66 32 67 33 68 34 69 35 70 36 71 62 72 63 73 72 74 64 75
REMARK SMILES IDX 65 76 71 77 73 78 66 79 67 80 68 81 69 82 70 83 46 84 47 85
REMARK SMILES IDX 56 86 48 87 49 88 55 89 57 90 50 91 51 92 52 93 53 94 54 95
REMARK H PARENT 78 45 44 56
REMARK Flexibility Score: inf
ROOT
ATOM      1  C   UNL A   1      34.309  33.036  28.056  1.00  0.00     0.188 C 
ENDROOT
BRANCH   1   2
ATOM      2  C   UNL A   1      33.471  31.828  27.573  1.00  0.00     0.188 C 
BRANCH   2   3
ATOM      3  O   UNL A   1      32.161  31.996  27.050  1.00  0.00    -0.376 OA
BRANCH   3   4
ATOM      4  C   UNL A   1      31.510  30.917  26.398  1.00  0.00     0.202 C 
BRANCH   4   5
ATOM      5  C   UNL A   1      32.363  29.784  25.800  1.00  0.00     0.261 C 
BRANCH   5   6
ATOM      6  O   UNL A   1      32.162  29.551  24.395  1.00  0.00    -0.458 OA
BRANCH   6   7
ATOM      7  C   UNL A   1      31.360  28.493  24.061  1.00  0.00     0.358 C 
ATOM      8  O   UNL A   1      30.190  28.604  23.704  1.00  0.00    -0.244 OA
BRANCH   7   9
ATOM      9  C   UNL A   1      32.091  27.211  24.080  1.00  0.00     0.170 A 
ATOM     10  C   UNL A   1      34.325  24.508  22.913  1.00  0.00     0.066 C 
ATOM     11  C   UNL A   1      33.365  25.441  23.553  1.00  0.00     0.037 A 
ATOM     12  C   UNL A   1      33.020  26.713  23.134  1.00  0.00     0.061 A 
ATOM     13  N   UNL A   1      32.613  25.211  24.680  1.00  0.00    -0.265 N 
ATOM     14  N   UNL A   1      31.874  26.285  25.030  1.00  0.00    -0.165 NA
BRANCH  13  15
ATOM     15  C   UNL A   1      32.486  24.062  25.559  1.00  0.00     0.123 C 
ATOM     16  C   UNL A   1      31.990  22.789  24.843  1.00  0.00     0.044 C 
ATOM     17  C   UNL A   1      33.709  23.614  26.341  1.00  0.00     0.164 C 
ATOM     18  C   UNL A   1      31.913  21.696  25.911  1.00  0.00     0.139 C 
ATOM     19  S   UNL A   1      33.174  22.105  27.112  1.00  0.00     0.152 S 
ATOM     20  O   UNL A   1      32.535  22.450  28.365  1.00  0.00    -0.229 OA
ATOM     21  O   UNL A   1      34.253  21.145  27.036  1.00  0.00    -0.229 OA
ENDBRANCH  13  15
ENDBRANCH   7   9
ENDBRANCH   6   7
ENDBRANCH   5   6
ENDBRANCH   4   5
ENDBRANCH   3   4
ENDBRANCH   2   3
ENDBRANCH   1   2
BRANCH   1  22
ATOM     22  O   UNL A   1      33.739  33.815  29.100  1.00  0.00    -0.376 OA
BRANCH  22  23
ATOM     23  C   UNL A   1      33.294  35.117  28.730  1.00  0.00     0.202 C 
BRANCH  23  24
ATOM     24  C   UNL A   1      32.896  36.006  29.907  1.00  0.00     0.261 C 
BRANCH  24  25
ATOM     25  O   UNL A   1      33.747  35.877  31.037  1.00  0.00    -0.460 OA
BRANCH  25  26
ATOM     26  C   UNL A   1      33.219  35.235  32.098  1.00  0.00     0.338 C 
ATOM     27  O   UNL A   1      32.067  35.294  32.492  1.00  0.00    -0.246 OA
BRANCH  26  28
ATOM     28  C   UNL A   1      34.283  34.471  32.757  1.00  0.00     0.060 A 
ATOM     29  C   UNL A   1      35.354  35.202  33.274  1.00  0.00     0.016 A 
ATOM     30  C   UNL A   1      34.335  33.079  32.590  1.00  0.00     0.016 A 
ATOM     31  C   UNL A   1      36.573  34.573  33.379  1.00  0.00     0.010 A 
ATOM     32  C   UNL A   1      35.556  32.457  32.678  1.00  0.00     0.010 A 
ATOM     33  C   UNL A   1      36.669  33.242  32.964  1.00  0.00    -0.014 A 
BRANCH  33  34
ATOM     34  C   UNL A   1      37.997  32.726  32.716  1.00  0.00     0.031 A 
ATOM     35  C   UNL A   1      38.867  32.640  33.901  1.00  0.00     0.074 A 
ATOM     36  C   UNL A   1      38.338  32.284  31.490  1.00  0.00     0.049 A 
ATOM     37  N   UNL A   1      39.986  33.243  34.120  1.00  0.00    -0.248 NA
ATOM     38  C   UNL A   1      38.358  31.866  35.044  1.00  0.00     0.031 C 
ATOM     39  C   UNL A   1      37.439  32.041  30.354  1.00  0.00     0.029 A 
ATOM     40  N   UNL A   1      39.538  31.831  31.039  1.00  0.00    -0.354 N 
ATOM     41  C   UNL A   1      40.436  32.741  35.336  1.00  0.00     0.074 A 
ATOM     42  C   UNL A   1      39.324  32.058  35.939  1.00  0.00     0.031 C 
ATOM     43  C   UNL A   1      38.079  31.278  29.442  1.00  0.00     0.029 A 
ATOM     44  C   UNL A   1      39.453  31.081  29.876  1.00  0.00     0.049 A 
ATOM     45  H   UNL A   1      40.390  32.019  31.496  1.00  0.00     0.167 HD
ATOM     46  C   UNL A   1      41.762  32.683  35.629  1.00  0.00     0.037 A 
ATOM     47  C   UNL A   1      40.408  30.264  29.374  1.00  0.00     0.037 A 
ATOM     48  C   UNL A   1      42.530  33.590  34.816  1.00  0.00     0.049 A 
ATOM     49  C   UNL A   1      41.706  30.660  29.981  1.00  0.00     0.074 A 
ATOM     50  C   UNL A   1      42.520  34.957  34.610  1.00  0.00     0.029 A 
ATOM     51  N   UNL A   1      43.279  33.058  33.795  1.00  0.00    -0.354 N 
ATOM     52  N   UNL A   1      42.313  31.796  29.762  1.00  0.00    -0.248 NA
ATOM     53  C   UNL A   1      42.163  29.934  31.158  1.00  0.00     0.031 C 
ATOM     54  C   UNL A   1      42.910  35.141  33.253  1.00  0.00     0.029 A 
ATOM     55  C   UNL A   1      43.154  33.880  32.704  1.00  0.00     0.049 A 
ATOM     56  H   UNL A   1      43.811  32.231  33.839  1.00  0.00     0.167 HD
ATOM     57  C   UNL A   1      42.923  32.116  30.966  1.00  0.00     0.074 A 
ATOM     58  C   UNL A   1      42.904  30.881  31.739  1.00  0.00     0.031 C 
ATOM     59  C   UNL A   1      43.134  33.415  31.332  1.00  0.00     0.037 A 
BRANCH  46  60
ATOM     60  C   UNL A   1      42.386  31.528  36.375  1.00  0.00     0.058 A 
ATOM     61  C   UNL A   1      43.216  31.791  37.481  1.00  0.00     0.135 A 
ATOM     62  C   UNL A   1      42.436  30.206  35.873  1.00  0.00     0.135 A 
ATOM     63  F   UNL A   1      43.252  33.015  38.031  1.00  0.00    -0.206 F 
ATOM     64  C   UNL A   1      44.095  30.838  37.995  1.00  0.00     0.059 A 
ATOM     65  C   UNL A   1      43.258  29.224  36.410  1.00  0.00     0.059 A 
ATOM     66  F   UNL A   1      41.775  29.826  34.774  1.00  0.00    -0.206 F 
ATOM     67  C   UNL A   1      44.123  29.564  37.433  1.00  0.00     0.060 A 
BRANCH  67  68
ATOM     68  S   UNL A   1      45.364  28.378  37.976  1.00  0.00     0.124 S 
ATOM     69  O   UNL A   1      45.303  27.393  36.902  1.00  0.00    -0.237 OA
ATOM     70  O   UNL A   1      46.568  29.198  38.027  1.00  0.00    -0.237 OA
ATOM     71  O   UNL A   1      44.857  27.935  39.272  1.00  0.00    -0.744 OA
ENDBRANCH  67  68
ENDBRANCH  46  60
BRANCH  47  72
ATOM     72  C   UNL A   1      40.190  28.960  28.697  1.00  0.00     0.058 A 
ATOM     73  C   UNL A   1      40.904  28.609  27.539  1.00  0.00     0.135 A 
ATOM     74  C   UNL A   1      39.450  27.925  29.309  1.00  0.00     0.135 A 
ATOM     75  F   UNL A   1      41.663  29.520  26.914  1.00  0.00    -0.206 F 
ATOM     76  C   UNL A   1      40.902  27.303  27.032  1.00  0.00     0.059 A 
ATOM     77  C   UNL A   1      39.417  26.625  28.812  1.00  0.00     0.059 A 
ATOM     78  F   UNL A   1      38.804  28.123  30.467  1.00  0.00    -0.206 F 
ATOM     79  C   UNL A   1      40.163  26.316  27.683  1.00  0.00     0.060 A 
BRANCH  79  80
ATOM     80  S   UNL A   1      40.264  24.603  27.114  1.00  0.00     0.124 S 
ATOM     81  O   UNL A   1      40.706  24.771  25.734  1.00  0.00    -0.237 OA
ATOM     82  O   UNL A   1      41.242  24.033  28.033  1.00  0.00    -0.237 OA
ATOM     83  O   UNL A   1      38.898  24.110  27.275  1.00  0.00    -0.744 OA
ENDBRANCH  79  80
ENDBRANCH  47  72
BRANCH  59  84
ATOM     84  C   UNL A   1      43.079  34.474  30.262  1.00  0.00     0.058 A 
ATOM     85  C   UNL A   1      41.890  34.963  29.695  1.00  0.00     0.135 A 
ATOM     86  C   UNL A   1      44.273  35.129  29.918  1.00  0.00     0.135 A 
ATOM     87  F   UNL A   1      40.700  34.460  30.051  1.00  0.00    -0.206 F 
ATOM     88  C   UNL A   1      41.893  36.034  28.798  1.00  0.00     0.059 A 
ATOM     89  C   UNL A   1      44.295  36.218  29.051  1.00  0.00     0.059 A 
ATOM     90  F   UNL A   1      45.433  34.748  30.477  1.00  0.00    -0.206 F 
ATOM     91  C   UNL A   1      43.101  36.659  28.486  1.00  0.00     0.060 A 
BRANCH  91  92
ATOM     92  S   UNL A   1      43.087  38.111  27.411  1.00  0.00     0.124 S 
ATOM     93  O   UNL A   1      42.861  39.194  28.361  1.00  0.00    -0.237 OA
ATOM     94  O   UNL A   1      44.414  38.069  26.801  1.00  0.00    -0.237 OA
ATOM     95  O   UNL A   1      41.984  37.845  26.492  1.00  0.00    -0.744 OA
ENDBRANCH  91  92
ENDBRANCH  59  84
ENDBRANCH  33  34
ENDBRANCH  26  28
ENDBRANCH  25  26
ENDBRANCH  24  25
ENDBRANCH  23  24
ENDBRANCH  22  23
ENDBRANCH   1  22
TORSDOF 21
ENDMDL
