MODEL 1
REMARK VINA RESULT:     -10.2      0.000      0.000
REMARK SMILES CCc1noc(C)c1C(=O)Nc1cc(Cl)ccc1C(=O)OCCOCCOCCOC(=O)c1ccc(-c2c3nc(c(-c4c(F)cc(S(=O)(=O)[O-])cc4F)c4ccc([nH]4)c(-c4c(F)cc(S(=O)(=O)[O-])cc4F)c4nc(c(-c5c(F)cc(S(=O)(=O)[O-])cc5F)c5ccc2[nH]5)C=C4)C=C3)cc1
REMARK SMILES IDX 25 1 24 2 23 3 22 4 21 5 19 6 20 7 18 8 12 9 13 10 14 11
REMARK SMILES IDX 17 12 15 13 16 14 11 15 9 16 10 17 8 19 3 20 4 21 5 22 6 23
REMARK SMILES IDX 7 24 2 25 1 26 26 27 27 28 28 29 29 30 30 31 31 32 32 33
REMARK SMILES IDX 33 34 34 35 98 36 35 37 97 38 36 39 37 40 38 41 91 42 39 43
REMARK SMILES IDX 96 44 90 45 92 46 40 47 95 48 89 49 88 50 41 52 75 53 54 54
REMARK SMILES IDX 74 55 55 56 58 57 73 58 93 59 56 60 57 61 72 63 94 64 59 65
REMARK SMILES IDX 42 66 43 67 52 68 44 69 45 70 51 71 53 72 46 73 47 74 48 75
REMARK SMILES IDX 49 76 50 77 76 78 77 79 86 80 78 81 79 82 85 83 87 84 80 85
REMARK SMILES IDX 81 86 82 87 83 88 84 89 60 90 61 91 70 92 62 93 63 94 69 95
REMARK SMILES IDX 71 96 64 97 65 98 66 99 67 100 68 101
REMARK H PARENT 11 18 92 51 58 62
REMARK Flexibility Score: inf
ROOT
ATOM      1  C   UNL A   1      39.866  22.363  26.497  1.00  0.00     0.188 C 
ENDROOT
BRANCH   1   2
ATOM      2  O   UNL A   1      39.148  21.381  25.762  1.00  0.00    -0.376 OA
BRANCH   2   3
ATOM      3  C   UNL A   1      37.858  21.672  25.247  1.00  0.00     0.202 C 
BRANCH   3   4
ATOM      4  C   UNL A   1      37.028  22.771  25.920  1.00  0.00     0.261 C 
BRANCH   4   5
ATOM      5  O   UNL A   1      36.547  23.801  25.032  1.00  0.00    -0.460 OA
BRANCH   5   6
ATOM      6  C   UNL A   1      35.280  24.220  25.277  1.00  0.00     0.340 C 
ATOM      7  O   UNL A   1      34.962  25.063  26.102  1.00  0.00    -0.246 OA
BRANCH   6   8
ATOM      8  C   UNL A   1      34.262  23.596  24.377  1.00  0.00     0.083 A 
ATOM      9  C   UNL A   1      33.602  24.213  23.287  1.00  0.00     0.057 A 
ATOM     10  C   UNL A   1      32.885  23.400  22.401  1.00  0.00     0.047 A 
ATOM     11  C   UNL A   1      32.646  22.054  22.701  1.00  0.00     0.043 A 
ATOM     12  C   UNL A   1      33.971  22.252  24.685  1.00  0.00     0.019 A 
ATOM     13  Cl  UNL A   1      31.692  21.099  21.635  1.00  0.00    -0.084 Cl
ATOM     14  C   UNL A   1      33.136  21.493  23.871  1.00  0.00     0.021 A 
BRANCH   9  15
ATOM     15  N   UNL A   1      33.656  25.611  23.117  1.00  0.00    -0.321 N 
ATOM     16  C   UNL A   1      33.032  26.694  23.707  1.00  0.00     0.261 C 
ATOM     17  O   UNL A   1      33.186  27.771  23.124  1.00  0.00    -0.269 OA
ATOM     18  H   UNL A   1      34.287  25.880  22.410  1.00  0.00     0.170 HD
BRANCH  16  19
ATOM     19  C   UNL A   1      32.268  26.647  24.953  1.00  0.00     0.105 A 
ATOM     20  C   UNL A   1      30.957  26.072  25.120  1.00  0.00     0.096 A 
ATOM     21  N   UNL A   1      30.556  26.121  26.395  1.00  0.00    -0.084 NA
ATOM     22  O   UNL A   1      31.490  26.877  27.047  1.00  0.00    -0.361 OA
ATOM     23  C   UNL A   1      32.462  27.267  26.180  1.00  0.00     0.146 A 
ATOM     24  C   UNL A   1      33.382  28.255  26.777  1.00  0.00     0.092 C 
BRANCH  20  25
ATOM     25  C   UNL A   1      30.001  25.513  24.116  1.00  0.00     0.057 C 
ATOM     26  C   UNL A   1      28.828  26.464  23.868  1.00  0.00     0.011 C 
ENDBRANCH  20  25
ENDBRANCH  16  19
ENDBRANCH   9  15
ENDBRANCH   6   8
ENDBRANCH   5   6
ENDBRANCH   4   5
ENDBRANCH   3   4
ENDBRANCH   2   3
ENDBRANCH   1   2
BRANCH   1  27
ATOM     27  C   UNL A   1      41.133  21.982  27.287  1.00  0.00     0.188 C 
BRANCH  27  28
ATOM     28  O   UNL A   1      42.173  21.413  26.516  1.00  0.00    -0.376 OA
BRANCH  28  29
ATOM     29  C   UNL A   1      43.300  22.246  26.278  1.00  0.00     0.202 C 
BRANCH  29  30
ATOM     30  C   UNL A   1      43.082  23.412  25.300  1.00  0.00     0.261 C 
BRANCH  30  31
ATOM     31  O   UNL A   1      43.274  24.731  25.840  1.00  0.00    -0.460 OA
BRANCH  31  32
ATOM     32  C   UNL A   1      42.196  25.548  25.854  1.00  0.00     0.338 C 
ATOM     33  O   UNL A   1      41.302  25.584  25.032  1.00  0.00    -0.246 OA
BRANCH  32  34
ATOM     34  C   UNL A   1      42.168  26.259  27.153  1.00  0.00     0.060 A 
ATOM     35  C   UNL A   1      41.267  25.831  28.136  1.00  0.00     0.016 A 
ATOM     36  C   UNL A   1      43.002  27.355  27.389  1.00  0.00     0.016 A 
ATOM     37  C   UNL A   1      41.160  26.533  29.338  1.00  0.00     0.010 A 
ATOM     38  C   UNL A   1      42.881  28.067  28.587  1.00  0.00     0.010 A 
ATOM     39  C   UNL A   1      41.929  27.686  29.550  1.00  0.00    -0.014 A 
BRANCH  39  40
ATOM     40  C   UNL A   1      41.571  28.610  30.658  1.00  0.00     0.031 A 
ATOM     41  C   UNL A   1      42.396  28.558  31.918  1.00  0.00     0.074 A 
ATOM     42  C   UNL A   1      40.566  29.498  30.546  1.00  0.00     0.049 A 
ATOM     43  N   UNL A   1      42.281  29.256  33.018  1.00  0.00    -0.248 NA
ATOM     44  C   UNL A   1      43.502  27.584  31.938  1.00  0.00     0.031 C 
ATOM     45  C   UNL A   1      39.711  29.669  29.373  1.00  0.00     0.029 A 
ATOM     46  N   UNL A   1      40.095  30.425  31.443  1.00  0.00    -0.354 N 
ATOM     47  C   UNL A   1      43.292  28.804  33.859  1.00  0.00     0.074 A 
ATOM     48  C   UNL A   1      43.993  27.753  33.157  1.00  0.00     0.031 C 
ATOM     49  C   UNL A   1      38.814  30.640  29.626  1.00  0.00     0.029 A 
ATOM     50  C   UNL A   1      39.016  31.143  30.984  1.00  0.00     0.049 A 
ATOM     51  H   UNL A   1      40.494  30.564  32.333  1.00  0.00     0.167 HD
ATOM     52  C   UNL A   1      43.615  29.231  35.103  1.00  0.00     0.037 A 
ATOM     53  C   UNL A   1      38.271  32.086  31.597  1.00  0.00     0.037 A 
ATOM     54  C   UNL A   1      42.923  30.280  35.802  1.00  0.00     0.049 A 
ATOM     55  C   UNL A   1      38.621  32.511  33.003  1.00  0.00     0.074 A 
ATOM     56  C   UNL A   1      43.188  30.796  37.059  1.00  0.00     0.029 A 
ATOM     57  N   UNL A   1      41.826  30.969  35.310  1.00  0.00    -0.354 N 
ATOM     58  N   UNL A   1      39.599  32.097  33.772  1.00  0.00    -0.248 NA
ATOM     59  C   UNL A   1      37.769  33.539  33.620  1.00  0.00     0.031 C 
ATOM     60  C   UNL A   1      42.224  31.770  37.344  1.00  0.00     0.029 A 
ATOM     61  C   UNL A   1      41.391  31.894  36.244  1.00  0.00     0.049 A 
ATOM     62  H   UNL A   1      41.417  30.823  34.427  1.00  0.00     0.167 HD
ATOM     63  C   UNL A   1      39.502  32.840  34.947  1.00  0.00     0.074 A 
ATOM     64  C   UNL A   1      38.374  33.732  34.784  1.00  0.00     0.031 C 
ATOM     65  C   UNL A   1      40.278  32.791  36.059  1.00  0.00     0.037 A 
BRANCH  52  66
ATOM     66  C   UNL A   1      44.760  28.547  35.798  1.00  0.00     0.058 A 
ATOM     67  C   UNL A   1      46.081  29.005  35.670  1.00  0.00     0.135 A 
ATOM     68  C   UNL A   1      44.526  27.442  36.630  1.00  0.00     0.135 A 
ATOM     69  F   UNL A   1      46.362  30.044  34.867  1.00  0.00    -0.206 F 
ATOM     70  C   UNL A   1      47.133  28.378  36.330  1.00  0.00     0.059 A 
ATOM     71  C   UNL A   1      45.560  26.816  37.320  1.00  0.00     0.059 A 
ATOM     72  F   UNL A   1      43.282  26.962  36.782  1.00  0.00    -0.206 F 
ATOM     73  C   UNL A   1      46.862  27.284  37.155  1.00  0.00     0.060 A 
BRANCH  73  74
ATOM     74  S   UNL A   1      48.235  26.492  38.017  1.00  0.00     0.124 S 
ATOM     75  O   UNL A   1      48.807  27.618  38.749  1.00  0.00    -0.237 OA
ATOM     76  O   UNL A   1      47.555  25.488  38.830  1.00  0.00    -0.237 OA
ATOM     77  O   UNL A   1      49.057  25.965  36.933  1.00  0.00    -0.744 OA
ENDBRANCH  73  74
ENDBRANCH  52  66
BRANCH  53  78
ATOM     78  C   UNL A   1      37.110  32.702  30.897  1.00  0.00     0.058 A 
ATOM     79  C   UNL A   1      37.278  33.803  30.042  1.00  0.00     0.135 A 
ATOM     80  C   UNL A   1      35.805  32.228  31.099  1.00  0.00     0.135 A 
ATOM     81  F   UNL A   1      38.506  34.302  29.826  1.00  0.00    -0.206 F 
ATOM     82  C   UNL A   1      36.194  34.428  29.434  1.00  0.00     0.059 A 
ATOM     83  C   UNL A   1      34.707  32.820  30.482  1.00  0.00     0.059 A 
ATOM     84  F   UNL A   1      35.589  31.175  31.901  1.00  0.00    -0.206 F 
ATOM     85  C   UNL A   1      34.910  33.929  29.662  1.00  0.00     0.060 A 
BRANCH  85  86
ATOM     86  S   UNL A   1      33.511  34.730  28.847  1.00  0.00     0.124 S 
ATOM     87  O   UNL A   1      32.605  34.949  29.968  1.00  0.00    -0.237 OA
ATOM     88  O   UNL A   1      34.128  35.925  28.281  1.00  0.00    -0.237 OA
ATOM     89  O   UNL A   1      33.080  33.734  27.870  1.00  0.00    -0.744 OA
ENDBRANCH  85  86
ENDBRANCH  53  78
BRANCH  65  90
ATOM     90  C   UNL A   1      39.975  33.767  37.164  1.00  0.00     0.058 A 
ATOM     91  C   UNL A   1      40.546  35.047  37.202  1.00  0.00     0.135 A 
ATOM     92  C   UNL A   1      39.062  33.426  38.175  1.00  0.00     0.135 A 
ATOM     93  F   UNL A   1      41.426  35.423  36.260  1.00  0.00    -0.206 F 
ATOM     94  C   UNL A   1      40.248  35.945  38.223  1.00  0.00     0.059 A 
ATOM     95  C   UNL A   1      38.728  34.317  39.190  1.00  0.00     0.059 A 
ATOM     96  F   UNL A   1      38.473  32.219  38.178  1.00  0.00    -0.206 F 
ATOM     97  C   UNL A   1      39.338  35.569  39.214  1.00  0.00     0.060 A 
BRANCH  97  98
ATOM     98  S   UNL A   1      38.947  36.747  40.525  1.00  0.00     0.124 S 
ATOM     99  O   UNL A   1      40.256  36.955  41.135  1.00  0.00    -0.237 OA
ATOM    100  O   UNL A   1      38.408  37.881  39.779  1.00  0.00    -0.237 OA
ATOM    101  O   UNL A   1      37.977  36.029  41.348  1.00  0.00    -0.744 OA
ENDBRANCH  97  98
ENDBRANCH  65  90
ENDBRANCH  39  40
ENDBRANCH  32  34
ENDBRANCH  31  32
ENDBRANCH  30  31
ENDBRANCH  29  30
ENDBRANCH  28  29
ENDBRANCH  27  28
ENDBRANCH   1  27
TORSDOF 23
ENDMDL
MODEL 2
REMARK VINA RESULT:     -10.0      1.181      2.117
REMARK SMILES CCc1noc(C)c1C(=O)Nc1cc(Cl)ccc1C(=O)OCCOCCOCCOC(=O)c1ccc(-c2c3nc(c(-c4c(F)cc(S(=O)(=O)[O-])cc4F)c4ccc([nH]4)c(-c4c(F)cc(S(=O)(=O)[O-])cc4F)c4nc(c(-c5c(F)cc(S(=O)(=O)[O-])cc5F)c5ccc2[nH]5)C=C4)C=C3)cc1
REMARK SMILES IDX 25 1 24 2 23 3 22 4 21 5 19 6 20 7 18 8 12 9 13 10 14 11
REMARK SMILES IDX 17 12 15 13 16 14 11 15 9 16 10 17 8 19 3 20 4 21 5 22 6 23
REMARK SMILES IDX 7 24 2 25 1 26 26 27 27 28 28 29 29 30 30 31 31 32 32 33
REMARK SMILES IDX 33 34 34 35 98 36 35 37 97 38 36 39 37 40 38 41 91 42 39 43
REMARK SMILES IDX 96 44 90 45 92 46 40 47 95 48 89 49 88 50 41 52 75 53 54 54
REMARK SMILES IDX 74 55 55 56 58 57 73 58 93 59 56 60 57 61 72 63 94 64 59 65
REMARK SMILES IDX 42 66 43 67 52 68 44 69 45 70 51 71 53 72 46 73 47 74 48 75
REMARK SMILES IDX 49 76 50 77 76 78 77 79 86 80 78 81 79 82 85 83 87 84 80 85
REMARK SMILES IDX 81 86 82 87 83 88 84 89 60 90 61 91 70 92 62 93 63 94 69 95
REMARK SMILES IDX 71 96 64 97 65 98 66 99 67 100 68 101
REMARK H PARENT 11 18 92 51 58 62
REMARK Flexibility Score: inf
ROOT
ATOM      1  C   UNL A   1      38.873  22.712  26.145  1.00  0.00     0.188 C 
ENDROOT
BRANCH   1   2
ATOM      2  O   UNL A   1      38.067  21.717  25.528  1.00  0.00    -0.376 OA
BRANCH   2   3
ATOM      3  C   UNL A   1      36.666  21.690  25.750  1.00  0.00     0.202 C 
BRANCH   3   4
ATOM      4  C   UNL A   1      35.890  23.012  25.709  1.00  0.00     0.261 C 
BRANCH   4   5
ATOM      5  O   UNL A   1      35.133  23.237  24.502  1.00  0.00    -0.460 OA
BRANCH   5   6
ATOM      6  C   UNL A   1      34.159  24.175  24.605  1.00  0.00     0.340 C 
ATOM      7  O   UNL A   1      33.787  24.696  25.646  1.00  0.00    -0.246 OA
BRANCH   6   8
ATOM      8  C   UNL A   1      33.595  24.595  23.285  1.00  0.00     0.083 A 
ATOM      9  C   UNL A   1      33.220  25.905  22.901  1.00  0.00     0.057 A 
ATOM     10  C   UNL A   1      32.964  26.149  21.547  1.00  0.00     0.047 A 
ATOM     11  C   UNL A   1      32.869  25.092  20.636  1.00  0.00     0.043 A 
ATOM     12  C   UNL A   1      33.448  23.539  22.363  1.00  0.00     0.019 A 
ATOM     13  Cl  UNL A   1      32.472  25.415  18.994  1.00  0.00    -0.084 Cl
ATOM     14  C   UNL A   1      33.051  23.782  21.052  1.00  0.00     0.021 A 
BRANCH   9  15
ATOM     15  N   UNL A   1      33.092  26.924  23.866  1.00  0.00    -0.321 N 
ATOM     16  C   UNL A   1      32.039  27.652  24.388  1.00  0.00     0.261 C 
ATOM     17  O   UNL A   1      32.364  28.626  25.075  1.00  0.00    -0.269 OA
ATOM     18  H   UNL A   1      33.958  27.178  24.262  1.00  0.00     0.170 HD
BRANCH  16  19
ATOM     19  C   UNL A   1      30.625  27.324  24.218  1.00  0.00     0.105 A 
ATOM     20  C   UNL A   1      29.671  28.071  23.437  1.00  0.00     0.096 A 
ATOM     21  N   UNL A   1      28.474  27.477  23.421  1.00  0.00    -0.084 NA
ATOM     22  O   UNL A   1      28.558  26.450  24.320  1.00  0.00    -0.361 OA
ATOM     23  C   UNL A   1      29.805  26.408  24.862  1.00  0.00     0.146 A 
ATOM     24  C   UNL A   1      29.893  25.457  25.988  1.00  0.00     0.092 C 
BRANCH  20  25
ATOM     25  C   UNL A   1      29.802  29.381  22.728  1.00  0.00     0.057 C 
ATOM     26  C   UNL A   1      28.490  29.786  22.053  1.00  0.00     0.011 C 
ENDBRANCH  20  25
ENDBRANCH  16  19
ENDBRANCH   9  15
ENDBRANCH   6   8
ENDBRANCH   5   6
ENDBRANCH   4   5
ENDBRANCH   3   4
ENDBRANCH   2   3
ENDBRANCH   1   2
BRANCH   1  27
ATOM     27  C   UNL A   1      40.250  22.352  26.736  1.00  0.00     0.188 C 
BRANCH  27  28
ATOM     28  O   UNL A   1      41.162  21.772  25.825  1.00  0.00    -0.376 OA
BRANCH  28  29
ATOM     29  C   UNL A   1      42.515  22.189  25.947  1.00  0.00     0.202 C 
BRANCH  29  30
ATOM     30  C   UNL A   1      42.881  23.506  25.242  1.00  0.00     0.261 C 
BRANCH  30  31
ATOM     31  O   UNL A   1      43.067  24.647  26.098  1.00  0.00    -0.460 OA
BRANCH  31  32
ATOM     32  C   UNL A   1      42.138  25.627  26.019  1.00  0.00     0.338 C 
ATOM     33  O   UNL A   1      41.336  25.797  25.121  1.00  0.00    -0.246 OA
BRANCH  32  34
ATOM     34  C   UNL A   1      42.113  26.350  27.311  1.00  0.00     0.060 A 
ATOM     35  C   UNL A   1      41.221  25.925  28.303  1.00  0.00     0.016 A 
ATOM     36  C   UNL A   1      42.941  27.453  27.532  1.00  0.00     0.016 A 
ATOM     37  C   UNL A   1      41.116  26.637  29.500  1.00  0.00     0.010 A 
ATOM     38  C   UNL A   1      42.822  28.176  28.725  1.00  0.00     0.010 A 
ATOM     39  C   UNL A   1      41.879  27.797  29.696  1.00  0.00    -0.014 A 
BRANCH  39  40
ATOM     40  C   UNL A   1      41.522  28.729  30.798  1.00  0.00     0.031 A 
ATOM     41  C   UNL A   1      42.338  28.676  32.064  1.00  0.00     0.074 A 
ATOM     42  C   UNL A   1      40.524  29.624  30.676  1.00  0.00     0.049 A 
ATOM     43  N   UNL A   1      42.222  29.380  33.159  1.00  0.00    -0.248 NA
ATOM     44  C   UNL A   1      43.436  27.694  32.094  1.00  0.00     0.031 C 
ATOM     45  C   UNL A   1      39.678  29.797  29.497  1.00  0.00     0.029 A 
ATOM     46  N   UNL A   1      40.055  30.559  31.565  1.00  0.00    -0.354 N 
ATOM     47  C   UNL A   1      43.224  28.924  34.009  1.00  0.00     0.074 A 
ATOM     48  C   UNL A   1      43.921  27.864  33.315  1.00  0.00     0.031 C 
ATOM     49  C   UNL A   1      38.786  30.776  29.740  1.00  0.00     0.029 A 
ATOM     50  C   UNL A   1      38.984  31.283  31.097  1.00  0.00     0.049 A 
ATOM     51  H   UNL A   1      40.449  30.699  32.457  1.00  0.00     0.167 HD
ATOM     52  C   UNL A   1      43.543  29.354  35.253  1.00  0.00     0.037 A 
ATOM     53  C   UNL A   1      38.243  32.235  31.701  1.00  0.00     0.037 A 
ATOM     54  C   UNL A   1      42.854  30.412  35.943  1.00  0.00     0.049 A 
ATOM     55  C   UNL A   1      38.587  32.664  33.107  1.00  0.00     0.074 A 
ATOM     56  C   UNL A   1      43.115  30.931  37.199  1.00  0.00     0.029 A 
ATOM     57  N   UNL A   1      41.766  31.107  35.440  1.00  0.00    -0.354 N 
ATOM     58  N   UNL A   1      39.558  32.245  33.884  1.00  0.00    -0.248 NA
ATOM     59  C   UNL A   1      37.739  33.700  33.714  1.00  0.00     0.031 C 
ATOM     60  C   UNL A   1      42.157  31.914  37.473  1.00  0.00     0.029 A 
ATOM     61  C   UNL A   1      41.332  32.040  36.367  1.00  0.00     0.049 A 
ATOM     62  H   UNL A   1      41.361  30.960  34.555  1.00  0.00     0.167 HD
ATOM     63  C   UNL A   1      39.459  32.995  35.055  1.00  0.00     0.074 A 
ATOM     64  C   UNL A   1      38.339  33.895  34.881  1.00  0.00     0.031 C 
ATOM     65  C   UNL A   1      40.228  32.944  36.172  1.00  0.00     0.037 A 
BRANCH  52  66
ATOM     66  C   UNL A   1      44.677  28.665  35.957  1.00  0.00     0.058 A 
ATOM     67  C   UNL A   1      44.466  27.549  36.782  1.00  0.00     0.135 A 
ATOM     68  C   UNL A   1      45.998  29.106  35.776  1.00  0.00     0.135 A 
ATOM     69  F   UNL A   1      43.220  27.101  37.008  1.00  0.00    -0.206 F 
ATOM     70  C   UNL A   1      45.523  26.904  37.418  1.00  0.00     0.059 A 
ATOM     71  C   UNL A   1      47.072  28.461  36.381  1.00  0.00     0.059 A 
ATOM     72  F   UNL A   1      46.253  30.172  35.002  1.00  0.00    -0.206 F 
ATOM     73  C   UNL A   1      46.824  27.368  37.209  1.00  0.00     0.060 A 
BRANCH  73  74
ATOM     74  S   UNL A   1      48.186  26.512  38.026  1.00  0.00     0.124 S 
ATOM     75  O   UNL A   1      47.757  26.547  39.420  1.00  0.00    -0.237 OA
ATOM     76  O   UNL A   1      48.159  25.200  37.387  1.00  0.00    -0.237 OA
ATOM     77  O   UNL A   1      49.346  27.338  37.706  1.00  0.00    -0.744 OA
ENDBRANCH  73  74
ENDBRANCH  52  66
BRANCH  53  78
ATOM     78  C   UNL A   1      37.091  32.857  30.991  1.00  0.00     0.058 A 
ATOM     79  C   UNL A   1      35.771  32.477  31.276  1.00  0.00     0.135 A 
ATOM     80  C   UNL A   1      37.290  33.816  29.985  1.00  0.00     0.135 A 
ATOM     81  F   UNL A   1      35.528  31.554  32.220  1.00  0.00    -0.206 F 
ATOM     82  C   UNL A   1      34.691  33.004  30.573  1.00  0.00     0.059 A 
ATOM     83  C   UNL A   1      36.226  34.377  29.286  1.00  0.00     0.059 A 
ATOM     84  F   UNL A   1      38.532  34.220  29.678  1.00  0.00    -0.206 F 
ATOM     85  C   UNL A   1      34.930  33.953  29.578  1.00  0.00     0.060 A 
BRANCH  85  86
ATOM     86  S   UNL A   1      33.521  34.651  28.690  1.00  0.00     0.124 S 
ATOM     87  O   UNL A   1      34.114  35.839  28.085  1.00  0.00    -0.237 OA
ATOM     88  O   UNL A   1      33.170  33.573  27.772  1.00  0.00    -0.237 OA
ATOM     89  O   UNL A   1      32.549  34.901  29.751  1.00  0.00    -0.744 OA
ENDBRANCH  85  86
ENDBRANCH  53  78
BRANCH  65  90
ATOM     90  C   UNL A   1      39.925  33.927  37.270  1.00  0.00     0.058 A 
ATOM     91  C   UNL A   1      39.041  33.624  38.316  1.00  0.00     0.135 A 
ATOM     92  C   UNL A   1      40.568  35.176  37.297  1.00  0.00     0.135 A 
ATOM     93  F   UNL A   1      38.399  32.446  38.337  1.00  0.00    -0.206 F 
ATOM     94  C   UNL A   1      38.778  34.538  39.333  1.00  0.00     0.059 A 
ATOM     95  C   UNL A   1      40.342  36.093  38.318  1.00  0.00     0.059 A 
ATOM     96  F   UNL A   1      41.437  35.511  36.330  1.00  0.00    -0.206 F 
ATOM     97  C   UNL A   1      39.432  35.771  39.324  1.00  0.00     0.060 A 
BRANCH  97  98
ATOM     98  S   UNL A   1      39.097  36.943  40.656  1.00  0.00     0.124 S 
ATOM     99  O   UNL A   1      40.444  37.364  41.024  1.00  0.00    -0.237 OA
ATOM    100  O   UNL A   1      38.277  37.951  39.990  1.00  0.00    -0.237 OA
ATOM    101  O   UNL A   1      38.397  36.134  41.650  1.00  0.00    -0.744 OA
ENDBRANCH  97  98
ENDBRANCH  65  90
ENDBRANCH  39  40
ENDBRANCH  32  34
ENDBRANCH  31  32
ENDBRANCH  30  31
ENDBRANCH  29  30
ENDBRANCH  28  29
ENDBRANCH  27  28
ENDBRANCH   1  27
TORSDOF 23
ENDMDL
MODEL 3
REMARK VINA RESULT:      -9.5      6.178      8.536
REMARK SMILES CCc1noc(C)c1C(=O)Nc1cc(Cl)ccc1C(=O)OCCOCCOCCOC(=O)c1ccc(-c2c3nc(c(-c4c(F)cc(S(=O)(=O)[O-])cc4F)c4ccc([nH]4)c(-c4c(F)cc(S(=O)(=O)[O-])cc4F)c4nc(c(-c5c(F)cc(S(=O)(=O)[O-])cc5F)c5ccc2[nH]5)C=C4)C=C3)cc1
REMARK SMILES IDX 25 1 24 2 23 3 22 4 21 5 19 6 20 7 18 8 12 9 13 10 14 11
REMARK SMILES IDX 17 12 15 13 16 14 11 15 9 16 10 17 8 19 3 20 4 21 5 22 6 23
REMARK SMILES IDX 7 24 2 25 1 26 26 27 27 28 28 29 29 30 30 31 31 32 32 33
REMARK SMILES IDX 33 34 34 35 98 36 35 37 97 38 36 39 37 40 38 41 91 42 39 43
REMARK SMILES IDX 96 44 90 45 92 46 40 47 95 48 89 49 88 50 41 52 75 53 54 54
REMARK SMILES IDX 74 55 55 56 58 57 73 58 93 59 56 60 57 61 72 63 94 64 59 65
REMARK SMILES IDX 42 66 43 67 52 68 44 69 45 70 51 71 53 72 46 73 47 74 48 75
REMARK SMILES IDX 49 76 50 77 76 78 77 79 86 80 78 81 79 82 85 83 87 84 80 85
REMARK SMILES IDX 81 86 82 87 83 88 84 89 60 90 61 91 70 92 62 93 63 94 69 95
REMARK SMILES IDX 71 96 64 97 65 98 66 99 67 100 68 101
REMARK H PARENT 11 18 92 51 58 62
REMARK Flexibility Score: inf
ROOT
ATOM      1  C   UNL A   1      39.009  21.880  25.956  1.00  0.00     0.188 C 
ENDROOT
BRANCH   1   2
ATOM      2  O   UNL A   1      37.800  21.845  25.209  1.00  0.00    -0.376 OA
BRANCH   2   3
ATOM      3  C   UNL A   1      36.942  22.974  25.179  1.00  0.00     0.202 C 
BRANCH   3   4
ATOM      4  C   UNL A   1      35.660  22.946  26.020  1.00  0.00     0.261 C 
BRANCH   4   5
ATOM      5  O   UNL A   1      34.569  22.201  25.440  1.00  0.00    -0.460 OA
BRANCH   5   6
ATOM      6  C   UNL A   1      33.366  22.825  25.482  1.00  0.00     0.340 C 
ATOM      7  O   UNL A   1      32.656  22.927  26.471  1.00  0.00    -0.246 OA
BRANCH   6   8
ATOM      8  C   UNL A   1      32.983  23.467  24.186  1.00  0.00     0.083 A 
ATOM      9  C   UNL A   1      32.071  24.535  24.006  1.00  0.00     0.057 A 
ATOM     10  C   UNL A   1      32.041  25.175  22.762  1.00  0.00     0.047 A 
ATOM     11  C   UNL A   1      32.730  24.643  21.667  1.00  0.00     0.043 A 
ATOM     12  C   UNL A   1      33.632  22.919  23.062  1.00  0.00     0.019 A 
ATOM     13  Cl  UNL A   1      32.608  25.405  20.130  1.00  0.00    -0.084 Cl
ATOM     14  C   UNL A   1      33.477  23.481  21.799  1.00  0.00     0.021 A 
BRANCH   9  15
ATOM     15  N   UNL A   1      31.208  24.922  25.051  1.00  0.00    -0.321 N 
ATOM     16  C   UNL A   1      30.978  26.094  25.747  1.00  0.00     0.261 C 
ATOM     17  O   UNL A   1      30.279  25.975  26.758  1.00  0.00    -0.269 OA
ATOM     18  H   UNL A   1      30.634  24.183  25.358  1.00  0.00     0.170 HD
BRANCH  16  19
ATOM     19  C   UNL A   1      31.457  27.416  25.347  1.00  0.00     0.105 A 
ATOM     20  C   UNL A   1      30.858  28.267  24.350  1.00  0.00     0.096 A 
ATOM     21  N   UNL A   1      31.488  29.443  24.262  1.00  0.00    -0.084 NA
ATOM     22  O   UNL A   1      32.601  29.326  25.048  1.00  0.00    -0.361 OA
ATOM     23  C   UNL A   1      32.636  28.095  25.624  1.00  0.00     0.146 A 
ATOM     24  C   UNL A   1      33.916  27.836  26.314  1.00  0.00     0.092 C 
BRANCH  20  25
ATOM     25  C   UNL A   1      29.730  28.016  23.402  1.00  0.00     0.057 C 
ATOM     26  C   UNL A   1      29.615  29.130  22.359  1.00  0.00     0.011 C 
ENDBRANCH  20  25
ENDBRANCH  16  19
ENDBRANCH   9  15
ENDBRANCH   6   8
ENDBRANCH   5   6
ENDBRANCH   4   5
ENDBRANCH   3   4
ENDBRANCH   2   3
ENDBRANCH   1   2
BRANCH   1  27
ATOM     27  C   UNL A   1      39.859  20.607  26.136  1.00  0.00     0.188 C 
BRANCH  27  28
ATOM     28  O   UNL A   1      40.432  20.443  27.418  1.00  0.00    -0.376 OA
BRANCH  28  29
ATOM     29  C   UNL A   1      41.778  19.990  27.445  1.00  0.00     0.202 C 
BRANCH  29  30
ATOM     30  C   UNL A   1      42.159  18.942  26.387  1.00  0.00     0.261 C 
BRANCH  30  31
ATOM     31  O   UNL A   1      42.652  19.458  25.138  1.00  0.00    -0.460 OA
BRANCH  31  32
ATOM     32  C   UNL A   1      43.995  19.573  25.014  1.00  0.00     0.338 C 
ATOM     33  O   UNL A   1      44.775  18.689  24.717  1.00  0.00    -0.246 OA
BRANCH  32  34
ATOM     34  C   UNL A   1      44.349  21.008  25.096  1.00  0.00     0.060 A 
ATOM     35  C   UNL A   1      45.617  21.363  25.572  1.00  0.00     0.016 A 
ATOM     36  C   UNL A   1      43.429  21.996  24.735  1.00  0.00     0.016 A 
ATOM     37  C   UNL A   1      45.949  22.709  25.739  1.00  0.00     0.010 A 
ATOM     38  C   UNL A   1      43.757  23.344  24.919  1.00  0.00     0.010 A 
ATOM     39  C   UNL A   1      45.002  23.706  25.463  1.00  0.00    -0.014 A 
BRANCH  39  40
ATOM     40  C   UNL A   1      45.230  25.088  25.959  1.00  0.00     0.031 A 
ATOM     41  C   UNL A   1      46.621  25.660  25.850  1.00  0.00     0.074 A 
ATOM     42  C   UNL A   1      44.231  25.836  26.463  1.00  0.00     0.049 A 
ATOM     43  N   UNL A   1      47.069  26.834  26.214  1.00  0.00    -0.248 NA
ATOM     44  C   UNL A   1      47.643  24.786  25.249  1.00  0.00     0.031 C 
ATOM     45  C   UNL A   1      42.838  25.413  26.597  1.00  0.00     0.029 A 
ATOM     46  N   UNL A   1      44.242  27.117  26.959  1.00  0.00    -0.354 N 
ATOM     47  C   UNL A   1      48.421  26.838  25.891  1.00  0.00     0.074 A 
ATOM     48  C   UNL A   1      48.729  25.541  25.330  1.00  0.00     0.031 C 
ATOM     49  C   UNL A   1      42.129  26.416  27.147  1.00  0.00     0.029 A 
ATOM     50  C   UNL A   1      43.020  27.543  27.424  1.00  0.00     0.049 A 
ATOM     51  H   UNL A   1      45.050  27.679  26.979  1.00  0.00     0.167 HD
ATOM     52  C   UNL A   1      49.327  27.833  26.040  1.00  0.00     0.037 A 
ATOM     53  C   UNL A   1      42.667  28.702  28.016  1.00  0.00     0.037 A 
ATOM     54  C   UNL A   1      49.022  29.126  26.593  1.00  0.00     0.049 A 
ATOM     55  C   UNL A   1      43.706  29.780  28.215  1.00  0.00     0.074 A 
ATOM     56  C   UNL A   1      49.868  30.207  26.768  1.00  0.00     0.029 A 
ATOM     57  N   UNL A   1      47.777  29.510  27.067  1.00  0.00    -0.354 N 
ATOM     58  N   UNL A   1      44.973  29.780  27.876  1.00  0.00    -0.248 NA
ATOM     59  C   UNL A   1      43.263  31.019  28.872  1.00  0.00     0.031 C 
ATOM     60  C   UNL A   1      49.144  31.233  27.387  1.00  0.00     0.029 A 
ATOM     61  C   UNL A   1      47.836  30.807  27.550  1.00  0.00     0.049 A 
ATOM     62  H   UNL A   1      46.972  28.946  27.061  1.00  0.00     0.167 HD
ATOM     63  C   UNL A   1      45.467  31.030  28.243  1.00  0.00     0.074 A 
ATOM     64  C   UNL A   1      44.361  31.760  28.824  1.00  0.00     0.031 C 
ATOM     65  C   UNL A   1      46.721  31.529  28.108  1.00  0.00     0.037 A 
BRANCH  52  66
ATOM     66  C   UNL A   1      50.742  27.556  25.615  1.00  0.00     0.058 A 
ATOM     67  C   UNL A   1      51.166  27.749  24.291  1.00  0.00     0.135 A 
ATOM     68  C   UNL A   1      51.693  27.127  26.554  1.00  0.00     0.135 A 
ATOM     69  F   UNL A   1      50.290  28.136  23.349  1.00  0.00    -0.206 F 
ATOM     70  C   UNL A   1      52.482  27.508  23.908  1.00  0.00     0.059 A 
ATOM     71  C   UNL A   1      53.020  26.905  26.198  1.00  0.00     0.059 A 
ATOM     72  F   UNL A   1      51.338  26.923  27.832  1.00  0.00    -0.206 F 
ATOM     73  C   UNL A   1      53.403  27.087  24.871  1.00  0.00     0.060 A 
BRANCH  73  74
ATOM     74  S   UNL A   1      55.109  26.794  24.362  1.00  0.00     0.124 S 
ATOM     75  O   UNL A   1      54.976  26.747  22.910  1.00  0.00    -0.237 OA
ATOM     76  O   UNL A   1      55.800  27.964  24.898  1.00  0.00    -0.237 OA
ATOM     77  O   UNL A   1      55.441  25.526  25.004  1.00  0.00    -0.744 OA
ENDBRANCH  73  74
ENDBRANCH  52  66
BRANCH  53  78
ATOM     78  C   UNL A   1      41.267  28.920  28.474  1.00  0.00     0.058 A 
ATOM     79  C   UNL A   1      40.241  29.205  27.560  1.00  0.00     0.135 A 
ATOM     80  C   UNL A   1      40.935  28.886  29.837  1.00  0.00     0.135 A 
ATOM     81  F   UNL A   1      40.509  29.262  26.246  1.00  0.00    -0.206 F 
ATOM     82  C   UNL A   1      38.942  29.475  27.982  1.00  0.00     0.059 A 
ATOM     83  C   UNL A   1      39.639  29.126  30.281  1.00  0.00     0.059 A 
ATOM     84  F   UNL A   1      41.877  28.611  30.751  1.00  0.00    -0.206 F 
ATOM     85  C   UNL A   1      38.652  29.434  29.346  1.00  0.00     0.060 A 
BRANCH  85  86
ATOM     86  S   UNL A   1      36.957  29.759  29.882  1.00  0.00     0.124 S 
ATOM     87  O   UNL A   1      37.005  31.191  30.154  1.00  0.00    -0.237 OA
ATOM     88  O   UNL A   1      36.182  29.355  28.713  1.00  0.00    -0.237 OA
ATOM     89  O   UNL A   1      36.807  28.898  31.052  1.00  0.00    -0.744 OA
ENDBRANCH  85  86
ENDBRANCH  53  78
BRANCH  65  90
ATOM     90  C   UNL A   1      46.955  32.951  28.541  1.00  0.00     0.058 A 
ATOM     91  C   UNL A   1      46.765  34.034  27.670  1.00  0.00     0.135 A 
ATOM     92  C   UNL A   1      47.332  33.233  29.865  1.00  0.00     0.135 A 
ATOM     93  F   UNL A   1      46.407  33.820  26.395  1.00  0.00    -0.206 F 
ATOM     94  C   UNL A   1      46.974  35.346  28.087  1.00  0.00     0.059 A 
ATOM     95  C   UNL A   1      47.519  34.537  30.310  1.00  0.00     0.059 A 
ATOM     96  F   UNL A   1      47.512  32.234  30.745  1.00  0.00    -0.206 F 
ATOM     97  C   UNL A   1      47.353  35.587  29.409  1.00  0.00     0.060 A 
BRANCH  97  98
ATOM     98  S   UNL A   1      47.605  37.293  29.943  1.00  0.00     0.124 S 
ATOM     99  O   UNL A   1      46.971  37.286  31.257  1.00  0.00    -0.237 OA
ATOM    100  O   UNL A   1      49.060  37.412  29.942  1.00  0.00    -0.237 OA
ATOM    101  O   UNL A   1      46.918  38.075  28.918  1.00  0.00    -0.744 OA
ENDBRANCH  97  98
ENDBRANCH  65  90
ENDBRANCH  39  40
ENDBRANCH  32  34
ENDBRANCH  31  32
ENDBRANCH  30  31
ENDBRANCH  29  30
ENDBRANCH  28  29
ENDBRANCH  27  28
ENDBRANCH   1  27
TORSDOF 23
ENDMDL
