MODEL 1
REMARK VINA RESULT:     -10.4      0.000      0.000
REMARK SMILES CN(C)S(=O)(=O)c1ccc(N(CC(=O)OCCOCCOCCOC(=O)c2ccc(-c3c4nc(c(-c5c(F)cc(S(=O)(=O)[O-])cc5F)c5ccc([nH]5)c(-c5c(F)cc(S(=O)(=O)[O-])cc5F)c5nc(c(-c6c(F)cc(S(=O)(=O)[O-])cc6F)c6ccc3[nH]6)C=C5)C=C4)cc2)C(C)(C)C)cc1
REMARK SMILES IDX 19 1 18 2 17 3 16 4 15 5 13 6 14 7 12 8 11 9 10 10 7 11 8 12
REMARK SMILES IDX 98 13 9 14 97 15 4 16 5 17 6 18 2 19 1 20 3 21 93 22 94 23
REMARK SMILES IDX 95 24 96 25 20 26 21 27 22 28 23 29 24 30 25 31 26 32 27 33
REMARK SMILES IDX 28 34 92 35 29 36 91 37 30 38 31 39 32 40 85 41 33 42 90 43
REMARK SMILES IDX 84 44 86 45 34 46 89 47 83 48 82 49 35 51 69 52 48 53 68 54
REMARK SMILES IDX 49 55 52 56 67 57 87 58 50 59 51 60 66 62 88 63 53 64 36 65
REMARK SMILES IDX 37 66 46 67 38 68 39 69 45 70 47 71 40 72 41 73 42 74 43 75
REMARK SMILES IDX 44 76 70 77 71 78 80 79 72 80 73 81 79 82 81 83 74 84 75 85
REMARK SMILES IDX 76 86 77 87 78 88 54 89 55 90 64 91 56 92 57 93 63 94 65 95
REMARK SMILES IDX 58 96 59 97 60 98 61 99 62 100
REMARK H PARENT 86 50 52 61
REMARK Flexibility Score: inf
ROOT
ATOM      1  C   UNL A   1      32.743  28.600  25.323  1.00  0.00     0.188 C 
ENDROOT
BRANCH   1   2
ATOM      2  O   UNL A   1      31.587  27.821  25.056  1.00  0.00    -0.376 OA
BRANCH   2   3
ATOM      3  C   UNL A   1      31.022  27.050  26.103  1.00  0.00     0.202 C 
BRANCH   3   4
ATOM      4  C   UNL A   1      30.146  25.846  25.713  1.00  0.00     0.261 C 
BRANCH   4   5
ATOM      5  O   UNL A   1      30.064  24.775  26.690  1.00  0.00    -0.462 OA
BRANCH   5   6
ATOM      6  C   UNL A   1      30.978  23.775  26.576  1.00  0.00     0.325 C 
ATOM      7  O   UNL A   1      31.581  23.318  27.549  1.00  0.00    -0.250 OA
BRANCH   6   8
ATOM      8  C   UNL A   1      31.210  23.153  25.181  1.00  0.00     0.239 C 
BRANCH   8   9
ATOM      9  N   UNL A   1      32.596  22.967  24.611  1.00  0.00    -0.356 N 
BRANCH   9  10
ATOM     10  C   UNL A   1      33.031  21.644  24.387  1.00  0.00     0.038 A 
ATOM     11  C   UNL A   1      33.683  18.875  24.157  1.00  0.00     0.082 A 
ATOM     12  C   UNL A   1      34.461  19.716  24.947  1.00  0.00     0.024 A 
ATOM     13  C   UNL A   1      32.663  19.407  23.394  1.00  0.00     0.024 A 
ATOM     14  C   UNL A   1      34.128  21.077  25.061  1.00  0.00     0.027 A 
ATOM     15  C   UNL A   1      32.382  20.771  23.493  1.00  0.00     0.027 A 
BRANCH  11  16
ATOM     16  S   UNL A   1      34.017  17.139  24.071  1.00  0.00     0.242 S 
ATOM     17  O   UNL A   1      35.258  16.879  24.763  1.00  0.00    -0.207 OA
ATOM     18  O   UNL A   1      33.837  16.717  22.693  1.00  0.00    -0.207 OA
BRANCH  16  19
ATOM     19  N   UNL A   1      32.739  16.455  24.989  1.00  0.00    -0.204 NA
ATOM     20  C   UNL A   1      32.908  15.002  25.203  1.00  0.00     0.124 C 
ATOM     21  C   UNL A   1      32.410  17.170  26.242  1.00  0.00     0.124 C 
ENDBRANCH  16  19
ENDBRANCH  11  16
ENDBRANCH   9  10
BRANCH   9  22
ATOM     22  C   UNL A   1      33.285  24.136  23.915  1.00  0.00     0.032 C 
ATOM     23  C   UNL A   1      32.275  24.876  22.990  1.00  0.00     0.034 C 
ATOM     24  C   UNL A   1      33.980  25.132  24.878  1.00  0.00     0.034 C 
ATOM     25  C   UNL A   1      34.464  23.678  23.044  1.00  0.00     0.034 C 
ENDBRANCH   9  22
ENDBRANCH   8   9
ENDBRANCH   6   8
ENDBRANCH   5   6
ENDBRANCH   4   5
ENDBRANCH   3   4
ENDBRANCH   2   3
ENDBRANCH   1   2
BRANCH   1  26
ATOM     26  C   UNL A   1      33.374  28.598  26.725  1.00  0.00     0.188 C 
BRANCH  26  27
ATOM     27  O   UNL A   1      33.451  29.815  27.414  1.00  0.00    -0.376 OA
BRANCH  27  28
ATOM     28  C   UNL A   1      34.663  30.517  27.543  1.00  0.00     0.202 C 
BRANCH  28  29
ATOM     29  C   UNL A   1      34.905  31.705  28.488  1.00  0.00     0.261 C 
BRANCH  29  30
ATOM     30  O   UNL A   1      36.217  32.287  28.522  1.00  0.00    -0.460 OA
BRANCH  30  31
ATOM     31  C   UNL A   1      36.893  32.026  29.669  1.00  0.00     0.338 C 
ATOM     32  O   UNL A   1      36.698  32.534  30.764  1.00  0.00    -0.246 OA
BRANCH  31  33
ATOM     33  C   UNL A   1      37.850  30.916  29.531  1.00  0.00     0.060 A 
ATOM     34  C   UNL A   1      38.739  30.713  30.579  1.00  0.00     0.016 A 
ATOM     35  C   UNL A   1      38.118  30.360  28.288  1.00  0.00     0.016 A 
ATOM     36  C   UNL A   1      39.980  30.129  30.363  1.00  0.00     0.010 A 
ATOM     37  C   UNL A   1      39.316  29.654  28.098  1.00  0.00     0.010 A 
ATOM     38  C   UNL A   1      40.298  29.603  29.110  1.00  0.00    -0.014 A 
BRANCH  38  39
ATOM     39  C   UNL A   1      41.683  29.124  28.823  1.00  0.00     0.031 A 
ATOM     40  C   UNL A   1      42.838  30.093  28.921  1.00  0.00     0.074 A 
ATOM     41  C   UNL A   1      41.928  27.831  28.522  1.00  0.00     0.049 A 
ATOM     42  N   UNL A   1      44.074  29.961  28.512  1.00  0.00    -0.248 NA
ATOM     43  C   UNL A   1      42.558  31.395  29.551  1.00  0.00     0.031 C 
ATOM     44  C   UNL A   1      40.929  26.760  28.485  1.00  0.00     0.029 A 
ATOM     45  N   UNL A   1      43.100  27.194  28.191  1.00  0.00    -0.354 N 
ATOM     46  C   UNL A   1      44.695  31.179  28.770  1.00  0.00     0.074 A 
ATOM     47  C   UNL A   1      43.698  32.043  29.361  1.00  0.00     0.031 C 
ATOM     48  C   UNL A   1      41.530  25.603  28.175  1.00  0.00     0.029 A 
ATOM     49  C   UNL A   1      42.935  25.862  27.886  1.00  0.00     0.049 A 
ATOM     50  H   UNL A   1      43.974  27.648  28.171  1.00  0.00     0.167 HD
ATOM     51  C   UNL A   1      45.979  31.543  28.532  1.00  0.00     0.037 A 
ATOM     52  C   UNL A   1      43.798  24.962  27.375  1.00  0.00     0.037 A 
ATOM     53  C   UNL A   1      46.976  30.652  27.992  1.00  0.00     0.049 A 
ATOM     54  C   UNL A   1      45.202  25.403  27.060  1.00  0.00     0.074 A 
ATOM     55  C   UNL A   1      48.305  30.914  27.709  1.00  0.00     0.029 A 
ATOM     56  N   UNL A   1      46.754  29.321  27.666  1.00  0.00    -0.354 N 
ATOM     57  N   UNL A   1      45.757  26.579  27.237  1.00  0.00    -0.248 NA
ATOM     58  C   UNL A   1      46.092  24.398  26.465  1.00  0.00     0.031 C 
ATOM     59  C   UNL A   1      48.871  29.758  27.163  1.00  0.00     0.029 A 
ATOM     60  C   UNL A   1      47.916  28.754  27.166  1.00  0.00     0.049 A 
ATOM     61  H   UNL A   1      45.897  28.849  27.774  1.00  0.00     0.167 HD
ATOM     62  C   UNL A   1      47.070  26.449  26.797  1.00  0.00     0.074 A 
ATOM     63  C   UNL A   1      47.228  25.074  26.369  1.00  0.00     0.031 C 
ATOM     64  C   UNL A   1      48.054  27.381  26.747  1.00  0.00     0.037 A 
BRANCH  51  65
ATOM     65  C   UNL A   1      46.367  32.974  28.806  1.00  0.00     0.058 A 
ATOM     66  C   UNL A   1      46.244  33.987  27.843  1.00  0.00     0.135 A 
ATOM     67  C   UNL A   1      46.860  33.337  30.072  1.00  0.00     0.135 A 
ATOM     68  F   UNL A   1      45.798  33.698  26.610  1.00  0.00    -0.206 F 
ATOM     69  C   UNL A   1      46.628  35.299  28.111  1.00  0.00     0.059 A 
ATOM     70  C   UNL A   1      47.219  34.648  30.373  1.00  0.00     0.059 A 
ATOM     71  F   UNL A   1      47.002  32.411  31.034  1.00  0.00    -0.206 F 
ATOM     72  C   UNL A   1      47.115  35.620  29.380  1.00  0.00     0.060 A 
BRANCH  72  73
ATOM     73  S   UNL A   1      47.611  37.324  29.710  1.00  0.00     0.124 S 
ATOM     74  O   UNL A   1      48.704  37.131  30.659  1.00  0.00    -0.237 OA
ATOM     75  O   UNL A   1      47.998  37.798  28.385  1.00  0.00    -0.237 OA
ATOM     76  O   UNL A   1      46.403  37.931  30.262  1.00  0.00    -0.744 OA
ENDBRANCH  72  73
ENDBRANCH  51  65
BRANCH  52  77
ATOM     77  C   UNL A   1      43.346  23.573  27.079  1.00  0.00     0.058 A 
ATOM     78  C   UNL A   1      43.172  23.131  25.759  1.00  0.00     0.135 A 
ATOM     79  C   UNL A   1      43.080  22.656  28.111  1.00  0.00     0.135 A 
ATOM     80  F   UNL A   1      43.400  23.969  24.737  1.00  0.00    -0.206 F 
ATOM     81  C   UNL A   1      42.737  21.841  25.472  1.00  0.00     0.059 A 
ATOM     82  C   UNL A   1      42.679  21.350  27.848  1.00  0.00     0.059 A 
ATOM     83  F   UNL A   1      43.239  23.020  29.392  1.00  0.00    -0.206 F 
ATOM     84  C   UNL A   1      42.498  20.955  26.524  1.00  0.00     0.060 A 
BRANCH  84  85
ATOM     85  S   UNL A   1      41.979  19.269  26.138  1.00  0.00     0.124 S 
ATOM     86  O   UNL A   1      40.534  19.427  26.016  1.00  0.00    -0.237 OA
ATOM     87  O   UNL A   1      42.700  19.005  24.897  1.00  0.00    -0.237 OA
ATOM     88  O   UNL A   1      42.435  18.504  27.295  1.00  0.00    -0.744 OA
ENDBRANCH  84  85
ENDBRANCH  52  77
BRANCH  64  89
ATOM     89  C   UNL A   1      49.402  26.928  26.254  1.00  0.00     0.058 A 
ATOM     90  C   UNL A   1      50.345  26.336  27.109  1.00  0.00     0.135 A 
ATOM     91  C   UNL A   1      49.749  27.080  24.902  1.00  0.00     0.135 A 
ATOM     92  F   UNL A   1      50.068  26.172  28.413  1.00  0.00    -0.206 F 
ATOM     93  C   UNL A   1      51.601  25.951  26.650  1.00  0.00     0.059 A 
ATOM     94  C   UNL A   1      50.985  26.670  24.413  1.00  0.00     0.059 A 
ATOM     95  F   UNL A   1      48.880  27.627  24.037  1.00  0.00    -0.206 F 
ATOM     96  C   UNL A   1      51.912  26.126  25.301  1.00  0.00     0.060 A 
BRANCH  96  97
ATOM     97  S   UNL A   1      53.546  25.626  24.718  1.00  0.00     0.124 S 
ATOM     98  O   UNL A   1      54.413  26.535  25.461  1.00  0.00    -0.237 OA
ATOM     99  O   UNL A   1      53.604  24.224  25.118  1.00  0.00    -0.237 OA
ATOM    100  O   UNL A   1      53.479  25.859  23.278  1.00  0.00    -0.744 OA
ENDBRANCH  96  97
ENDBRANCH  64  89
ENDBRANCH  38  39
ENDBRANCH  31  33
ENDBRANCH  30  31
ENDBRANCH  29  30
ENDBRANCH  28  29
ENDBRANCH  27  28
ENDBRANCH  26  27
ENDBRANCH   1  26
TORSDOF 25
ENDMDL
MODEL 2
REMARK VINA RESULT:     -10.3      5.547     11.316
REMARK SMILES CN(C)S(=O)(=O)c1ccc(N(CC(=O)OCCOCCOCCOC(=O)c2ccc(-c3c4nc(c(-c5c(F)cc(S(=O)(=O)[O-])cc5F)c5ccc([nH]5)c(-c5c(F)cc(S(=O)(=O)[O-])cc5F)c5nc(c(-c6c(F)cc(S(=O)(=O)[O-])cc6F)c6ccc3[nH]6)C=C5)C=C4)cc2)C(C)(C)C)cc1
REMARK SMILES IDX 19 1 18 2 17 3 16 4 15 5 13 6 14 7 12 8 11 9 10 10 7 11 8 12
REMARK SMILES IDX 98 13 9 14 97 15 4 16 5 17 6 18 2 19 1 20 3 21 93 22 94 23
REMARK SMILES IDX 95 24 96 25 20 26 21 27 22 28 23 29 24 30 25 31 26 32 27 33
REMARK SMILES IDX 28 34 92 35 29 36 91 37 30 38 31 39 32 40 85 41 33 42 90 43
REMARK SMILES IDX 84 44 86 45 34 46 89 47 83 48 82 49 35 51 69 52 48 53 68 54
REMARK SMILES IDX 49 55 52 56 67 57 87 58 50 59 51 60 66 62 88 63 53 64 36 65
REMARK SMILES IDX 37 66 46 67 38 68 39 69 45 70 47 71 40 72 41 73 42 74 43 75
REMARK SMILES IDX 44 76 70 77 71 78 80 79 72 80 73 81 79 82 81 83 74 84 75 85
REMARK SMILES IDX 76 86 77 87 78 88 54 89 55 90 64 91 56 92 57 93 63 94 65 95
REMARK SMILES IDX 58 96 59 97 60 98 61 99 62 100
REMARK H PARENT 86 50 52 61
REMARK Flexibility Score: inf
ROOT
ATOM      1  C   UNL A   1      34.396  19.463  25.011  1.00  0.00     0.188 C 
ENDROOT
BRANCH   1   2
ATOM      2  O   UNL A   1      33.444  20.350  25.577  1.00  0.00    -0.376 OA
BRANCH   2   3
ATOM      3  C   UNL A   1      32.389  20.835  24.764  1.00  0.00     0.202 C 
BRANCH   3   4
ATOM      4  C   UNL A   1      32.750  21.374  23.369  1.00  0.00     0.261 C 
BRANCH   4   5
ATOM      5  O   UNL A   1      31.783  22.274  22.764  1.00  0.00    -0.462 OA
BRANCH   5   6
ATOM      6  C   UNL A   1      31.500  23.413  23.449  1.00  0.00     0.325 C 
ATOM      7  O   UNL A   1      30.549  23.496  24.228  1.00  0.00    -0.250 OA
BRANCH   6   8
ATOM      8  C   UNL A   1      32.452  24.619  23.287  1.00  0.00     0.239 C 
BRANCH   8   9
ATOM      9  N   UNL A   1      32.222  25.921  24.017  1.00  0.00    -0.356 N 
BRANCH   9  10
ATOM     10  C   UNL A   1      31.233  26.785  23.501  1.00  0.00     0.038 A 
ATOM     11  C   UNL A   1      29.311  28.740  22.706  1.00  0.00     0.082 A 
ATOM     12  C   UNL A   1      28.918  27.631  23.450  1.00  0.00     0.024 A 
ATOM     13  C   UNL A   1      30.613  28.832  22.257  1.00  0.00     0.024 A 
ATOM     14  C   UNL A   1      29.873  26.677  23.844  1.00  0.00     0.027 A 
ATOM     15  C   UNL A   1      31.531  27.847  22.627  1.00  0.00     0.027 A 
BRANCH  11  16
ATOM     16  S   UNL A   1      28.153  30.008  22.278  1.00  0.00     0.242 S 
ATOM     17  O   UNL A   1      26.996  29.875  23.133  1.00  0.00    -0.207 OA
ATOM     18  O   UNL A   1      28.008  30.011  20.833  1.00  0.00    -0.207 OA
BRANCH  16  19
ATOM     19  N   UNL A   1      28.979  31.446  22.715  1.00  0.00    -0.204 NA
ATOM     20  C   UNL A   1      28.399  32.649  22.081  1.00  0.00     0.124 C 
ATOM     21  C   UNL A   1      29.200  31.631  24.167  1.00  0.00     0.124 C 
ENDBRANCH  16  19
ENDBRANCH  11  16
ENDBRANCH   9  10
BRANCH   9  22
ATOM     22  C   UNL A   1      32.706  26.071  25.455  1.00  0.00     0.032 C 
ATOM     23  C   UNL A   1      34.162  25.538  25.586  1.00  0.00     0.034 C 
ATOM     24  C   UNL A   1      32.595  27.511  26.018  1.00  0.00     0.034 C 
ATOM     25  C   UNL A   1      31.832  25.287  26.445  1.00  0.00     0.034 C 
ENDBRANCH   9  22
ENDBRANCH   8   9
ENDBRANCH   6   8
ENDBRANCH   5   6
ENDBRANCH   4   5
ENDBRANCH   3   4
ENDBRANCH   2   3
ENDBRANCH   1   2
BRANCH   1  26
ATOM     26  C   UNL A   1      35.827  19.943  24.719  1.00  0.00     0.188 C 
BRANCH  26  27
ATOM     27  O   UNL A   1      36.427  20.819  25.632  1.00  0.00    -0.376 OA
BRANCH  27  28
ATOM     28  C   UNL A   1      37.556  21.585  25.290  1.00  0.00     0.202 C 
BRANCH  28  29
ATOM     29  C   UNL A   1      38.999  21.281  25.721  1.00  0.00     0.261 C 
BRANCH  29  30
ATOM     30  O   UNL A   1      39.545  22.011  26.830  1.00  0.00    -0.460 OA
BRANCH  30  31
ATOM     31  C   UNL A   1      40.503  22.902  26.470  1.00  0.00     0.338 C 
ATOM     32  O   UNL A   1      41.474  22.683  25.760  1.00  0.00    -0.246 OA
BRANCH  31  33
ATOM     33  C   UNL A   1      40.204  24.275  26.907  1.00  0.00     0.060 A 
ATOM     34  C   UNL A   1      41.112  25.264  26.551  1.00  0.00     0.016 A 
ATOM     35  C   UNL A   1      39.298  24.513  27.931  1.00  0.00     0.016 A 
ATOM     36  C   UNL A   1      41.261  26.411  27.320  1.00  0.00     0.010 A 
ATOM     37  C   UNL A   1      39.359  25.729  28.629  1.00  0.00     0.010 A 
ATOM     38  C   UNL A   1      40.395  26.655  28.387  1.00  0.00    -0.014 A 
BRANCH  38  39
ATOM     39  C   UNL A   1      40.649  27.796  29.317  1.00  0.00     0.031 A 
ATOM     40  C   UNL A   1      41.885  27.783  30.186  1.00  0.00     0.074 A 
ATOM     41  C   UNL A   1      39.818  28.859  29.363  1.00  0.00     0.049 A 
ATOM     42  N   UNL A   1      42.194  28.542  31.207  1.00  0.00    -0.248 NA
ATOM     43  C   UNL A   1      42.905  26.767  29.872  1.00  0.00     0.031 C 
ATOM     44  C   UNL A   1      38.640  29.058  28.516  1.00  0.00     0.029 A 
ATOM     45  N   UNL A   1      39.840  29.980  30.158  1.00  0.00    -0.354 N 
ATOM     46  C   UNL A   1      43.401  28.052  31.696  1.00  0.00     0.074 A 
ATOM     47  C   UNL A   1      43.764  26.924  30.868  1.00  0.00     0.031 C 
ATOM     48  C   UNL A   1      38.068  30.232  28.819  1.00  0.00     0.029 A 
ATOM     49  C   UNL A   1      38.773  30.823  29.950  1.00  0.00     0.049 A 
ATOM     50  H   UNL A   1      40.551  30.162  30.815  1.00  0.00     0.167 HD
ATOM     51  C   UNL A   1      44.136  28.502  32.742  1.00  0.00     0.037 A 
ATOM     52  C   UNL A   1      38.367  31.915  30.627  1.00  0.00     0.037 A 
ATOM     53  C   UNL A   1      43.787  29.662  33.525  1.00  0.00     0.049 A 
ATOM     54  C   UNL A   1      39.163  32.361  31.824  1.00  0.00     0.074 A 
ATOM     55  C   UNL A   1      44.457  30.205  34.607  1.00  0.00     0.029 A 
ATOM     56  N   UNL A   1      42.678  30.464  33.299  1.00  0.00    -0.354 N 
ATOM     57  N   UNL A   1      40.261  31.845  32.324  1.00  0.00    -0.248 NA
ATOM     58  C   UNL A   1      38.658  33.530  32.555  1.00  0.00     0.031 C 
ATOM     59  C   UNL A   1      43.724  31.305  35.067  1.00  0.00     0.029 A 
ATOM     60  C   UNL A   1      42.633  31.487  34.233  1.00  0.00     0.049 A 
ATOM     61  H   UNL A   1      42.019  30.327  32.580  1.00  0.00     0.167 HD
ATOM     62  C   UNL A   1      40.592  32.641  33.415  1.00  0.00     0.074 A 
ATOM     63  C   UNL A   1      39.590  33.686  33.485  1.00  0.00     0.031 C 
ATOM     64  C   UNL A   1      41.627  32.520  34.284  1.00  0.00     0.037 A 
BRANCH  51  65
ATOM     65  C   UNL A   1      45.359  27.712  33.133  1.00  0.00     0.058 A 
ATOM     66  C   UNL A   1      46.629  27.969  32.591  1.00  0.00     0.135 A 
ATOM     67  C   UNL A   1      45.257  26.683  34.085  1.00  0.00     0.135 A 
ATOM     68  F   UNL A   1      46.786  28.927  31.663  1.00  0.00    -0.206 F 
ATOM     69  C   UNL A   1      47.742  27.214  32.951  1.00  0.00     0.059 A 
ATOM     70  C   UNL A   1      46.362  25.937  34.486  1.00  0.00     0.059 A 
ATOM     71  F   UNL A   1      44.069  26.389  34.638  1.00  0.00    -0.206 F 
ATOM     72  C   UNL A   1      47.599  26.199  33.900  1.00  0.00     0.060 A 
BRANCH  72  73
ATOM     73  S   UNL A   1      49.052  25.228  34.353  1.00  0.00     0.124 S 
ATOM     74  O   UNL A   1      49.586  26.005  35.467  1.00  0.00    -0.237 OA
ATOM     75  O   UNL A   1      48.466  23.938  34.703  1.00  0.00    -0.237 OA
ATOM     76  O   UNL A   1      49.861  25.237  33.138  1.00  0.00    -0.744 OA
ENDBRANCH  72  73
ENDBRANCH  51  65
BRANCH  52  77
ATOM     77  C   UNL A   1      37.122  32.629  30.225  1.00  0.00     0.058 A 
ATOM     78  C   UNL A   1      37.128  33.574  29.189  1.00  0.00     0.135 A 
ATOM     79  C   UNL A   1      35.897  32.380  30.869  1.00  0.00     0.135 A 
ATOM     80  F   UNL A   1      38.273  33.859  28.550  1.00  0.00    -0.206 F 
ATOM     81  C   UNL A   1      35.975  34.257  28.816  1.00  0.00     0.059 A 
ATOM     82  C   UNL A   1      34.724  33.024  30.490  1.00  0.00     0.059 A 
ATOM     83  F   UNL A   1      35.829  31.479  31.861  1.00  0.00    -0.206 F 
ATOM     84  C   UNL A   1      34.775  33.971  29.470  1.00  0.00     0.060 A 
BRANCH  84  85
ATOM     85  S   UNL A   1      33.275  34.829  28.945  1.00  0.00     0.124 S 
ATOM     86  O   UNL A   1      32.703  33.871  28.005  1.00  0.00    -0.237 OA
ATOM     87  O   UNL A   1      32.560  34.991  30.207  1.00  0.00    -0.237 OA
ATOM     88  O   UNL A   1      33.783  36.065  28.357  1.00  0.00    -0.744 OA
ENDBRANCH  84  85
ENDBRANCH  52  77
BRANCH  64  89
ATOM     89  C   UNL A   1      41.750  33.571  35.354  1.00  0.00     0.058 A 
ATOM     90  C   UNL A   1      42.534  34.723  35.176  1.00  0.00     0.135 A 
ATOM     91  C   UNL A   1      41.064  33.427  36.570  1.00  0.00     0.135 A 
ATOM     92  F   UNL A   1      43.216  34.908  34.035  1.00  0.00    -0.206 F 
ATOM     93  C   UNL A   1      42.668  35.672  36.185  1.00  0.00     0.059 A 
ATOM     94  C   UNL A   1      41.155  34.381  37.579  1.00  0.00     0.059 A 
ATOM     95  F   UNL A   1      40.289  32.352  36.787  1.00  0.00    -0.206 F 
ATOM     96  C   UNL A   1      41.977  35.489  37.384  1.00  0.00     0.060 A 
BRANCH  96  97
ATOM     97  S   UNL A   1      42.161  36.726  38.686  1.00  0.00     0.124 S 
ATOM     98  O   UNL A   1      40.794  37.218  38.819  1.00  0.00    -0.237 OA
ATOM     99  O   UNL A   1      42.661  35.930  39.802  1.00  0.00    -0.237 OA
ATOM    100  O   UNL A   1      43.117  37.674  38.121  1.00  0.00    -0.744 OA
ENDBRANCH  96  97
ENDBRANCH  64  89
ENDBRANCH  38  39
ENDBRANCH  31  33
ENDBRANCH  30  31
ENDBRANCH  29  30
ENDBRANCH  28  29
ENDBRANCH  27  28
ENDBRANCH  26  27
ENDBRANCH   1  26
TORSDOF 25
ENDMDL
MODEL 3
REMARK VINA RESULT:     -10.0      6.359     12.022
REMARK SMILES CN(C)S(=O)(=O)c1ccc(N(CC(=O)OCCOCCOCCOC(=O)c2ccc(-c3c4nc(c(-c5c(F)cc(S(=O)(=O)[O-])cc5F)c5ccc([nH]5)c(-c5c(F)cc(S(=O)(=O)[O-])cc5F)c5nc(c(-c6c(F)cc(S(=O)(=O)[O-])cc6F)c6ccc3[nH]6)C=C5)C=C4)cc2)C(C)(C)C)cc1
REMARK SMILES IDX 19 1 18 2 17 3 16 4 15 5 13 6 14 7 12 8 11 9 10 10 7 11 8 12
REMARK SMILES IDX 98 13 9 14 97 15 4 16 5 17 6 18 2 19 1 20 3 21 93 22 94 23
REMARK SMILES IDX 95 24 96 25 20 26 21 27 22 28 23 29 24 30 25 31 26 32 27 33
REMARK SMILES IDX 28 34 92 35 29 36 91 37 30 38 31 39 32 40 85 41 33 42 90 43
REMARK SMILES IDX 84 44 86 45 34 46 89 47 83 48 82 49 35 51 69 52 48 53 68 54
REMARK SMILES IDX 49 55 52 56 67 57 87 58 50 59 51 60 66 62 88 63 53 64 36 65
REMARK SMILES IDX 37 66 46 67 38 68 39 69 45 70 47 71 40 72 41 73 42 74 43 75
REMARK SMILES IDX 44 76 70 77 71 78 80 79 72 80 73 81 79 82 81 83 74 84 75 85
REMARK SMILES IDX 76 86 77 87 78 88 54 89 55 90 64 91 56 92 57 93 63 94 65 95
REMARK SMILES IDX 58 96 59 97 60 98 61 99 62 100
REMARK H PARENT 86 50 52 61
REMARK Flexibility Score: inf
ROOT
ATOM      1  C   UNL A   1      42.350  21.197  26.369  1.00  0.00     0.188 C 
ENDROOT
BRANCH   1   2
ATOM      2  O   UNL A   1      41.150  21.948  26.469  1.00  0.00    -0.376 OA
BRANCH   2   3
ATOM      3  C   UNL A   1      39.963  21.427  25.895  1.00  0.00     0.202 C 
BRANCH   3   4
ATOM      4  C   UNL A   1      38.659  22.216  26.106  1.00  0.00     0.261 C 
BRANCH   4   5
ATOM      5  O   UNL A   1      37.840  22.421  24.923  1.00  0.00    -0.462 OA
BRANCH   5   6
ATOM      6  C   UNL A   1      36.798  21.567  24.749  1.00  0.00     0.325 C 
ATOM      7  O   UNL A   1      36.818  20.406  25.164  1.00  0.00    -0.250 OA
BRANCH   6   8
ATOM      8  C   UNL A   1      35.520  22.102  24.064  1.00  0.00     0.239 C 
BRANCH   8   9
ATOM      9  N   UNL A   1      34.308  22.526  24.859  1.00  0.00    -0.356 N 
BRANCH   9  10
ATOM     10  C   UNL A   1      33.976  23.897  24.849  1.00  0.00     0.038 A 
ATOM     11  C   UNL A   1      33.630  26.730  24.793  1.00  0.00     0.082 A 
ATOM     12  C   UNL A   1      33.659  26.051  26.007  1.00  0.00     0.024 A 
ATOM     13  C   UNL A   1      33.655  26.016  23.612  1.00  0.00     0.024 A 
ATOM     14  C   UNL A   1      33.838  24.656  26.026  1.00  0.00     0.027 A 
ATOM     15  C   UNL A   1      33.789  24.627  23.660  1.00  0.00     0.027 A 
BRANCH  11  16
ATOM     16  S   UNL A   1      33.505  28.494  24.738  1.00  0.00     0.242 S 
ATOM     17  O   UNL A   1      33.671  28.920  23.368  1.00  0.00    -0.207 OA
ATOM     18  O   UNL A   1      34.352  29.036  25.787  1.00  0.00    -0.207 OA
BRANCH  16  19
ATOM     19  N   UNL A   1      31.877  28.780  25.194  1.00  0.00    -0.204 NA
ATOM     20  C   UNL A   1      31.764  29.557  26.446  1.00  0.00     0.124 C 
ATOM     21  C   UNL A   1      31.006  29.316  24.124  1.00  0.00     0.124 C 
ENDBRANCH  16  19
ENDBRANCH  11  16
ENDBRANCH   9  10
BRANCH   9  22
ATOM     22  C   UNL A   1      33.272  21.483  25.262  1.00  0.00     0.032 C 
ATOM     23  C   UNL A   1      33.474  21.076  26.750  1.00  0.00     0.034 C 
ATOM     24  C   UNL A   1      31.804  21.909  25.003  1.00  0.00     0.034 C 
ATOM     25  C   UNL A   1      33.374  20.207  24.412  1.00  0.00     0.034 C 
ENDBRANCH   9  22
ENDBRANCH   8   9
ENDBRANCH   6   8
ENDBRANCH   5   6
ENDBRANCH   4   5
ENDBRANCH   3   4
ENDBRANCH   2   3
ENDBRANCH   1   2
BRANCH   1  26
ATOM     26  C   UNL A   1      43.708  21.912  26.273  1.00  0.00     0.188 C 
BRANCH  26  27
ATOM     27  O   UNL A   1      44.100  22.416  25.027  1.00  0.00    -0.376 OA
BRANCH  27  28
ATOM     28  C   UNL A   1      43.766  23.720  24.618  1.00  0.00     0.202 C 
BRANCH  28  29
ATOM     29  C   UNL A   1      44.163  25.010  25.352  1.00  0.00     0.261 C 
BRANCH  29  30
ATOM     30  O   UNL A   1      43.510  26.232  24.976  1.00  0.00    -0.460 OA
BRANCH  30  31
ATOM     31  C   UNL A   1      42.379  26.480  25.684  1.00  0.00     0.338 C 
ATOM     32  O   UNL A   1      41.230  26.295  25.312  1.00  0.00    -0.246 OA
BRANCH  31  33
ATOM     33  C   UNL A   1      42.648  26.884  27.073  1.00  0.00     0.060 A 
ATOM     34  C   UNL A   1      41.973  26.198  28.074  1.00  0.00     0.016 A 
ATOM     35  C   UNL A   1      43.226  28.115  27.356  1.00  0.00     0.016 A 
ATOM     36  C   UNL A   1      41.698  26.800  29.295  1.00  0.00     0.010 A 
ATOM     37  C   UNL A   1      43.062  28.670  28.634  1.00  0.00     0.010 A 
ATOM     38  C   UNL A   1      42.226  28.058  29.590  1.00  0.00    -0.014 A 
BRANCH  38  39
ATOM     39  C   UNL A   1      41.803  28.781  30.827  1.00  0.00     0.031 A 
ATOM     40  C   UNL A   1      40.556  29.633  30.799  1.00  0.00     0.074 A 
ATOM     41  C   UNL A   1      42.489  28.650  31.983  1.00  0.00     0.049 A 
ATOM     42  N   UNL A   1      40.126  30.509  31.670  1.00  0.00    -0.248 NA
ATOM     43  C   UNL A   1      39.684  29.491  29.620  1.00  0.00     0.031 C 
ATOM     44  C   UNL A   1      43.655  27.787  32.189  1.00  0.00     0.029 A 
ATOM     45  N   UNL A   1      42.302  29.244  33.208  1.00  0.00    -0.354 N 
ATOM     46  C   UNL A   1      38.979  31.069  31.115  1.00  0.00     0.074 A 
ATOM     47  C   UNL A   1      38.785  30.442  29.827  1.00  0.00     0.031 C 
ATOM     48  C   UNL A   1      44.063  27.890  33.463  1.00  0.00     0.029 A 
ATOM     49  C   UNL A   1      43.259  28.901  34.137  1.00  0.00     0.049 A 
ATOM     50  H   UNL A   1      41.557  29.857  33.402  1.00  0.00     0.167 HD
ATOM     51  C   UNL A   1      38.165  32.021  31.633  1.00  0.00     0.037 A 
ATOM     52  C   UNL A   1      43.503  29.386  35.370  1.00  0.00     0.037 A 
ATOM     53  C   UNL A   1      38.341  32.598  32.943  1.00  0.00     0.049 A 
ATOM     54  C   UNL A   1      42.625  30.486  35.902  1.00  0.00     0.074 A 
ATOM     55  C   UNL A   1      37.578  33.569  33.567  1.00  0.00     0.029 A 
ATOM     56  N   UNL A   1      39.344  32.245  33.834  1.00  0.00    -0.354 N 
ATOM     57  N   UNL A   1      41.589  31.062  35.338  1.00  0.00    -0.248 NA
ATOM     58  C   UNL A   1      42.956  31.012  37.232  1.00  0.00     0.031 C 
ATOM     59  C   UNL A   1      38.151  33.840  34.814  1.00  0.00     0.029 A 
ATOM     60  C   UNL A   1      39.233  32.993  34.996  1.00  0.00     0.049 A 
ATOM     61  H   UNL A   1      40.033  31.563  33.667  1.00  0.00     0.167 HD
ATOM     62  C   UNL A   1      41.130  32.001  36.254  1.00  0.00     0.074 A 
ATOM     63  C   UNL A   1      41.988  31.898  37.418  1.00  0.00     0.031 C 
ATOM     64  C   UNL A   1      40.096  32.873  36.145  1.00  0.00     0.037 A 
BRANCH  51  65
ATOM     65  C   UNL A   1      37.042  32.534  30.767  1.00  0.00     0.058 A 
ATOM     66  C   UNL A   1      37.205  33.607  29.877  1.00  0.00     0.135 A 
ATOM     67  C   UNL A   1      35.777  31.923  30.823  1.00  0.00     0.135 A 
ATOM     68  F   UNL A   1      38.385  34.243  29.793  1.00  0.00    -0.206 F 
ATOM     69  C   UNL A   1      36.149  34.077  29.101  1.00  0.00     0.059 A 
ATOM     70  C   UNL A   1      34.715  32.356  30.032  1.00  0.00     0.059 A 
ATOM     71  F   UNL A   1      35.559  30.894  31.657  1.00  0.00    -0.206 F 
ATOM     72  C   UNL A   1      34.907  33.445  29.186  1.00  0.00     0.060 A 
BRANCH  72  73
ATOM     73  S   UNL A   1      33.547  34.070  28.176  1.00  0.00     0.124 S 
ATOM     74  O   UNL A   1      34.244  35.001  27.292  1.00  0.00    -0.237 OA
ATOM     75  O   UNL A   1      33.043  32.854  27.546  1.00  0.00    -0.237 OA
ATOM     76  O   UNL A   1      32.651  34.685  29.152  1.00  0.00    -0.744 OA
ENDBRANCH  72  73
ENDBRANCH  51  65
BRANCH  52  77
ATOM     77  C   UNL A   1      44.656  28.875  36.164  1.00  0.00     0.058 A 
ATOM     78  C   UNL A   1      45.920  29.478  36.080  1.00  0.00     0.135 A 
ATOM     79  C   UNL A   1      44.519  27.773  37.025  1.00  0.00     0.135 A 
ATOM     80  F   UNL A   1      46.110  30.525  35.264  1.00  0.00    -0.206 F 
ATOM     81  C   UNL A   1      47.007  28.999  36.805  1.00  0.00     0.059 A 
ATOM     82  C   UNL A   1      45.582  27.299  37.787  1.00  0.00     0.059 A 
ATOM     83  F   UNL A   1      43.330  27.163  37.153  1.00  0.00    -0.206 F 
ATOM     84  C   UNL A   1      46.826  27.912  37.661  1.00  0.00     0.060 A 
BRANCH  84  85
ATOM     85  S   UNL A   1      48.233  27.330  38.633  1.00  0.00     0.124 S 
ATOM     86  O   UNL A   1      49.169  28.439  38.488  1.00  0.00    -0.237 OA
ATOM     87  O   UNL A   1      47.640  27.162  39.956  1.00  0.00    -0.237 OA
ATOM     88  O   UNL A   1      48.614  26.090  37.963  1.00  0.00    -0.744 OA
ENDBRANCH  84  85
ENDBRANCH  52  77
BRANCH  64  89
ATOM     89  C   UNL A   1      39.810  33.749  37.335  1.00  0.00     0.058 A 
ATOM     90  C   UNL A   1      40.393  35.018  37.480  1.00  0.00     0.135 A 
ATOM     91  C   UNL A   1      38.932  33.313  38.340  1.00  0.00     0.135 A 
ATOM     92  F   UNL A   1      41.246  35.481  36.552  1.00  0.00    -0.206 F 
ATOM     93  C   UNL A   1      40.149  35.805  38.602  1.00  0.00     0.059 A 
ATOM     94  C   UNL A   1      38.645  34.098  39.452  1.00  0.00     0.059 A 
ATOM     95  F   UNL A   1      38.336  32.114  38.245  1.00  0.00    -0.206 F 
ATOM     96  C   UNL A   1      39.275  35.334  39.583  1.00  0.00     0.060 A 
BRANCH  96  97
ATOM     97  S   UNL A   1      38.969  36.363  41.034  1.00  0.00     0.124 S 
ATOM     98  O   UNL A   1      40.283  36.371  41.670  1.00  0.00    -0.237 OA
ATOM     99  O   UNL A   1      38.545  37.625  40.438  1.00  0.00    -0.237 OA
ATOM    100  O   UNL A   1      37.928  35.635  41.754  1.00  0.00    -0.744 OA
ENDBRANCH  96  97
ENDBRANCH  64  89
ENDBRANCH  38  39
ENDBRANCH  31  33
ENDBRANCH  30  31
ENDBRANCH  29  30
ENDBRANCH  28  29
ENDBRANCH  27  28
ENDBRANCH  26  27
ENDBRANCH   1  26
TORSDOF 25
ENDMDL
