MODEL 1
REMARK VINA RESULT:      -9.8      0.000      0.000
REMARK SMILES CC(=O)Nc1sc(-c2ccccc2)cc1C(=O)OCCOCCOCCOC(=O)c1ccc(-c2c3nc(c(-c4c(F)cc(S(=O)(=O)[O-])cc4F)c4ccc([nH]4)c(-c4c(F)cc(S(=O)(=O)[O-])cc4F)c4nc(c(-c5c(F)cc(S(=O)(=O)[O-])cc5F)c5ccc2[nH]5)C=C4)C=C3)cc1
REMARK SMILES IDX 23 1 22 2 21 3 20 4 19 5 18 6 16 7 17 8 15 9 5 10 6 11 7 12
REMARK SMILES IDX 14 13 4 14 1 15 2 16 3 17 8 19 9 20 13 21 10 22 12 23 11 24
REMARK SMILES IDX 24 25 25 26 26 27 27 28 28 29 29 30 30 31 31 32 95 33 32 34
REMARK SMILES IDX 94 35 33 36 34 37 35 38 88 39 36 40 93 41 87 42 89 43 37 44
REMARK SMILES IDX 92 45 86 46 85 47 38 49 72 50 51 51 71 52 52 53 55 54 70 55
REMARK SMILES IDX 90 56 53 57 54 58 69 60 91 61 56 62 39 63 40 64 49 65 41 66
REMARK SMILES IDX 42 67 48 68 50 69 43 70 44 71 45 72 46 73 47 74 73 75 74 76
REMARK SMILES IDX 83 77 75 78 76 79 82 80 84 81 77 82 78 83 79 84 80 85 81 86
REMARK SMILES IDX 57 87 58 88 67 89 59 90 60 91 66 92 68 93 61 94 62 95 63 96
REMARK SMILES IDX 64 97 65 98
REMARK H PARENT 4 18 89 48 55 59
REMARK Flexibility Score: inf
ROOT
ATOM      1  C   UNL A   1      35.128  20.724  24.998  1.00  0.00     0.188 C 
ENDROOT
BRANCH   1   2
ATOM      2  C   UNL A   1      34.051  20.970  26.074  1.00  0.00     0.188 C 
BRANCH   2   3
ATOM      3  O   UNL A   1      34.291  21.985  27.046  1.00  0.00    -0.376 OA
BRANCH   3   4
ATOM      4  C   UNL A   1      33.185  22.526  27.766  1.00  0.00     0.202 C 
BRANCH   4   5
ATOM      5  C   UNL A   1      32.014  23.042  26.928  1.00  0.00     0.261 C 
BRANCH   5   6
ATOM      6  O   UNL A   1      32.196  24.417  26.549  1.00  0.00    -0.460 OA
BRANCH   6   7
ATOM      7  C   UNL A   1      32.706  24.633  25.304  1.00  0.00     0.341 C 
ATOM      8  O   UNL A   1      32.790  23.780  24.429  1.00  0.00    -0.246 OA
BRANCH   7   9
ATOM      9  C   UNL A   1      33.029  26.033  25.063  1.00  0.00     0.095 A 
ATOM     10  C   UNL A   1      33.488  26.612  23.894  1.00  0.00     0.110 A 
ATOM     11  S   UNL A   1      34.035  28.216  24.129  1.00  0.00    -0.117 S 
ATOM     12  C   UNL A   1      33.492  28.242  25.744  1.00  0.00     0.037 A 
ATOM     13  C   UNL A   1      32.987  27.016  26.118  1.00  0.00     0.038 A 
BRANCH  10  14
ATOM     14  N   UNL A   1      33.657  26.219  22.588  1.00  0.00    -0.317 N 
ATOM     15  C   UNL A   1      31.278  26.236  21.837  1.00  0.00     0.114 C 
ATOM     16  C   UNL A   1      32.730  25.889  21.646  1.00  0.00     0.221 C 
ATOM     17  O   UNL A   1      33.109  25.384  20.586  1.00  0.00    -0.275 OA
ATOM     18  H   UNL A   1      34.593  26.167  22.287  1.00  0.00     0.170 HD
ENDBRANCH  10  14
BRANCH  12  19
ATOM     19  C   UNL A   1      33.618  29.453  26.550  1.00  0.00    -0.008 A 
ATOM     20  C   UNL A   1      34.811  29.723  27.232  1.00  0.00     0.009 A 
ATOM     21  C   UNL A   1      32.575  30.386  26.599  1.00  0.00     0.009 A 
ATOM     22  C   UNL A   1      34.960  30.909  27.953  1.00  0.00     0.001 A 
ATOM     23  C   UNL A   1      32.723  31.571  27.322  1.00  0.00     0.001 A 
ATOM     24  C   UNL A   1      33.917  31.833  27.995  1.00  0.00     0.000 A 
ENDBRANCH  12  19
ENDBRANCH   7   9
ENDBRANCH   6   7
ENDBRANCH   5   6
ENDBRANCH   4   5
ENDBRANCH   3   4
ENDBRANCH   2   3
ENDBRANCH   1   2
BRANCH   1  25
ATOM     25  O   UNL A   1      35.380  21.866  24.200  1.00  0.00    -0.376 OA
BRANCH  25  26
ATOM     26  C   UNL A   1      36.711  22.344  24.131  1.00  0.00     0.202 C 
BRANCH  26  27
ATOM     27  C   UNL A   1      37.773  21.686  25.025  1.00  0.00     0.261 C 
BRANCH  27  28
ATOM     28  O   UNL A   1      38.157  22.410  26.201  1.00  0.00    -0.460 OA
BRANCH  28  29
ATOM     29  C   UNL A   1      39.480  22.546  26.439  1.00  0.00     0.338 C 
ATOM     30  O   UNL A   1      40.351  21.732  26.199  1.00  0.00    -0.246 OA
BRANCH  29  31
ATOM     31  C   UNL A   1      39.717  23.940  26.880  1.00  0.00     0.060 A 
ATOM     32  C   UNL A   1      40.129  24.886  25.933  1.00  0.00     0.016 A 
ATOM     33  C   UNL A   1      39.529  24.314  28.216  1.00  0.00     0.016 A 
ATOM     34  C   UNL A   1      40.397  26.198  26.332  1.00  0.00     0.010 A 
ATOM     35  C   UNL A   1      39.812  25.623  28.615  1.00  0.00     0.010 A 
ATOM     36  C   UNL A   1      40.283  26.561  27.681  1.00  0.00    -0.014 A 
BRANCH  36  37
ATOM     37  C   UNL A   1      40.865  27.842  28.150  1.00  0.00     0.031 A 
ATOM     38  C   UNL A   1      42.361  28.003  28.083  1.00  0.00     0.074 A 
ATOM     39  C   UNL A   1      40.095  28.843  28.614  1.00  0.00     0.049 A 
ATOM     40  N   UNL A   1      43.106  29.015  28.446  1.00  0.00    -0.248 NA
ATOM     41  C   UNL A   1      43.118  26.866  27.531  1.00  0.00     0.031 C 
ATOM     42  C   UNL A   1      38.637  28.818  28.709  1.00  0.00     0.029 A 
ATOM     43  N   UNL A   1      40.445  30.077  29.102  1.00  0.00    -0.354 N 
ATOM     44  C   UNL A   1      44.413  28.639  28.164  1.00  0.00     0.074 A 
ATOM     45  C   UNL A   1      44.366  27.298  27.625  1.00  0.00     0.031 C 
ATOM     46  C   UNL A   1      38.216  29.981  29.239  1.00  0.00     0.029 A 
ATOM     47  C   UNL A   1      39.375  30.823  29.537  1.00  0.00     0.049 A 
ATOM     48  H   UNL A   1      41.374  30.399  29.138  1.00  0.00     0.167 HD
ATOM     49  C   UNL A   1      45.553  29.349  28.331  1.00  0.00     0.037 A 
ATOM     50  C   UNL A   1      39.340  32.037  30.122  1.00  0.00     0.037 A 
ATOM     51  C   UNL A   1      45.606  30.675  28.882  1.00  0.00     0.049 A 
ATOM     52  C   UNL A   1      40.628  32.789  30.348  1.00  0.00     0.074 A 
ATOM     53  C   UNL A   1      46.713  31.478  29.092  1.00  0.00     0.029 A 
ATOM     54  N   UNL A   1      44.502  31.391  29.317  1.00  0.00    -0.354 N 
ATOM     55  N   UNL A   1      41.856  32.433  30.049  1.00  0.00    -0.248 NA
ATOM     56  C   UNL A   1      40.527  34.109  30.988  1.00  0.00     0.031 C 
ATOM     57  C   UNL A   1      46.280  32.669  29.686  1.00  0.00     0.029 A 
ATOM     58  C   UNL A   1      44.901  32.622  29.808  1.00  0.00     0.049 A 
ATOM     59  H   UNL A   1      43.572  31.071  29.283  1.00  0.00     0.167 HD
ATOM     60  C   UNL A   1      42.666  33.496  30.435  1.00  0.00     0.074 A 
ATOM     61  C   UNL A   1      41.791  34.510  30.986  1.00  0.00     0.031 C 
ATOM     62  C   UNL A   1      44.012  33.626  30.337  1.00  0.00     0.037 A 
BRANCH  49  63
ATOM     63  C   UNL A   1      46.839  28.686  27.928  1.00  0.00     0.058 A 
ATOM     64  C   UNL A   1      47.293  28.717  26.600  1.00  0.00     0.135 A 
ATOM     65  C   UNL A   1      47.626  28.018  28.878  1.00  0.00     0.135 A 
ATOM     66  F   UNL A   1      46.564  29.323  25.649  1.00  0.00    -0.206 F 
ATOM     67  C   UNL A   1      48.474  28.087  26.223  1.00  0.00     0.059 A 
ATOM     68  C   UNL A   1      48.822  27.399  28.527  1.00  0.00     0.059 A 
ATOM     69  F   UNL A   1      47.229  27.953  30.158  1.00  0.00    -0.206 F 
ATOM     70  C   UNL A   1      49.229  27.427  27.194  1.00  0.00     0.060 A 
BRANCH  70  71
ATOM     71  S   UNL A   1      50.757  26.609  26.691  1.00  0.00     0.124 S 
ATOM     72  O   UNL A   1      50.325  25.218  26.599  1.00  0.00    -0.237 OA
ATOM     73  O   UNL A   1      51.063  27.262  25.423  1.00  0.00    -0.237 OA
ATOM     74  O   UNL A   1      51.678  26.909  27.785  1.00  0.00    -0.744 OA
ENDBRANCH  70  71
ENDBRANCH  49  63
BRANCH  50  75
ATOM     75  C   UNL A   1      38.042  32.626  30.544  1.00  0.00     0.058 A 
ATOM     76  C   UNL A   1      37.267  33.386  29.654  1.00  0.00     0.135 A 
ATOM     77  C   UNL A   1      37.559  32.457  31.850  1.00  0.00     0.135 A 
ATOM     78  F   UNL A   1      37.693  33.586  28.398  1.00  0.00    -0.206 F 
ATOM     79  C   UNL A   1      36.068  33.971  30.048  1.00  0.00     0.059 A 
ATOM     80  C   UNL A   1      36.352  33.014  32.262  1.00  0.00     0.059 A 
ATOM     81  F   UNL A   1      38.260  31.734  32.737  1.00  0.00    -0.206 F 
ATOM     82  C   UNL A   1      35.619  33.780  31.357  1.00  0.00     0.060 A 
BRANCH  82  83
ATOM     83  S   UNL A   1      34.042  34.511  31.850  1.00  0.00     0.124 S 
ATOM     84  O   UNL A   1      33.577  33.556  32.848  1.00  0.00    -0.237 OA
ATOM     85  O   UNL A   1      34.452  35.816  32.356  1.00  0.00    -0.237 OA
ATOM     86  O   UNL A   1      33.285  34.541  30.602  1.00  0.00    -0.744 OA
ENDBRANCH  82  83
ENDBRANCH  50  75
BRANCH  62  87
ATOM     87  C   UNL A   1      44.623  34.921  30.791  1.00  0.00     0.058 A 
ATOM     88  C   UNL A   1      44.754  36.019  29.928  1.00  0.00     0.135 A 
ATOM     89  C   UNL A   1      45.022  35.084  32.128  1.00  0.00     0.135 A 
ATOM     90  F   UNL A   1      44.390  35.913  28.640  1.00  0.00    -0.206 F 
ATOM     91  C   UNL A   1      45.277  37.230  30.369  1.00  0.00     0.059 A 
ATOM     92  C   UNL A   1      45.528  36.292  32.596  1.00  0.00     0.059 A 
ATOM     93  F   UNL A   1      44.906  34.067  32.996  1.00  0.00    -0.206 F 
ATOM     94  C   UNL A   1      45.661  37.357  31.706  1.00  0.00     0.060 A 
BRANCH  94  95
ATOM     95  S   UNL A   1      46.302  38.945  32.280  1.00  0.00     0.124 S 
ATOM     96  O   UNL A   1      47.528  38.538  32.958  1.00  0.00    -0.237 OA
ATOM     97  O   UNL A   1      46.482  39.683  31.035  1.00  0.00    -0.237 OA
ATOM     98  O   UNL A   1      45.239  39.444  33.149  1.00  0.00    -0.744 OA
ENDBRANCH  94  95
ENDBRANCH  62  87
ENDBRANCH  36  37
ENDBRANCH  29  31
ENDBRANCH  28  29
ENDBRANCH  27  28
ENDBRANCH  26  27
ENDBRANCH  25  26
ENDBRANCH   1  25
TORSDOF 22
ENDMDL
MODEL 2
REMARK VINA RESULT:      -9.8      4.656      5.709
REMARK SMILES CC(=O)Nc1sc(-c2ccccc2)cc1C(=O)OCCOCCOCCOC(=O)c1ccc(-c2c3nc(c(-c4c(F)cc(S(=O)(=O)[O-])cc4F)c4ccc([nH]4)c(-c4c(F)cc(S(=O)(=O)[O-])cc4F)c4nc(c(-c5c(F)cc(S(=O)(=O)[O-])cc5F)c5ccc2[nH]5)C=C4)C=C3)cc1
REMARK SMILES IDX 23 1 22 2 21 3 20 4 19 5 18 6 16 7 17 8 15 9 5 10 6 11 7 12
REMARK SMILES IDX 14 13 4 14 1 15 2 16 3 17 8 19 9 20 13 21 10 22 12 23 11 24
REMARK SMILES IDX 24 25 25 26 26 27 27 28 28 29 29 30 30 31 31 32 95 33 32 34
REMARK SMILES IDX 94 35 33 36 34 37 35 38 88 39 36 40 93 41 87 42 89 43 37 44
REMARK SMILES IDX 92 45 86 46 85 47 38 49 72 50 51 51 71 52 52 53 55 54 70 55
REMARK SMILES IDX 90 56 53 57 54 58 69 60 91 61 56 62 39 63 40 64 49 65 41 66
REMARK SMILES IDX 42 67 48 68 50 69 43 70 44 71 45 72 46 73 47 74 73 75 74 76
REMARK SMILES IDX 83 77 75 78 76 79 82 80 84 81 77 82 78 83 79 84 80 85 81 86
REMARK SMILES IDX 57 87 58 88 67 89 59 90 60 91 66 92 68 93 61 94 62 95 63 96
REMARK SMILES IDX 64 97 65 98
REMARK H PARENT 4 18 89 48 55 59
REMARK Flexibility Score: inf
ROOT
ATOM      1  C   UNL A   1      37.331  20.800  25.270  1.00  0.00     0.188 C 
ENDROOT
BRANCH   1   2
ATOM      2  C   UNL A   1      36.106  21.522  24.675  1.00  0.00     0.188 C 
BRANCH   2   3
ATOM      3  O   UNL A   1      34.808  21.094  25.083  1.00  0.00    -0.376 OA
BRANCH   3   4
ATOM      4  C   UNL A   1      34.360  21.409  26.399  1.00  0.00     0.202 C 
BRANCH   4   5
ATOM      5  C   UNL A   1      33.252  22.458  26.509  1.00  0.00     0.261 C 
BRANCH   5   6
ATOM      6  O   UNL A   1      33.336  23.432  25.455  1.00  0.00    -0.460 OA
BRANCH   6   7
ATOM      7  C   UNL A   1      32.325  24.344  25.399  1.00  0.00     0.341 C 
ATOM      8  O   UNL A   1      31.156  24.104  25.680  1.00  0.00    -0.246 OA
BRANCH   7   9
ATOM      9  C   UNL A   1      32.794  25.688  25.093  1.00  0.00     0.095 A 
ATOM     10  C   UNL A   1      33.352  26.148  23.915  1.00  0.00     0.110 A 
ATOM     11  S   UNL A   1      34.047  27.703  24.082  1.00  0.00    -0.117 S 
ATOM     12  C   UNL A   1      33.447  27.880  25.667  1.00  0.00     0.037 A 
ATOM     13  C   UNL A   1      32.809  26.734  26.088  1.00  0.00     0.038 A 
BRANCH  10  14
ATOM     14  N   UNL A   1      33.532  25.661  22.641  1.00  0.00    -0.317 N 
ATOM     15  C   UNL A   1      31.347  26.319  21.633  1.00  0.00     0.114 C 
ATOM     16  C   UNL A   1      32.648  25.564  21.609  1.00  0.00     0.221 C 
ATOM     17  O   UNL A   1      32.971  24.922  20.606  1.00  0.00    -0.275 OA
ATOM     18  H   UNL A   1      34.438  25.331  22.447  1.00  0.00     0.170 HD
ENDBRANCH  10  14
BRANCH  12  19
ATOM     19  C   UNL A   1      33.661  29.119  26.407  1.00  0.00    -0.008 A 
ATOM     20  C   UNL A   1      32.640  30.076  26.488  1.00  0.00     0.009 A 
ATOM     21  C   UNL A   1      34.860  29.339  27.095  1.00  0.00     0.009 A 
ATOM     22  C   UNL A   1      32.816  31.234  27.246  1.00  0.00     0.001 A 
ATOM     23  C   UNL A   1      35.037  30.500  27.852  1.00  0.00     0.001 A 
ATOM     24  C   UNL A   1      34.013  31.444  27.929  1.00  0.00     0.000 A 
ENDBRANCH  12  19
ENDBRANCH   7   9
ENDBRANCH   6   7
ENDBRANCH   5   6
ENDBRANCH   4   5
ENDBRANCH   3   4
ENDBRANCH   2   3
ENDBRANCH   1   2
BRANCH   1  25
ATOM     25  O   UNL A   1      38.469  21.636  25.370  1.00  0.00    -0.376 OA
BRANCH  25  26
ATOM     26  C   UNL A   1      39.585  21.152  26.095  1.00  0.00     0.202 C 
BRANCH  26  27
ATOM     27  C   UNL A   1      40.323  22.118  27.034  1.00  0.00     0.261 C 
BRANCH  27  28
ATOM     28  O   UNL A   1      40.267  23.509  26.694  1.00  0.00    -0.460 OA
BRANCH  28  29
ATOM     29  C   UNL A   1      41.399  24.231  26.853  1.00  0.00     0.338 C 
ATOM     30  O   UNL A   1      42.465  24.047  26.297  1.00  0.00    -0.246 OA
BRANCH  29  31
ATOM     31  C   UNL A   1      41.069  25.406  27.692  1.00  0.00     0.060 A 
ATOM     32  C   UNL A   1      41.991  26.458  27.772  1.00  0.00     0.016 A 
ATOM     33  C   UNL A   1      39.858  25.475  28.390  1.00  0.00     0.016 A 
ATOM     34  C   UNL A   1      41.721  27.559  28.587  1.00  0.00     0.010 A 
ATOM     35  C   UNL A   1      39.597  26.572  29.217  1.00  0.00     0.010 A 
ATOM     36  C   UNL A   1      40.544  27.601  29.347  1.00  0.00    -0.014 A 
BRANCH  36  37
ATOM     37  C   UNL A   1      40.407  28.597  30.438  1.00  0.00     0.031 A 
ATOM     38  C   UNL A   1      41.300  28.451  31.642  1.00  0.00     0.074 A 
ATOM     39  C   UNL A   1      39.525  29.610  30.366  1.00  0.00     0.049 A 
ATOM     40  N   UNL A   1      41.359  29.180  32.726  1.00  0.00    -0.248 NA
ATOM     41  C   UNL A   1      42.256  27.330  31.616  1.00  0.00     0.031 C 
ATOM     42  C   UNL A   1      38.622  29.871  29.248  1.00  0.00     0.029 A 
ATOM     43  N   UNL A   1      39.244  30.606  31.268  1.00  0.00    -0.354 N 
ATOM     44  C   UNL A   1      42.357  28.609  33.507  1.00  0.00     0.074 A 
ATOM     45  C   UNL A   1      42.859  27.459  32.788  1.00  0.00     0.031 C 
ATOM     46  C   UNL A   1      37.874  30.952  29.536  1.00  0.00     0.029 A 
ATOM     47  C   UNL A   1      38.232  31.446  30.865  1.00  0.00     0.049 A 
ATOM     48  H   UNL A   1      39.721  30.710  32.122  1.00  0.00     0.167 HD
ATOM     49  C   UNL A   1      42.821  29.010  34.714  1.00  0.00     0.037 A 
ATOM     50  C   UNL A   1      37.655  32.481  31.506  1.00  0.00     0.037 A 
ATOM     51  C   UNL A   1      42.314  30.142  35.440  1.00  0.00     0.049 A 
ATOM     52  C   UNL A   1      38.151  32.878  32.874  1.00  0.00     0.074 A 
ATOM     53  C   UNL A   1      42.718  30.629  36.670  1.00  0.00     0.029 A 
ATOM     54  N   UNL A   1      41.284  30.960  35.001  1.00  0.00    -0.354 N 
ATOM     55  N   UNL A   1      39.116  32.348  33.589  1.00  0.00    -0.248 NA
ATOM     56  C   UNL A   1      37.484  34.018  33.521  1.00  0.00     0.031 C 
ATOM     57  C   UNL A   1      41.908  31.725  36.991  1.00  0.00     0.029 A 
ATOM     58  C   UNL A   1      41.029  31.942  35.943  1.00  0.00     0.049 A 
ATOM     59  H   UNL A   1      40.805  30.858  34.148  1.00  0.00     0.167 HD
ATOM     60  C   UNL A   1      39.191  33.107  34.753  1.00  0.00     0.074 A 
ATOM     61  C   UNL A   1      38.176  34.135  34.647  1.00  0.00     0.031 C 
ATOM     62  C   UNL A   1      40.026  32.969  35.811  1.00  0.00     0.037 A 
BRANCH  49  63
ATOM     63  C   UNL A   1      43.924  28.197  35.329  1.00  0.00     0.058 A 
ATOM     64  C   UNL A   1      45.274  28.501  35.096  1.00  0.00     0.135 A 
ATOM     65  C   UNL A   1      43.628  27.108  36.162  1.00  0.00     0.135 A 
ATOM     66  F   UNL A   1      45.609  29.519  34.286  1.00  0.00    -0.206 F 
ATOM     67  C   UNL A   1      46.295  27.737  35.650  1.00  0.00     0.059 A 
ATOM     68  C   UNL A   1      44.634  26.343  36.745  1.00  0.00     0.059 A 
ATOM     69  F   UNL A   1      42.352  26.772  36.408  1.00  0.00    -0.206 F 
ATOM     70  C   UNL A   1      45.964  26.657  36.470  1.00  0.00     0.060 A 
BRANCH  70  71
ATOM     71  S   UNL A   1      47.298  25.670  37.179  1.00  0.00     0.124 S 
ATOM     72  O   UNL A   1      48.359  26.664  37.306  1.00  0.00    -0.237 OA
ATOM     73  O   UNL A   1      46.714  25.204  38.433  1.00  0.00    -0.237 OA
ATOM     74  O   UNL A   1      47.525  24.634  36.175  1.00  0.00    -0.744 OA
ENDBRANCH  70  71
ENDBRANCH  49  63
BRANCH  50  75
ATOM     75  C   UNL A   1      36.534  33.223  30.869  1.00  0.00     0.058 A 
ATOM     76  C   UNL A   1      36.769  34.155  29.847  1.00  0.00     0.135 A 
ATOM     77  C   UNL A   1      35.207  33.027  31.282  1.00  0.00     0.135 A 
ATOM     78  F   UNL A   1      38.023  34.386  29.427  1.00  0.00    -0.206 F 
ATOM     79  C   UNL A   1      35.733  34.880  29.268  1.00  0.00     0.059 A 
ATOM     80  C   UNL A   1      34.151  33.724  30.703  1.00  0.00     0.059 A 
ATOM     81  F   UNL A   1      34.930  32.142  32.251  1.00  0.00    -0.206 F 
ATOM     82  C   UNL A   1      34.425  34.657  29.705  1.00  0.00     0.060 A 
BRANCH  82  83
ATOM     83  S   UNL A   1      33.079  35.574  28.922  1.00  0.00     0.124 S 
ATOM     84  O   UNL A   1      32.376  34.512  28.213  1.00  0.00    -0.237 OA
ATOM     85  O   UNL A   1      32.384  36.144  30.071  1.00  0.00    -0.237 OA
ATOM     86  O   UNL A   1      33.780  36.540  28.081  1.00  0.00    -0.744 OA
ENDBRANCH  82  83
ENDBRANCH  50  75
BRANCH  62  87
ATOM     87  C   UNL A   1      39.917  33.976  36.921  1.00  0.00     0.058 A 
ATOM     88  C   UNL A   1      40.599  35.200  36.878  1.00  0.00     0.135 A 
ATOM     89  C   UNL A   1      39.065  33.736  38.011  1.00  0.00     0.135 A 
ATOM     90  F   UNL A   1      41.428  35.476  35.858  1.00  0.00    -0.206 F 
ATOM     91  C   UNL A   1      40.455  36.147  37.887  1.00  0.00     0.059 A 
ATOM     92  C   UNL A   1      38.889  34.677  39.020  1.00  0.00     0.059 A 
ATOM     93  F   UNL A   1      38.380  32.585  38.093  1.00  0.00    -0.206 F 
ATOM     94  C   UNL A   1      39.597  35.876  38.955  1.00  0.00     0.060 A 
BRANCH  94  95
ATOM     95  S   UNL A   1      39.385  37.127  40.240  1.00  0.00     0.124 S 
ATOM     96  O   UNL A   1      40.761  37.327  40.684  1.00  0.00    -0.237 OA
ATOM     97  O   UNL A   1      38.788  38.238  39.506  1.00  0.00    -0.237 OA
ATOM     98  O   UNL A   1      38.501  36.475  41.203  1.00  0.00    -0.744 OA
ENDBRANCH  94  95
ENDBRANCH  62  87
ENDBRANCH  36  37
ENDBRANCH  29  31
ENDBRANCH  28  29
ENDBRANCH  27  28
ENDBRANCH  26  27
ENDBRANCH  25  26
ENDBRANCH   1  25
TORSDOF 22
ENDMDL
MODEL 3
REMARK VINA RESULT:      -9.8      5.230      9.801
REMARK SMILES CC(=O)Nc1sc(-c2ccccc2)cc1C(=O)OCCOCCOCCOC(=O)c1ccc(-c2c3nc(c(-c4c(F)cc(S(=O)(=O)[O-])cc4F)c4ccc([nH]4)c(-c4c(F)cc(S(=O)(=O)[O-])cc4F)c4nc(c(-c5c(F)cc(S(=O)(=O)[O-])cc5F)c5ccc2[nH]5)C=C4)C=C3)cc1
REMARK SMILES IDX 23 1 22 2 21 3 20 4 19 5 18 6 16 7 17 8 15 9 5 10 6 11 7 12
REMARK SMILES IDX 14 13 4 14 1 15 2 16 3 17 8 19 9 20 13 21 10 22 12 23 11 24
REMARK SMILES IDX 24 25 25 26 26 27 27 28 28 29 29 30 30 31 31 32 95 33 32 34
REMARK SMILES IDX 94 35 33 36 34 37 35 38 88 39 36 40 93 41 87 42 89 43 37 44
REMARK SMILES IDX 92 45 86 46 85 47 38 49 72 50 51 51 71 52 52 53 55 54 70 55
REMARK SMILES IDX 90 56 53 57 54 58 69 60 91 61 56 62 39 63 40 64 49 65 41 66
REMARK SMILES IDX 42 67 48 68 50 69 43 70 44 71 45 72 46 73 47 74 73 75 74 76
REMARK SMILES IDX 83 77 75 78 76 79 82 80 84 81 77 82 78 83 79 84 80 85 81 86
REMARK SMILES IDX 57 87 58 88 67 89 59 90 60 91 66 92 68 93 61 94 62 95 63 96
REMARK SMILES IDX 64 97 65 98
REMARK H PARENT 4 18 89 48 55 59
REMARK Flexibility Score: inf
ROOT
ATOM      1  C   UNL A   1      42.289  19.747  26.429  1.00  0.00     0.188 C 
ENDROOT
BRANCH   1   2
ATOM      2  C   UNL A   1      40.783  20.041  26.571  1.00  0.00     0.188 C 
BRANCH   2   3
ATOM      3  O   UNL A   1      40.390  21.305  27.101  1.00  0.00    -0.376 OA
BRANCH   3   4
ATOM      4  C   UNL A   1      39.354  22.036  26.449  1.00  0.00     0.202 C 
BRANCH   4   5
ATOM      5  C   UNL A   1      38.624  21.317  25.315  1.00  0.00     0.261 C 
BRANCH   5   6
ATOM      6  O   UNL A   1      37.197  21.452  25.431  1.00  0.00    -0.460 OA
BRANCH   6   7
ATOM      7  C   UNL A   1      36.458  20.378  25.031  1.00  0.00     0.341 C 
ATOM      8  O   UNL A   1      36.886  19.233  24.942  1.00  0.00    -0.246 OA
BRANCH   7   9
ATOM      9  C   UNL A   1      35.051  20.702  24.840  1.00  0.00     0.095 A 
ATOM     10  C   UNL A   1      33.957  19.872  24.995  1.00  0.00     0.110 A 
ATOM     11  S   UNL A   1      32.519  20.559  24.373  1.00  0.00    -0.117 S 
ATOM     12  C   UNL A   1      33.281  22.052  24.064  1.00  0.00     0.037 A 
ATOM     13  C   UNL A   1      34.627  21.991  24.347  1.00  0.00     0.038 A 
BRANCH  10  14
ATOM     14  N   UNL A   1      33.727  18.608  25.488  1.00  0.00    -0.317 N 
ATOM     15  C   UNL A   1      34.001  17.288  23.389  1.00  0.00     0.114 C 
ATOM     16  C   UNL A   1      33.586  17.425  24.828  1.00  0.00     0.221 C 
ATOM     17  O   UNL A   1      33.199  16.435  25.456  1.00  0.00    -0.275 OA
ATOM     18  H   UNL A   1      33.653  18.552  26.467  1.00  0.00     0.170 HD
ENDBRANCH  10  14
BRANCH  12  19
ATOM     19  C   UNL A   1      32.517  23.181  23.541  1.00  0.00    -0.008 A 
ATOM     20  C   UNL A   1      31.258  23.485  24.075  1.00  0.00     0.009 A 
ATOM     21  C   UNL A   1      33.057  24.007  22.549  1.00  0.00     0.009 A 
ATOM     22  C   UNL A   1      30.550  24.601  23.623  1.00  0.00     0.001 A 
ATOM     23  C   UNL A   1      32.348  25.121  22.095  1.00  0.00     0.001 A 
ATOM     24  C   UNL A   1      31.097  25.419  22.636  1.00  0.00     0.000 A 
ENDBRANCH  12  19
ENDBRANCH   7   9
ENDBRANCH   6   7
ENDBRANCH   5   6
ENDBRANCH   4   5
ENDBRANCH   3   4
ENDBRANCH   2   3
ENDBRANCH   1   2
BRANCH   1  25
ATOM     25  O   UNL A   1      42.929  20.590  25.489  1.00  0.00    -0.376 OA
BRANCH  25  26
ATOM     26  C   UNL A   1      43.503  21.795  25.964  1.00  0.00     0.202 C 
BRANCH  26  27
ATOM     27  C   UNL A   1      42.944  23.127  25.441  1.00  0.00     0.261 C 
BRANCH  27  28
ATOM     28  O   UNL A   1      42.648  24.127  26.424  1.00  0.00    -0.460 OA
BRANCH  28  29
ATOM     29  C   UNL A   1      43.279  25.316  26.307  1.00  0.00     0.338 C 
ATOM     30  O   UNL A   1      44.039  25.653  25.420  1.00  0.00    -0.246 OA
BRANCH  29  31
ATOM     31  C   UNL A   1      42.743  26.215  27.355  1.00  0.00     0.060 A 
ATOM     32  C   UNL A   1      43.235  27.524  27.437  1.00  0.00     0.016 A 
ATOM     33  C   UNL A   1      41.758  25.774  28.248  1.00  0.00     0.016 A 
ATOM     34  C   UNL A   1      42.775  28.379  28.441  1.00  0.00     0.010 A 
ATOM     35  C   UNL A   1      41.310  26.626  29.261  1.00  0.00     0.010 A 
ATOM     36  C   UNL A   1      41.844  27.920  29.384  1.00  0.00    -0.014 A 
BRANCH  36  37
ATOM     37  C   UNL A   1      41.600  28.705  30.619  1.00  0.00     0.031 A 
ATOM     38  C   UNL A   1      40.452  29.679  30.620  1.00  0.00     0.074 A 
ATOM     39  C   UNL A   1      42.364  28.555  31.716  1.00  0.00     0.049 A 
ATOM     40  N   UNL A   1      40.048  30.487  31.566  1.00  0.00    -0.248 NA
ATOM     41  C   UNL A   1      39.653  29.751  29.384  1.00  0.00     0.031 C 
ATOM     42  C   UNL A   1      43.488  27.632  31.848  1.00  0.00     0.029 A 
ATOM     43  N   UNL A   1      42.306  29.193  32.930  1.00  0.00    -0.354 N 
ATOM     44  C   UNL A   1      38.948  31.157  31.042  1.00  0.00     0.074 A 
ATOM     45  C   UNL A   1      38.764  30.684  29.689  1.00  0.00     0.031 C 
ATOM     46  C   UNL A   1      44.026  27.773  33.073  1.00  0.00     0.029 A 
ATOM     47  C   UNL A   1      43.296  28.809  33.804  1.00  0.00     0.049 A 
ATOM     48  H   UNL A   1      41.622  29.863  33.155  1.00  0.00     0.167 HD
ATOM     49  C   UNL A   1      38.157  32.080  31.637  1.00  0.00     0.037 A 
ATOM     50  C   UNL A   1      43.586  29.256  35.042  1.00  0.00     0.037 A 
ATOM     51  C   UNL A   1      38.348  32.566  32.976  1.00  0.00     0.049 A 
ATOM     52  C   UNL A   1      42.723  30.324  35.666  1.00  0.00     0.074 A 
ATOM     53  C   UNL A   1      37.600  33.500  33.669  1.00  0.00     0.029 A 
ATOM     54  N   UNL A   1      39.366  32.157  33.824  1.00  0.00    -0.354 N 
ATOM     55  N   UNL A   1      41.668  30.928  35.170  1.00  0.00    -0.248 NA
ATOM     56  C   UNL A   1      43.086  30.769  37.020  1.00  0.00     0.031 C 
ATOM     57  C   UNL A   1      38.187  33.682  34.927  1.00  0.00     0.029 A 
ATOM     58  C   UNL A   1      39.275  32.831  35.030  1.00  0.00     0.049 A 
ATOM     59  H   UNL A   1      40.053  31.488  33.601  1.00  0.00     0.167 HD
ATOM     60  C   UNL A   1      41.226  31.799  36.162  1.00  0.00     0.074 A 
ATOM     61  C   UNL A   1      42.124  31.642  37.287  1.00  0.00     0.031 C 
ATOM     62  C   UNL A   1      40.169  32.648  36.146  1.00  0.00     0.037 A 
BRANCH  49  63
ATOM     63  C   UNL A   1      37.024  32.637  30.825  1.00  0.00     0.058 A 
ATOM     64  C   UNL A   1      37.226  33.667  29.894  1.00  0.00     0.135 A 
ATOM     65  C   UNL A   1      35.723  32.133  30.976  1.00  0.00     0.135 A 
ATOM     66  F   UNL A   1      38.448  34.201  29.731  1.00  0.00    -0.206 F 
ATOM     67  C   UNL A   1      36.173  34.196  29.157  1.00  0.00     0.059 A 
ATOM     68  C   UNL A   1      34.658  32.631  30.233  1.00  0.00     0.059 A 
ATOM     69  F   UNL A   1      35.477  31.153  31.861  1.00  0.00    -0.206 F 
ATOM     70  C   UNL A   1      34.891  33.673  29.337  1.00  0.00     0.060 A 
BRANCH  70  71
ATOM     71  S   UNL A   1      33.531  34.370  28.377  1.00  0.00     0.124 S 
ATOM     72  O   UNL A   1      34.229  35.361  27.563  1.00  0.00    -0.237 OA
ATOM     73  O   UNL A   1      33.022  33.207  27.659  1.00  0.00    -0.237 OA
ATOM     74  O   UNL A   1      32.638  34.913  29.397  1.00  0.00    -0.744 OA
ENDBRANCH  70  71
ENDBRANCH  49  63
BRANCH  50  75
ATOM     75  C   UNL A   1      44.749  28.701  35.784  1.00  0.00     0.058 A 
ATOM     76  C   UNL A   1      46.036  29.236  35.620  1.00  0.00     0.135 A 
ATOM     77  C   UNL A   1      44.600  27.613  36.657  1.00  0.00     0.135 A 
ATOM     78  F   UNL A   1      46.230  30.269  34.786  1.00  0.00    -0.206 F 
ATOM     79  C   UNL A   1      47.137  28.704  36.282  1.00  0.00     0.059 A 
ATOM     80  C   UNL A   1      45.683  27.076  37.347  1.00  0.00     0.059 A 
ATOM     81  F   UNL A   1      43.389  27.070  36.852  1.00  0.00    -0.206 F 
ATOM     82  C   UNL A   1      46.949  27.621  37.144  1.00  0.00     0.060 A 
BRANCH  82  83
ATOM     83  S   UNL A   1      48.378  26.958  38.030  1.00  0.00     0.124 S 
ATOM     84  O   UNL A   1      49.020  26.159  36.994  1.00  0.00    -0.237 OA
ATOM     85  O   UNL A   1      49.083  28.171  38.431  1.00  0.00    -0.237 OA
ATOM     86  O   UNL A   1      47.771  26.205  39.124  1.00  0.00    -0.744 OA
ENDBRANCH  82  83
ENDBRANCH  50  75
BRANCH  62  87
ATOM     87  C   UNL A   1      39.892  33.441  37.391  1.00  0.00     0.058 A 
ATOM     88  C   UNL A   1      38.946  33.023  38.338  1.00  0.00     0.135 A 
ATOM     89  C   UNL A   1      40.633  34.601  37.669  1.00  0.00     0.135 A 
ATOM     90  F   UNL A   1      38.210  31.922  38.118  1.00  0.00    -0.206 F 
ATOM     91  C   UNL A   1      38.730  33.738  39.512  1.00  0.00     0.059 A 
ATOM     92  C   UNL A   1      40.449  35.320  38.845  1.00  0.00     0.059 A 
ATOM     93  F   UNL A   1      41.559  35.036  36.800  1.00  0.00    -0.206 F 
ATOM     94  C   UNL A   1      39.487  34.886  39.757  1.00  0.00     0.060 A 
BRANCH  94  95
ATOM     95  S   UNL A   1      39.229  35.786  41.301  1.00  0.00     0.124 S 
ATOM     96  O   UNL A   1      40.175  35.120  42.190  1.00  0.00    -0.237 OA
ATOM     97  O   UNL A   1      39.565  37.156  40.929  1.00  0.00    -0.237 OA
ATOM     98  O   UNL A   1      37.817  35.553  41.596  1.00  0.00    -0.744 OA
ENDBRANCH  94  95
ENDBRANCH  62  87
ENDBRANCH  36  37
ENDBRANCH  29  31
ENDBRANCH  28  29
ENDBRANCH  27  28
ENDBRANCH  26  27
ENDBRANCH  25  26
ENDBRANCH   1  25
TORSDOF 22
ENDMDL
