MODEL 1
REMARK VINA RESULT:     -11.5      0.000      0.000
REMARK SMILES Cn1cc(C(=O)OCCOCCOCCOC(=O)c2ccc(-c3c4nc(c(-c5c(F)cc(S(=O)(=O)[O-])cc5F)c5ccc([nH]5)c(-c5c(F)cc(S(=O)(=O)[O-])cc5F)c5nc(c(-c6c(F)cc(S(=O)(=O)[O-])cc6F)c6ccc3[nH]6)C=C5)C=C4)cc2)c(C(=O)Nc2ccc(-c3nc4cc(Cl)ccc4o3)cc2)n1
REMARK SMILES IDX 11 1 10 2 9 3 8 4 7 5 5 6 6 7 4 8 1 9 2 10 3 11 105 12 85 13
REMARK SMILES IDX 86 14 87 15 88 16 89 18 90 19 104 20 91 21 103 22 92 23
REMARK SMILES IDX 93 24 94 25 102 26 95 27 101 28 96 29 100 30 97 31 99 32
REMARK SMILES IDX 98 33 12 34 13 35 14 36 15 37 16 38 17 39 18 40 19 41 20 42
REMARK SMILES IDX 84 43 21 44 83 45 22 46 23 47 24 48 77 49 25 50 82 51 76 52
REMARK SMILES IDX 78 53 26 54 81 55 75 56 74 57 27 59 61 60 40 61 60 62 41 63
REMARK SMILES IDX 44 64 59 65 79 66 42 67 43 68 58 70 80 71 45 72 28 73 29 74
REMARK SMILES IDX 38 75 30 76 31 77 37 78 39 79 32 80 33 81 34 82 35 83 36 84
REMARK SMILES IDX 62 85 63 86 72 87 64 88 65 89 71 90 73 91 66 92 67 93 68 94
REMARK SMILES IDX 69 95 70 96 46 97 47 98 56 99 48 100 49 101 55 102 57 103
REMARK SMILES IDX 50 104 51 105 52 106 53 107 54 108
REMARK H PARENT 88 17 78 58 44 69
REMARK Flexibility Score: inf
ROOT
ATOM      1  C   UNL A   1      36.628  23.086  23.514  1.00  0.00     0.188 C 
ENDROOT
BRANCH   1   2
ATOM      2  O   UNL A   1      35.397  23.719  23.162  1.00  0.00    -0.376 OA
BRANCH   2   3
ATOM      3  C   UNL A   1      34.400  22.889  22.576  1.00  0.00     0.202 C 
BRANCH   3   4
ATOM      4  C   UNL A   1      33.230  23.577  21.878  1.00  0.00     0.261 C 
BRANCH   4   5
ATOM      5  O   UNL A   1      32.744  24.618  22.745  1.00  0.00    -0.460 OA
BRANCH   5   6
ATOM      6  C   UNL A   1      32.755  25.882  22.288  1.00  0.00     0.342 C 
ATOM      7  O   UNL A   1      33.456  26.279  21.363  1.00  0.00    -0.246 OA
BRANCH   6   8
ATOM      8  C   UNL A   1      31.981  26.766  23.132  1.00  0.00     0.111 A 
ATOM      9  C   UNL A   1      29.684  29.529  23.246  1.00  0.00     0.173 C 
ATOM     10  N   UNL A   1      30.554  28.397  23.448  1.00  0.00    -0.274 N 
ATOM     11  C   UNL A   1      30.986  27.521  22.524  1.00  0.00     0.125 A 
ATOM     12  N   UNL A   1      31.075  28.183  24.647  1.00  0.00    -0.167 NA
ATOM     13  C   UNL A   1      32.002  27.195  24.515  1.00  0.00     0.165 A 
BRANCH  13  14
ATOM     14  C   UNL A   1      32.739  26.932  25.794  1.00  0.00     0.277 C 
ATOM     15  O   UNL A   1      33.248  27.896  26.394  1.00  0.00    -0.267 OA
ATOM     16  N   UNL A   1      32.996  25.769  26.487  1.00  0.00    -0.321 N 
ATOM     17  H   UNL A   1      33.454  25.972  27.334  1.00  0.00     0.170 HD
BRANCH  16  18
ATOM     18  C   UNL A   1      32.807  24.400  26.357  1.00  0.00     0.041 A 
ATOM     19  C   UNL A   1      33.915  23.561  26.591  1.00  0.00     0.027 A 
ATOM     20  C   UNL A   1      31.628  23.834  25.947  1.00  0.00     0.027 A 
ATOM     21  C   UNL A   1      33.911  22.225  26.161  1.00  0.00     0.016 A 
ATOM     22  C   UNL A   1      31.625  22.527  25.477  1.00  0.00     0.016 A 
ATOM     23  C   UNL A   1      32.783  21.730  25.515  1.00  0.00     0.037 A 
BRANCH  23  24
ATOM     24  C   UNL A   1      32.790  20.530  24.679  1.00  0.00     0.227 A 
ATOM     25  N   UNL A   1      31.877  19.568  24.695  1.00  0.00    -0.209 NA
ATOM     26  O   UNL A   1      34.055  20.093  24.365  1.00  0.00    -0.436 OA
ATOM     27  C   UNL A   1      32.632  18.420  24.689  1.00  0.00     0.111 A 
ATOM     28  C   UNL A   1      33.963  18.741  24.485  1.00  0.00     0.155 A 
ATOM     29  C   UNL A   1      32.292  17.089  24.970  1.00  0.00     0.053 A 
ATOM     30  C   UNL A   1      35.023  17.848  24.539  1.00  0.00     0.051 A 
ATOM     31  C   UNL A   1      33.343  16.170  25.097  1.00  0.00     0.043 A 
ATOM     32  C   UNL A   1      34.679  16.538  24.886  1.00  0.00     0.024 A 
ATOM     33  Cl  UNL A   1      32.995  14.557  25.595  1.00  0.00    -0.084 Cl
ENDBRANCH  23  24
ENDBRANCH  16  18
ENDBRANCH  13  14
ENDBRANCH   6   8
ENDBRANCH   5   6
ENDBRANCH   4   5
ENDBRANCH   3   4
ENDBRANCH   2   3
ENDBRANCH   1   2
BRANCH   1  34
ATOM     34  C   UNL A   1      37.124  23.555  24.897  1.00  0.00     0.188 C 
BRANCH  34  35
ATOM     35  O   UNL A   1      37.510  22.461  25.731  1.00  0.00    -0.376 OA
BRANCH  35  36
ATOM     36  C   UNL A   1      37.527  21.175  25.112  1.00  0.00     0.202 C 
BRANCH  36  37
ATOM     37  C   UNL A   1      38.729  20.259  25.411  1.00  0.00     0.261 C 
BRANCH  37  38
ATOM     38  O   UNL A   1      39.768  20.849  26.216  1.00  0.00    -0.460 OA
BRANCH  38  39
ATOM     39  C   UNL A   1      40.967  20.229  26.240  1.00  0.00     0.338 C 
ATOM     40  O   UNL A   1      41.196  19.061  25.983  1.00  0.00    -0.246 OA
BRANCH  39  41
ATOM     41  C   UNL A   1      42.010  21.256  26.434  1.00  0.00     0.060 A 
ATOM     42  C   UNL A   1      42.324  21.652  27.741  1.00  0.00     0.016 A 
ATOM     43  C   UNL A   1      42.639  21.854  25.340  1.00  0.00     0.016 A 
ATOM     44  C   UNL A   1      43.221  22.697  27.955  1.00  0.00     0.010 A 
ATOM     45  C   UNL A   1      43.515  22.921  25.553  1.00  0.00     0.010 A 
ATOM     46  C   UNL A   1      43.766  23.378  26.858  1.00  0.00    -0.014 A 
BRANCH  46  47
ATOM     47  C   UNL A   1      44.340  24.729  27.067  1.00  0.00     0.031 A 
ATOM     48  C   UNL A   1      43.394  25.831  27.471  1.00  0.00     0.074 A 
ATOM     49  C   UNL A   1      45.653  24.978  26.929  1.00  0.00     0.049 A 
ATOM     50  N   UNL A   1      43.639  27.091  27.716  1.00  0.00    -0.248 NA
ATOM     51  C   UNL A   1      41.977  25.453  27.624  1.00  0.00     0.031 C 
ATOM     52  C   UNL A   1      46.674  23.991  26.583  1.00  0.00     0.029 A 
ATOM     53  N   UNL A   1      46.350  26.152  27.063  1.00  0.00    -0.354 N 
ATOM     54  C   UNL A   1      42.415  27.650  28.065  1.00  0.00     0.074 A 
ATOM     55  C   UNL A   1      41.423  26.603  27.970  1.00  0.00     0.031 C 
ATOM     56  C   UNL A   1      47.869  24.607  26.516  1.00  0.00     0.029 A 
ATOM     57  C   UNL A   1      47.693  26.031  26.800  1.00  0.00     0.049 A 
ATOM     58  H   UNL A   1      45.928  27.002  27.324  1.00  0.00     0.167 HD
ATOM     59  C   UNL A   1      42.140  28.919  28.442  1.00  0.00     0.037 A 
ATOM     60  C   UNL A   1      48.661  26.969  26.782  1.00  0.00     0.037 A 
ATOM     61  C   UNL A   1      43.119  29.967  28.516  1.00  0.00     0.049 A 
ATOM     62  C   UNL A   1      48.318  28.396  27.126  1.00  0.00     0.074 A 
ATOM     63  C   UNL A   1      42.941  31.289  28.882  1.00  0.00     0.029 A 
ATOM     64  N   UNL A   1      44.461  29.812  28.204  1.00  0.00    -0.354 N 
ATOM     65  N   UNL A   1      47.162  28.906  27.482  1.00  0.00    -0.248 NA
ATOM     66  C   UNL A   1      49.412  29.378  27.066  1.00  0.00     0.031 C 
ATOM     67  C   UNL A   1      44.171  31.943  28.757  1.00  0.00     0.029 A 
ATOM     68  C   UNL A   1      45.120  31.019  28.347  1.00  0.00     0.049 A 
ATOM     69  H   UNL A   1      44.882  28.967  27.922  1.00  0.00     0.167 HD
ATOM     70  C   UNL A   1      47.395  30.258  27.709  1.00  0.00     0.074 A 
ATOM     71  C   UNL A   1      48.802  30.489  27.457  1.00  0.00     0.031 C 
ATOM     72  C   UNL A   1      46.524  31.225  28.095  1.00  0.00     0.037 A 
BRANCH  59  73
ATOM     73  C   UNL A   1      40.714  29.236  28.779  1.00  0.00     0.058 A 
ATOM     74  C   UNL A   1      40.279  29.317  30.112  1.00  0.00     0.135 A 
ATOM     75  C   UNL A   1      39.772  29.451  27.763  1.00  0.00     0.135 A 
ATOM     76  F   UNL A   1      41.138  29.092  31.119  1.00  0.00    -0.206 F 
ATOM     77  C   UNL A   1      38.949  29.578  30.424  1.00  0.00     0.059 A 
ATOM     78  C   UNL A   1      38.440  29.733  28.054  1.00  0.00     0.059 A 
ATOM     79  F   UNL A   1      40.137  29.372  26.474  1.00  0.00    -0.206 F 
ATOM     80  C   UNL A   1      38.037  29.779  29.388  1.00  0.00     0.060 A 
BRANCH  80  81
ATOM     81  S   UNL A   1      36.312  30.109  29.805  1.00  0.00     0.124 S 
ATOM     82  O   UNL A   1      36.295  31.568  29.840  1.00  0.00    -0.237 OA
ATOM     83  O   UNL A   1      35.594  29.494  28.691  1.00  0.00    -0.237 OA
ATOM     84  O   UNL A   1      36.142  29.446  31.094  1.00  0.00    -0.744 OA
ENDBRANCH  80  81
ENDBRANCH  59  73
BRANCH  60  85
ATOM     85  C   UNL A   1      50.052  26.598  26.410  1.00  0.00     0.058 A 
ATOM     86  C   UNL A   1      50.987  26.214  27.381  1.00  0.00     0.135 A 
ATOM     87  C   UNL A   1      50.478  26.646  25.074  1.00  0.00     0.135 A 
ATOM     88  F   UNL A   1      50.631  26.169  28.674  1.00  0.00    -0.206 F 
ATOM     89  C   UNL A   1      52.302  25.902  27.046  1.00  0.00     0.059 A 
ATOM     90  C   UNL A   1      51.782  26.322  24.711  1.00  0.00     0.059 A 
ATOM     91  F   UNL A   1      49.621  27.003  24.106  1.00  0.00    -0.206 F 
ATOM     92  C   UNL A   1      52.690  25.963  25.705  1.00  0.00     0.060 A 
BRANCH  92  93
ATOM     93  S   UNL A   1      54.387  25.524  25.266  1.00  0.00     0.124 S 
ATOM     94  O   UNL A   1      54.282  24.080  25.099  1.00  0.00    -0.237 OA
ATOM     95  O   UNL A   1      54.602  26.295  24.045  1.00  0.00    -0.237 OA
ATOM     96  O   UNL A   1      55.156  25.973  26.423  1.00  0.00    -0.744 OA
ENDBRANCH  92  93
ENDBRANCH  60  85
BRANCH  72  97
ATOM     97  C   UNL A   1      47.065  32.612  28.289  1.00  0.00     0.058 A 
ATOM     98  C   UNL A   1      47.707  32.987  29.478  1.00  0.00     0.135 A 
ATOM     99  C   UNL A   1      47.006  33.551  27.247  1.00  0.00     0.135 A 
ATOM    100  F   UNL A   1      47.786  32.126  30.504  1.00  0.00    -0.206 F 
ATOM    101  C   UNL A   1      48.264  34.253  29.632  1.00  0.00     0.059 A 
ATOM    102  C   UNL A   1      47.573  34.815  27.373  1.00  0.00     0.059 A 
ATOM    103  F   UNL A   1      46.412  33.235  26.084  1.00  0.00    -0.206 F 
ATOM    104  C   UNL A   1      48.192  35.160  28.573  1.00  0.00     0.060 A 
BRANCH 104 105
ATOM    105  S   UNL A   1      48.961  36.784  28.764  1.00  0.00     0.124 S 
ATOM    106  O   UNL A   1      50.162  36.451  29.523  1.00  0.00    -0.237 OA
ATOM    107  O   UNL A   1      49.178  37.196  27.381  1.00  0.00    -0.237 OA
ATOM    108  O   UNL A   1      47.953  37.551  29.488  1.00  0.00    -0.744 OA
ENDBRANCH 104 105
ENDBRANCH  72  97
ENDBRANCH  46  47
ENDBRANCH  39  41
ENDBRANCH  38  39
ENDBRANCH  37  38
ENDBRANCH  36  37
ENDBRANCH  35  36
ENDBRANCH  34  35
ENDBRANCH   1  34
TORSDOF 23
ENDMDL
MODEL 2
REMARK VINA RESULT:     -11.5      0.625      7.711
REMARK SMILES Cn1cc(C(=O)OCCOCCOCCOC(=O)c2ccc(-c3c4nc(c(-c5c(F)cc(S(=O)(=O)[O-])cc5F)c5ccc([nH]5)c(-c5c(F)cc(S(=O)(=O)[O-])cc5F)c5nc(c(-c6c(F)cc(S(=O)(=O)[O-])cc6F)c6ccc3[nH]6)C=C5)C=C4)cc2)c(C(=O)Nc2ccc(-c3nc4cc(Cl)ccc4o3)cc2)n1
REMARK SMILES IDX 11 1 10 2 9 3 8 4 7 5 5 6 6 7 4 8 1 9 2 10 3 11 105 12 85 13
REMARK SMILES IDX 86 14 87 15 88 16 89 18 90 19 104 20 91 21 103 22 92 23
REMARK SMILES IDX 93 24 94 25 102 26 95 27 101 28 96 29 100 30 97 31 99 32
REMARK SMILES IDX 98 33 12 34 13 35 14 36 15 37 16 38 17 39 18 40 19 41 20 42
REMARK SMILES IDX 84 43 21 44 83 45 22 46 23 47 24 48 77 49 25 50 82 51 76 52
REMARK SMILES IDX 78 53 26 54 81 55 75 56 74 57 27 59 61 60 40 61 60 62 41 63
REMARK SMILES IDX 44 64 59 65 79 66 42 67 43 68 58 70 80 71 45 72 28 73 29 74
REMARK SMILES IDX 38 75 30 76 31 77 37 78 39 79 32 80 33 81 34 82 35 83 36 84
REMARK SMILES IDX 62 85 63 86 72 87 64 88 65 89 71 90 73 91 66 92 67 93 68 94
REMARK SMILES IDX 69 95 70 96 46 97 47 98 56 99 48 100 49 101 55 102 57 103
REMARK SMILES IDX 50 104 51 105 52 106 53 107 54 108
REMARK H PARENT 88 17 78 58 44 69
REMARK Flexibility Score: inf
ROOT
ATOM      1  C   UNL A   1      37.032  22.846  23.976  1.00  0.00     0.188 C 
ENDROOT
BRANCH   1   2
ATOM      2  O   UNL A   1      35.916  23.677  23.656  1.00  0.00    -0.376 OA
BRANCH   2   3
ATOM      3  C   UNL A   1      34.779  23.029  23.096  1.00  0.00     0.202 C 
BRANCH   3   4
ATOM      4  C   UNL A   1      33.594  23.904  22.695  1.00  0.00     0.261 C 
BRANCH   4   5
ATOM      5  O   UNL A   1      33.964  25.278  22.907  1.00  0.00    -0.460 OA
BRANCH   5   6
ATOM      6  C   UNL A   1      33.272  26.230  22.256  1.00  0.00     0.342 C 
ATOM      7  O   UNL A   1      33.638  26.763  21.213  1.00  0.00    -0.246 OA
BRANCH   6   8
ATOM      8  C   UNL A   1      32.135  26.688  23.024  1.00  0.00     0.111 A 
ATOM      9  C   UNL A   1      29.074  28.572  22.986  1.00  0.00     0.173 C 
ATOM     10  N   UNL A   1      30.224  27.738  23.231  1.00  0.00    -0.274 N 
ATOM     11  C   UNL A   1      31.052  27.197  22.319  1.00  0.00     0.125 A 
ATOM     12  N   UNL A   1      30.600  27.498  24.478  1.00  0.00    -0.167 NA
ATOM     13  C   UNL A   1      31.807  26.871  24.423  1.00  0.00     0.165 A 
BRANCH  13  14
ATOM     14  C   UNL A   1      32.389  26.635  25.785  1.00  0.00     0.277 C 
ATOM     15  O   UNL A   1      32.776  27.619  26.441  1.00  0.00    -0.267 OA
ATOM     16  N   UNL A   1      32.607  25.483  26.507  1.00  0.00    -0.321 N 
ATOM     17  H   UNL A   1      32.946  25.703  27.405  1.00  0.00     0.170 HD
BRANCH  16  18
ATOM     18  C   UNL A   1      32.496  24.108  26.358  1.00  0.00     0.041 A 
ATOM     19  C   UNL A   1      33.628  23.322  26.654  1.00  0.00     0.027 A 
ATOM     20  C   UNL A   1      31.373  23.487  25.873  1.00  0.00     0.027 A 
ATOM     21  C   UNL A   1      33.717  21.992  26.217  1.00  0.00     0.016 A 
ATOM     22  C   UNL A   1      31.464  22.186  25.396  1.00  0.00     0.016 A 
ATOM     23  C   UNL A   1      32.657  21.447  25.500  1.00  0.00     0.037 A 
BRANCH  23  24
ATOM     24  C   UNL A   1      32.774  20.256  24.659  1.00  0.00     0.227 A 
ATOM     25  N   UNL A   1      31.901  19.260  24.598  1.00  0.00    -0.209 NA
ATOM     26  O   UNL A   1      34.076  19.871  24.442  1.00  0.00    -0.436 OA
ATOM     27  C   UNL A   1      32.698  18.142  24.643  1.00  0.00     0.111 A 
ATOM     28  C   UNL A   1      34.027  18.516  24.545  1.00  0.00     0.155 A 
ATOM     29  C   UNL A   1      32.389  16.796  24.888  1.00  0.00     0.053 A 
ATOM     30  C   UNL A   1      35.113  17.663  24.674  1.00  0.00     0.051 A 
ATOM     31  C   UNL A   1      33.462  15.916  25.090  1.00  0.00     0.043 A 
ATOM     32  C   UNL A   1      34.795  16.337  24.985  1.00  0.00     0.024 A 
ATOM     33  Cl  UNL A   1      33.139  14.287  25.548  1.00  0.00    -0.084 Cl
ENDBRANCH  23  24
ENDBRANCH  16  18
ENDBRANCH  13  14
ENDBRANCH   6   8
ENDBRANCH   5   6
ENDBRANCH   4   5
ENDBRANCH   3   4
ENDBRANCH   2   3
ENDBRANCH   1   2
BRANCH   1  34
ATOM     34  C   UNL A   1      37.273  22.791  25.498  1.00  0.00     0.188 C 
BRANCH  34  35
ATOM     35  O   UNL A   1      37.419  21.452  25.973  1.00  0.00    -0.376 OA
BRANCH  35  36
ATOM     36  C   UNL A   1      37.832  20.484  25.008  1.00  0.00     0.202 C 
BRANCH  36  37
ATOM     37  C   UNL A   1      39.002  19.558  25.388  1.00  0.00     0.261 C 
BRANCH  37  38
ATOM     38  O   UNL A   1      39.970  20.125  26.293  1.00  0.00    -0.460 OA
BRANCH  38  39
ATOM     39  C   UNL A   1      41.251  19.716  26.175  1.00  0.00     0.338 C 
ATOM     40  O   UNL A   1      41.644  18.635  25.777  1.00  0.00    -0.246 OA
BRANCH  39  41
ATOM     41  C   UNL A   1      42.127  20.880  26.418  1.00  0.00     0.060 A 
ATOM     42  C   UNL A   1      42.306  21.319  27.736  1.00  0.00     0.016 A 
ATOM     43  C   UNL A   1      42.730  21.557  25.355  1.00  0.00     0.016 A 
ATOM     44  C   UNL A   1      43.035  22.480  27.990  1.00  0.00     0.010 A 
ATOM     45  C   UNL A   1      43.435  22.736  25.607  1.00  0.00     0.010 A 
ATOM     46  C   UNL A   1      43.542  23.227  26.919  1.00  0.00    -0.014 A 
BRANCH  46  47
ATOM     47  C   UNL A   1      43.910  24.646  27.146  1.00  0.00     0.031 A 
ATOM     48  C   UNL A   1      45.363  25.019  26.989  1.00  0.00     0.074 A 
ATOM     49  C   UNL A   1      42.998  25.581  27.455  1.00  0.00     0.049 A 
ATOM     50  N   UNL A   1      45.943  26.182  27.128  1.00  0.00    -0.248 NA
ATOM     51  C   UNL A   1      46.283  23.928  26.621  1.00  0.00     0.031 C 
ATOM     52  C   UNL A   1      41.560  25.355  27.593  1.00  0.00     0.029 A 
ATOM     53  N   UNL A   1      43.155  26.920  27.713  1.00  0.00    -0.354 N 
ATOM     54  C   UNL A   1      47.287  25.965  26.850  1.00  0.00     0.074 A 
ATOM     55  C   UNL A   1      47.445  24.557  26.566  1.00  0.00     0.031 C 
ATOM     56  C   UNL A   1      40.968  26.516  27.929  1.00  0.00     0.029 A 
ATOM     57  C   UNL A   1      41.986  27.561  28.042  1.00  0.00     0.049 A 
ATOM     58  H   UNL A   1      44.025  27.378  27.666  1.00  0.00     0.167 HD
ATOM     59  C   UNL A   1      48.302  26.860  26.822  1.00  0.00     0.037 A 
ATOM     60  C   UNL A   1      41.770  28.842  28.401  1.00  0.00     0.037 A 
ATOM     61  C   UNL A   1      48.152  28.255  27.126  1.00  0.00     0.049 A 
ATOM     62  C   UNL A   1      42.929  29.806  28.444  1.00  0.00     0.074 A 
ATOM     63  C   UNL A   1      49.120  29.243  27.131  1.00  0.00     0.029 A 
ATOM     64  N   UNL A   1      46.958  28.857  27.491  1.00  0.00    -0.354 N 
ATOM     65  N   UNL A   1      44.191  29.595  28.151  1.00  0.00    -0.248 NA
ATOM     66  C   UNL A   1      42.636  31.184  28.867  1.00  0.00     0.031 C 
ATOM     67  C   UNL A   1      48.515  30.439  27.536  1.00  0.00     0.029 A 
ATOM     68  C   UNL A   1      47.167  30.200  27.747  1.00  0.00     0.049 A 
ATOM     69  H   UNL A   1      46.091  28.395  27.559  1.00  0.00     0.167 HD
ATOM     70  C   UNL A   1      44.834  30.815  28.331  1.00  0.00     0.074 A 
ATOM     71  C   UNL A   1      43.824  31.763  28.753  1.00  0.00     0.031 C 
ATOM     72  C   UNL A   1      46.144  31.126  28.161  1.00  0.00     0.037 A 
BRANCH  59  73
ATOM     73  C   UNL A   1      49.662  26.337  26.471  1.00  0.00     0.058 A 
ATOM     74  C   UNL A   1      50.516  25.806  27.452  1.00  0.00     0.135 A 
ATOM     75  C   UNL A   1      50.121  26.375  25.147  1.00  0.00     0.135 A 
ATOM     76  F   UNL A   1      50.132  25.774  28.738  1.00  0.00    -0.206 F 
ATOM     77  C   UNL A   1      51.791  25.352  27.132  1.00  0.00     0.059 A 
ATOM     78  C   UNL A   1      51.386  25.907  24.802  1.00  0.00     0.059 A 
ATOM     79  F   UNL A   1      49.346  26.884  24.177  1.00  0.00    -0.206 F 
ATOM     80  C   UNL A   1      52.219  25.412  25.805  1.00  0.00     0.060 A 
BRANCH  80  81
ATOM     81  S   UNL A   1      53.878  24.827  25.403  1.00  0.00     0.124 S 
ATOM     82  O   UNL A   1      54.579  25.051  26.663  1.00  0.00    -0.237 OA
ATOM     83  O   UNL A   1      53.644  23.430  25.049  1.00  0.00    -0.237 OA
ATOM     84  O   UNL A   1      54.282  25.689  24.296  1.00  0.00    -0.744 OA
ENDBRANCH  80  81
ENDBRANCH  59  73
BRANCH  60  85
ATOM     85  C   UNL A   1      40.402  29.295  28.768  1.00  0.00     0.058 A 
ATOM     86  C   UNL A   1      40.034  29.485  30.108  1.00  0.00     0.135 A 
ATOM     87  C   UNL A   1      39.429  29.522  27.783  1.00  0.00     0.135 A 
ATOM     88  F   UNL A   1      40.925  29.264  31.086  1.00  0.00    -0.206 F 
ATOM     89  C   UNL A   1      38.744  29.872  30.462  1.00  0.00     0.059 A 
ATOM     90  C   UNL A   1      38.138  29.927  28.110  1.00  0.00     0.059 A 
ATOM     91  F   UNL A   1      39.733  29.359  26.487  1.00  0.00    -0.206 F 
ATOM     92  C   UNL A   1      37.802  30.087  29.454  1.00  0.00     0.060 A 
BRANCH  92  93
ATOM     93  S   UNL A   1      36.138  30.624  29.912  1.00  0.00     0.124 S 
ATOM     94  O   UNL A   1      36.277  32.075  29.871  1.00  0.00    -0.237 OA
ATOM     95  O   UNL A   1      35.319  30.030  28.861  1.00  0.00    -0.237 OA
ATOM     96  O   UNL A   1      35.956  30.043  31.239  1.00  0.00    -0.744 OA
ENDBRANCH  92  93
ENDBRANCH  60  85
BRANCH  72  97
ATOM     97  C   UNL A   1      46.559  32.548  28.409  1.00  0.00     0.058 A 
ATOM     98  C   UNL A   1      46.502  33.514  27.394  1.00  0.00     0.135 A 
ATOM     99  C   UNL A   1      46.944  32.963  29.694  1.00  0.00     0.135 A 
ATOM    100  F   UNL A   1      46.142  33.165  26.149  1.00  0.00    -0.206 F 
ATOM    101  C   UNL A   1      46.827  34.844  27.641  1.00  0.00     0.059 A 
ATOM    102  C   UNL A   1      47.254  34.292  29.967  1.00  0.00     0.059 A 
ATOM    103  F   UNL A   1      47.002  32.078  30.702  1.00  0.00    -0.206 F 
ATOM    104  C   UNL A   1      47.201  35.224  28.932  1.00  0.00     0.060 A 
BRANCH 104 105
ATOM    105  S   UNL A   1      47.572  36.962  29.255  1.00  0.00     0.124 S 
ATOM    106  O   UNL A   1      46.410  37.369  30.038  1.00  0.00    -0.237 OA
ATOM    107  O   UNL A   1      48.834  36.885  29.985  1.00  0.00    -0.237 OA
ATOM    108  O   UNL A   1      47.664  37.541  27.919  1.00  0.00    -0.744 OA
ENDBRANCH 104 105
ENDBRANCH  72  97
ENDBRANCH  46  47
ENDBRANCH  39  41
ENDBRANCH  38  39
ENDBRANCH  37  38
ENDBRANCH  36  37
ENDBRANCH  35  36
ENDBRANCH  34  35
ENDBRANCH   1  34
TORSDOF 23
ENDMDL
MODEL 3
REMARK VINA RESULT:     -11.3      5.882      8.087
REMARK SMILES Cn1cc(C(=O)OCCOCCOCCOC(=O)c2ccc(-c3c4nc(c(-c5c(F)cc(S(=O)(=O)[O-])cc5F)c5ccc([nH]5)c(-c5c(F)cc(S(=O)(=O)[O-])cc5F)c5nc(c(-c6c(F)cc(S(=O)(=O)[O-])cc6F)c6ccc3[nH]6)C=C5)C=C4)cc2)c(C(=O)Nc2ccc(-c3nc4cc(Cl)ccc4o3)cc2)n1
REMARK SMILES IDX 11 1 10 2 9 3 8 4 7 5 5 6 6 7 4 8 1 9 2 10 3 11 105 12 85 13
REMARK SMILES IDX 86 14 87 15 88 16 89 18 90 19 104 20 91 21 103 22 92 23
REMARK SMILES IDX 93 24 94 25 102 26 95 27 101 28 96 29 100 30 97 31 99 32
REMARK SMILES IDX 98 33 12 34 13 35 14 36 15 37 16 38 17 39 18 40 19 41 20 42
REMARK SMILES IDX 84 43 21 44 83 45 22 46 23 47 24 48 77 49 25 50 82 51 76 52
REMARK SMILES IDX 78 53 26 54 81 55 75 56 74 57 27 59 61 60 40 61 60 62 41 63
REMARK SMILES IDX 44 64 59 65 79 66 42 67 43 68 58 70 80 71 45 72 28 73 29 74
REMARK SMILES IDX 38 75 30 76 31 77 37 78 39 79 32 80 33 81 34 82 35 83 36 84
REMARK SMILES IDX 62 85 63 86 72 87 64 88 65 89 71 90 73 91 66 92 67 93 68 94
REMARK SMILES IDX 69 95 70 96 46 97 47 98 56 99 48 100 49 101 55 102 57 103
REMARK SMILES IDX 50 104 51 105 52 106 53 107 54 108
REMARK H PARENT 88 17 78 58 44 69
REMARK Flexibility Score: inf
ROOT
ATOM      1  C   UNL A   1      36.991  23.087  24.791  1.00  0.00     0.188 C 
ENDROOT
BRANCH   1   2
ATOM      2  O   UNL A   1      35.919  23.723  24.095  1.00  0.00    -0.376 OA
BRANCH   2   3
ATOM      3  C   UNL A   1      35.222  22.931  23.139  1.00  0.00     0.202 C 
BRANCH   3   4
ATOM      4  C   UNL A   1      33.936  23.505  22.550  1.00  0.00     0.261 C 
BRANCH   4   5
ATOM      5  O   UNL A   1      33.786  24.850  23.037  1.00  0.00    -0.460 OA
BRANCH   5   6
ATOM      6  C   UNL A   1      33.110  25.729  22.276  1.00  0.00     0.342 C 
ATOM      7  O   UNL A   1      33.288  25.886  21.073  1.00  0.00    -0.246 OA
BRANCH   6   8
ATOM      8  C   UNL A   1      32.277  26.602  23.075  1.00  0.00     0.111 A 
ATOM      9  C   UNL A   1      30.002  29.386  23.062  1.00  0.00     0.173 C 
ATOM     10  N   UNL A   1      30.842  28.241  23.309  1.00  0.00    -0.274 N 
ATOM     11  C   UNL A   1      31.342  27.381  22.404  1.00  0.00     0.125 A 
ATOM     12  N   UNL A   1      31.260  27.995  24.542  1.00  0.00    -0.167 NA
ATOM     13  C   UNL A   1      32.187  27.000  24.464  1.00  0.00     0.165 A 
BRANCH  13  14
ATOM     14  C   UNL A   1      32.814  26.700  25.793  1.00  0.00     0.277 C 
ATOM     15  O   UNL A   1      33.311  27.641  26.439  1.00  0.00    -0.267 OA
ATOM     16  N   UNL A   1      32.973  25.525  26.492  1.00  0.00    -0.321 N 
ATOM     17  H   UNL A   1      33.372  25.705  27.374  1.00  0.00     0.170 HD
BRANCH  16  18
ATOM     18  C   UNL A   1      32.744  24.165  26.336  1.00  0.00     0.041 A 
ATOM     19  C   UNL A   1      33.776  23.279  26.704  1.00  0.00     0.027 A 
ATOM     20  C   UNL A   1      31.602  23.649  25.779  1.00  0.00     0.027 A 
ATOM     21  C   UNL A   1      33.768  21.944  26.273  1.00  0.00     0.016 A 
ATOM     22  C   UNL A   1      31.601  22.342  25.308  1.00  0.00     0.016 A 
ATOM     23  C   UNL A   1      32.711  21.496  25.489  1.00  0.00     0.037 A 
BRANCH  23  24
ATOM     24  C   UNL A   1      32.771  20.295  24.657  1.00  0.00     0.227 A 
ATOM     25  N   UNL A   1      31.877  19.315  24.643  1.00  0.00    -0.209 NA
ATOM     26  O   UNL A   1      34.055  19.882  24.390  1.00  0.00    -0.436 OA
ATOM     27  C   UNL A   1      32.654  18.182  24.667  1.00  0.00     0.111 A 
ATOM     28  C   UNL A   1      33.985  18.529  24.510  1.00  0.00     0.155 A 
ATOM     29  C   UNL A   1      32.330  16.845  24.939  1.00  0.00     0.053 A 
ATOM     30  C   UNL A   1      35.059  17.657  24.604  1.00  0.00     0.051 A 
ATOM     31  C   UNL A   1      33.394  15.947  25.106  1.00  0.00     0.043 A 
ATOM     32  C   UNL A   1      34.729  16.341  24.941  1.00  0.00     0.024 A 
ATOM     33  Cl  UNL A   1      33.060  14.328  25.595  1.00  0.00    -0.084 Cl
ENDBRANCH  23  24
ENDBRANCH  16  18
ENDBRANCH  13  14
ENDBRANCH   6   8
ENDBRANCH   5   6
ENDBRANCH   4   5
ENDBRANCH   3   4
ENDBRANCH   2   3
ENDBRANCH   1   2
BRANCH   1  34
ATOM     34  C   UNL A   1      37.587  24.013  25.871  1.00  0.00     0.188 C 
BRANCH  34  35
ATOM     35  O   UNL A   1      38.384  23.297  26.816  1.00  0.00    -0.376 OA
BRANCH  35  36
ATOM     36  C   UNL A   1      39.367  22.418  26.270  1.00  0.00     0.202 C 
BRANCH  36  37
ATOM     37  C   UNL A   1      40.843  22.722  26.583  1.00  0.00     0.261 C 
BRANCH  37  38
ATOM     38  O   UNL A   1      41.257  24.082  26.347  1.00  0.00    -0.460 OA
BRANCH  38  39
ATOM     39  C   UNL A   1      42.318  24.542  27.043  1.00  0.00     0.338 C 
ATOM     40  O   UNL A   1      43.481  24.206  26.917  1.00  0.00    -0.246 OA
BRANCH  39  41
ATOM     41  C   UNL A   1      41.869  25.688  27.860  1.00  0.00     0.060 A 
ATOM     42  C   UNL A   1      42.722  26.791  27.991  1.00  0.00     0.016 A 
ATOM     43  C   UNL A   1      40.641  25.656  28.523  1.00  0.00     0.016 A 
ATOM     44  C   UNL A   1      42.378  27.839  28.843  1.00  0.00     0.010 A 
ATOM     45  C   UNL A   1      40.309  26.692  29.400  1.00  0.00     0.010 A 
ATOM     46  C   UNL A   1      41.202  27.758  29.601  1.00  0.00    -0.014 A 
BRANCH  46  47
ATOM     47  C   UNL A   1      41.062  28.619  30.801  1.00  0.00     0.031 A 
ATOM     48  C   UNL A   1      40.003  29.692  30.765  1.00  0.00     0.074 A 
ATOM     49  C   UNL A   1      41.822  28.450  31.895  1.00  0.00     0.049 A 
ATOM     50  N   UNL A   1      39.677  30.569  31.676  1.00  0.00    -0.248 NA
ATOM     51  C   UNL A   1      39.202  29.780  29.530  1.00  0.00     0.031 C 
ATOM     52  C   UNL A   1      42.848  27.424  32.069  1.00  0.00     0.029 A 
ATOM     53  N   UNL A   1      41.843  29.152  33.074  1.00  0.00    -0.354 N 
ATOM     54  C   UNL A   1      38.627  31.300  31.133  1.00  0.00     0.074 A 
ATOM     55  C   UNL A   1      38.390  30.788  29.802  1.00  0.00     0.031 C 
ATOM     56  C   UNL A   1      43.413  27.575  33.281  1.00  0.00     0.029 A 
ATOM     57  C   UNL A   1      42.797  28.715  33.961  1.00  0.00     0.049 A 
ATOM     58  H   UNL A   1      41.232  29.899  33.267  1.00  0.00     0.167 HD
ATOM     59  C   UNL A   1      37.913  32.303  31.694  1.00  0.00     0.037 A 
ATOM     60  C   UNL A   1      43.136  29.191  35.176  1.00  0.00     0.037 A 
ATOM     61  C   UNL A   1      38.160  32.830  33.006  1.00  0.00     0.049 A 
ATOM     62  C   UNL A   1      42.382  30.364  35.749  1.00  0.00     0.074 A 
ATOM     63  C   UNL A   1      37.496  33.850  33.664  1.00  0.00     0.029 A 
ATOM     64  N   UNL A   1      39.160  32.385  33.857  1.00  0.00    -0.354 N 
ATOM     65  N   UNL A   1      41.372  31.028  35.237  1.00  0.00    -0.248 NA
ATOM     66  C   UNL A   1      42.812  30.855  37.067  1.00  0.00     0.031 C 
ATOM     67  C   UNL A   1      38.120  34.046  34.901  1.00  0.00     0.029 A 
ATOM     68  C   UNL A   1      39.148  33.124  35.026  1.00  0.00     0.049 A 
ATOM     69  H   UNL A   1      39.786  31.652  33.657  1.00  0.00     0.167 HD
ATOM     70  C   UNL A   1      41.034  31.995  36.178  1.00  0.00     0.074 A 
ATOM     71  C   UNL A   1      41.941  31.829  37.294  1.00  0.00     0.031 C 
ATOM     72  C   UNL A   1      40.058  32.937  36.126  1.00  0.00     0.037 A 
BRANCH  59  73
ATOM     73  C   UNL A   1      36.815  32.903  30.868  1.00  0.00     0.058 A 
ATOM     74  C   UNL A   1      37.086  33.856  29.873  1.00  0.00     0.135 A 
ATOM     75  C   UNL A   1      35.479  32.530  31.079  1.00  0.00     0.135 A 
ATOM     76  F   UNL A   1      38.345  34.265  29.653  1.00  0.00    -0.206 F 
ATOM     77  C   UNL A   1      36.064  34.437  29.130  1.00  0.00     0.059 A 
ATOM     78  C   UNL A   1      34.443  33.085  30.333  1.00  0.00     0.059 A 
ATOM     79  F   UNL A   1      35.169  31.633  32.026  1.00  0.00    -0.206 F 
ATOM     80  C   UNL A   1      34.745  34.048  29.371  1.00  0.00     0.060 A 
BRANCH  80  81
ATOM     81  S   UNL A   1      33.427  34.815  28.406  1.00  0.00     0.124 S 
ATOM     82  O   UNL A   1      34.178  35.758  27.584  1.00  0.00    -0.237 OA
ATOM     83  O   UNL A   1      32.851  33.676  27.696  1.00  0.00    -0.237 OA
ATOM     84  O   UNL A   1      32.567  35.412  29.423  1.00  0.00    -0.744 OA
ENDBRANCH  80  81
ENDBRANCH  59  73
BRANCH  60  85
ATOM     85  C   UNL A   1      44.256  28.574  35.934  1.00  0.00     0.058 A 
ATOM     86  C   UNL A   1      45.578  29.003  35.757  1.00  0.00     0.135 A 
ATOM     87  C   UNL A   1      44.023  27.524  36.836  1.00  0.00     0.135 A 
ATOM     88  F   UNL A   1      45.851  29.993  34.893  1.00  0.00    -0.206 F 
ATOM     89  C   UNL A   1      46.637  28.405  36.435  1.00  0.00     0.059 A 
ATOM     90  C   UNL A   1      45.062  26.921  37.539  1.00  0.00     0.059 A 
ATOM     91  F   UNL A   1      42.775  27.080  37.045  1.00  0.00    -0.206 F 
ATOM     92  C   UNL A   1      46.367  27.360  37.323  1.00  0.00     0.060 A 
BRANCH  92  93
ATOM     93  S   UNL A   1      47.738  26.608  38.229  1.00  0.00     0.124 S 
ATOM     94  O   UNL A   1      48.036  25.447  37.399  1.00  0.00    -0.237 OA
ATOM     95  O   UNL A   1      48.737  27.672  38.222  1.00  0.00    -0.237 OA
ATOM     96  O   UNL A   1      47.152  26.319  39.535  1.00  0.00    -0.744 OA
ENDBRANCH  92  93
ENDBRANCH  60  85
BRANCH  72  97
ATOM     97  C   UNL A   1      39.905  33.845  37.312  1.00  0.00     0.058 A 
ATOM     98  C   UNL A   1      40.479  35.124  37.334  1.00  0.00     0.135 A 
ATOM     99  C   UNL A   1      39.112  33.460  38.406  1.00  0.00     0.135 A 
ATOM    100  F   UNL A   1      41.247  35.537  36.313  1.00  0.00    -0.206 F 
ATOM    101  C   UNL A   1      40.284  35.989  38.406  1.00  0.00     0.059 A 
ATOM    102  C   UNL A   1      38.887  34.316  39.479  1.00  0.00     0.059 A 
ATOM    103  F   UNL A   1      38.531  32.250  38.426  1.00  0.00    -0.206 F 
ATOM    104  C   UNL A   1      39.484  35.576  39.474  1.00  0.00     0.060 A 
BRANCH 104 105
ATOM    105  S   UNL A   1      39.195  36.723  40.839  1.00  0.00     0.124 S 
ATOM    106  O   UNL A   1      40.554  36.957  41.317  1.00  0.00    -0.237 OA
ATOM    107  O   UNL A   1      38.554  37.852  40.173  1.00  0.00    -0.237 OA
ATOM    108  O   UNL A   1      38.334  35.965  41.741  1.00  0.00    -0.744 OA
ENDBRANCH 104 105
ENDBRANCH  72  97
ENDBRANCH  46  47
ENDBRANCH  39  41
ENDBRANCH  38  39
ENDBRANCH  37  38
ENDBRANCH  36  37
ENDBRANCH  35  36
ENDBRANCH  34  35
ENDBRANCH   1  34
TORSDOF 23
ENDMDL
