MODEL 1
REMARK VINA RESULT:     -11.8      0.000      0.000
REMARK SMILES O=C(NC1(C(=O)OCCOCCOCCOC(=O)c2ccc(-c3c4nc(c(-c5c(F)cc(S(=O)(=O)[O-])cc5F)c5ccc([nH]5)c(-c5c(F)cc(S(=O)(=O)[O-])cc5F)c5nc(c(-c6c(F)cc(S(=O)(=O)[O-])cc6F)c6ccc3[nH]6)C=C5)C=C4)cc2)Cc2ccccc2C1)OCC1c2ccccc2-c2ccccc21
REMARK SMILES IDX 11 1 10 2 9 3 8 4 7 5 5 6 6 7 4 8 85 9 92 10 86 11 91 12
REMARK SMILES IDX 87 13 90 14 88 15 89 16 3 17 1 18 2 19 93 21 94 22 95 23
REMARK SMILES IDX 96 24 107 25 97 26 101 27 102 28 106 29 98 30 100 31 103 32
REMARK SMILES IDX 105 33 99 34 104 35 12 36 13 37 14 38 15 39 16 40 17 41
REMARK SMILES IDX 18 42 19 43 20 44 84 45 21 46 83 47 22 48 23 49 24 50 77 51
REMARK SMILES IDX 25 52 82 53 76 54 78 55 26 56 81 57 75 58 74 59 27 61 61 62
REMARK SMILES IDX 40 63 60 64 41 65 44 66 59 67 79 68 42 69 43 70 58 72 80 73
REMARK SMILES IDX 45 74 28 75 29 76 38 77 30 78 31 79 37 80 39 81 32 82 33 83
REMARK SMILES IDX 34 84 35 85 36 86 62 87 63 88 72 89 64 90 65 91 71 92 73 93
REMARK SMILES IDX 66 94 67 95 68 96 69 97 70 98 46 99 47 100 56 101 48 102
REMARK SMILES IDX 49 103 55 104 57 105 50 106 51 107 52 108 53 109 54 110
REMARK H PARENT 3 20 78 60 44 71
REMARK Flexibility Score: inf
ROOT
ATOM      1  C   UNL A   1      38.391  21.168  25.761  1.00  0.00     0.188 C 
ENDROOT
BRANCH   1   2
ATOM      2  O   UNL A   1      37.111  21.683  25.432  1.00  0.00    -0.376 OA
BRANCH   2   3
ATOM      3  C   UNL A   1      36.839  21.825  24.041  1.00  0.00     0.202 C 
BRANCH   3   4
ATOM      4  C   UNL A   1      36.689  23.254  23.524  1.00  0.00     0.261 C 
BRANCH   4   5
ATOM      5  O   UNL A   1      35.417  23.380  22.875  1.00  0.00    -0.461 OA
BRANCH   5   6
ATOM      6  C   UNL A   1      34.445  23.998  23.592  1.00  0.00     0.332 C 
ATOM      7  O   UNL A   1      34.687  24.680  24.578  1.00  0.00    -0.249 OA
BRANCH   6   8
ATOM      8  C   UNL A   1      33.012  23.562  23.093  1.00  0.00     0.149 C 
ATOM      9  C   UNL A   1      31.898  24.029  24.059  1.00  0.00     0.076 C 
ATOM     10  C   UNL A   1      32.971  22.011  23.260  1.00  0.00     0.076 C 
ATOM     11  C   UNL A   1      32.185  23.105  25.217  1.00  0.00    -0.042 A 
ATOM     12  C   UNL A   1      32.830  21.944  24.755  1.00  0.00    -0.042 A 
ATOM     13  C   UNL A   1      32.211  23.453  26.554  1.00  0.00     0.004 A 
ATOM     14  C   UNL A   1      33.544  21.124  25.612  1.00  0.00     0.004 A 
ATOM     15  C   UNL A   1      32.959  22.652  27.419  1.00  0.00     0.000 A 
ATOM     16  C   UNL A   1      33.624  21.503  26.952  1.00  0.00     0.000 A 
BRANCH   8  17
ATOM     17  N   UNL A   1      32.771  23.968  21.708  1.00  0.00    -0.305 N 
ATOM     18  O   UNL A   1      32.692  25.503  20.065  1.00  0.00    -0.225 OA
ATOM     19  C   UNL A   1      32.798  25.260  21.252  1.00  0.00     0.408 C 
ATOM     20  H   UNL A   1      32.573  23.259  21.053  1.00  0.00     0.168 HD
BRANCH  19  21
ATOM     21  O   UNL A   1      33.106  26.181  22.223  1.00  0.00    -0.449 OA
BRANCH  21  22
ATOM     22  C   UNL A   1      31.947  26.945  22.578  1.00  0.00     0.248 C 
BRANCH  22  23
ATOM     23  C   UNL A   1      32.163  28.455  22.855  1.00  0.00     0.088 C 
ATOM     24  C   UNL A   1      30.959  29.396  22.835  1.00  0.00    -0.029 A 
ATOM     25  C   UNL A   1      32.603  28.591  24.325  1.00  0.00    -0.029 A 
ATOM     26  C   UNL A   1      30.187  29.800  21.759  1.00  0.00     0.005 A 
ATOM     27  C   UNL A   1      30.711  29.923  24.125  1.00  0.00    -0.014 A 
ATOM     28  C   UNL A   1      31.700  29.407  25.040  1.00  0.00    -0.014 A 
ATOM     29  C   UNL A   1      33.636  27.933  24.976  1.00  0.00     0.005 A 
ATOM     30  C   UNL A   1      29.109  30.664  21.997  1.00  0.00     0.000 A 
ATOM     31  C   UNL A   1      29.636  30.769  24.365  1.00  0.00     0.009 A 
ATOM     32  C   UNL A   1      31.809  29.557  26.413  1.00  0.00     0.009 A 
ATOM     33  C   UNL A   1      33.741  28.077  26.362  1.00  0.00     0.000 A 
ATOM     34  C   UNL A   1      28.820  31.125  23.291  1.00  0.00     0.001 A 
ATOM     35  C   UNL A   1      32.834  28.877  27.075  1.00  0.00     0.001 A 
ENDBRANCH  22  23
ENDBRANCH  21  22
ENDBRANCH  19  21
ENDBRANCH   8  17
ENDBRANCH   6   8
ENDBRANCH   5   6
ENDBRANCH   4   5
ENDBRANCH   3   4
ENDBRANCH   2   3
ENDBRANCH   1   2
BRANCH   1  36
ATOM     36  C   UNL A   1      39.326  22.187  26.448  1.00  0.00     0.188 C 
BRANCH  36  37
ATOM     37  O   UNL A   1      40.459  21.761  27.194  1.00  0.00    -0.376 OA
BRANCH  37  38
ATOM     38  C   UNL A   1      41.516  21.098  26.511  1.00  0.00     0.202 C 
BRANCH  38  39
ATOM     39  C   UNL A   1      42.718  21.909  25.996  1.00  0.00     0.261 C 
BRANCH  39  40
ATOM     40  O   UNL A   1      43.077  23.045  26.799  1.00  0.00    -0.460 OA
BRANCH  40  41
ATOM     41  C   UNL A   1      43.096  24.239  26.150  1.00  0.00     0.338 C 
ATOM     42  O   UNL A   1      43.378  24.432  24.979  1.00  0.00    -0.246 OA
BRANCH  41  43
ATOM     43  C   UNL A   1      42.459  25.271  27.003  1.00  0.00     0.060 A 
ATOM     44  C   UNL A   1      42.905  26.597  26.870  1.00  0.00     0.016 A 
ATOM     45  C   UNL A   1      41.440  24.959  27.903  1.00  0.00     0.016 A 
ATOM     46  C   UNL A   1      42.349  27.612  27.643  1.00  0.00     0.010 A 
ATOM     47  C   UNL A   1      40.928  25.967  28.729  1.00  0.00     0.010 A 
ATOM     48  C   UNL A   1      41.411  27.285  28.627  1.00  0.00    -0.014 A 
BRANCH  48  49
ATOM     49  C   UNL A   1      41.215  28.230  29.753  1.00  0.00     0.031 A 
ATOM     50  C   UNL A   1      42.132  28.071  30.939  1.00  0.00     0.074 A 
ATOM     51  C   UNL A   1      40.286  29.201  29.730  1.00  0.00     0.049 A 
ATOM     52  N   UNL A   1      42.140  28.710  32.078  1.00  0.00    -0.248 NA
ATOM     53  C   UNL A   1      43.189  27.049  30.816  1.00  0.00     0.031 C 
ATOM     54  C   UNL A   1      39.394  29.501  28.613  1.00  0.00     0.029 A 
ATOM     55  N   UNL A   1      39.938  30.112  30.697  1.00  0.00    -0.354 N 
ATOM     56  C   UNL A   1      43.193  28.166  32.805  1.00  0.00     0.074 A 
ATOM     57  C   UNL A   1      43.794  27.137  31.988  1.00  0.00     0.031 C 
ATOM     58  C   UNL A   1      38.577  30.511  28.970  1.00  0.00     0.029 A 
ATOM     59  C   UNL A   1      38.869  30.904  30.349  1.00  0.00     0.049 A 
ATOM     60  H   UNL A   1      40.409  30.190  31.557  1.00  0.00     0.167 HD
ATOM     61  C   UNL A   1      43.621  28.489  34.046  1.00  0.00     0.037 A 
ATOM     62  C   UNL A   1      38.193  31.816  31.078  1.00  0.00     0.037 A 
ATOM     63  C   UNL A   1      43.004  29.493  34.866  1.00  0.00     0.049 A 
ATOM     64  C   UNL A   1      38.627  32.093  32.498  1.00  0.00     0.074 A 
ATOM     65  C   UNL A   1      43.351  29.893  36.143  1.00  0.00     0.029 A 
ATOM     66  N   UNL A   1      41.900  30.245  34.493  1.00  0.00    -0.354 N 
ATOM     67  N   UNL A   1      39.629  31.580  33.173  1.00  0.00    -0.248 NA
ATOM     68  C   UNL A   1      37.836  33.073  33.257  1.00  0.00     0.031 C 
ATOM     69  C   UNL A   1      42.426  30.855  36.561  1.00  0.00     0.029 A 
ATOM     70  C   UNL A   1      41.537  31.091  35.525  1.00  0.00     0.049 A 
ATOM     71  H   UNL A   1      41.443  30.185  33.623  1.00  0.00     0.167 HD
ATOM     72  C   UNL A   1      39.608  32.198  34.420  1.00  0.00     0.074 A 
ATOM     73  C   UNL A   1      38.496  33.126  34.406  1.00  0.00     0.031 C 
ATOM     74  C   UNL A   1      40.434  32.019  35.482  1.00  0.00     0.037 A 
BRANCH  61  75
ATOM     75  C   UNL A   1      44.780  27.712  34.599  1.00  0.00     0.058 A 
ATOM     76  C   UNL A   1      46.106  28.144  34.437  1.00  0.00     0.135 A 
ATOM     77  C   UNL A   1      44.560  26.516  35.301  1.00  0.00     0.135 A 
ATOM     78  F   UNL A   1      46.372  29.264  33.747  1.00  0.00    -0.206 F 
ATOM     79  C   UNL A   1      47.175  27.408  34.936  1.00  0.00     0.059 A 
ATOM     80  C   UNL A   1      45.613  25.776  35.830  1.00  0.00     0.059 A 
ATOM     81  F   UNL A   1      43.312  26.051  35.470  1.00  0.00    -0.206 F 
ATOM     82  C   UNL A   1      46.919  26.225  35.632  1.00  0.00     0.060 A 
BRANCH  82  83
ATOM     83  S   UNL A   1      48.315  25.285  36.279  1.00  0.00     0.124 S 
ATOM     84  O   UNL A   1      48.325  24.127  35.390  1.00  0.00    -0.237 OA
ATOM     85  O   UNL A   1      49.425  26.219  36.115  1.00  0.00    -0.237 OA
ATOM     86  O   UNL A   1      47.930  25.011  37.660  1.00  0.00    -0.744 OA
ENDBRANCH  82  83
ENDBRANCH  61  75
BRANCH  62  87
ATOM     87  C   UNL A   1      37.018  32.519  30.496  1.00  0.00     0.058 A 
ATOM     88  C   UNL A   1      37.180  33.564  29.573  1.00  0.00     0.135 A 
ATOM     89  C   UNL A   1      35.708  32.180  30.872  1.00  0.00     0.135 A 
ATOM     90  F   UNL A   1      38.411  33.938  29.195  1.00  0.00    -0.206 F 
ATOM     91  C   UNL A   1      36.089  34.257  29.055  1.00  0.00     0.059 A 
ATOM     92  C   UNL A   1      34.600  32.841  30.349  1.00  0.00     0.059 A 
ATOM     93  F   UNL A   1      35.496  31.188  31.751  1.00  0.00    -0.206 F 
ATOM     94  C   UNL A   1      34.802  33.886  29.448  1.00  0.00     0.060 A 
BRANCH  94  95
ATOM     95  S   UNL A   1      33.391  34.767  28.742  1.00  0.00     0.124 S 
ATOM     96  O   UNL A   1      32.971  33.852  27.687  1.00  0.00    -0.237 OA
ATOM     97  O   UNL A   1      32.493  34.878  29.887  1.00  0.00    -0.237 OA
ATOM     98  O   UNL A   1      33.975  36.026  28.289  1.00  0.00    -0.744 OA
ENDBRANCH  94  95
ENDBRANCH  62  87
BRANCH  74  99
ATOM     99  C   UNL A   1      40.203  32.870  36.700  1.00  0.00     0.058 A 
ATOM    100  C   UNL A   1      40.966  34.018  36.956  1.00  0.00     0.135 A 
ATOM    101  C   UNL A   1      39.152  32.569  37.583  1.00  0.00     0.135 A 
ATOM    102  F   UNL A   1      41.983  34.349  36.145  1.00  0.00    -0.206 F 
ATOM    103  C   UNL A   1      40.708  34.830  38.058  1.00  0.00     0.059 A 
ATOM    104  C   UNL A   1      38.859  33.381  38.674  1.00  0.00     0.059 A 
ATOM    105  F   UNL A   1      38.381  31.489  37.374  1.00  0.00    -0.206 F 
ATOM    106  C   UNL A   1      39.651  34.504  38.909  1.00  0.00     0.060 A 
BRANCH 106 107
ATOM    107  S   UNL A   1      39.301  35.587  40.311  1.00  0.00     0.124 S 
ATOM    108  O   UNL A   1      40.605  35.651  40.964  1.00  0.00    -0.237 OA
ATOM    109  O   UNL A   1      38.858  36.814  39.657  1.00  0.00    -0.237 OA
ATOM    110  O   UNL A   1      38.266  34.866  41.047  1.00  0.00    -0.744 OA
ENDBRANCH 106 107
ENDBRANCH  74  99
ENDBRANCH  48  49
ENDBRANCH  41  43
ENDBRANCH  40  41
ENDBRANCH  39  40
ENDBRANCH  38  39
ENDBRANCH  37  38
ENDBRANCH  36  37
ENDBRANCH   1  36
TORSDOF 24
ENDMDL
MODEL 2
REMARK VINA RESULT:     -11.6      0.708      2.220
REMARK SMILES O=C(NC1(C(=O)OCCOCCOCCOC(=O)c2ccc(-c3c4nc(c(-c5c(F)cc(S(=O)(=O)[O-])cc5F)c5ccc([nH]5)c(-c5c(F)cc(S(=O)(=O)[O-])cc5F)c5nc(c(-c6c(F)cc(S(=O)(=O)[O-])cc6F)c6ccc3[nH]6)C=C5)C=C4)cc2)Cc2ccccc2C1)OCC1c2ccccc2-c2ccccc21
REMARK SMILES IDX 11 1 10 2 9 3 8 4 7 5 5 6 6 7 4 8 85 9 92 10 86 11 91 12
REMARK SMILES IDX 87 13 90 14 88 15 89 16 3 17 1 18 2 19 93 21 94 22 95 23
REMARK SMILES IDX 96 24 107 25 97 26 101 27 102 28 106 29 98 30 100 31 103 32
REMARK SMILES IDX 105 33 99 34 104 35 12 36 13 37 14 38 15 39 16 40 17 41
REMARK SMILES IDX 18 42 19 43 20 44 84 45 21 46 83 47 22 48 23 49 24 50 77 51
REMARK SMILES IDX 25 52 82 53 76 54 78 55 26 56 81 57 75 58 74 59 27 61 61 62
REMARK SMILES IDX 40 63 60 64 41 65 44 66 59 67 79 68 42 69 43 70 58 72 80 73
REMARK SMILES IDX 45 74 28 75 29 76 38 77 30 78 31 79 37 80 39 81 32 82 33 83
REMARK SMILES IDX 34 84 35 85 36 86 62 87 63 88 72 89 64 90 65 91 71 92 73 93
REMARK SMILES IDX 66 94 67 95 68 96 69 97 70 98 46 99 47 100 56 101 48 102
REMARK SMILES IDX 49 103 55 104 57 105 50 106 51 107 52 108 53 109 54 110
REMARK H PARENT 3 20 78 60 44 71
REMARK Flexibility Score: inf
ROOT
ATOM      1  C   UNL A   1      38.750  20.322  25.242  1.00  0.00     0.188 C 
ENDROOT
BRANCH   1   2
ATOM      2  O   UNL A   1      38.445  21.703  25.124  1.00  0.00    -0.376 OA
BRANCH   2   3
ATOM      3  C   UNL A   1      37.077  22.016  24.875  1.00  0.00     0.202 C 
BRANCH   3   4
ATOM      4  C   UNL A   1      36.808  23.321  24.132  1.00  0.00     0.261 C 
BRANCH   4   5
ATOM      5  O   UNL A   1      35.548  23.216  23.453  1.00  0.00    -0.461 OA
BRANCH   5   6
ATOM      6  C   UNL A   1      34.557  24.016  23.919  1.00  0.00     0.332 C 
ATOM      7  O   UNL A   1      34.744  24.862  24.781  1.00  0.00    -0.249 OA
BRANCH   6   8
ATOM      8  C   UNL A   1      33.156  23.574  23.339  1.00  0.00     0.149 C 
ATOM      9  C   UNL A   1      31.988  24.014  24.253  1.00  0.00     0.076 C 
ATOM     10  C   UNL A   1      33.124  22.019  23.480  1.00  0.00     0.076 C 
ATOM     11  C   UNL A   1      32.225  23.076  25.410  1.00  0.00    -0.042 A 
ATOM     12  C   UNL A   1      32.905  21.928  24.965  1.00  0.00    -0.042 A 
ATOM     13  C   UNL A   1      32.178  23.403  26.751  1.00  0.00     0.004 A 
ATOM     14  C   UNL A   1      33.583  21.103  25.845  1.00  0.00     0.004 A 
ATOM     15  C   UNL A   1      32.888  22.596  27.642  1.00  0.00     0.000 A 
ATOM     16  C   UNL A   1      33.588  21.461  27.193  1.00  0.00     0.000 A 
BRANCH   8  17
ATOM     17  N   UNL A   1      32.983  23.999  21.949  1.00  0.00    -0.305 N 
ATOM     18  O   UNL A   1      32.725  25.573  20.364  1.00  0.00    -0.225 OA
ATOM     19  C   UNL A   1      32.751  25.288  21.545  1.00  0.00     0.408 C 
ATOM     20  H   UNL A   1      33.037  23.306  21.251  1.00  0.00     0.168 HD
BRANCH  19  21
ATOM     21  O   UNL A   1      32.717  26.191  22.578  1.00  0.00    -0.449 OA
BRANCH  21  22
ATOM     22  C   UNL A   1      31.588  27.065  22.446  1.00  0.00     0.248 C 
BRANCH  22  23
ATOM     23  C   UNL A   1      30.872  27.485  23.756  1.00  0.00     0.088 C 
ATOM     24  C   UNL A   1      31.692  28.102  24.888  1.00  0.00    -0.029 A 
ATOM     25  C   UNL A   1      29.939  28.660  23.408  1.00  0.00    -0.029 A 
ATOM     26  C   UNL A   1      32.636  27.505  25.706  1.00  0.00     0.005 A 
ATOM     27  C   UNL A   1      31.327  29.454  25.094  1.00  0.00    -0.014 A 
ATOM     28  C   UNL A   1      30.274  29.801  24.170  1.00  0.00    -0.014 A 
ATOM     29  C   UNL A   1      28.978  28.727  22.411  1.00  0.00     0.005 A 
ATOM     30  C   UNL A   1      33.277  28.293  26.673  1.00  0.00     0.000 A 
ATOM     31  C   UNL A   1      31.968  30.240  26.042  1.00  0.00     0.009 A 
ATOM     32  C   UNL A   1      29.666  31.022  23.927  1.00  0.00     0.009 A 
ATOM     33  C   UNL A   1      28.371  29.960  22.161  1.00  0.00     0.000 A 
ATOM     34  C   UNL A   1      32.965  29.653  26.823  1.00  0.00     0.001 A 
ATOM     35  C   UNL A   1      28.715  31.098  22.908  1.00  0.00     0.001 A 
ENDBRANCH  22  23
ENDBRANCH  21  22
ENDBRANCH  19  21
ENDBRANCH   8  17
ENDBRANCH   6   8
ENDBRANCH   5   6
ENDBRANCH   4   5
ENDBRANCH   3   4
ENDBRANCH   2   3
ENDBRANCH   1   2
BRANCH   1  36
ATOM     36  C   UNL A   1      39.988  20.020  26.115  1.00  0.00     0.188 C 
BRANCH  36  37
ATOM     37  O   UNL A   1      40.388  20.903  27.155  1.00  0.00    -0.376 OA
BRANCH  37  38
ATOM     38  C   UNL A   1      41.774  21.028  27.451  1.00  0.00     0.202 C 
BRANCH  38  39
ATOM     39  C   UNL A   1      42.275  22.242  28.251  1.00  0.00     0.261 C 
BRANCH  39  40
ATOM     40  O   UNL A   1      43.040  23.198  27.497  1.00  0.00    -0.460 OA
BRANCH  40  41
ATOM     41  C   UNL A   1      42.321  23.994  26.662  1.00  0.00     0.338 C 
ATOM     42  O   UNL A   1      41.938  23.720  25.538  1.00  0.00    -0.246 OA
BRANCH  41  43
ATOM     43  C   UNL A   1      41.827  25.172  27.415  1.00  0.00     0.060 A 
ATOM     44  C   UNL A   1      42.664  26.300  27.488  1.00  0.00     0.016 A 
ATOM     45  C   UNL A   1      40.572  25.188  28.023  1.00  0.00     0.016 A 
ATOM     46  C   UNL A   1      42.259  27.438  28.180  1.00  0.00     0.010 A 
ATOM     47  C   UNL A   1      40.193  26.305  28.776  1.00  0.00     0.010 A 
ATOM     48  C   UNL A   1      41.054  27.414  28.888  1.00  0.00    -0.014 A 
BRANCH  48  49
ATOM     49  C   UNL A   1      40.874  28.375  30.002  1.00  0.00     0.031 A 
ATOM     50  C   UNL A   1      41.767  28.197  31.203  1.00  0.00     0.074 A 
ATOM     51  C   UNL A   1      39.978  29.376  29.957  1.00  0.00     0.049 A 
ATOM     52  N   UNL A   1      41.780  28.847  32.337  1.00  0.00    -0.248 NA
ATOM     53  C   UNL A   1      42.791  27.140  31.106  1.00  0.00     0.031 C 
ATOM     54  C   UNL A   1      39.113  29.696  28.824  1.00  0.00     0.029 A 
ATOM     55  N   UNL A   1      39.647  30.308  30.909  1.00  0.00    -0.354 N 
ATOM     56  C   UNL A   1      42.804  28.275  33.084  1.00  0.00     0.074 A 
ATOM     57  C   UNL A   1      43.382  27.219  32.286  1.00  0.00     0.031 C 
ATOM     58  C   UNL A   1      38.325  30.736  29.160  1.00  0.00     0.029 A 
ATOM     59  C   UNL A   1      38.611  31.132  30.539  1.00  0.00     0.049 A 
ATOM     60  H   UNL A   1      40.108  30.380  31.776  1.00  0.00     0.167 HD
ATOM     61  C   UNL A   1      43.224  28.596  34.328  1.00  0.00     0.037 A 
ATOM     62  C   UNL A   1      37.955  32.074  31.248  1.00  0.00     0.037 A 
ATOM     63  C   UNL A   1      42.629  29.628  35.130  1.00  0.00     0.049 A 
ATOM     64  C   UNL A   1      38.378  32.350  32.672  1.00  0.00     0.074 A 
ATOM     65  C   UNL A   1      42.971  30.029  36.407  1.00  0.00     0.029 A 
ATOM     66  N   UNL A   1      41.557  30.413  34.733  1.00  0.00    -0.354 N 
ATOM     67  N   UNL A   1      39.352  31.811  33.367  1.00  0.00    -0.248 NA
ATOM     68  C   UNL A   1      37.609  33.363  33.410  1.00  0.00     0.031 C 
ATOM     69  C   UNL A   1      42.073  31.025  36.803  1.00  0.00     0.029 A 
ATOM     70  C   UNL A   1      41.208  31.282  35.751  1.00  0.00     0.049 A 
ATOM     71  H   UNL A   1      41.111  30.360  33.857  1.00  0.00     0.167 HD
ATOM     72  C   UNL A   1      39.334  32.442  34.608  1.00  0.00     0.074 A 
ATOM     73  C   UNL A   1      38.254  33.406  34.568  1.00  0.00     0.031 C 
ATOM     74  C   UNL A   1      40.137  32.245  35.683  1.00  0.00     0.037 A 
BRANCH  61  75
ATOM     75  C   UNL A   1      44.348  27.786  34.906  1.00  0.00     0.058 A 
ATOM     76  C   UNL A   1      44.113  26.606  35.630  1.00  0.00     0.135 A 
ATOM     77  C   UNL A   1      45.679  28.197  34.733  1.00  0.00     0.135 A 
ATOM     78  F   UNL A   1      42.857  26.186  35.849  1.00  0.00    -0.206 F 
ATOM     79  C   UNL A   1      45.158  25.871  36.179  1.00  0.00     0.059 A 
ATOM     80  C   UNL A   1      46.742  27.464  35.252  1.00  0.00     0.059 A 
ATOM     81  F   UNL A   1      45.957  29.326  34.063  1.00  0.00    -0.206 F 
ATOM     82  C   UNL A   1      46.470  26.308  35.984  1.00  0.00     0.060 A 
BRANCH  82  83
ATOM     83  S   UNL A   1      47.816  25.341  36.695  1.00  0.00     0.124 S 
ATOM     84  O   UNL A   1      47.287  23.984  36.592  1.00  0.00    -0.237 OA
ATOM     85  O   UNL A   1      48.931  25.655  35.807  1.00  0.00    -0.237 OA
ATOM     86  O   UNL A   1      47.933  25.866  38.052  1.00  0.00    -0.744 OA
ENDBRANCH  82  83
ENDBRANCH  61  75
BRANCH  62  87
ATOM     87  C   UNL A   1      36.813  32.811  30.643  1.00  0.00     0.058 A 
ATOM     88  C   UNL A   1      35.487  32.496  30.976  1.00  0.00     0.135 A 
ATOM     89  C   UNL A   1      37.023  33.826  29.696  1.00  0.00     0.135 A 
ATOM     90  F   UNL A   1      35.231  31.522  31.861  1.00  0.00    -0.206 F 
ATOM     91  C   UNL A   1      34.410  33.151  30.384  1.00  0.00     0.059 A 
ATOM     92  C   UNL A   1      35.964  34.513  29.109  1.00  0.00     0.059 A 
ATOM     93  F   UNL A   1      38.271  34.168  29.341  1.00  0.00    -0.206 F 
ATOM     94  C   UNL A   1      34.659  34.160  29.452  1.00  0.00     0.060 A 
BRANCH  94  95
ATOM     95  S   UNL A   1      33.256  35.029  28.718  1.00  0.00     0.124 S 
ATOM     96  O   UNL A   1      32.677  33.992  27.871  1.00  0.00    -0.237 OA
ATOM     97  O   UNL A   1      32.476  35.403  29.894  1.00  0.00    -0.237 OA
ATOM     98  O   UNL A   1      33.883  36.143  28.012  1.00  0.00    -0.744 OA
ENDBRANCH  94  95
ENDBRANCH  62  87
BRANCH  74  99
ATOM     99  C   UNL A   1      39.918  33.115  36.890  1.00  0.00     0.058 A 
ATOM    100  C   UNL A   1      38.951  32.808  37.858  1.00  0.00     0.135 A 
ATOM    101  C   UNL A   1      40.742  34.231  37.115  1.00  0.00     0.135 A 
ATOM    102  F   UNL A   1      38.136  31.755  37.690  1.00  0.00    -0.206 F 
ATOM    103  C   UNL A   1      38.793  33.590  38.999  1.00  0.00     0.059 A 
ATOM    104  C   UNL A   1      40.620  35.009  38.262  1.00  0.00     0.059 A 
ATOM    105  F   UNL A   1      41.695  34.559  36.228  1.00  0.00    -0.206 F 
ATOM    106  C   UNL A   1      39.635  34.686  39.194  1.00  0.00     0.060 A 
BRANCH 106 107
ATOM    107  S   UNL A   1      39.447  35.668  40.697  1.00  0.00     0.124 S 
ATOM    108  O   UNL A   1      38.744  34.734  41.571  1.00  0.00    -0.237 OA
ATOM    109  O   UNL A   1      40.831  35.956  41.059  1.00  0.00    -0.237 OA
ATOM    110  O   UNL A   1      38.668  36.821  40.255  1.00  0.00    -0.744 OA
ENDBRANCH 106 107
ENDBRANCH  74  99
ENDBRANCH  48  49
ENDBRANCH  41  43
ENDBRANCH  40  41
ENDBRANCH  39  40
ENDBRANCH  38  39
ENDBRANCH  37  38
ENDBRANCH  36  37
ENDBRANCH   1  36
TORSDOF 24
ENDMDL
MODEL 3
REMARK VINA RESULT:     -11.4      2.098      3.393
REMARK SMILES O=C(NC1(C(=O)OCCOCCOCCOC(=O)c2ccc(-c3c4nc(c(-c5c(F)cc(S(=O)(=O)[O-])cc5F)c5ccc([nH]5)c(-c5c(F)cc(S(=O)(=O)[O-])cc5F)c5nc(c(-c6c(F)cc(S(=O)(=O)[O-])cc6F)c6ccc3[nH]6)C=C5)C=C4)cc2)Cc2ccccc2C1)OCC1c2ccccc2-c2ccccc21
REMARK SMILES IDX 11 1 10 2 9 3 8 4 7 5 5 6 6 7 4 8 85 9 92 10 86 11 91 12
REMARK SMILES IDX 87 13 90 14 88 15 89 16 3 17 1 18 2 19 93 21 94 22 95 23
REMARK SMILES IDX 96 24 107 25 97 26 101 27 102 28 106 29 98 30 100 31 103 32
REMARK SMILES IDX 105 33 99 34 104 35 12 36 13 37 14 38 15 39 16 40 17 41
REMARK SMILES IDX 18 42 19 43 20 44 84 45 21 46 83 47 22 48 23 49 24 50 77 51
REMARK SMILES IDX 25 52 82 53 76 54 78 55 26 56 81 57 75 58 74 59 27 61 61 62
REMARK SMILES IDX 40 63 60 64 41 65 44 66 59 67 79 68 42 69 43 70 58 72 80 73
REMARK SMILES IDX 45 74 28 75 29 76 38 77 30 78 31 79 37 80 39 81 32 82 33 83
REMARK SMILES IDX 34 84 35 85 36 86 62 87 63 88 72 89 64 90 65 91 71 92 73 93
REMARK SMILES IDX 66 94 67 95 68 96 69 97 70 98 46 99 47 100 56 101 48 102
REMARK SMILES IDX 49 103 55 104 57 105 50 106 51 107 52 108 53 109 54 110
REMARK H PARENT 3 20 78 60 44 71
REMARK Flexibility Score: inf
ROOT
ATOM      1  C   UNL A   1      36.802  19.573  24.970  1.00  0.00     0.188 C 
ENDROOT
BRANCH   1   2
ATOM      2  O   UNL A   1      36.006  18.543  24.405  1.00  0.00    -0.376 OA
BRANCH   2   3
ATOM      3  C   UNL A   1      34.753  18.310  25.041  1.00  0.00     0.202 C 
BRANCH   3   4
ATOM      4  C   UNL A   1      33.600  19.213  24.613  1.00  0.00     0.261 C 
BRANCH   4   5
ATOM      5  O   UNL A   1      33.472  20.281  25.563  1.00  0.00    -0.461 OA
BRANCH   5   6
ATOM      6  C   UNL A   1      33.187  21.502  25.044  1.00  0.00     0.332 C 
ATOM      7  O   UNL A   1      33.306  21.757  23.855  1.00  0.00    -0.249 OA
BRANCH   6   8
ATOM      8  C   UNL A   1      32.875  22.543  26.191  1.00  0.00     0.149 C 
ATOM      9  C   UNL A   1      33.187  23.993  25.754  1.00  0.00     0.076 C 
ATOM     10  C   UNL A   1      33.956  22.284  27.287  1.00  0.00     0.076 C 
ATOM     11  C   UNL A   1      34.693  23.914  25.722  1.00  0.00    -0.042 A 
ATOM     12  C   UNL A   1      35.138  22.905  26.595  1.00  0.00    -0.042 A 
ATOM     13  C   UNL A   1      35.518  24.422  24.738  1.00  0.00     0.004 A 
ATOM     14  C   UNL A   1      36.404  22.357  26.481  1.00  0.00     0.004 A 
ATOM     15  C   UNL A   1      36.784  23.851  24.593  1.00  0.00     0.000 A 
ATOM     16  C   UNL A   1      37.220  22.825  25.452  1.00  0.00     0.000 A 
BRANCH   8  17
ATOM     17  N   UNL A   1      31.518  22.385  26.715  1.00  0.00    -0.305 N 
ATOM     18  O   UNL A   1      29.497  23.188  27.289  1.00  0.00    -0.225 OA
ATOM     19  C   UNL A   1      30.643  23.413  26.953  1.00  0.00     0.408 C 
ATOM     20  H   UNL A   1      31.210  21.471  26.913  1.00  0.00     0.168 HD
BRANCH  19  21
ATOM     21  O   UNL A   1      31.144  24.649  26.626  1.00  0.00    -0.449 OA
BRANCH  21  22
ATOM     22  C   UNL A   1      30.121  25.469  26.045  1.00  0.00     0.248 C 
BRANCH  22  23
ATOM     23  C   UNL A   1      30.574  26.813  25.419  1.00  0.00     0.088 C 
ATOM     24  C   UNL A   1      31.662  27.629  26.115  1.00  0.00    -0.029 A 
ATOM     25  C   UNL A   1      31.276  26.482  24.088  1.00  0.00    -0.029 A 
ATOM     26  C   UNL A   1      31.603  28.317  27.316  1.00  0.00     0.005 A 
ATOM     27  C   UNL A   1      32.835  27.684  25.324  1.00  0.00    -0.014 A 
ATOM     28  C   UNL A   1      32.606  26.958  24.098  1.00  0.00    -0.014 A 
ATOM     29  C   UNL A   1      30.803  25.713  23.036  1.00  0.00     0.005 A 
ATOM     30  C   UNL A   1      32.753  28.984  27.762  1.00  0.00     0.000 A 
ATOM     31  C   UNL A   1      33.978  28.333  25.769  1.00  0.00     0.009 A 
ATOM     32  C   UNL A   1      33.478  26.652  23.065  1.00  0.00     0.009 A 
ATOM     33  C   UNL A   1      31.685  25.397  22.000  1.00  0.00     0.000 A 
ATOM     34  C   UNL A   1      33.937  28.971  27.009  1.00  0.00     0.001 A 
ATOM     35  C   UNL A   1      33.011  25.857  22.016  1.00  0.00     0.001 A 
ENDBRANCH  22  23
ENDBRANCH  21  22
ENDBRANCH  19  21
ENDBRANCH   8  17
ENDBRANCH   6   8
ENDBRANCH   5   6
ENDBRANCH   4   5
ENDBRANCH   3   4
ENDBRANCH   2   3
ENDBRANCH   1   2
BRANCH   1  36
ATOM     36  C   UNL A   1      38.316  19.418  24.708  1.00  0.00     0.188 C 
BRANCH  36  37
ATOM     37  O   UNL A   1      39.175  18.830  25.677  1.00  0.00    -0.376 OA
BRANCH  37  38
ATOM     38  C   UNL A   1      40.493  19.343  25.824  1.00  0.00     0.202 C 
BRANCH  38  39
ATOM     39  C   UNL A   1      40.762  20.477  26.828  1.00  0.00     0.261 C 
BRANCH  39  40
ATOM     40  O   UNL A   1      40.318  21.780  26.412  1.00  0.00    -0.460 OA
BRANCH  40  41
ATOM     41  C   UNL A   1      41.303  22.653  26.075  1.00  0.00     0.338 C 
ATOM     42  O   UNL A   1      42.146  22.507  25.206  1.00  0.00    -0.246 OA
BRANCH  41  43
ATOM     43  C   UNL A   1      41.053  23.954  26.741  1.00  0.00     0.060 A 
ATOM     44  C   UNL A   1      41.923  25.018  26.447  1.00  0.00     0.016 A 
ATOM     45  C   UNL A   1      39.988  24.140  27.622  1.00  0.00     0.016 A 
ATOM     46  C   UNL A   1      41.745  26.264  27.040  1.00  0.00     0.010 A 
ATOM     47  C   UNL A   1      39.848  25.372  28.271  1.00  0.00     0.010 A 
ATOM     48  C   UNL A   1      40.751  26.422  28.011  1.00  0.00    -0.014 A 
BRANCH  48  49
ATOM     49  C   UNL A   1      40.886  27.534  28.982  1.00  0.00     0.031 A 
ATOM     50  C   UNL A   1      42.051  27.464  29.935  1.00  0.00     0.074 A 
ATOM     51  C   UNL A   1      40.035  28.574  29.015  1.00  0.00     0.049 A 
ATOM     52  N   UNL A   1      42.370  28.258  30.922  1.00  0.00    -0.248 NA
ATOM     53  C   UNL A   1      42.988  26.341  29.741  1.00  0.00     0.031 C 
ATOM     54  C   UNL A   1      38.918  28.791  28.099  1.00  0.00     0.029 A 
ATOM     55  N   UNL A   1      39.982  29.644  29.874  1.00  0.00    -0.354 N 
ATOM     56  C   UNL A   1      43.535  27.730  31.466  1.00  0.00     0.074 A 
ATOM     57  C   UNL A   1      43.863  26.542  30.712  1.00  0.00     0.031 C 
ATOM     58  C   UNL A   1      38.269  29.913  28.465  1.00  0.00     0.029 A 
ATOM     59  C   UNL A   1      38.907  30.473  29.657  1.00  0.00     0.049 A 
ATOM     60  H   UNL A   1      40.650  29.802  30.578  1.00  0.00     0.167 HD
ATOM     61  C   UNL A   1      44.268  28.189  32.505  1.00  0.00     0.037 A 
ATOM     62  C   UNL A   1      38.479  31.540  30.362  1.00  0.00     0.037 A 
ATOM     63  C   UNL A   1      43.924  29.354  33.271  1.00  0.00     0.049 A 
ATOM     64  C   UNL A   1      39.258  31.980  31.579  1.00  0.00     0.074 A 
ATOM     65  C   UNL A   1      44.592  29.901  34.350  1.00  0.00     0.029 A 
ATOM     66  N   UNL A   1      42.807  30.144  33.044  1.00  0.00    -0.354 N 
ATOM     67  N   UNL A   1      40.363  31.479  32.080  1.00  0.00    -0.248 NA
ATOM     68  C   UNL A   1      38.730  33.129  32.329  1.00  0.00     0.031 C 
ATOM     69  C   UNL A   1      43.851  30.996  34.807  1.00  0.00     0.029 A 
ATOM     70  C   UNL A   1      42.752  31.161  33.979  1.00  0.00     0.049 A 
ATOM     71  H   UNL A   1      42.151  30.001  32.323  1.00  0.00     0.167 HD
ATOM     72  C   UNL A   1      40.679  32.271  33.181  1.00  0.00     0.074 A 
ATOM     73  C   UNL A   1      39.651  33.287  33.271  1.00  0.00     0.031 C 
ATOM     74  C   UNL A   1      41.725  32.172  34.039  1.00  0.00     0.037 A 
BRANCH  61  75
ATOM     75  C   UNL A   1      45.481  27.395  32.897  1.00  0.00     0.058 A 
ATOM     76  C   UNL A   1      45.400  26.311  33.785  1.00  0.00     0.135 A 
ATOM     77  C   UNL A   1      46.742  27.726  32.376  1.00  0.00     0.135 A 
ATOM     78  F   UNL A   1      44.223  25.974  34.336  1.00  0.00    -0.206 F 
ATOM     79  C   UNL A   1      46.531  25.593  34.159  1.00  0.00     0.059 A 
ATOM     80  C   UNL A   1      47.883  27.006  32.716  1.00  0.00     0.059 A 
ATOM     81  F   UNL A   1      46.875  28.763  31.536  1.00  0.00    -0.206 F 
ATOM     82  C   UNL A   1      47.769  25.948  33.618  1.00  0.00     0.060 A 
BRANCH  82  83
ATOM     83  S   UNL A   1      49.226  25.003  34.106  1.00  0.00     0.124 S 
ATOM     84  O   UNL A   1      48.662  23.667  34.280  1.00  0.00    -0.237 OA
ATOM     85  O   UNL A   1      50.108  25.172  32.955  1.00  0.00    -0.237 OA
ATOM     86  O   UNL A   1      49.665  25.663  35.330  1.00  0.00    -0.744 OA
ENDBRANCH  82  83
ENDBRANCH  61  75
BRANCH  62  87
ATOM     87  C   UNL A   1      37.240  32.259  29.959  1.00  0.00     0.058 A 
ATOM     88  C   UNL A   1      35.970  31.735  30.248  1.00  0.00     0.135 A 
ATOM     89  C   UNL A   1      37.299  33.471  29.252  1.00  0.00     0.135 A 
ATOM     90  F   UNL A   1      35.859  30.572  30.905  1.00  0.00    -0.206 F 
ATOM     91  C   UNL A   1      34.805  32.378  29.838  1.00  0.00     0.059 A 
ATOM     92  C   UNL A   1      36.148  34.145  28.854  1.00  0.00     0.059 A 
ATOM     93  F   UNL A   1      38.487  34.016  28.950  1.00  0.00    -0.206 F 
ATOM     94  C   UNL A   1      34.904  33.584  29.143  1.00  0.00     0.060 A 
BRANCH  94  95
ATOM     95  S   UNL A   1      33.386  34.429  28.649  1.00  0.00     0.124 S 
ATOM     96  O   UNL A   1      33.910  35.551  27.878  1.00  0.00    -0.237 OA
ATOM     97  O   UNL A   1      32.694  33.396  27.884  1.00  0.00    -0.237 OA
ATOM     98  O   UNL A   1      32.764  34.775  29.924  1.00  0.00    -0.744 OA
ENDBRANCH  94  95
ENDBRANCH  62  87
BRANCH  74  99
ATOM     99  C   UNL A   1      41.844  33.208  35.122  1.00  0.00     0.058 A 
ATOM    100  C   UNL A   1      41.283  33.019  36.393  1.00  0.00     0.135 A 
ATOM    101  C   UNL A   1      42.596  34.374  34.904  1.00  0.00     0.135 A 
ATOM    102  F   UNL A   1      40.552  31.923  36.653  1.00  0.00    -0.206 F 
ATOM    103  C   UNL A   1      41.445  33.960  37.406  1.00  0.00     0.059 A 
ATOM    104  C   UNL A   1      42.795  35.315  35.910  1.00  0.00     0.059 A 
ATOM    105  F   UNL A   1      43.170  34.597  33.710  1.00  0.00    -0.206 F 
ATOM    106  C   UNL A   1      42.206  35.103  37.155  1.00  0.00     0.060 A 
BRANCH 106 107
ATOM    107  S   UNL A   1      42.443  36.297  38.489  1.00  0.00     0.124 S 
ATOM    108  O   UNL A   1      43.648  36.993  38.049  1.00  0.00    -0.237 OA
ATOM    109  O   UNL A   1      41.208  37.073  38.439  1.00  0.00    -0.237 OA
ATOM    110  O   UNL A   1      42.601  35.457  39.672  1.00  0.00    -0.744 OA
ENDBRANCH 106 107
ENDBRANCH  74  99
ENDBRANCH  48  49
ENDBRANCH  41  43
ENDBRANCH  40  41
ENDBRANCH  39  40
ENDBRANCH  38  39
ENDBRANCH  37  38
ENDBRANCH  36  37
ENDBRANCH   1  36
TORSDOF 24
ENDMDL
