MODEL 1
REMARK VINA RESULT:      -9.9      0.000      0.000
REMARK SMILES CC1(C)NC(=O)N(CCC(=O)N2CCC[C@H]2C(=O)OCCOCCOCCOC(=O)c2ccc(-c3c4nc(c(-c5c(F)cc(S(=O)(=O)[O-])cc5F)c5ccc([nH]5)c(-c5c(F)cc(S(=O)(=O)[O-])cc5F)c5nc(c(-c6c(F)cc(S(=O)(=O)[O-])cc6F)c6ccc3[nH]6)C=C5)C=C4)cc2)C1=O
REMARK SMILES IDX 23 1 22 2 21 3 20 4 19 5 17 6 18 7 16 8 12 9 13 10 14 11
REMARK SMILES IDX 15 12 10 13 11 14 9 15 8 16 7 17 1 18 2 19 3 20 4 21 97 22
REMARK SMILES IDX 5 23 98 25 6 26 24 27 25 28 26 29 27 30 28 31 29 32 30 33
REMARK SMILES IDX 31 34 32 35 96 36 33 37 95 38 34 39 35 40 36 41 89 42 37 43
REMARK SMILES IDX 94 44 88 45 90 46 38 47 93 48 87 49 86 50 39 52 73 53 52 54
REMARK SMILES IDX 72 55 53 56 56 57 71 58 91 59 54 60 55 61 70 63 92 64 57 65
REMARK SMILES IDX 40 66 41 67 50 68 42 69 43 70 49 71 51 72 44 73 45 74 46 75
REMARK SMILES IDX 47 76 48 77 74 78 75 79 84 80 76 81 77 82 83 83 85 84 78 85
REMARK SMILES IDX 79 86 80 87 81 88 82 89 58 90 59 91 68 92 60 93 61 94 67 95
REMARK SMILES IDX 69 96 62 97 63 98 64 99 65 100 66 101
REMARK H PARENT 4 24 90 51 56 62
REMARK Flexibility Score: inf
ROOT
ATOM      1  C   UNL A   1      35.353  33.564  28.465  1.00  0.00     0.188 C 
ENDROOT
BRANCH   1   2
ATOM      2  O   UNL A   1      34.995  32.606  27.490  1.00  0.00    -0.376 OA
BRANCH   2   3
ATOM      3  C   UNL A   1      34.092  31.591  27.835  1.00  0.00     0.202 C 
BRANCH   3   4
ATOM      4  C   UNL A   1      34.218  30.141  27.308  1.00  0.00     0.261 C 
BRANCH   4   5
ATOM      5  O   UNL A   1      33.446  29.653  26.182  1.00  0.00    -0.462 OA
BRANCH   5   6
ATOM      6  C   UNL A   1      32.553  28.712  26.565  1.00  0.00     0.328 C 
ATOM      7  O   UNL A   1      31.811  28.926  27.516  1.00  0.00    -0.250 OA
BRANCH   6   8
ATOM      8  C   UNL A   1      32.555  27.327  25.896  1.00  0.00     0.195 C 
ATOM      9  N   UNL A   1      31.941  27.016  24.624  1.00  0.00    -0.329 N 
ATOM     10  C   UNL A   1      32.988  26.737  23.651  1.00  0.00     0.120 C 
ATOM     11  C   UNL A   1      33.990  25.957  24.481  1.00  0.00     0.024 C 
ATOM     12  C   UNL A   1      33.960  26.695  25.820  1.00  0.00     0.039 C 
BRANCH   9  13
ATOM     13  C   UNL A   1      30.763  26.271  24.570  1.00  0.00     0.225 C 
ATOM     14  O   UNL A   1      29.948  26.325  25.499  1.00  0.00    -0.275 OA
BRANCH  13  15
ATOM     15  C   UNL A   1      30.556  25.222  23.476  1.00  0.00     0.122 C 
BRANCH  15  16
ATOM     16  C   UNL A   1      30.681  23.676  23.468  1.00  0.00     0.140 C 
BRANCH  16  17
ATOM     17  N   UNL A   1      31.747  22.910  24.102  1.00  0.00    -0.262 N 
ATOM     18  C   UNL A   1      35.275  22.268  24.397  1.00  0.00     0.045 C 
ATOM     19  C   UNL A   1      33.831  21.811  24.544  1.00  0.00     0.115 C 
ATOM     20  C   UNL A   1      33.821  20.280  24.575  1.00  0.00     0.045 C 
ATOM     21  N   UNL A   1      33.145  22.280  25.726  1.00  0.00    -0.324 N 
ATOM     22  C   UNL A   1      32.920  22.514  23.494  1.00  0.00     0.255 C 
ATOM     23  C   UNL A   1      31.911  22.820  25.447  1.00  0.00     0.325 C 
ATOM     24  H   UNL A   1      33.521  22.220  26.635  1.00  0.00     0.166 HD
ATOM     25  O   UNL A   1      33.208  22.706  22.319  1.00  0.00    -0.272 OA
ATOM     26  O   UNL A   1      31.099  23.151  26.308  1.00  0.00    -0.248 OA
ENDBRANCH  16  17
ENDBRANCH  15  16
ENDBRANCH  13  15
ENDBRANCH   9  13
ENDBRANCH   6   8
ENDBRANCH   5   6
ENDBRANCH   4   5
ENDBRANCH   3   4
ENDBRANCH   2   3
ENDBRANCH   1   2
BRANCH   1  27
ATOM     27  C   UNL A   1      34.095  34.136  29.109  1.00  0.00     0.188 C 
BRANCH  27  28
ATOM     28  O   UNL A   1      33.852  33.865  30.488  1.00  0.00    -0.376 OA
BRANCH  28  29
ATOM     29  C   UNL A   1      34.975  33.605  31.317  1.00  0.00     0.202 C 
BRANCH  29  30
ATOM     30  C   UNL A   1      35.182  32.163  31.783  1.00  0.00     0.261 C 
BRANCH  30  31
ATOM     31  O   UNL A   1      36.248  31.452  31.140  1.00  0.00    -0.460 OA
BRANCH  31  32
ATOM     32  C   UNL A   1      37.296  31.177  31.955  1.00  0.00     0.338 C 
ATOM     33  O   UNL A   1      37.321  31.305  33.177  1.00  0.00    -0.246 OA
BRANCH  32  34
ATOM     34  C   UNL A   1      38.422  30.592  31.197  1.00  0.00     0.060 A 
ATOM     35  C   UNL A   1      39.484  30.044  31.926  1.00  0.00     0.016 A 
ATOM     36  C   UNL A   1      38.490  30.641  29.803  1.00  0.00     0.016 A 
ATOM     37  C   UNL A   1      40.612  29.545  31.274  1.00  0.00     0.010 A 
ATOM     38  C   UNL A   1      39.642  30.178  29.148  1.00  0.00     0.010 A 
ATOM     39  C   UNL A   1      40.716  29.645  29.882  1.00  0.00    -0.014 A 
BRANCH  39  40
ATOM     40  C   UNL A   1      42.023  29.375  29.227  1.00  0.00     0.031 A 
ATOM     41  C   UNL A   1      42.278  27.995  28.680  1.00  0.00     0.074 A 
ATOM     42  C   UNL A   1      42.949  30.340  29.076  1.00  0.00     0.049 A 
ATOM     43  N   UNL A   1      43.354  27.510  28.116  1.00  0.00    -0.248 NA
ATOM     44  C   UNL A   1      41.163  27.040  28.775  1.00  0.00     0.031 C 
ATOM     45  C   UNL A   1      42.790  31.736  29.482  1.00  0.00     0.029 A 
ATOM     46  N   UNL A   1      44.212  30.288  28.538  1.00  0.00    -0.354 N 
ATOM     47  C   UNL A   1      43.047  26.192  27.792  1.00  0.00     0.074 A 
ATOM     48  C   UNL A   1      41.691  25.952  28.233  1.00  0.00     0.031 C 
ATOM     49  C   UNL A   1      43.919  32.405  29.187  1.00  0.00     0.029 A 
ATOM     50  C   UNL A   1      44.896  31.480  28.613  1.00  0.00     0.049 A 
ATOM     51  H   UNL A   1      44.593  29.474  28.136  1.00  0.00     0.167 HD
ATOM     52  C   UNL A   1      43.829  25.265  27.188  1.00  0.00     0.037 A 
ATOM     53  C   UNL A   1      46.172  31.778  28.284  1.00  0.00     0.037 A 
ATOM     54  C   UNL A   1      45.186  25.502  26.771  1.00  0.00     0.049 A 
ATOM     55  C   UNL A   1      47.059  30.698  27.712  1.00  0.00     0.074 A 
ATOM     56  C   UNL A   1      46.069  24.619  26.174  1.00  0.00     0.029 A 
ATOM     57  N   UNL A   1      45.864  26.704  26.920  1.00  0.00    -0.354 N 
ATOM     58  N   UNL A   1      46.764  29.451  27.424  1.00  0.00    -0.248 NA
ATOM     59  C   UNL A   1      48.456  31.061  27.428  1.00  0.00     0.031 C 
ATOM     60  C   UNL A   1      47.297  25.270  26.015  1.00  0.00     0.029 A 
ATOM     61  C   UNL A   1      47.161  26.578  26.453  1.00  0.00     0.049 A 
ATOM     62  H   UNL A   1      45.477  27.525  27.301  1.00  0.00     0.167 HD
ATOM     63  C   UNL A   1      47.927  28.894  26.896  1.00  0.00     0.074 A 
ATOM     64  C   UNL A   1      48.928  29.941  26.896  1.00  0.00     0.031 C 
ATOM     65  C   UNL A   1      48.145  27.632  26.449  1.00  0.00     0.037 A 
BRANCH  52  66
ATOM     66  C   UNL A   1      43.251  23.889  26.999  1.00  0.00     0.058 A 
ATOM     67  C   UNL A   1      42.800  23.434  25.749  1.00  0.00     0.135 A 
ATOM     68  C   UNL A   1      43.160  23.006  28.087  1.00  0.00     0.135 A 
ATOM     69  F   UNL A   1      42.845  24.243  24.679  1.00  0.00    -0.206 F 
ATOM     70  C   UNL A   1      42.254  22.163  25.592  1.00  0.00     0.059 A 
ATOM     71  C   UNL A   1      42.644  21.721  27.947  1.00  0.00     0.059 A 
ATOM     72  F   UNL A   1      43.572  23.389  29.305  1.00  0.00    -0.206 F 
ATOM     73  C   UNL A   1      42.178  21.315  26.699  1.00  0.00     0.060 A 
BRANCH  73  74
ATOM     74  S   UNL A   1      41.457  19.673  26.482  1.00  0.00     0.124 S 
ATOM     75  O   UNL A   1      41.791  19.038  27.754  1.00  0.00    -0.237 OA
ATOM     76  O   UNL A   1      40.045  19.977  26.278  1.00  0.00    -0.237 OA
ATOM     77  O   UNL A   1      42.157  19.145  25.316  1.00  0.00    -0.744 OA
ENDBRANCH  73  74
ENDBRANCH  52  66
BRANCH  53  78
ATOM     78  C   UNL A   1      46.709  33.151  28.518  1.00  0.00     0.058 A 
ATOM     79  C   UNL A   1      46.675  34.130  27.514  1.00  0.00     0.135 A 
ATOM     80  C   UNL A   1      47.295  33.501  29.745  1.00  0.00     0.135 A 
ATOM     81  F   UNL A   1      46.149  33.843  26.314  1.00  0.00    -0.206 F 
ATOM     82  C   UNL A   1      47.212  35.400  27.712  1.00  0.00     0.059 A 
ATOM     83  C   UNL A   1      47.810  34.773  29.978  1.00  0.00     0.059 A 
ATOM     84  F   UNL A   1      47.356  32.604  30.742  1.00  0.00    -0.206 F 
ATOM     85  C   UNL A   1      47.773  35.714  28.951  1.00  0.00     0.060 A 
BRANCH  85  86
ATOM     86  S   UNL A   1      48.419  37.380  29.216  1.00  0.00     0.124 S 
ATOM     87  O   UNL A   1      47.196  38.139  29.446  1.00  0.00    -0.237 OA
ATOM     88  O   UNL A   1      49.283  37.191  30.378  1.00  0.00    -0.237 OA
ATOM     89  O   UNL A   1      49.119  37.672  27.969  1.00  0.00    -0.744 OA
ENDBRANCH  85  86
ENDBRANCH  53  78
BRANCH  65  90
ATOM     90  C   UNL A   1      49.504  27.312  25.881  1.00  0.00     0.058 A 
ATOM     91  C   UNL A   1      50.561  26.864  26.687  1.00  0.00     0.135 A 
ATOM     92  C   UNL A   1      49.729  27.392  24.495  1.00  0.00     0.135 A 
ATOM     93  F   UNL A   1      50.405  26.772  28.017  1.00  0.00    -0.206 F 
ATOM     94  C   UNL A   1      51.799  26.526  26.145  1.00  0.00     0.059 A 
ATOM     95  C   UNL A   1      50.948  27.032  23.928  1.00  0.00     0.059 A 
ATOM     96  F   UNL A   1      48.750  27.803  23.674  1.00  0.00    -0.206 F 
ATOM     97  C   UNL A   1      51.981  26.609  24.763  1.00  0.00     0.060 A 
BRANCH  97  98
ATOM     98  S   UNL A   1      53.578  26.131  24.070  1.00  0.00     0.124 S 
ATOM     99  O   UNL A   1      53.804  24.840  24.712  1.00  0.00    -0.237 OA
ATOM    100  O   UNL A   1      53.295  26.085  22.638  1.00  0.00    -0.237 OA
ATOM    101  O   UNL A   1      54.470  27.207  24.492  1.00  0.00    -0.744 OA
ENDBRANCH  97  98
ENDBRANCH  65  90
ENDBRANCH  39  40
ENDBRANCH  32  34
ENDBRANCH  31  32
ENDBRANCH  30  31
ENDBRANCH  29  30
ENDBRANCH  28  29
ENDBRANCH  27  28
ENDBRANCH   1  27
TORSDOF 24
ENDMDL
MODEL 2
REMARK VINA RESULT:      -9.7      1.036      2.077
REMARK SMILES CC1(C)NC(=O)N(CCC(=O)N2CCC[C@H]2C(=O)OCCOCCOCCOC(=O)c2ccc(-c3c4nc(c(-c5c(F)cc(S(=O)(=O)[O-])cc5F)c5ccc([nH]5)c(-c5c(F)cc(S(=O)(=O)[O-])cc5F)c5nc(c(-c6c(F)cc(S(=O)(=O)[O-])cc6F)c6ccc3[nH]6)C=C5)C=C4)cc2)C1=O
REMARK SMILES IDX 23 1 22 2 21 3 20 4 19 5 17 6 18 7 16 8 12 9 13 10 14 11
REMARK SMILES IDX 15 12 10 13 11 14 9 15 8 16 7 17 1 18 2 19 3 20 4 21 97 22
REMARK SMILES IDX 5 23 98 25 6 26 24 27 25 28 26 29 27 30 28 31 29 32 30 33
REMARK SMILES IDX 31 34 32 35 96 36 33 37 95 38 34 39 35 40 36 41 89 42 37 43
REMARK SMILES IDX 94 44 88 45 90 46 38 47 93 48 87 49 86 50 39 52 73 53 52 54
REMARK SMILES IDX 72 55 53 56 56 57 71 58 91 59 54 60 55 61 70 63 92 64 57 65
REMARK SMILES IDX 40 66 41 67 50 68 42 69 43 70 49 71 51 72 44 73 45 74 46 75
REMARK SMILES IDX 47 76 48 77 74 78 75 79 84 80 76 81 77 82 83 83 85 84 78 85
REMARK SMILES IDX 79 86 80 87 81 88 82 89 58 90 59 91 68 92 60 93 61 94 67 95
REMARK SMILES IDX 69 96 62 97 63 98 64 99 65 100 66 101
REMARK H PARENT 4 24 90 51 56 62
REMARK Flexibility Score: inf
ROOT
ATOM      1  C   UNL A   1      34.890  31.713  28.029  1.00  0.00     0.188 C 
ENDROOT
BRANCH   1   2
ATOM      2  O   UNL A   1      34.241  30.728  27.251  1.00  0.00    -0.376 OA
BRANCH   2   3
ATOM      3  C   UNL A   1      34.602  29.383  27.418  1.00  0.00     0.202 C 
BRANCH   3   4
ATOM      4  C   UNL A   1      34.065  28.251  26.510  1.00  0.00     0.261 C 
BRANCH   4   5
ATOM      5  O   UNL A   1      33.227  28.511  25.357  1.00  0.00    -0.462 OA
BRANCH   5   6
ATOM      6  C   UNL A   1      32.004  27.951  25.497  1.00  0.00     0.328 C 
ATOM      7  O   UNL A   1      31.555  27.738  26.616  1.00  0.00    -0.250 OA
BRANCH   6   8
ATOM      8  C   UNL A   1      31.232  27.459  24.260  1.00  0.00     0.195 C 
ATOM      9  N   UNL A   1      30.545  26.191  24.159  1.00  0.00    -0.329 N 
ATOM     10  C   UNL A   1      29.110  26.434  24.117  1.00  0.00     0.120 C 
ATOM     11  C   UNL A   1      29.026  27.675  23.250  1.00  0.00     0.024 C 
ATOM     12  C   UNL A   1      30.225  28.497  23.724  1.00  0.00     0.039 C 
BRANCH   9  13
ATOM     13  C   UNL A   1      31.071  25.161  23.378  1.00  0.00     0.225 C 
ATOM     14  O   UNL A   1      30.537  24.046  23.373  1.00  0.00    -0.275 OA
BRANCH  13  15
ATOM     15  C   UNL A   1      32.426  25.326  22.687  1.00  0.00     0.122 C 
BRANCH  15  16
ATOM     16  C   UNL A   1      33.886  25.195  23.195  1.00  0.00     0.140 C 
BRANCH  16  17
ATOM     17  N   UNL A   1      34.396  24.121  24.037  1.00  0.00    -0.262 N 
ATOM     18  C   UNL A   1      37.226  22.177  25.115  1.00  0.00     0.045 C 
ATOM     19  C   UNL A   1      35.724  22.330  24.918  1.00  0.00     0.115 C 
ATOM     20  C   UNL A   1      35.104  20.931  24.911  1.00  0.00     0.045 C 
ATOM     21  N   UNL A   1      35.039  23.111  25.923  1.00  0.00    -0.324 N 
ATOM     22  C   UNL A   1      35.418  23.258  23.704  1.00  0.00     0.255 C 
ATOM     23  C   UNL A   1      34.212  24.068  25.382  1.00  0.00     0.325 C 
ATOM     24  H   UNL A   1      35.153  22.973  26.892  1.00  0.00     0.166 HD
ATOM     25  O   UNL A   1      36.008  23.241  22.631  1.00  0.00    -0.272 OA
ATOM     26  O   UNL A   1      33.431  24.749  26.042  1.00  0.00    -0.248 OA
ENDBRANCH  16  17
ENDBRANCH  15  16
ENDBRANCH  13  15
ENDBRANCH   9  13
ENDBRANCH   6   8
ENDBRANCH   5   6
ENDBRANCH   4   5
ENDBRANCH   3   4
ENDBRANCH   2   3
ENDBRANCH   1   2
BRANCH   1  27
ATOM     27  C   UNL A   1      33.928  32.861  28.312  1.00  0.00     0.188 C 
BRANCH  27  28
ATOM     28  O   UNL A   1      33.926  33.443  29.614  1.00  0.00    -0.376 OA
BRANCH  28  29
ATOM     29  C   UNL A   1      35.177  33.614  30.263  1.00  0.00     0.202 C 
BRANCH  29  30
ATOM     30  C   UNL A   1      35.461  32.735  31.481  1.00  0.00     0.261 C 
BRANCH  30  31
ATOM     31  O   UNL A   1      36.045  31.456  31.198  1.00  0.00    -0.460 OA
BRANCH  31  32
ATOM     32  C   UNL A   1      37.060  31.119  32.031  1.00  0.00     0.338 C 
ATOM     33  O   UNL A   1      37.045  31.177  33.258  1.00  0.00    -0.246 OA
BRANCH  32  34
ATOM     34  C   UNL A   1      38.203  30.562  31.279  1.00  0.00     0.060 A 
ATOM     35  C   UNL A   1      39.242  29.975  32.011  1.00  0.00     0.016 A 
ATOM     36  C   UNL A   1      38.310  30.672  29.890  1.00  0.00     0.016 A 
ATOM     37  C   UNL A   1      40.386  29.498  31.369  1.00  0.00     0.010 A 
ATOM     38  C   UNL A   1      39.477  30.230  29.247  1.00  0.00     0.010 A 
ATOM     39  C   UNL A   1      40.528  29.659  29.985  1.00  0.00    -0.014 A 
BRANCH  39  40
ATOM     40  C   UNL A   1      41.851  29.411  29.354  1.00  0.00     0.031 A 
ATOM     41  C   UNL A   1      42.135  28.038  28.803  1.00  0.00     0.074 A 
ATOM     42  C   UNL A   1      42.768  30.388  29.230  1.00  0.00     0.049 A 
ATOM     43  N   UNL A   1      43.227  27.570  28.257  1.00  0.00    -0.248 NA
ATOM     44  C   UNL A   1      41.029  27.068  28.868  1.00  0.00     0.031 C 
ATOM     45  C   UNL A   1      42.583  31.778  29.642  1.00  0.00     0.029 A 
ATOM     46  N   UNL A   1      44.042  30.356  28.716  1.00  0.00    -0.354 N 
ATOM     47  C   UNL A   1      42.944  26.252  27.918  1.00  0.00     0.074 A 
ATOM     48  C   UNL A   1      41.582  25.991  28.330  1.00  0.00     0.031 C 
ATOM     49  C   UNL A   1      43.709  32.464  29.374  1.00  0.00     0.029 A 
ATOM     50  C   UNL A   1      44.709  31.555  28.814  1.00  0.00     0.049 A 
ATOM     51  H   UNL A   1      44.441  29.550  28.316  1.00  0.00     0.167 HD
ATOM     52  C   UNL A   1      43.749  25.339  27.322  1.00  0.00     0.037 A 
ATOM     53  C   UNL A   1      45.987  31.872  28.512  1.00  0.00     0.037 A 
ATOM     54  C   UNL A   1      45.111  25.596  26.934  1.00  0.00     0.049 A 
ATOM     55  C   UNL A   1      46.899  30.808  27.950  1.00  0.00     0.074 A 
ATOM     56  C   UNL A   1      46.017  24.729  26.348  1.00  0.00     0.029 A 
ATOM     57  N   UNL A   1      45.770  26.805  27.106  1.00  0.00    -0.354 N 
ATOM     58  N   UNL A   1      46.626  29.559  27.648  1.00  0.00    -0.248 NA
ATOM     59  C   UNL A   1      48.297  31.190  27.697  1.00  0.00     0.031 C 
ATOM     60  C   UNL A   1      47.240  25.396  26.219  1.00  0.00     0.029 A 
ATOM     61  C   UNL A   1      47.078  26.698  26.664  1.00  0.00     0.049 A 
ATOM     62  H   UNL A   1      45.366  27.618  27.484  1.00  0.00     0.167 HD
ATOM     63  C   UNL A   1      47.806  29.021  27.139  1.00  0.00     0.074 A 
ATOM     64  C   UNL A   1      48.793  30.080  27.167  1.00  0.00     0.031 C 
ATOM     65  C   UNL A   1      48.049  27.765  26.687  1.00  0.00     0.037 A 
BRANCH  52  66
ATOM     66  C   UNL A   1      43.192  23.957  27.112  1.00  0.00     0.058 A 
ATOM     67  C   UNL A   1      43.186  22.992  28.133  1.00  0.00     0.135 A 
ATOM     68  C   UNL A   1      42.645  23.597  25.870  1.00  0.00     0.135 A 
ATOM     69  F   UNL A   1      43.714  23.275  29.334  1.00  0.00    -0.206 F 
ATOM     70  C   UNL A   1      42.681  21.713  27.920  1.00  0.00     0.059 A 
ATOM     71  C   UNL A   1      42.109  22.333  25.644  1.00  0.00     0.059 A 
ATOM     72  F   UNL A   1      42.629  24.478  24.858  1.00  0.00    -0.206 F 
ATOM     73  C   UNL A   1      42.147  21.392  26.671  1.00  0.00     0.060 A 
BRANCH  73  74
ATOM     74  S   UNL A   1      41.505  19.725  26.406  1.00  0.00     0.124 S 
ATOM     75  O   UNL A   1      41.763  19.104  27.702  1.00  0.00    -0.237 OA
ATOM     76  O   UNL A   1      40.102  19.977  26.092  1.00  0.00    -0.237 OA
ATOM     77  O   UNL A   1      42.311  19.221  25.299  1.00  0.00    -0.744 OA
ENDBRANCH  73  74
ENDBRANCH  52  66
BRANCH  53  78
ATOM     78  C   UNL A   1      46.502  33.249  28.767  1.00  0.00     0.058 A 
ATOM     79  C   UNL A   1      47.025  33.616  30.016  1.00  0.00     0.135 A 
ATOM     80  C   UNL A   1      46.453  34.238  27.770  1.00  0.00     0.135 A 
ATOM     81  F   UNL A   1      47.074  32.718  31.012  1.00  0.00    -0.206 F 
ATOM     82  C   UNL A   1      47.470  34.911  30.273  1.00  0.00     0.059 A 
ATOM     83  C   UNL A   1      46.919  35.531  27.993  1.00  0.00     0.059 A 
ATOM     84  F   UNL A   1      45.960  33.946  26.556  1.00  0.00    -0.206 F 
ATOM     85  C   UNL A   1      47.417  35.861  29.251  1.00  0.00     0.060 A 
BRANCH  85  86
ATOM     86  S   UNL A   1      48.044  37.524  29.577  1.00  0.00     0.124 S 
ATOM     87  O   UNL A   1      48.449  37.954  28.244  1.00  0.00    -0.237 OA
ATOM     88  O   UNL A   1      46.870  38.188  30.135  1.00  0.00    -0.237 OA
ATOM     89  O   UNL A   1      49.131  37.293  30.523  1.00  0.00    -0.744 OA
ENDBRANCH  85  86
ENDBRANCH  53  78
BRANCH  65  90
ATOM     90  C   UNL A   1      49.423  27.467  26.144  1.00  0.00     0.058 A 
ATOM     91  C   UNL A   1      49.715  27.546  24.774  1.00  0.00     0.135 A 
ATOM     92  C   UNL A   1      50.480  27.162  27.020  1.00  0.00     0.135 A 
ATOM     93  F   UNL A   1      48.745  27.829  23.891  1.00  0.00    -0.206 F 
ATOM     94  C   UNL A   1      51.000  27.314  24.289  1.00  0.00     0.059 A 
ATOM     95  C   UNL A   1      51.777  26.956  26.560  1.00  0.00     0.059 A 
ATOM     96  F   UNL A   1      50.261  27.085  28.342  1.00  0.00    -0.206 F 
ATOM     97  C   UNL A   1      52.025  27.024  25.190  1.00  0.00     0.060 A 
BRANCH  97  98
ATOM     98  S   UNL A   1      53.694  26.764  24.551  1.00  0.00     0.124 S 
ATOM     99  O   UNL A   1      54.496  26.881  25.765  1.00  0.00    -0.237 OA
ATOM    100  O   UNL A   1      53.603  25.424  23.978  1.00  0.00    -0.237 OA
ATOM    101  O   UNL A   1      53.861  27.844  23.582  1.00  0.00    -0.744 OA
ENDBRANCH  97  98
ENDBRANCH  65  90
ENDBRANCH  39  40
ENDBRANCH  32  34
ENDBRANCH  31  32
ENDBRANCH  30  31
ENDBRANCH  29  30
ENDBRANCH  28  29
ENDBRANCH  27  28
ENDBRANCH   1  27
TORSDOF 24
ENDMDL
MODEL 3
REMARK VINA RESULT:      -9.5      5.765     10.194
REMARK SMILES CC1(C)NC(=O)N(CCC(=O)N2CCC[C@H]2C(=O)OCCOCCOCCOC(=O)c2ccc(-c3c4nc(c(-c5c(F)cc(S(=O)(=O)[O-])cc5F)c5ccc([nH]5)c(-c5c(F)cc(S(=O)(=O)[O-])cc5F)c5nc(c(-c6c(F)cc(S(=O)(=O)[O-])cc6F)c6ccc3[nH]6)C=C5)C=C4)cc2)C1=O
REMARK SMILES IDX 23 1 22 2 21 3 20 4 19 5 17 6 18 7 16 8 12 9 13 10 14 11
REMARK SMILES IDX 15 12 10 13 11 14 9 15 8 16 7 17 1 18 2 19 3 20 4 21 97 22
REMARK SMILES IDX 5 23 98 25 6 26 24 27 25 28 26 29 27 30 28 31 29 32 30 33
REMARK SMILES IDX 31 34 32 35 96 36 33 37 95 38 34 39 35 40 36 41 89 42 37 43
REMARK SMILES IDX 94 44 88 45 90 46 38 47 93 48 87 49 86 50 39 52 73 53 52 54
REMARK SMILES IDX 72 55 53 56 56 57 71 58 91 59 54 60 55 61 70 63 92 64 57 65
REMARK SMILES IDX 40 66 41 67 50 68 42 69 43 70 49 71 51 72 44 73 45 74 46 75
REMARK SMILES IDX 47 76 48 77 74 78 75 79 84 80 76 81 77 82 83 83 85 84 78 85
REMARK SMILES IDX 79 86 80 87 81 88 82 89 58 90 59 91 68 92 60 93 61 94 67 95
REMARK SMILES IDX 69 96 62 97 63 98 64 99 65 100 66 101
REMARK H PARENT 4 24 90 51 56 62
REMARK Flexibility Score: inf
ROOT
ATOM      1  C   UNL A   1      34.436  32.785  28.784  1.00  0.00     0.188 C 
ENDROOT
BRANCH   1   2
ATOM      2  O   UNL A   1      34.858  32.078  27.636  1.00  0.00    -0.376 OA
BRANCH   2   3
ATOM      3  C   UNL A   1      35.496  30.840  27.798  1.00  0.00     0.202 C 
BRANCH   3   4
ATOM      4  C   UNL A   1      34.861  29.503  27.345  1.00  0.00     0.261 C 
BRANCH   4   5
ATOM      5  O   UNL A   1      33.462  29.194  27.561  1.00  0.00    -0.462 OA
BRANCH   5   6
ATOM      6  C   UNL A   1      32.711  29.518  26.485  1.00  0.00     0.328 C 
ATOM      7  O   UNL A   1      32.151  30.607  26.435  1.00  0.00    -0.250 OA
BRANCH   6   8
ATOM      8  C   UNL A   1      32.447  28.476  25.383  1.00  0.00     0.195 C 
ATOM      9  N   UNL A   1      31.161  27.882  25.090  1.00  0.00    -0.329 N 
ATOM     10  C   UNL A   1      30.701  28.368  23.797  1.00  0.00     0.120 C 
ATOM     11  C   UNL A   1      31.987  28.387  22.992  1.00  0.00     0.024 C 
ATOM     12  C   UNL A   1      33.010  28.893  24.010  1.00  0.00     0.039 C 
BRANCH   9  13
ATOM     13  C   UNL A   1      30.898  26.557  25.439  1.00  0.00     0.225 C 
ATOM     14  O   UNL A   1      30.476  26.282  26.569  1.00  0.00    -0.275 OA
BRANCH  13  15
ATOM     15  C   UNL A   1      31.322  25.412  24.518  1.00  0.00     0.122 C 
BRANCH  15  16
ATOM     16  C   UNL A   1      30.881  23.930  24.415  1.00  0.00     0.140 C 
BRANCH  16  17
ATOM     17  N   UNL A   1      31.601  22.791  24.972  1.00  0.00    -0.262 N 
ATOM     18  C   UNL A   1      34.694  20.969  25.219  1.00  0.00     0.045 C 
ATOM     19  C   UNL A   1      33.176  21.016  25.310  1.00  0.00     0.115 C 
ATOM     20  C   UNL A   1      32.652  19.583  25.183  1.00  0.00     0.045 C 
ATOM     21  N   UNL A   1      32.640  21.574  26.530  1.00  0.00    -0.324 N 
ATOM     22  C   UNL A   1      32.596  22.082  24.333  1.00  0.00     0.255 C 
ATOM     23  C   UNL A   1      31.671  22.523  26.302  1.00  0.00     0.325 C 
ATOM     24  H   UNL A   1      32.938  21.305  27.430  1.00  0.00     0.166 HD
ATOM     25  O   UNL A   1      32.979  22.277  23.186  1.00  0.00    -0.272 OA
ATOM     26  O   UNL A   1      30.984  23.026  27.187  1.00  0.00    -0.248 OA
ENDBRANCH  16  17
ENDBRANCH  15  16
ENDBRANCH  13  15
ENDBRANCH   9  13
ENDBRANCH   6   8
ENDBRANCH   5   6
ENDBRANCH   4   5
ENDBRANCH   3   4
ENDBRANCH   2   3
ENDBRANCH   1   2
BRANCH   1  27
ATOM     27  C   UNL A   1      33.659  34.028  28.365  1.00  0.00     0.188 C 
BRANCH  27  28
ATOM     28  O   UNL A   1      34.301  35.298  28.462  1.00  0.00    -0.376 OA
BRANCH  28  29
ATOM     29  C   UNL A   1      33.498  36.420  28.793  1.00  0.00     0.202 C 
BRANCH  29  30
ATOM     30  C   UNL A   1      32.481  36.245  29.921  1.00  0.00     0.261 C 
BRANCH  30  31
ATOM     31  O   UNL A   1      32.985  36.455  31.247  1.00  0.00    -0.460 OA
BRANCH  31  32
ATOM     32  C   UNL A   1      32.870  35.373  32.056  1.00  0.00     0.338 C 
ATOM     33  O   UNL A   1      31.845  34.984  32.610  1.00  0.00    -0.246 OA
BRANCH  32  34
ATOM     34  C   UNL A   1      34.143  34.625  32.131  1.00  0.00     0.060 A 
ATOM     35  C   UNL A   1      34.136  33.391  32.791  1.00  0.00     0.016 A 
ATOM     36  C   UNL A   1      35.344  35.143  31.638  1.00  0.00     0.016 A 
ATOM     37  C   UNL A   1      35.318  32.669  32.963  1.00  0.00     0.010 A 
ATOM     38  C   UNL A   1      36.539  34.438  31.847  1.00  0.00     0.010 A 
ATOM     39  C   UNL A   1      36.535  33.207  32.528  1.00  0.00    -0.014 A 
BRANCH  39  40
ATOM     40  C   UNL A   1      37.809  32.575  32.961  1.00  0.00     0.031 A 
ATOM     41  C   UNL A   1      38.289  32.822  34.367  1.00  0.00     0.074 A 
ATOM     42  C   UNL A   1      38.506  31.763  32.145  1.00  0.00     0.049 A 
ATOM     43  N   UNL A   1      39.388  32.423  34.953  1.00  0.00    -0.248 NA
ATOM     44  C   UNL A   1      37.400  33.617  35.229  1.00  0.00     0.031 C 
ATOM     45  C   UNL A   1      38.106  31.375  30.794  1.00  0.00     0.029 A 
ATOM     46  N   UNL A   1      39.704  31.118  32.339  1.00  0.00    -0.354 N 
ATOM     47  C   UNL A   1      39.326  32.922  36.250  1.00  0.00     0.074 A 
ATOM     48  C   UNL A   1      38.088  33.661  36.361  1.00  0.00     0.031 C 
ATOM     49  C   UNL A   1      39.048  30.566  30.276  1.00  0.00     0.029 A 
ATOM     50  C   UNL A   1      40.139  30.415  31.239  1.00  0.00     0.049 A 
ATOM     51  H   UNL A   1      40.205  31.157  33.185  1.00  0.00     0.167 HD
ATOM     52  C   UNL A   1      40.224  32.781  37.255  1.00  0.00     0.037 A 
ATOM     53  C   UNL A   1      41.296  29.751  31.027  1.00  0.00     0.037 A 
ATOM     54  C   UNL A   1      41.466  32.063  37.132  1.00  0.00     0.049 A 
ATOM     55  C   UNL A   1      42.331  29.700  32.127  1.00  0.00     0.074 A 
ATOM     56  C   UNL A   1      42.454  31.886  38.085  1.00  0.00     0.029 A 
ATOM     57  N   UNL A   1      41.898  31.416  35.984  1.00  0.00    -0.354 N 
ATOM     58  N   UNL A   1      42.269  30.188  33.344  1.00  0.00    -0.248 NA
ATOM     59  C   UNL A   1      43.597  29.016  31.822  1.00  0.00     0.031 C 
ATOM     60  C   UNL A   1      43.509  31.182  37.495  1.00  0.00     0.029 A 
ATOM     61  C   UNL A   1      43.151  30.863  36.194  1.00  0.00     0.049 A 
ATOM     62  H   UNL A   1      41.388  31.357  35.144  1.00  0.00     0.167 HD
ATOM     63  C   UNL A   1      43.471  29.841  33.958  1.00  0.00     0.074 A 
ATOM     64  C   UNL A   1      44.237  29.096  32.981  1.00  0.00     0.031 C 
ATOM     65  C   UNL A   1      43.899  30.113  35.216  1.00  0.00     0.037 A 
BRANCH  52  66
ATOM     66  C   UNL A   1      39.921  33.472  38.556  1.00  0.00     0.058 A 
ATOM     67  C   UNL A   1      40.559  34.665  38.934  1.00  0.00     0.135 A 
ATOM     68  C   UNL A   1      38.965  32.936  39.434  1.00  0.00     0.135 A 
ATOM     69  F   UNL A   1      41.495  35.210  38.143  1.00  0.00    -0.206 F 
ATOM     70  C   UNL A   1      40.279  35.285  40.148  1.00  0.00     0.059 A 
ATOM     71  C   UNL A   1      38.648  33.555  40.640  1.00  0.00     0.059 A 
ATOM     72  F   UNL A   1      38.327  31.796  39.126  1.00  0.00    -0.206 F 
ATOM     73  C   UNL A   1      39.323  34.721  40.996  1.00  0.00     0.060 A 
BRANCH  73  74
ATOM     74  S   UNL A   1      38.978  35.531  42.572  1.00  0.00     0.124 S 
ATOM     75  O   UNL A   1      37.537  35.333  42.692  1.00  0.00    -0.237 OA
ATOM     76  O   UNL A   1      39.802  34.767  43.503  1.00  0.00    -0.237 OA
ATOM     77  O   UNL A   1      39.404  36.909  42.348  1.00  0.00    -0.744 OA
ENDBRANCH  73  74
ENDBRANCH  52  66
BRANCH  53  78
ATOM     78  C   UNL A   1      41.564  29.107  29.708  1.00  0.00     0.058 A 
ATOM     79  C   UNL A   1      42.393  29.714  28.753  1.00  0.00     0.135 A 
ATOM     80  C   UNL A   1      40.971  27.880  29.366  1.00  0.00     0.135 A 
ATOM     81  F   UNL A   1      42.967  30.897  29.018  1.00  0.00    -0.206 F 
ATOM     82  C   UNL A   1      42.615  29.138  27.504  1.00  0.00     0.059 A 
ATOM     83  C   UNL A   1      41.201  27.270  28.136  1.00  0.00     0.059 A 
ATOM     84  F   UNL A   1      40.167  27.254  30.240  1.00  0.00    -0.206 F 
ATOM     85  C   UNL A   1      42.018  27.911  27.207  1.00  0.00     0.060 A 
BRANCH  85  86
ATOM     86  S   UNL A   1      42.353  27.146  25.605  1.00  0.00     0.124 S 
ATOM     87  O   UNL A   1      42.313  28.298  24.712  1.00  0.00    -0.237 OA
ATOM     88  O   UNL A   1      43.668  26.549  25.821  1.00  0.00    -0.237 OA
ATOM     89  O   UNL A   1      41.259  26.191  25.453  1.00  0.00    -0.744 OA
ENDBRANCH  85  86
ENDBRANCH  53  78
BRANCH  65  90
ATOM     90  C   UNL A   1      45.242  29.570  35.634  1.00  0.00     0.058 A 
ATOM     91  C   UNL A   1      46.420  30.321  35.508  1.00  0.00     0.135 A 
ATOM     92  C   UNL A   1      45.337  28.302  36.234  1.00  0.00     0.135 A 
ATOM     93  F   UNL A   1      46.390  31.536  34.938  1.00  0.00    -0.206 F 
ATOM     94  C   UNL A   1      47.648  29.827  35.941  1.00  0.00     0.059 A 
ATOM     95  C   UNL A   1      46.549  27.802  36.702  1.00  0.00     0.059 A 
ATOM     96  F   UNL A   1      44.240  27.545  36.392  1.00  0.00    -0.206 F 
ATOM     97  C   UNL A   1      47.701  28.568  36.541  1.00  0.00     0.060 A 
BRANCH  97  98
ATOM     98  S   UNL A   1      49.294  27.957  37.134  1.00  0.00     0.124 S 
ATOM     99  O   UNL A   1      48.881  27.017  38.171  1.00  0.00    -0.237 OA
ATOM    100  O   UNL A   1      49.868  27.363  35.930  1.00  0.00    -0.237 OA
ATOM    101  O   UNL A   1      49.966  29.163  37.612  1.00  0.00    -0.744 OA
ENDBRANCH  97  98
ENDBRANCH  65  90
ENDBRANCH  39  40
ENDBRANCH  32  34
ENDBRANCH  31  32
ENDBRANCH  30  31
ENDBRANCH  29  30
ENDBRANCH  28  29
ENDBRANCH  27  28
ENDBRANCH   1  27
TORSDOF 24
ENDMDL
