MODEL 1
REMARK VINA RESULT:      -9.6      0.000      0.000
REMARK SMILES CCC(CC)(NC(=O)c1ccc(NC(C)=O)cc1)C(=O)OCCOCCOCCOC(=O)c1ccc(-c2c3nc(c(-c4c(F)cc(S(=O)(=O)[O-])cc4F)c4ccc([nH]4)c(-c4c(F)cc(S(=O)(=O)[O-])cc4F)c4nc(c(-c5c(F)cc(S(=O)(=O)[O-])cc5F)c5ccc2[nH]5)C=C4)C=C3)cc1
REMARK SMILES IDX 25 1 24 2 23 3 22 4 21 5 19 6 20 7 3 8 2 9 1 10 4 11 5 12
REMARK SMILES IDX 6 13 7 14 8 16 9 17 10 18 18 19 11 20 17 21 12 22 13 23
REMARK SMILES IDX 14 24 15 26 16 27 26 28 27 29 28 30 29 31 30 32 31 33 32 34
REMARK SMILES IDX 33 35 34 36 98 37 35 38 97 39 36 40 37 41 38 42 91 43 39 44
REMARK SMILES IDX 96 45 90 46 92 47 40 48 95 49 89 50 88 51 41 53 75 54 54 55
REMARK SMILES IDX 74 56 55 57 58 58 73 59 93 60 56 61 57 62 72 64 94 65 59 66
REMARK SMILES IDX 42 67 43 68 52 69 44 70 45 71 51 72 53 73 46 74 47 75 48 76
REMARK SMILES IDX 49 77 50 78 76 79 77 80 86 81 78 82 79 83 85 84 87 85 80 86
REMARK SMILES IDX 81 87 82 88 83 89 84 90 60 91 61 92 70 93 62 94 63 95 69 96
REMARK SMILES IDX 71 97 64 98 65 99 66 100 67 101 68 102
REMARK H PARENT 6 15 13 25 92 52 58 63
REMARK Flexibility Score: inf
ROOT
ATOM      1  C   UNL A   1      37.845  21.636  25.419  1.00  0.00     0.188 C 
ENDROOT
BRANCH   1   2
ATOM      2  O   UNL A   1      37.147  21.539  24.182  1.00  0.00    -0.376 OA
BRANCH   2   3
ATOM      3  C   UNL A   1      36.824  22.813  23.604  1.00  0.00     0.202 C 
BRANCH   3   4
ATOM      4  C   UNL A   1      35.343  23.162  23.318  1.00  0.00     0.261 C 
BRANCH   4   5
ATOM      5  O   UNL A   1      34.466  22.737  24.358  1.00  0.00    -0.461 OA
BRANCH   5   6
ATOM      6  C   UNL A   1      33.419  21.931  24.090  1.00  0.00     0.331 C 
ATOM      7  O   UNL A   1      32.936  21.792  22.975  1.00  0.00    -0.249 OA
BRANCH   6   8
ATOM      8  C   UNL A   1      32.978  21.150  25.376  1.00  0.00     0.137 C 
BRANCH   8   9
ATOM      9  C   UNL A   1      34.290  20.935  26.249  1.00  0.00     0.037 C 
ATOM     10  C   UNL A   1      34.381  21.678  27.587  1.00  0.00     0.007 C 
ENDBRANCH   8   9
BRANCH   8  11
ATOM     11  C   UNL A   1      32.391  19.777  24.947  1.00  0.00     0.037 C 
ATOM     12  C   UNL A   1      32.832  18.578  25.791  1.00  0.00     0.007 C 
ENDBRANCH   8  11
BRANCH   8  13
ATOM     13  N   UNL A   1      31.951  21.890  26.257  1.00  0.00    -0.336 N 
ATOM     14  C   UNL A   1      30.713  22.464  25.937  1.00  0.00     0.252 C 
ATOM     15  H   UNL A   1      32.208  21.974  27.204  1.00  0.00     0.165 HD
ATOM     16  O   UNL A   1      29.690  21.989  26.428  1.00  0.00    -0.269 OA
BRANCH  14  17
ATOM     17  C   UNL A   1      30.599  23.819  25.285  1.00  0.00     0.039 A 
ATOM     18  C   UNL A   1      30.513  24.944  26.092  1.00  0.00     0.016 A 
ATOM     19  C   UNL A   1      30.440  24.046  23.922  1.00  0.00     0.016 A 
ATOM     20  C   UNL A   1      30.508  26.260  25.615  1.00  0.00     0.027 A 
ATOM     21  C   UNL A   1      30.419  25.379  23.412  1.00  0.00     0.027 A 
ATOM     22  C   UNL A   1      30.530  26.499  24.257  1.00  0.00     0.041 A 
BRANCH  22  23
ATOM     23  N   UNL A   1      30.770  27.791  23.720  1.00  0.00    -0.326 N 
ATOM     24  C   UNL A   1      32.017  28.360  23.477  1.00  0.00     0.221 C 
ATOM     25  H   UNL A   1      29.981  28.337  23.499  1.00  0.00     0.169 HD
ATOM     26  C   UNL A   1      31.995  29.482  22.463  1.00  0.00     0.114 C 
ATOM     27  O   UNL A   1      33.084  28.033  23.990  1.00  0.00    -0.275 OA
ENDBRANCH  22  23
ENDBRANCH  14  17
ENDBRANCH   8  13
ENDBRANCH   6   8
ENDBRANCH   5   6
ENDBRANCH   4   5
ENDBRANCH   3   4
ENDBRANCH   2   3
ENDBRANCH   1   2
BRANCH   1  28
ATOM     28  C   UNL A   1      39.087  20.755  25.534  1.00  0.00     0.188 C 
BRANCH  28  29
ATOM     29  O   UNL A   1      40.017  21.149  26.525  1.00  0.00    -0.376 OA
BRANCH  29  30
ATOM     30  C   UNL A   1      40.365  22.522  26.732  1.00  0.00     0.202 C 
BRANCH  30  31
ATOM     31  C   UNL A   1      41.826  22.971  26.527  1.00  0.00     0.261 C 
BRANCH  31  32
ATOM     32  O   UNL A   1      42.409  23.658  27.647  1.00  0.00    -0.460 OA
BRANCH  32  33
ATOM     33  C   UNL A   1      43.027  24.825  27.358  1.00  0.00     0.338 C 
ATOM     34  O   UNL A   1      43.894  25.012  26.520  1.00  0.00    -0.246 OA
BRANCH  33  35
ATOM     35  C   UNL A   1      42.225  25.903  27.970  1.00  0.00     0.060 A 
ATOM     36  C   UNL A   1      42.762  27.200  27.931  1.00  0.00     0.016 A 
ATOM     37  C   UNL A   1      40.943  25.671  28.479  1.00  0.00     0.016 A 
ATOM     38  C   UNL A   1      42.058  28.258  28.482  1.00  0.00     0.010 A 
ATOM     39  C   UNL A   1      40.267  26.719  29.103  1.00  0.00     0.010 A 
ATOM     40  C   UNL A   1      40.873  27.987  29.174  1.00  0.00    -0.014 A 
BRANCH  40  41
ATOM     41  C   UNL A   1      40.587  28.870  30.324  1.00  0.00     0.031 A 
ATOM     42  C   UNL A   1      41.508  28.725  31.512  1.00  0.00     0.074 A 
ATOM     43  C   UNL A   1      39.656  29.833  30.263  1.00  0.00     0.049 A 
ATOM     44  N   UNL A   1      41.533  29.387  32.634  1.00  0.00    -0.248 NA
ATOM     45  C   UNL A   1      42.560  27.695  31.408  1.00  0.00     0.031 C 
ATOM     46  C   UNL A   1      38.789  30.107  29.119  1.00  0.00     0.029 A 
ATOM     47  N   UNL A   1      39.301  30.773  31.193  1.00  0.00    -0.354 N 
ATOM     48  C   UNL A   1      42.588  28.846  33.363  1.00  0.00     0.074 A 
ATOM     49  C   UNL A   1      43.170  27.791  32.574  1.00  0.00     0.031 C 
ATOM     50  C   UNL A   1      37.993  31.150  29.420  1.00  0.00     0.029 A 
ATOM     51  C   UNL A   1      38.277  31.589  30.784  1.00  0.00     0.049 A 
ATOM     52  H   UNL A   1      39.740  30.855  32.070  1.00  0.00     0.167 HD
ATOM     53  C   UNL A   1      43.036  29.202  34.588  1.00  0.00     0.037 A 
ATOM     54  C   UNL A   1      37.640  32.567  31.458  1.00  0.00     0.037 A 
ATOM     55  C   UNL A   1      42.438  30.253  35.359  1.00  0.00     0.049 A 
ATOM     56  C   UNL A   1      38.101  32.893  32.857  1.00  0.00     0.074 A 
ATOM     57  C   UNL A   1      42.784  30.700  36.620  1.00  0.00     0.029 A 
ATOM     58  N   UNL A   1      41.360  31.018  34.938  1.00  0.00    -0.354 N 
ATOM     59  N   UNL A   1      39.087  32.364  33.547  1.00  0.00    -0.248 NA
ATOM     60  C   UNL A   1      37.371  33.950  33.565  1.00  0.00     0.031 C 
ATOM     61  C   UNL A   1      41.875  31.698  36.984  1.00  0.00     0.029 A 
ATOM     62  C   UNL A   1      41.008  31.920  35.923  1.00  0.00     0.049 A 
ATOM     63  H   UNL A   1      40.910  30.930  34.066  1.00  0.00     0.167 HD
ATOM     64  C   UNL A   1      39.118  33.051  34.756  1.00  0.00     0.074 A 
ATOM     65  C   UNL A   1      38.058  34.037  34.696  1.00  0.00     0.031 C 
ATOM     66  C   UNL A   1      39.949  32.893  35.820  1.00  0.00     0.037 A 
BRANCH  53  67
ATOM     67  C   UNL A   1      44.167  28.404  35.174  1.00  0.00     0.058 A 
ATOM     68  C   UNL A   1      43.953  27.254  35.953  1.00  0.00     0.135 A 
ATOM     69  C   UNL A   1      45.494  28.807  34.958  1.00  0.00     0.135 A 
ATOM     70  F   UNL A   1      42.704  26.843  36.225  1.00  0.00    -0.206 F 
ATOM     71  C   UNL A   1      45.013  26.545  36.511  1.00  0.00     0.059 A 
ATOM     72  C   UNL A   1      46.570  28.096  35.479  1.00  0.00     0.059 A 
ATOM     73  F   UNL A   1      45.756  29.911  34.239  1.00  0.00    -0.206 F 
ATOM     74  C   UNL A   1      46.319  26.972  36.263  1.00  0.00     0.060 A 
BRANCH  74  75
ATOM     75  S   UNL A   1      47.687  26.032  36.975  1.00  0.00     0.124 S 
ATOM     76  O   UNL A   1      47.267  24.659  36.712  1.00  0.00    -0.237 OA
ATOM     77  O   UNL A   1      48.826  26.506  36.196  1.00  0.00    -0.237 OA
ATOM     78  O   UNL A   1      47.681  26.431  38.379  1.00  0.00    -0.744 OA
ENDBRANCH  74  75
ENDBRANCH  53  67
BRANCH  54  79
ATOM     79  C   UNL A   1      36.502  33.290  30.829  1.00  0.00     0.058 A 
ATOM     80  C   UNL A   1      35.182  33.093  31.260  1.00  0.00     0.135 A 
ATOM     81  C   UNL A   1      36.715  34.200  29.780  1.00  0.00     0.135 A 
ATOM     82  F   UNL A   1      34.923  32.230  32.253  1.00  0.00    -0.206 F 
ATOM     83  C   UNL A   1      34.113  33.757  30.664  1.00  0.00     0.059 A 
ATOM     84  C   UNL A   1      35.666  34.896  29.187  1.00  0.00     0.059 A 
ATOM     85  F   UNL A   1      37.961  34.434  29.335  1.00  0.00    -0.206 F 
ATOM     86  C   UNL A   1      34.367  34.660  29.630  1.00  0.00     0.060 A 
BRANCH  86  87
ATOM     87  S   UNL A   1      32.978  35.548  28.893  1.00  0.00     0.124 S 
ATOM     88  O   UNL A   1      33.661  36.600  28.151  1.00  0.00    -0.237 OA
ATOM     89  O   UNL A   1      32.343  34.507  28.091  1.00  0.00    -0.237 OA
ATOM     90  O   UNL A   1      32.209  35.991  30.053  1.00  0.00    -0.744 OA
ENDBRANCH  86  87
ENDBRANCH  54  79
BRANCH  66  91
ATOM     91  C   UNL A   1      39.777  33.843  36.972  1.00  0.00     0.058 A 
ATOM     92  C   UNL A   1      40.374  35.112  36.985  1.00  0.00     0.135 A 
ATOM     93  C   UNL A   1      38.966  33.485  38.061  1.00  0.00     0.135 A 
ATOM     94  F   UNL A   1      41.158  35.502  35.967  1.00  0.00    -0.206 F 
ATOM     95  C   UNL A   1      40.210  35.977  38.061  1.00  0.00     0.059 A 
ATOM     96  C   UNL A   1      38.758  34.348  39.130  1.00  0.00     0.059 A 
ATOM     97  F   UNL A   1      38.355  32.290  38.088  1.00  0.00    -0.206 F 
ATOM     98  C   UNL A   1      39.402  35.584  39.130  1.00  0.00     0.060 A 
BRANCH  98  99
ATOM     99  S   UNL A   1      39.196  36.716  40.520  1.00  0.00     0.124 S 
ATOM    100  O   UNL A   1      40.579  36.915  40.940  1.00  0.00    -0.237 OA
ATOM    101  O   UNL A   1      38.552  37.865  39.893  1.00  0.00    -0.237 OA
ATOM    102  O   UNL A   1      38.359  35.964  41.449  1.00  0.00    -0.744 OA
ENDBRANCH  98  99
ENDBRANCH  66  91
ENDBRANCH  40  41
ENDBRANCH  33  35
ENDBRANCH  32  33
ENDBRANCH  31  32
ENDBRANCH  30  31
ENDBRANCH  29  30
ENDBRANCH  28  29
ENDBRANCH   1  28
TORSDOF 25
ENDMDL
MODEL 2
REMARK VINA RESULT:      -9.4      1.452      2.129
REMARK SMILES CCC(CC)(NC(=O)c1ccc(NC(C)=O)cc1)C(=O)OCCOCCOCCOC(=O)c1ccc(-c2c3nc(c(-c4c(F)cc(S(=O)(=O)[O-])cc4F)c4ccc([nH]4)c(-c4c(F)cc(S(=O)(=O)[O-])cc4F)c4nc(c(-c5c(F)cc(S(=O)(=O)[O-])cc5F)c5ccc2[nH]5)C=C4)C=C3)cc1
REMARK SMILES IDX 25 1 24 2 23 3 22 4 21 5 19 6 20 7 3 8 2 9 1 10 4 11 5 12
REMARK SMILES IDX 6 13 7 14 8 16 9 17 10 18 18 19 11 20 17 21 12 22 13 23
REMARK SMILES IDX 14 24 15 26 16 27 26 28 27 29 28 30 29 31 30 32 31 33 32 34
REMARK SMILES IDX 33 35 34 36 98 37 35 38 97 39 36 40 37 41 38 42 91 43 39 44
REMARK SMILES IDX 96 45 90 46 92 47 40 48 95 49 89 50 88 51 41 53 75 54 54 55
REMARK SMILES IDX 74 56 55 57 58 58 73 59 93 60 56 61 57 62 72 64 94 65 59 66
REMARK SMILES IDX 42 67 43 68 52 69 44 70 45 71 51 72 53 73 46 74 47 75 48 76
REMARK SMILES IDX 49 77 50 78 76 79 77 80 86 81 78 82 79 83 85 84 87 85 80 86
REMARK SMILES IDX 81 87 82 88 83 89 84 90 60 91 61 92 70 93 62 94 63 95 69 96
REMARK SMILES IDX 71 97 64 98 65 99 66 100 67 101 68 102
REMARK H PARENT 6 15 13 25 92 52 58 63
REMARK Flexibility Score: inf
ROOT
ATOM      1  C   UNL A   1      39.613  22.644  26.862  1.00  0.00     0.188 C 
ENDROOT
BRANCH   1   2
ATOM      2  O   UNL A   1      38.500  22.160  26.118  1.00  0.00    -0.376 OA
BRANCH   2   3
ATOM      3  C   UNL A   1      37.825  23.180  25.366  1.00  0.00     0.202 C 
BRANCH   3   4
ATOM      4  C   UNL A   1      36.734  24.033  26.057  1.00  0.00     0.261 C 
BRANCH   4   5
ATOM      5  O   UNL A   1      35.752  24.518  25.144  1.00  0.00    -0.461 OA
BRANCH   5   6
ATOM      6  C   UNL A   1      34.463  24.638  25.519  1.00  0.00     0.331 C 
ATOM      7  O   UNL A   1      33.979  25.668  25.970  1.00  0.00    -0.249 OA
BRANCH   6   8
ATOM      8  C   UNL A   1      33.673  23.318  25.219  1.00  0.00     0.137 C 
BRANCH   8   9
ATOM      9  C   UNL A   1      34.033  22.298  26.386  1.00  0.00     0.037 C 
ATOM     10  C   UNL A   1      33.396  22.539  27.759  1.00  0.00     0.007 C 
ENDBRANCH   8   9
BRANCH   8  11
ATOM     11  C   UNL A   1      34.148  22.754  23.852  1.00  0.00     0.037 C 
ATOM     12  C   UNL A   1      33.980  21.243  23.667  1.00  0.00     0.007 C 
ENDBRANCH   8  11
BRANCH   8  13
ATOM     13  N   UNL A   1      32.139  23.477  25.200  1.00  0.00    -0.336 N 
ATOM     14  C   UNL A   1      31.269  23.850  24.166  1.00  0.00     0.252 C 
ATOM     15  H   UNL A   1      31.696  23.285  26.058  1.00  0.00     0.165 HD
ATOM     16  O   UNL A   1      30.451  23.031  23.750  1.00  0.00    -0.269 OA
BRANCH  14  17
ATOM     17  C   UNL A   1      31.068  25.290  23.764  1.00  0.00     0.039 A 
ATOM     18  C   UNL A   1      29.873  25.913  24.089  1.00  0.00     0.016 A 
ATOM     19  C   UNL A   1      31.933  26.032  22.967  1.00  0.00     0.016 A 
ATOM     20  C   UNL A   1      29.604  27.269  23.867  1.00  0.00     0.027 A 
ATOM     21  C   UNL A   1      31.675  27.412  22.714  1.00  0.00     0.027 A 
ATOM     22  C   UNL A   1      30.537  28.061  23.231  1.00  0.00     0.041 A 
BRANCH  22  23
ATOM     23  N   UNL A   1      30.430  29.475  23.194  1.00  0.00    -0.326 N 
ATOM     24  C   UNL A   1      29.653  30.217  22.309  1.00  0.00     0.221 C 
ATOM     25  H   UNL A   1      30.954  29.981  23.857  1.00  0.00     0.169 HD
ATOM     26  C   UNL A   1      29.323  31.610  22.796  1.00  0.00     0.114 C 
ATOM     27  O   UNL A   1      29.227  29.843  21.219  1.00  0.00    -0.275 OA
ENDBRANCH  22  23
ENDBRANCH  14  17
ENDBRANCH   8  13
ENDBRANCH   6   8
ENDBRANCH   5   6
ENDBRANCH   4   5
ENDBRANCH   3   4
ENDBRANCH   2   3
ENDBRANCH   1   2
BRANCH   1  28
ATOM     28  C   UNL A   1      40.636  21.584  27.264  1.00  0.00     0.188 C 
BRANCH  28  29
ATOM     29  O   UNL A   1      41.979  21.888  26.942  1.00  0.00    -0.376 OA
BRANCH  29  30
ATOM     30  C   UNL A   1      42.333  22.550  25.722  1.00  0.00     0.202 C 
BRANCH  30  31
ATOM     31  C   UNL A   1      42.727  24.041  25.758  1.00  0.00     0.261 C 
BRANCH  31  32
ATOM     32  O   UNL A   1      41.627  24.953  25.907  1.00  0.00    -0.460 OA
BRANCH  32  33
ATOM     33  C   UNL A   1      41.947  26.265  25.871  1.00  0.00     0.338 C 
ATOM     34  O   UNL A   1      41.900  27.009  24.905  1.00  0.00    -0.246 OA
BRANCH  33  35
ATOM     35  C   UNL A   1      42.017  26.732  27.270  1.00  0.00     0.060 A 
ATOM     36  C   UNL A   1      40.970  26.348  28.124  1.00  0.00     0.016 A 
ATOM     37  C   UNL A   1      43.119  27.440  27.757  1.00  0.00     0.016 A 
ATOM     38  C   UNL A   1      40.977  26.747  29.451  1.00  0.00     0.010 A 
ATOM     39  C   UNL A   1      43.091  27.908  29.071  1.00  0.00     0.010 A 
ATOM     40  C   UNL A   1      41.975  27.628  29.881  1.00  0.00    -0.014 A 
BRANCH  40  41
ATOM     41  C   UNL A   1      41.571  28.591  30.927  1.00  0.00     0.031 A 
ATOM     42  C   UNL A   1      42.444  28.632  32.158  1.00  0.00     0.074 A 
ATOM     43  C   UNL A   1      40.574  29.466  30.736  1.00  0.00     0.049 A 
ATOM     44  N   UNL A   1      42.367  29.397  33.211  1.00  0.00    -0.248 NA
ATOM     45  C   UNL A   1      43.574  27.683  32.196  1.00  0.00     0.031 C 
ATOM     46  C   UNL A   1      39.743  29.561  29.538  1.00  0.00     0.029 A 
ATOM     47  N   UNL A   1      40.107  30.459  31.555  1.00  0.00    -0.354 N 
ATOM     48  C   UNL A   1      43.425  29.013  34.029  1.00  0.00     0.074 A 
ATOM     49  C   UNL A   1      44.121  27.937  33.370  1.00  0.00     0.031 C 
ATOM     50  C   UNL A   1      38.857  30.561  29.704  1.00  0.00     0.029 A 
ATOM     51  C   UNL A   1      39.044  31.149  31.029  1.00  0.00     0.049 A 
ATOM     52  H   UNL A   1      40.497  30.658  32.436  1.00  0.00     0.167 HD
ATOM     53  C   UNL A   1      43.787  29.517  35.230  1.00  0.00     0.037 A 
ATOM     54  C   UNL A   1      38.304  32.132  31.579  1.00  0.00     0.037 A 
ATOM     55  C   UNL A   1      43.077  30.585  35.871  1.00  0.00     0.049 A 
ATOM     56  C   UNL A   1      38.675  32.625  32.956  1.00  0.00     0.074 A 
ATOM     57  C   UNL A   1      43.330  31.175  37.094  1.00  0.00     0.029 A 
ATOM     58  N   UNL A   1      41.965  31.219  35.335  1.00  0.00    -0.354 N 
ATOM     59  N   UNL A   1      39.665  32.243  33.732  1.00  0.00    -0.248 NA
ATOM     60  C   UNL A   1      37.835  33.683  33.529  1.00  0.00     0.031 C 
ATOM     61  C   UNL A   1      42.332  32.128  37.323  1.00  0.00     0.029 A 
ATOM     62  C   UNL A   1      41.502  32.180  36.213  1.00  0.00     0.049 A 
ATOM     63  H   UNL A   1      41.565  31.014  34.459  1.00  0.00     0.167 HD
ATOM     64  C   UNL A   1      39.588  33.042  34.869  1.00  0.00     0.074 A 
ATOM     65  C   UNL A   1      38.460  33.930  34.671  1.00  0.00     0.031 C 
ATOM     66  C   UNL A   1      40.378  33.051  35.974  1.00  0.00     0.037 A 
BRANCH  53  67
ATOM     67  C   UNL A   1      44.947  28.870  35.934  1.00  0.00     0.058 A 
ATOM     68  C   UNL A   1      44.785  27.784  36.811  1.00  0.00     0.135 A 
ATOM     69  C   UNL A   1      46.248  29.357  35.734  1.00  0.00     0.135 A 
ATOM     70  F   UNL A   1      43.559  27.301  37.071  1.00  0.00    -0.206 F 
ATOM     71  C   UNL A   1      45.868  27.216  37.476  1.00  0.00     0.059 A 
ATOM     72  C   UNL A   1      47.350  28.786  36.364  1.00  0.00     0.059 A 
ATOM     73  F   UNL A   1      46.459  30.407  34.924  1.00  0.00    -0.206 F 
ATOM     74  C   UNL A   1      47.148  27.723  37.242  1.00  0.00     0.060 A 
BRANCH  74  75
ATOM     75  S   UNL A   1      48.548  26.966  38.094  1.00  0.00     0.124 S 
ATOM     76  O   UNL A   1      48.024  25.637  38.396  1.00  0.00    -0.237 OA
ATOM     77  O   UNL A   1      49.595  27.019  37.078  1.00  0.00    -0.237 OA
ATOM     78  O   UNL A   1      48.755  27.835  39.249  1.00  0.00    -0.744 OA
ENDBRANCH  74  75
ENDBRANCH  53  67
BRANCH  54  79
ATOM     79  C   UNL A   1      37.146  32.701  30.839  1.00  0.00     0.058 A 
ATOM     80  C   UNL A   1      35.847  32.206  31.021  1.00  0.00     0.135 A 
ATOM     81  C   UNL A   1      37.317  33.758  29.930  1.00  0.00     0.135 A 
ATOM     82  F   UNL A   1      35.629  31.192  31.872  1.00  0.00    -0.206 F 
ATOM     83  C   UNL A   1      34.762  32.724  30.319  1.00  0.00     0.059 A 
ATOM     84  C   UNL A   1      36.245  34.312  29.237  1.00  0.00     0.059 A 
ATOM     85  F   UNL A   1      38.539  34.277  29.723  1.00  0.00    -0.206 F 
ATOM     86  C   UNL A   1      34.972  33.781  29.432  1.00  0.00     0.060 A 
BRANCH  86  87
ATOM     87  S   UNL A   1      33.552  34.476  28.559  1.00  0.00     0.124 S 
ATOM     88  O   UNL A   1      33.051  33.313  27.837  1.00  0.00    -0.237 OA
ATOM     89  O   UNL A   1      32.721  34.951  29.661  1.00  0.00    -0.237 OA
ATOM     90  O   UNL A   1      34.145  35.525  27.734  1.00  0.00    -0.744 OA
ENDBRANCH  86  87
ENDBRANCH  54  79
BRANCH  66  91
ATOM     91  C   UNL A   1      40.082  34.089  37.021  1.00  0.00     0.058 A 
ATOM     92  C   UNL A   1      39.138  33.875  38.036  1.00  0.00     0.135 A 
ATOM     93  C   UNL A   1      40.791  35.302  37.024  1.00  0.00     0.135 A 
ATOM     94  F   UNL A   1      38.436  32.731  38.077  1.00  0.00    -0.206 F 
ATOM     95  C   UNL A   1      38.873  34.847  38.993  1.00  0.00     0.059 A 
ATOM     96  C   UNL A   1      40.568  36.273  37.993  1.00  0.00     0.059 A 
ATOM     97  F   UNL A   1      41.720  35.547  36.087  1.00  0.00    -0.206 F 
ATOM     98  C   UNL A   1      39.591  36.045  38.960  1.00  0.00     0.060 A 
BRANCH  98  99
ATOM     99  S   UNL A   1      39.238  37.299  40.208  1.00  0.00     0.124 S 
ATOM    100  O   UNL A   1      38.332  38.184  39.484  1.00  0.00    -0.237 OA
ATOM    101  O   UNL A   1      38.636  36.512  41.279  1.00  0.00    -0.237 OA
ATOM    102  O   UNL A   1      40.553  37.857  40.511  1.00  0.00    -0.744 OA
ENDBRANCH  98  99
ENDBRANCH  66  91
ENDBRANCH  40  41
ENDBRANCH  33  35
ENDBRANCH  32  33
ENDBRANCH  31  32
ENDBRANCH  30  31
ENDBRANCH  29  30
ENDBRANCH  28  29
ENDBRANCH   1  28
TORSDOF 25
ENDMDL
MODEL 3
REMARK VINA RESULT:      -8.9      1.720      2.510
REMARK SMILES CCC(CC)(NC(=O)c1ccc(NC(C)=O)cc1)C(=O)OCCOCCOCCOC(=O)c1ccc(-c2c3nc(c(-c4c(F)cc(S(=O)(=O)[O-])cc4F)c4ccc([nH]4)c(-c4c(F)cc(S(=O)(=O)[O-])cc4F)c4nc(c(-c5c(F)cc(S(=O)(=O)[O-])cc5F)c5ccc2[nH]5)C=C4)C=C3)cc1
REMARK SMILES IDX 25 1 24 2 23 3 22 4 21 5 19 6 20 7 3 8 2 9 1 10 4 11 5 12
REMARK SMILES IDX 6 13 7 14 8 16 9 17 10 18 18 19 11 20 17 21 12 22 13 23
REMARK SMILES IDX 14 24 15 26 16 27 26 28 27 29 28 30 29 31 30 32 31 33 32 34
REMARK SMILES IDX 33 35 34 36 98 37 35 38 97 39 36 40 37 41 38 42 91 43 39 44
REMARK SMILES IDX 96 45 90 46 92 47 40 48 95 49 89 50 88 51 41 53 75 54 54 55
REMARK SMILES IDX 74 56 55 57 58 58 73 59 93 60 56 61 57 62 72 64 94 65 59 66
REMARK SMILES IDX 42 67 43 68 52 69 44 70 45 71 51 72 53 73 46 74 47 75 48 76
REMARK SMILES IDX 49 77 50 78 76 79 77 80 86 81 78 82 79 83 85 84 87 85 80 86
REMARK SMILES IDX 81 87 82 88 83 89 84 90 60 91 61 92 70 93 62 94 63 95 69 96
REMARK SMILES IDX 71 97 64 98 65 99 66 100 67 101 68 102
REMARK H PARENT 6 15 13 25 92 52 58 63
REMARK Flexibility Score: inf
ROOT
ATOM      1  C   UNL A   1      39.435  22.667  26.493  1.00  0.00     0.188 C 
ENDROOT
BRANCH   1   2
ATOM      2  O   UNL A   1      38.346  22.133  25.748  1.00  0.00    -0.376 OA
BRANCH   2   3
ATOM      3  C   UNL A   1      37.482  23.138  25.195  1.00  0.00     0.202 C 
BRANCH   3   4
ATOM      4  C   UNL A   1      36.186  23.522  25.950  1.00  0.00     0.261 C 
BRANCH   4   5
ATOM      5  O   UNL A   1      35.033  23.506  25.112  1.00  0.00    -0.461 OA
BRANCH   5   6
ATOM      6  C   UNL A   1      33.949  22.779  25.448  1.00  0.00     0.331 C 
ATOM      7  O   UNL A   1      33.921  21.991  26.383  1.00  0.00    -0.249 OA
BRANCH   6   8
ATOM      8  C   UNL A   1      32.729  23.150  24.535  1.00  0.00     0.137 C 
BRANCH   8   9
ATOM      9  C   UNL A   1      32.100  21.775  24.038  1.00  0.00     0.037 C 
ATOM     10  C   UNL A   1      32.158  20.581  24.997  1.00  0.00     0.007 C 
ENDBRANCH   8   9
BRANCH   8  11
ATOM     11  C   UNL A   1      33.247  23.970  23.322  1.00  0.00     0.037 C 
ATOM     12  C   UNL A   1      33.211  23.246  21.973  1.00  0.00     0.007 C 
ENDBRANCH   8  11
BRANCH   8  13
ATOM     13  N   UNL A   1      31.611  23.940  25.245  1.00  0.00    -0.336 N 
ATOM     14  C   UNL A   1      31.206  25.275  25.112  1.00  0.00     0.252 C 
ATOM     15  H   UNL A   1      31.095  23.419  25.903  1.00  0.00     0.165 HD
ATOM     16  O   UNL A   1      30.084  25.517  24.671  1.00  0.00    -0.269 OA
BRANCH  14  17
ATOM     17  C   UNL A   1      31.943  26.410  25.778  1.00  0.00     0.039 A 
ATOM     18  C   UNL A   1      33.294  26.574  25.516  1.00  0.00     0.016 A 
ATOM     19  C   UNL A   1      31.415  27.251  26.752  1.00  0.00     0.016 A 
ATOM     20  C   UNL A   1      34.066  27.644  25.986  1.00  0.00     0.027 A 
ATOM     21  C   UNL A   1      32.185  28.342  27.256  1.00  0.00     0.027 A 
ATOM     22  C   UNL A   1      33.499  28.589  26.815  1.00  0.00     0.041 A 
BRANCH  22  23
ATOM     23  N   UNL A   1      34.149  29.812  27.124  1.00  0.00    -0.326 N 
ATOM     24  C   UNL A   1      35.314  29.957  27.871  1.00  0.00     0.221 C 
ATOM     25  H   UNL A   1      33.738  30.637  26.776  1.00  0.00     0.169 HD
ATOM     26  C   UNL A   1      36.049  31.254  27.620  1.00  0.00     0.114 C 
ATOM     27  O   UNL A   1      35.774  29.149  28.674  1.00  0.00    -0.275 OA
ENDBRANCH  22  23
ENDBRANCH  14  17
ENDBRANCH   8  13
ENDBRANCH   6   8
ENDBRANCH   5   6
ENDBRANCH   4   5
ENDBRANCH   3   4
ENDBRANCH   2   3
ENDBRANCH   1   2
BRANCH   1  28
ATOM     28  C   UNL A   1      40.349  21.630  27.141  1.00  0.00     0.188 C 
BRANCH  28  29
ATOM     29  O   UNL A   1      41.708  21.697  26.755  1.00  0.00    -0.376 OA
BRANCH  29  30
ATOM     30  C   UNL A   1      42.133  22.444  25.610  1.00  0.00     0.202 C 
BRANCH  30  31
ATOM     31  C   UNL A   1      42.652  23.885  25.796  1.00  0.00     0.261 C 
BRANCH  31  32
ATOM     32  O   UNL A   1      41.694  24.806  26.343  1.00  0.00    -0.460 OA
BRANCH  32  33
ATOM     33  C   UNL A   1      41.949  26.114  26.120  1.00  0.00     0.338 C 
ATOM     34  O   UNL A   1      41.761  26.735  25.086  1.00  0.00    -0.246 OA
BRANCH  33  35
ATOM     35  C   UNL A   1      42.151  26.747  27.438  1.00  0.00     0.060 A 
ATOM     36  C   UNL A   1      41.467  26.185  28.528  1.00  0.00     0.016 A 
ATOM     37  C   UNL A   1      43.057  27.795  27.622  1.00  0.00     0.016 A 
ATOM     38  C   UNL A   1      41.617  26.727  29.794  1.00  0.00     0.010 A 
ATOM     39  C   UNL A   1      43.151  28.391  28.880  1.00  0.00     0.010 A 
ATOM     40  C   UNL A   1      42.361  27.903  29.937  1.00  0.00    -0.014 A 
BRANCH  40  41
ATOM     41  C   UNL A   1      41.900  28.828  30.993  1.00  0.00     0.031 A 
ATOM     42  C   UNL A   1      42.729  28.854  32.254  1.00  0.00     0.074 A 
ATOM     43  C   UNL A   1      40.891  29.687  30.790  1.00  0.00     0.049 A 
ATOM     44  N   UNL A   1      42.598  29.589  33.323  1.00  0.00    -0.248 NA
ATOM     45  C   UNL A   1      43.878  27.929  32.307  1.00  0.00     0.031 C 
ATOM     46  C   UNL A   1      40.100  29.797  29.566  1.00  0.00     0.029 A 
ATOM     47  N   UNL A   1      40.374  30.647  31.617  1.00  0.00    -0.354 N 
ATOM     48  C   UNL A   1      43.636  29.206  34.168  1.00  0.00     0.074 A 
ATOM     49  C   UNL A   1      44.377  28.163  33.506  1.00  0.00     0.031 C 
ATOM     50  C   UNL A   1      39.187  30.773  29.727  1.00  0.00     0.029 A 
ATOM     51  C   UNL A   1      39.315  31.329  31.072  1.00  0.00     0.049 A 
ATOM     52  H   UNL A   1      40.728  30.831  32.517  1.00  0.00     0.167 HD
ATOM     53  C   UNL A   1      43.945  29.685  35.393  1.00  0.00     0.037 A 
ATOM     54  C   UNL A   1      38.535  32.281  31.622  1.00  0.00     0.037 A 
ATOM     55  C   UNL A   1      43.190  30.721  36.037  1.00  0.00     0.049 A 
ATOM     56  C   UNL A   1      38.847  32.744  33.023  1.00  0.00     0.074 A 
ATOM     57  C   UNL A   1      43.387  31.283  37.283  1.00  0.00     0.029 A 
ATOM     58  N   UNL A   1      42.083  31.345  35.479  1.00  0.00    -0.354 N 
ATOM     59  N   UNL A   1      39.817  32.362  33.824  1.00  0.00    -0.248 NA
ATOM     60  C   UNL A   1      37.965  33.768  33.594  1.00  0.00     0.031 C 
ATOM     61  C   UNL A   1      42.361  32.208  37.502  1.00  0.00     0.029 A 
ATOM     62  C   UNL A   1      41.569  32.272  36.365  1.00  0.00     0.049 A 
ATOM     63  H   UNL A   1      41.718  31.155  34.584  1.00  0.00     0.167 HD
ATOM     64  C   UNL A   1      39.684  33.129  34.977  1.00  0.00     0.074 A 
ATOM     65  C   UNL A   1      38.544  33.998  34.764  1.00  0.00     0.031 C 
ATOM     66  C   UNL A   1      40.435  33.125  36.110  1.00  0.00     0.037 A 
BRANCH  53  67
ATOM     67  C   UNL A   1      45.094  29.044  36.121  1.00  0.00     0.058 A 
ATOM     68  C   UNL A   1      44.923  27.941  36.975  1.00  0.00     0.135 A 
ATOM     69  C   UNL A   1      46.393  29.554  35.967  1.00  0.00     0.135 A 
ATOM     70  F   UNL A   1      43.698  27.435  37.190  1.00  0.00    -0.206 F 
ATOM     71  C   UNL A   1      45.996  27.379  37.662  1.00  0.00     0.059 A 
ATOM     72  C   UNL A   1      47.484  28.990  36.620  1.00  0.00     0.059 A 
ATOM     73  F   UNL A   1      46.610  30.621  35.181  1.00  0.00    -0.206 F 
ATOM     74  C   UNL A   1      47.274  27.909  37.474  1.00  0.00     0.060 A 
BRANCH  74  75
ATOM     75  S   UNL A   1      48.660  27.159  38.355  1.00  0.00     0.124 S 
ATOM     76  O   UNL A   1      48.326  25.740  38.273  1.00  0.00    -0.237 OA
ATOM     77  O   UNL A   1      49.803  27.588  37.555  1.00  0.00    -0.237 OA
ATOM     78  O   UNL A   1      48.575  27.747  39.688  1.00  0.00    -0.744 OA
ENDBRANCH  74  75
ENDBRANCH  53  67
BRANCH  54  79
ATOM     79  C   UNL A   1      37.390  32.844  30.856  1.00  0.00     0.058 A 
ATOM     80  C   UNL A   1      37.578  33.837  29.884  1.00  0.00     0.135 A 
ATOM     81  C   UNL A   1      36.079  32.395  31.083  1.00  0.00     0.135 A 
ATOM     82  F   UNL A   1      38.810  34.306  29.634  1.00  0.00    -0.206 F 
ATOM     83  C   UNL A   1      36.508  34.378  29.177  1.00  0.00     0.059 A 
ATOM     84  C   UNL A   1      34.996  32.900  30.369  1.00  0.00     0.059 A 
ATOM     85  F   UNL A   1      35.842  31.438  31.996  1.00  0.00    -0.206 F 
ATOM     86  C   UNL A   1      35.220  33.899  29.424  1.00  0.00     0.060 A 
BRANCH  86  87
ATOM     87  S   UNL A   1      33.845  34.575  28.470  1.00  0.00     0.124 S 
ATOM     88  O   UNL A   1      33.636  35.861  29.124  1.00  0.00    -0.237 OA
ATOM     89  O   UNL A   1      34.406  34.626  27.123  1.00  0.00    -0.237 OA
ATOM     90  O   UNL A   1      32.786  33.589  28.662  1.00  0.00    -0.744 OA
ENDBRANCH  86  87
ENDBRANCH  54  79
BRANCH  66  91
ATOM     91  C   UNL A   1      40.080  34.128  37.172  1.00  0.00     0.058 A 
ATOM     92  C   UNL A   1      40.643  35.413  37.199  1.00  0.00     0.135 A 
ATOM     93  C   UNL A   1      39.129  33.805  38.152  1.00  0.00     0.135 A 
ATOM     94  F   UNL A   1      41.557  35.771  36.283  1.00  0.00    -0.206 F 
ATOM     95  C   UNL A   1      40.309  36.327  38.191  1.00  0.00     0.059 A 
ATOM     96  C   UNL A   1      38.752  34.716  39.131  1.00  0.00     0.059 A 
ATOM     97  F   UNL A   1      38.545  32.596  38.157  1.00  0.00    -0.206 F 
ATOM     98  C   UNL A   1      39.364  35.967  39.155  1.00  0.00     0.060 A 
BRANCH  98  99
ATOM     99  S   UNL A   1      38.938  37.163  40.436  1.00  0.00     0.124 S 
ATOM    100  O   UNL A   1      40.212  37.312  41.131  1.00  0.00    -0.237 OA
ATOM    101  O   UNL A   1      38.504  38.316  39.655  1.00  0.00    -0.237 OA
ATOM    102  O   UNL A   1      37.884  36.492  41.191  1.00  0.00    -0.744 OA
ENDBRANCH  98  99
ENDBRANCH  66  91
ENDBRANCH  40  41
ENDBRANCH  33  35
ENDBRANCH  32  33
ENDBRANCH  31  32
ENDBRANCH  30  31
ENDBRANCH  29  30
ENDBRANCH  28  29
ENDBRANCH   1  28
TORSDOF 25
ENDMDL
