MODEL 1
REMARK VINA RESULT:     -12.2      0.000      0.000
REMARK SMILES O=C(OCCOCCOCCOC(=O)c1ccc(-c2c3nc(c(-c4c(F)cc(S(=O)(=O)[O-])cc4F)c4ccc([nH]4)c(-c4c(F)cc(S(=O)(=O)[O-])cc4F)c4nc(c(-c5c(F)cc(S(=O)(=O)[O-])cc5F)c5ccc2[nH]5)C=C4)C=C3)cc1)C1=Cc2cc(Cl)cc(Cl)c2O[C@@H]1C(F)(F)F
REMARK SMILES IDX 8 1 7 2 6 3 5 4 4 5 3 6 2 7 1 8 81 9 82 10 92 11 83 12 91 13
REMARK SMILES IDX 84 14 90 15 85 16 88 17 86 18 87 19 89 20 93 21 94 22 95 23
REMARK SMILES IDX 96 24 9 25 10 26 11 27 12 28 13 29 14 30 15 31 16 32 80 33
REMARK SMILES IDX 17 34 79 35 18 36 19 37 20 38 73 39 21 40 78 41 72 42 74 43
REMARK SMILES IDX 22 44 77 45 71 46 70 47 23 49 57 50 36 51 56 52 37 53 40 54
REMARK SMILES IDX 55 55 75 56 38 57 39 58 54 60 76 61 41 62 24 63 25 64 34 65
REMARK SMILES IDX 26 66 27 67 33 68 35 69 28 70 29 71 30 72 31 73 32 74 58 75
REMARK SMILES IDX 59 76 68 77 60 78 61 79 67 80 69 81 62 82 63 83 64 84 65 85
REMARK SMILES IDX 66 86 42 87 43 88 52 89 44 90 45 91 51 92 53 93 46 94 47 95
REMARK SMILES IDX 48 96 49 97 50 98
REMARK H PARENT 74 48 40 59
REMARK Flexibility Score: inf
ROOT
ATOM      1  C   UNL A   1      31.780  29.320  26.408  1.00  0.00     0.188 C 
ENDROOT
BRANCH   1   2
ATOM      2  C   UNL A   1      31.676  29.612  24.902  1.00  0.00     0.188 C 
BRANCH   2   3
ATOM      3  O   UNL A   1      30.484  29.262  24.100  1.00  0.00    -0.376 OA
BRANCH   3   4
ATOM      4  C   UNL A   1      29.940  27.721  23.631  1.00  0.00     0.202 C 
BRANCH   4   5
ATOM      5  C   UNL A   1      31.042  26.315  22.397  1.00  0.00     0.261 C 
BRANCH   5   6
ATOM      6  O   UNL A   1      32.532  26.339  22.111  1.00  0.00    -0.460 OA
BRANCH   6   7
ATOM      7  C   UNL A   1      33.034  25.102  21.985  1.00  0.00     0.338 C 
ATOM      8  O   UNL A   1      33.285  24.514  20.962  1.00  0.00    -0.246 OA
BRANCH   7   9
ATOM      9  C   UNL A   1      32.633  24.615  23.299  1.00  0.00     0.087 C 
ATOM     10  C   UNL A   1      32.030  23.285  23.347  1.00  0.00     0.027 C 
ATOM     11  C   UNL A   1      34.325  25.077  24.077  1.00  0.00     0.316 C 
ATOM     12  C   UNL A   1      32.904  21.795  23.866  1.00  0.00     0.020 A 
ATOM     13  O   UNL A   1      35.367  23.481  24.475  1.00  0.00    -0.474 OA
ATOM     14  C   UNL A   1      32.256  20.592  23.830  1.00  0.00     0.032 A 
ATOM     15  C   UNL A   1      34.566  21.833  24.368  1.00  0.00     0.146 A 
ATOM     16  C   UNL A   1      33.027  19.492  24.244  1.00  0.00     0.043 A 
ATOM     17  C   UNL A   1      35.245  20.691  24.701  1.00  0.00     0.085 A 
ATOM     18  Cl  UNL A   1      32.232  17.948  24.257  1.00  0.00    -0.084 Cl
ATOM     19  C   UNL A   1      34.428  19.534  24.648  1.00  0.00     0.045 A 
ATOM     20  Cl  UNL A   1      36.902  20.572  25.044  1.00  0.00    -0.080 Cl
BRANCH  11  21
ATOM     21  C   UNL A   1      33.666  26.259  25.072  1.00  0.00     0.430 C 
ATOM     22  F   UNL A   1      32.431  26.136  25.556  1.00  0.00    -0.167 F 
ATOM     23  F   UNL A   1      34.488  26.462  26.129  1.00  0.00    -0.167 F 
ATOM     24  F   UNL A   1      33.619  27.465  24.423  1.00  0.00    -0.167 F 
ENDBRANCH  11  21
ENDBRANCH   7   9
ENDBRANCH   6   7
ENDBRANCH   5   6
ENDBRANCH   4   5
ENDBRANCH   3   4
ENDBRANCH   2   3
ENDBRANCH   1   2
BRANCH   1  25
ATOM     25  O   UNL A   1      32.426  30.226  27.264  1.00  0.00    -0.376 OA
BRANCH  25  26
ATOM     26  C   UNL A   1      33.791  30.498  26.991  1.00  0.00     0.202 C 
BRANCH  26  27
ATOM     27  C   UNL A   1      34.529  31.474  27.913  1.00  0.00     0.261 C 
BRANCH  27  28
ATOM     28  O   UNL A   1      35.560  30.863  28.710  1.00  0.00    -0.460 OA
BRANCH  28  29
ATOM     29  C   UNL A   1      36.582  31.653  29.124  1.00  0.00     0.338 C 
ATOM     30  O   UNL A   1      36.516  32.797  29.537  1.00  0.00    -0.246 OA
BRANCH  29  31
ATOM     31  C   UNL A   1      37.823  30.855  29.111  1.00  0.00     0.060 A 
ATOM     32  C   UNL A   1      38.714  30.912  30.196  1.00  0.00     0.016 A 
ATOM     33  C   UNL A   1      38.102  30.059  28.002  1.00  0.00     0.016 A 
ATOM     34  C   UNL A   1      39.878  30.140  30.184  1.00  0.00     0.010 A 
ATOM     35  C   UNL A   1      39.288  29.332  27.968  1.00  0.00     0.010 A 
ATOM     36  C   UNL A   1      40.188  29.384  29.047  1.00  0.00    -0.014 A 
BRANCH  36  37
ATOM     37  C   UNL A   1      41.562  28.882  28.821  1.00  0.00     0.031 A 
ATOM     38  C   UNL A   1      42.656  29.909  28.769  1.00  0.00     0.074 A 
ATOM     39  C   UNL A   1      41.812  27.590  28.558  1.00  0.00     0.049 A 
ATOM     40  N   UNL A   1      43.896  29.785  28.387  1.00  0.00    -0.248 NA
ATOM     41  C   UNL A   1      42.278  31.273  29.176  1.00  0.00     0.031 C 
ATOM     42  C   UNL A   1      40.830  26.511  28.607  1.00  0.00     0.029 A 
ATOM     43  N   UNL A   1      42.973  26.979  28.152  1.00  0.00    -0.354 N 
ATOM     44  C   UNL A   1      44.442  31.059  28.482  1.00  0.00     0.074 A 
ATOM     45  C   UNL A   1      43.391  31.943  28.930  1.00  0.00     0.031 C 
ATOM     46  C   UNL A   1      41.421  25.370  28.207  1.00  0.00     0.029 A 
ATOM     47  C   UNL A   1      42.807  25.652  27.830  1.00  0.00     0.049 A 
ATOM     48  H   UNL A   1      43.837  27.444  28.096  1.00  0.00     0.167 HD
ATOM     49  C   UNL A   1      45.707  31.456  28.210  1.00  0.00     0.037 A 
ATOM     50  C   UNL A   1      43.664  24.784  27.254  1.00  0.00     0.037 A 
ATOM     51  C   UNL A   1      46.725  30.566  27.723  1.00  0.00     0.049 A 
ATOM     52  C   UNL A   1      45.053  25.252  26.896  1.00  0.00     0.074 A 
ATOM     53  C   UNL A   1      48.046  30.848  27.433  1.00  0.00     0.029 A 
ATOM     54  N   UNL A   1      46.525  29.223  27.424  1.00  0.00    -0.354 N 
ATOM     55  N   UNL A   1      45.579  26.448  27.022  1.00  0.00    -0.248 NA
ATOM     56  C   UNL A   1      45.968  24.255  26.319  1.00  0.00     0.031 C 
ATOM     57  C   UNL A   1      48.622  29.700  26.882  1.00  0.00     0.029 A 
ATOM     58  C   UNL A   1      47.689  28.673  26.919  1.00  0.00     0.049 A 
ATOM     59  H   UNL A   1      45.680  28.737  27.554  1.00  0.00     0.167 HD
ATOM     60  C   UNL A   1      46.894  26.342  26.578  1.00  0.00     0.074 A 
ATOM     61  C   UNL A   1      47.081  24.963  26.173  1.00  0.00     0.031 C 
ATOM     62  C   UNL A   1      47.860  27.292  26.527  1.00  0.00     0.037 A 
BRANCH  49  63
ATOM     63  C   UNL A   1      46.016  32.921  28.367  1.00  0.00     0.058 A 
ATOM     64  C   UNL A   1      46.481  33.463  29.578  1.00  0.00     0.135 A 
ATOM     65  C   UNL A   1      45.810  33.805  27.296  1.00  0.00     0.135 A 
ATOM     66  F   UNL A   1      46.679  32.670  30.644  1.00  0.00    -0.206 F 
ATOM     67  C   UNL A   1      46.671  34.832  29.739  1.00  0.00     0.059 A 
ATOM     68  C   UNL A   1      46.036  35.172  27.420  1.00  0.00     0.059 A 
ATOM     69  F   UNL A   1      45.365  33.348  26.116  1.00  0.00    -0.206 F 
ATOM     70  C   UNL A   1      46.440  35.679  28.653  1.00  0.00     0.060 A 
BRANCH  70  71
ATOM     71  S   UNL A   1      46.659  37.454  28.887  1.00  0.00     0.124 S 
ATOM     72  O   UNL A   1      45.474  37.794  29.668  1.00  0.00    -0.237 OA
ATOM     73  O   UNL A   1      47.930  37.519  29.601  1.00  0.00    -0.237 OA
ATOM     74  O   UNL A   1      46.681  37.977  27.524  1.00  0.00    -0.744 OA
ENDBRANCH  70  71
ENDBRANCH  49  63
BRANCH  50  75
ATOM     75  C   UNL A   1      43.216  23.393  26.973  1.00  0.00     0.058 A 
ATOM     76  C   UNL A   1      42.955  22.962  25.664  1.00  0.00     0.135 A 
ATOM     77  C   UNL A   1      43.099  22.447  28.004  1.00  0.00     0.135 A 
ATOM     78  F   UNL A   1      43.030  23.831  24.644  1.00  0.00    -0.206 F 
ATOM     79  C   UNL A   1      42.612  21.641  25.384  1.00  0.00     0.059 A 
ATOM     80  C   UNL A   1      42.785  21.116  27.748  1.00  0.00     0.059 A 
ATOM     81  F   UNL A   1      43.339  22.806  29.276  1.00  0.00    -0.206 F 
ATOM     82  C   UNL A   1      42.547  20.721  26.432  1.00  0.00     0.060 A 
BRANCH  82  83
ATOM     83  S   UNL A   1      42.212  18.989  26.044  1.00  0.00     0.124 S 
ATOM     84  O   UNL A   1      43.055  18.777  24.873  1.00  0.00    -0.237 OA
ATOM     85  O   UNL A   1      42.638  18.317  27.267  1.00  0.00    -0.237 OA
ATOM     86  O   UNL A   1      40.773  18.971  25.796  1.00  0.00    -0.744 OA
ENDBRANCH  82  83
ENDBRANCH  50  75
BRANCH  62  87
ATOM     87  C   UNL A   1      49.239  26.882  26.077  1.00  0.00     0.058 A 
ATOM     88  C   UNL A   1      49.658  26.986  24.742  1.00  0.00     0.135 A 
ATOM     89  C   UNL A   1      50.191  26.480  27.031  1.00  0.00     0.135 A 
ATOM     90  F   UNL A   1      48.791  27.359  23.787  1.00  0.00    -0.206 F 
ATOM     91  C   UNL A   1      50.968  26.699  24.369  1.00  0.00     0.059 A 
ATOM     92  C   UNL A   1      51.513  26.224  26.687  1.00  0.00     0.059 A 
ATOM     93  F   UNL A   1      49.848  26.374  28.325  1.00  0.00    -0.206 F 
ATOM     94  C   UNL A   1      51.891  26.332  25.351  1.00  0.00     0.060 A 
BRANCH  94  95
ATOM     95  S   UNL A   1      53.603  26.030  24.861  1.00  0.00     0.124 S 
ATOM     96  O   UNL A   1      53.938  24.859  25.665  1.00  0.00    -0.237 OA
ATOM     97  O   UNL A   1      53.479  25.801  23.425  1.00  0.00    -0.237 OA
ATOM     98  O   UNL A   1      54.288  27.264  25.236  1.00  0.00    -0.744 OA
ENDBRANCH  94  95
ENDBRANCH  62  87
ENDBRANCH  36  37
ENDBRANCH  29  31
ENDBRANCH  28  29
ENDBRANCH  27  28
ENDBRANCH  26  27
ENDBRANCH  25  26
ENDBRANCH   1  25
TORSDOF 21
ENDMDL
MODEL 2
REMARK VINA RESULT:     -12.2      4.699      7.296
REMARK SMILES O=C(OCCOCCOCCOC(=O)c1ccc(-c2c3nc(c(-c4c(F)cc(S(=O)(=O)[O-])cc4F)c4ccc([nH]4)c(-c4c(F)cc(S(=O)(=O)[O-])cc4F)c4nc(c(-c5c(F)cc(S(=O)(=O)[O-])cc5F)c5ccc2[nH]5)C=C4)C=C3)cc1)C1=Cc2cc(Cl)cc(Cl)c2O[C@@H]1C(F)(F)F
REMARK SMILES IDX 8 1 7 2 6 3 5 4 4 5 3 6 2 7 1 8 81 9 82 10 92 11 83 12 91 13
REMARK SMILES IDX 84 14 90 15 85 16 88 17 86 18 87 19 89 20 93 21 94 22 95 23
REMARK SMILES IDX 96 24 9 25 10 26 11 27 12 28 13 29 14 30 15 31 16 32 80 33
REMARK SMILES IDX 17 34 79 35 18 36 19 37 20 38 73 39 21 40 78 41 72 42 74 43
REMARK SMILES IDX 22 44 77 45 71 46 70 47 23 49 57 50 36 51 56 52 37 53 40 54
REMARK SMILES IDX 55 55 75 56 38 57 39 58 54 60 76 61 41 62 24 63 25 64 34 65
REMARK SMILES IDX 26 66 27 67 33 68 35 69 28 70 29 71 30 72 31 73 32 74 58 75
REMARK SMILES IDX 59 76 68 77 60 78 61 79 67 80 69 81 62 82 63 83 64 84 65 85
REMARK SMILES IDX 66 86 42 87 43 88 52 89 44 90 45 91 51 92 53 93 46 94 47 95
REMARK SMILES IDX 48 96 49 97 50 98
REMARK H PARENT 74 48 40 59
REMARK Flexibility Score: inf
ROOT
ATOM      1  C   UNL A   1      34.302  33.964  33.628  1.00  0.00     0.188 C 
ENDROOT
BRANCH   1   2
ATOM      2  C   UNL A   1      35.820  33.887  33.862  1.00  0.00     0.188 C 
BRANCH   2   3
ATOM      3  O   UNL A   1      36.506  32.637  34.252  1.00  0.00    -0.376 OA
BRANCH   3   4
ATOM      4  C   UNL A   1      37.896  31.935  33.570  1.00  0.00     0.202 C 
BRANCH   4   5
ATOM      5  C   UNL A   1      38.479  29.851  33.753  1.00  0.00     0.261 C 
BRANCH   5   6
ATOM      6  O   UNL A   1      39.732  29.320  34.424  1.00  0.00    -0.460 OA
BRANCH   6   7
ATOM      7  C   UNL A   1      40.544  28.709  33.549  1.00  0.00     0.338 C 
ATOM      8  O   UNL A   1      40.232  28.153  32.524  1.00  0.00    -0.246 OA
BRANCH   7   9
ATOM      9  C   UNL A   1      41.650  28.476  34.468  1.00  0.00     0.087 C 
ATOM     10  C   UNL A   1      41.804  27.115  34.975  1.00  0.00     0.027 C 
ATOM     11  C   UNL A   1      42.902  29.360  33.313  1.00  0.00     0.316 C 
ATOM     12  C   UNL A   1      43.023  25.937  34.360  1.00  0.00     0.020 A 
ATOM     13  O   UNL A   1      44.114  28.078  32.489  1.00  0.00    -0.474 OA
ATOM     14  C   UNL A   1      43.050  24.670  34.876  1.00  0.00     0.032 A 
ATOM     15  C   UNL A   1      44.137  26.346  33.092  1.00  0.00     0.146 A 
ATOM     16  C   UNL A   1      44.029  23.828  34.321  1.00  0.00     0.043 A 
ATOM     17  C   UNL A   1      45.019  25.429  32.584  1.00  0.00     0.085 A 
ATOM     18  Cl  UNL A   1      44.130  22.222  34.976  1.00  0.00    -0.084 Cl
ATOM     19  C   UNL A   1      44.949  24.177  33.245  1.00  0.00     0.045 A 
ATOM     20  Cl  UNL A   1      46.037  25.650  31.245  1.00  0.00    -0.080 Cl
BRANCH  11  21
ATOM     21  C   UNL A   1      43.171  30.620  34.391  1.00  0.00     0.430 C 
ATOM     22  F   UNL A   1      42.884  30.487  35.686  1.00  0.00    -0.167 F 
ATOM     23  F   UNL A   1      44.466  31.009  34.311  1.00  0.00    -0.167 F 
ATOM     24  F   UNL A   1      42.445  31.726  34.033  1.00  0.00    -0.167 F 
ENDBRANCH  11  21
ENDBRANCH   7   9
ENDBRANCH   6   7
ENDBRANCH   5   6
ENDBRANCH   4   5
ENDBRANCH   3   4
ENDBRANCH   2   3
ENDBRANCH   1   2
BRANCH   1  25
ATOM     25  O   UNL A   1      33.786  34.023  32.323  1.00  0.00    -0.376 OA
BRANCH  25  26
ATOM     26  C   UNL A   1      34.727  34.168  31.272  1.00  0.00     0.202 C 
BRANCH  26  27
ATOM     27  C   UNL A   1      34.478  33.396  29.972  1.00  0.00     0.261 C 
BRANCH  27  28
ATOM     28  O   UNL A   1      34.810  31.997  30.047  1.00  0.00    -0.460 OA
BRANCH  28  29
ATOM     29  C   UNL A   1      34.981  31.331  28.878  1.00  0.00     0.338 C 
ATOM     30  O   UNL A   1      34.282  31.387  27.882  1.00  0.00    -0.246 OA
BRANCH  29  31
ATOM     31  C   UNL A   1      36.253  30.587  28.948  1.00  0.00     0.060 A 
ATOM     32  C   UNL A   1      36.754  30.154  30.188  1.00  0.00     0.016 A 
ATOM     33  C   UNL A   1      36.954  30.335  27.770  1.00  0.00     0.016 A 
ATOM     34  C   UNL A   1      37.950  29.435  30.245  1.00  0.00     0.010 A 
ATOM     35  C   UNL A   1      38.172  29.665  27.834  1.00  0.00     0.010 A 
ATOM     36  C   UNL A   1      38.683  29.231  29.070  1.00  0.00    -0.014 A 
BRANCH  36  37
ATOM     37  C   UNL A   1      40.111  28.842  29.125  1.00  0.00     0.031 A 
ATOM     38  C   UNL A   1      41.101  29.944  29.365  1.00  0.00     0.074 A 
ATOM     39  C   UNL A   1      40.518  27.591  28.857  1.00  0.00     0.049 A 
ATOM     40  N   UNL A   1      42.401  29.932  29.258  1.00  0.00    -0.248 NA
ATOM     41  C   UNL A   1      40.534  31.247  29.749  1.00  0.00     0.031 C 
ATOM     42  C   UNL A   1      39.640  26.445  28.636  1.00  0.00     0.029 A 
ATOM     43  N   UNL A   1      41.784  27.091  28.684  1.00  0.00    -0.354 N 
ATOM     44  C   UNL A   1      42.807  31.232  29.535  1.00  0.00     0.074 A 
ATOM     45  C   UNL A   1      41.614  32.008  29.787  1.00  0.00     0.031 C 
ATOM     46  C   UNL A   1      40.395  25.378  28.317  1.00  0.00     0.029 A 
ATOM     47  C   UNL A   1      41.802  25.781  28.267  1.00  0.00     0.049 A 
ATOM     48  H   UNL A   1      42.600  27.618  28.843  1.00  0.00     0.167 HD
ATOM     49  C   UNL A   1      44.063  31.733  29.567  1.00  0.00     0.037 A 
ATOM     50  C   UNL A   1      42.831  25.015  27.849  1.00  0.00     0.037 A 
ATOM     51  C   UNL A   1      45.232  30.951  29.270  1.00  0.00     0.049 A 
ATOM     52  C   UNL A   1      44.221  25.602  27.828  1.00  0.00     0.074 A 
ATOM     53  C   UNL A   1      46.556  31.344  29.291  1.00  0.00     0.029 A 
ATOM     54  N   UNL A   1      45.212  29.622  28.867  1.00  0.00    -0.354 N 
ATOM     55  N   UNL A   1      44.607  26.821  28.127  1.00  0.00    -0.248 NA
ATOM     56  C   UNL A   1      45.317  24.713  27.416  1.00  0.00     0.031 C 
ATOM     57  C   UNL A   1      47.330  30.279  28.822  1.00  0.00     0.029 A 
ATOM     58  C   UNL A   1      46.499  29.189  28.602  1.00  0.00     0.049 A 
ATOM     59  H   UNL A   1      44.402  29.069  28.783  1.00  0.00     0.167 HD
ATOM     60  C   UNL A   1      45.990  26.836  27.977  1.00  0.00     0.074 A 
ATOM     61  C   UNL A   1      46.374  25.505  27.552  1.00  0.00     0.031 C 
ATOM     62  C   UNL A   1      46.864  27.853  28.186  1.00  0.00     0.037 A 
BRANCH  49  63
ATOM     63  C   UNL A   1      44.209  33.202  29.863  1.00  0.00     0.058 A 
ATOM     64  C   UNL A   1      44.381  33.691  31.170  1.00  0.00     0.135 A 
ATOM     65  C   UNL A   1      44.142  34.142  28.822  1.00  0.00     0.135 A 
ATOM     66  F   UNL A   1      44.434  32.841  32.209  1.00  0.00    -0.206 F 
ATOM     67  C   UNL A   1      44.418  35.055  31.439  1.00  0.00     0.059 A 
ATOM     68  C   UNL A   1      44.221  35.510  29.063  1.00  0.00     0.059 A 
ATOM     69  F   UNL A   1      43.975  33.738  27.553  1.00  0.00    -0.206 F 
ATOM     70  C   UNL A   1      44.332  35.957  30.378  1.00  0.00     0.060 A 
BRANCH  70  71
ATOM     71  S   UNL A   1      44.348  37.723  30.746  1.00  0.00     0.124 S 
ATOM     72  O   UNL A   1      43.825  37.741  32.108  1.00  0.00    -0.237 OA
ATOM     73  O   UNL A   1      45.761  38.056  30.606  1.00  0.00    -0.237 OA
ATOM     74  O   UNL A   1      43.469  38.292  29.730  1.00  0.00    -0.744 OA
ENDBRANCH  70  71
ENDBRANCH  49  63
BRANCH  50  75
ATOM     75  C   UNL A   1      42.570  23.618  27.406  1.00  0.00     0.058 A 
ATOM     76  C   UNL A   1      42.492  23.288  26.046  1.00  0.00     0.135 A 
ATOM     77  C   UNL A   1      42.455  22.573  28.337  1.00  0.00     0.135 A 
ATOM     78  F   UNL A   1      42.573  24.252  25.116  1.00  0.00    -0.206 F 
ATOM     79  C   UNL A   1      42.327  21.971  25.622  1.00  0.00     0.059 A 
ATOM     80  C   UNL A   1      42.318  21.247  27.938  1.00  0.00     0.059 A 
ATOM     81  F   UNL A   1      42.525  22.833  29.652  1.00  0.00    -0.206 F 
ATOM     82  C   UNL A   1      42.259  20.956  26.576  1.00  0.00     0.060 A 
BRANCH  82  83
ATOM     83  S   UNL A   1      42.159  19.243  26.012  1.00  0.00     0.124 S 
ATOM     84  O   UNL A   1      42.596  18.512  27.196  1.00  0.00    -0.237 OA
ATOM     85  O   UNL A   1      40.746  19.119  25.671  1.00  0.00    -0.237 OA
ATOM     86  O   UNL A   1      43.076  19.207  24.876  1.00  0.00    -0.744 OA
ENDBRANCH  82  83
ENDBRANCH  50  75
BRANCH  62  87
ATOM     87  C   UNL A   1      48.336  27.571  28.029  1.00  0.00     0.058 A 
ATOM     88  C   UNL A   1      49.143  27.165  29.101  1.00  0.00     0.135 A 
ATOM     89  C   UNL A   1      48.917  27.606  26.748  1.00  0.00     0.135 A 
ATOM     90  F   UNL A   1      48.645  27.119  30.346  1.00  0.00    -0.206 F 
ATOM     91  C   UNL A   1      50.477  26.810  28.910  1.00  0.00     0.059 A 
ATOM     92  C   UNL A   1      50.235  27.221  26.530  1.00  0.00     0.059 A 
ATOM     93  F   UNL A   1      48.187  27.977  25.684  1.00  0.00    -0.206 F 
ATOM     94  C   UNL A   1      51.009  26.829  27.619  1.00  0.00     0.060 A 
BRANCH  94  95
ATOM     95  S   UNL A   1      52.719  26.299  27.379  1.00  0.00     0.124 S 
ATOM     96  O   UNL A   1      53.181  26.162  28.756  1.00  0.00    -0.237 OA
ATOM     97  O   UNL A   1      52.555  25.053  26.637  1.00  0.00    -0.237 OA
ATOM     98  O   UNL A   1      53.314  27.399  26.624  1.00  0.00    -0.744 OA
ENDBRANCH  94  95
ENDBRANCH  62  87
ENDBRANCH  36  37
ENDBRANCH  29  31
ENDBRANCH  28  29
ENDBRANCH  27  28
ENDBRANCH  26  27
ENDBRANCH  25  26
ENDBRANCH   1  25
TORSDOF 21
ENDMDL
MODEL 3
REMARK VINA RESULT:     -12.2      6.504     11.804
REMARK SMILES O=C(OCCOCCOCCOC(=O)c1ccc(-c2c3nc(c(-c4c(F)cc(S(=O)(=O)[O-])cc4F)c4ccc([nH]4)c(-c4c(F)cc(S(=O)(=O)[O-])cc4F)c4nc(c(-c5c(F)cc(S(=O)(=O)[O-])cc5F)c5ccc2[nH]5)C=C4)C=C3)cc1)C1=Cc2cc(Cl)cc(Cl)c2O[C@@H]1C(F)(F)F
REMARK SMILES IDX 8 1 7 2 6 3 5 4 4 5 3 6 2 7 1 8 81 9 82 10 92 11 83 12 91 13
REMARK SMILES IDX 84 14 90 15 85 16 88 17 86 18 87 19 89 20 93 21 94 22 95 23
REMARK SMILES IDX 96 24 9 25 10 26 11 27 12 28 13 29 14 30 15 31 16 32 80 33
REMARK SMILES IDX 17 34 79 35 18 36 19 37 20 38 73 39 21 40 78 41 72 42 74 43
REMARK SMILES IDX 22 44 77 45 71 46 70 47 23 49 57 50 36 51 56 52 37 53 40 54
REMARK SMILES IDX 55 55 75 56 38 57 39 58 54 60 76 61 41 62 24 63 25 64 34 65
REMARK SMILES IDX 26 66 27 67 33 68 35 69 28 70 29 71 30 72 31 73 32 74 58 75
REMARK SMILES IDX 59 76 68 77 60 78 61 79 67 80 69 81 62 82 63 83 64 84 65 85
REMARK SMILES IDX 66 86 42 87 43 88 52 89 44 90 45 91 51 92 53 93 46 94 47 95
REMARK SMILES IDX 48 96 49 97 50 98
REMARK H PARENT 74 48 40 59
REMARK Flexibility Score: inf
ROOT
ATOM      1  C   UNL A   1      43.551  21.420  25.686  1.00  0.00     0.188 C 
ENDROOT
BRANCH   1   2
ATOM      2  C   UNL A   1      42.437  20.841  26.574  1.00  0.00     0.188 C 
BRANCH   2   3
ATOM      3  O   UNL A   1      41.458  21.692  27.283  1.00  0.00    -0.376 OA
BRANCH   3   4
ATOM      4  C   UNL A   1      40.127  22.533  26.642  1.00  0.00     0.202 C 
BRANCH   4   5
ATOM      5  C   UNL A   1      38.398  21.625  25.692  1.00  0.00     0.261 C 
BRANCH   5   6
ATOM      6  O   UNL A   1      36.964  22.115  25.769  1.00  0.00    -0.460 OA
BRANCH   6   7
ATOM      7  C   UNL A   1      36.578  22.703  24.627  1.00  0.00     0.338 C 
ATOM      8  O   UNL A   1      37.282  23.219  23.794  1.00  0.00    -0.246 OA
BRANCH   7   9
ATOM      9  C   UNL A   1      35.205  22.981  25.028  1.00  0.00     0.087 C 
ATOM     10  C   UNL A   1      34.894  24.363  25.388  1.00  0.00     0.027 C 
ATOM     11  C   UNL A   1      34.488  22.061  23.503  1.00  0.00     0.316 C 
ATOM     12  C   UNL A   1      34.043  25.525  24.303  1.00  0.00     0.020 A 
ATOM     13  O   UNL A   1      33.727  23.319  22.226  1.00  0.00    -0.474 OA
ATOM     14  C   UNL A   1      33.844  26.810  24.724  1.00  0.00     0.032 A 
ATOM     15  C   UNL A   1      33.508  25.074  22.714  1.00  0.00     0.146 A 
ATOM     16  C   UNL A   1      33.181  27.638  23.801  1.00  0.00     0.043 A 
ATOM     17  C   UNL A   1      32.918  25.977  21.869  1.00  0.00     0.085 A 
ATOM     18  Cl  UNL A   1      32.867  29.269  24.309  1.00  0.00    -0.084 Cl
ATOM     19  C   UNL A   1      32.750  27.253  22.462  1.00  0.00     0.045 A 
ATOM     20  Cl  UNL A   1      32.504  25.710  20.245  1.00  0.00    -0.080 Cl
BRANCH  11  21
ATOM     21  C   UNL A   1      33.789  20.847  24.430  1.00  0.00     0.430 C 
ATOM     22  F   UNL A   1      33.159  21.132  25.570  1.00  0.00    -0.167 F 
ATOM     23  F   UNL A   1      32.921  20.143  23.664  1.00  0.00    -0.167 F 
ATOM     24  F   UNL A   1      34.733  19.936  24.826  1.00  0.00    -0.167 F 
ENDBRANCH  11  21
ENDBRANCH   7   9
ENDBRANCH   6   7
ENDBRANCH   5   6
ENDBRANCH   4   5
ENDBRANCH   3   4
ENDBRANCH   2   3
ENDBRANCH   1   2
BRANCH   1  25
ATOM     25  O   UNL A   1      43.238  22.289  24.629  1.00  0.00    -0.376 OA
BRANCH  25  26
ATOM     26  C   UNL A   1      43.791  23.594  24.692  1.00  0.00     0.202 C 
BRANCH  26  27
ATOM     27  C   UNL A   1      43.479  24.449  25.924  1.00  0.00     0.261 C 
BRANCH  27  28
ATOM     28  O   UNL A   1      43.056  25.790  25.616  1.00  0.00    -0.460 OA
BRANCH  28  29
ATOM     29  C   UNL A   1      41.768  26.118  25.891  1.00  0.00     0.338 C 
ATOM     30  O   UNL A   1      40.793  25.952  25.181  1.00  0.00    -0.246 OA
BRANCH  29  31
ATOM     31  C   UNL A   1      41.701  26.621  27.276  1.00  0.00     0.060 A 
ATOM     32  C   UNL A   1      40.787  26.066  28.188  1.00  0.00     0.016 A 
ATOM     33  C   UNL A   1      42.545  27.662  27.659  1.00  0.00     0.016 A 
ATOM     34  C   UNL A   1      40.740  26.534  29.503  1.00  0.00     0.010 A 
ATOM     35  C   UNL A   1      42.460  28.164  28.954  1.00  0.00     0.010 A 
ATOM     36  C   UNL A   1      41.547  27.617  29.873  1.00  0.00    -0.014 A 
BRANCH  36  37
ATOM     37  C   UNL A   1      41.257  28.395  31.099  1.00  0.00     0.031 A 
ATOM     38  C   UNL A   1      40.133  29.386  31.019  1.00  0.00     0.074 A 
ATOM     39  C   UNL A   1      42.030  28.310  32.194  1.00  0.00     0.049 A 
ATOM     40  N   UNL A   1      39.796  30.332  31.852  1.00  0.00    -0.248 NA
ATOM     41  C   UNL A   1      39.295  29.314  29.810  1.00  0.00     0.031 C 
ATOM     42  C   UNL A   1      43.127  27.366  32.384  1.00  0.00     0.029 A 
ATOM     43  N   UNL A   1      42.027  29.069  33.338  1.00  0.00    -0.354 N 
ATOM     44  C   UNL A   1      38.724  30.985  31.256  1.00  0.00     0.074 A 
ATOM     45  C   UNL A   1      38.487  30.345  29.982  1.00  0.00     0.031 C 
ATOM     46  C   UNL A   1      43.721  27.626  33.563  1.00  0.00     0.029 A 
ATOM     47  C   UNL A   1      43.074  28.784  34.183  1.00  0.00     0.049 A 
ATOM     48  H   UNL A   1      41.345  29.749  33.534  1.00  0.00     0.167 HD
ATOM     49  C   UNL A   1      38.008  32.032  31.728  1.00  0.00     0.037 A 
ATOM     50  C   UNL A   1      43.485  29.417  35.302  1.00  0.00     0.037 A 
ATOM     51  C   UNL A   1      38.291  32.680  32.979  1.00  0.00     0.049 A 
ATOM     52  C   UNL A   1      42.718  30.622  35.787  1.00  0.00     0.074 A 
ATOM     53  C   UNL A   1      37.623  33.735  33.571  1.00  0.00     0.029 A 
ATOM     54  N   UNL A   1      39.350  32.354  33.818  1.00  0.00    -0.354 N 
ATOM     55  N   UNL A   1      41.681  31.215  35.242  1.00  0.00    -0.248 NA
ATOM     56  C   UNL A   1      43.172  31.245  37.039  1.00  0.00     0.031 C 
ATOM     57  C   UNL A   1      38.324  34.099  34.723  1.00  0.00     0.029 A 
ATOM     58  C   UNL A   1      39.374  33.209  34.905  1.00  0.00     0.049 A 
ATOM     59  H   UNL A   1      39.988  31.621  33.662  1.00  0.00     0.167 HD
ATOM     60  C   UNL A   1      41.335  32.255  36.100  1.00  0.00     0.074 A 
ATOM     61  C   UNL A   1      42.279  32.214  37.198  1.00  0.00     0.031 C 
ATOM     62  C   UNL A   1      40.320  33.149  35.996  1.00  0.00     0.037 A 
BRANCH  49  63
ATOM     63  C   UNL A   1      36.912  32.568  30.846  1.00  0.00     0.058 A 
ATOM     64  C   UNL A   1      37.169  33.457  29.788  1.00  0.00     0.135 A 
ATOM     65  C   UNL A   1      35.575  32.212  31.086  1.00  0.00     0.135 A 
ATOM     66  F   UNL A   1      38.426  33.850  29.522  1.00  0.00    -0.206 F 
ATOM     67  C   UNL A   1      36.138  34.020  29.043  1.00  0.00     0.059 A 
ATOM     68  C   UNL A   1      34.532  32.728  30.324  1.00  0.00     0.059 A 
ATOM     69  F   UNL A   1      35.267  31.369  32.084  1.00  0.00    -0.206 F 
ATOM     70  C   UNL A   1      34.821  33.652  29.323  1.00  0.00     0.060 A 
BRANCH  70  71
ATOM     71  S   UNL A   1      33.494  34.415  28.369  1.00  0.00     0.124 S 
ATOM     72  O   UNL A   1      32.965  33.270  27.636  1.00  0.00    -0.237 OA
ATOM     73  O   UNL A   1      32.630  34.952  29.415  1.00  0.00    -0.237 OA
ATOM     74  O   UNL A   1      34.186  35.412  27.558  1.00  0.00    -0.744 OA
ENDBRANCH  70  71
ENDBRANCH  49  63
BRANCH  50  75
ATOM     75  C   UNL A   1      44.691  28.921  36.021  1.00  0.00     0.058 A 
ATOM     76  C   UNL A   1      44.599  27.907  36.985  1.00  0.00     0.135 A 
ATOM     77  C   UNL A   1      45.970  29.411  35.711  1.00  0.00     0.135 A 
ATOM     78  F   UNL A   1      43.398  27.421  37.334  1.00  0.00    -0.206 F 
ATOM     79  C   UNL A   1      45.731  27.383  37.604  1.00  0.00     0.059 A 
ATOM     80  C   UNL A   1      47.118  28.885  36.295  1.00  0.00     0.059 A 
ATOM     81  F   UNL A   1      46.115  30.380  34.794  1.00  0.00    -0.206 F 
ATOM     82  C   UNL A   1      46.989  27.867  37.238  1.00  0.00     0.060 A 
BRANCH  82  83
ATOM     83  S   UNL A   1      48.455  27.102  37.965  1.00  0.00     0.124 S 
ATOM     84  O   UNL A   1      49.402  27.163  36.858  1.00  0.00    -0.237 OA
ATOM     85  O   UNL A   1      48.731  27.987  39.092  1.00  0.00    -0.237 OA
ATOM     86  O   UNL A   1      47.994  25.764  38.327  1.00  0.00    -0.744 OA
ENDBRANCH  82  83
ENDBRANCH  50  75
BRANCH  62  87
ATOM     87  C   UNL A   1      40.117  34.130  37.122  1.00  0.00     0.058 A 
ATOM     88  C   UNL A   1      40.547  35.462  37.047  1.00  0.00     0.135 A 
ATOM     89  C   UNL A   1      39.376  33.745  38.255  1.00  0.00     0.135 A 
ATOM     90  F   UNL A   1      41.263  35.885  35.993  1.00  0.00    -0.206 F 
ATOM     91  C   UNL A   1      40.257  36.376  38.057  1.00  0.00     0.059 A 
ATOM     92  C   UNL A   1      39.044  34.649  39.257  1.00  0.00     0.059 A 
ATOM     93  F   UNL A   1      38.930  32.483  38.374  1.00  0.00    -0.206 F 
ATOM     94  C   UNL A   1      39.494  35.962  39.151  1.00  0.00     0.060 A 
BRANCH  94  95
ATOM     95  S   UNL A   1      39.066  37.176  40.418  1.00  0.00     0.124 S 
ATOM     96  O   UNL A   1      38.062  36.453  41.192  1.00  0.00    -0.237 OA
ATOM     97  O   UNL A   1      40.347  37.391  41.085  1.00  0.00    -0.237 OA
ATOM     98  O   UNL A   1      38.567  38.312  39.649  1.00  0.00    -0.744 OA
ENDBRANCH  94  95
ENDBRANCH  62  87
ENDBRANCH  36  37
ENDBRANCH  29  31
ENDBRANCH  28  29
ENDBRANCH  27  28
ENDBRANCH  26  27
ENDBRANCH  25  26
ENDBRANCH   1  25
TORSDOF 21
ENDMDL
