MODEL 1
REMARK VINA RESULT:     -10.2      0.000      0.000
REMARK SMILES COC(=O)c1c(NS(=O)(=O)CCC(=O)OCCOCCOCCOC(=O)c2ccc(-c3c4nc(c(-c5c(F)cc(S(=O)(=O)[O-])cc5F)c5ccc([nH]5)c(-c5c(F)cc(S(=O)(=O)[O-])cc5F)c5nc(c(-c6c(F)cc(S(=O)(=O)[O-])cc6F)c6ccc3[nH]6)C=C5)C=C4)cc2)sc2c1CCC2
REMARK SMILES IDX 18 1 17 2 16 3 15 4 13 5 14 6 12 7 11 8 8 9 9 10 10 11 7 12
REMARK SMILES IDX 6 14 5 15 95 16 93 17 94 18 96 19 98 20 97 21 3 22 4 23 2 24
REMARK SMILES IDX 1 25 19 26 20 27 21 28 22 29 23 30 24 31 25 32 26 33 27 34
REMARK SMILES IDX 28 35 92 36 29 37 91 38 30 39 31 40 32 41 85 42 33 43 90 44
REMARK SMILES IDX 84 45 86 46 34 47 89 48 83 49 82 50 35 52 69 53 48 54 68 55
REMARK SMILES IDX 49 56 52 57 67 58 87 59 50 60 51 61 66 63 88 64 53 65 36 66
REMARK SMILES IDX 37 67 46 68 38 69 39 70 45 71 47 72 40 73 41 74 42 75 43 76
REMARK SMILES IDX 44 77 70 78 71 79 80 80 72 81 73 82 79 83 81 84 74 85 75 86
REMARK SMILES IDX 76 87 77 88 78 89 54 90 55 91 64 92 56 93 57 94 63 95 65 96
REMARK SMILES IDX 58 97 59 98 60 99 61 100 62 101
REMARK H PARENT 7 13 86 51 52 62
REMARK Flexibility Score: inf
ROOT
ATOM      1  O   UNL A   1      41.067  21.318  26.525  1.00  0.00    -0.376 OA
ENDROOT
BRANCH   1   2
ATOM      2  C   UNL A   1      40.073  22.329  26.480  1.00  0.00     0.202 C 
BRANCH   2   3
ATOM      3  C   UNL A   1      38.636  21.893  25.874  1.00  0.00     0.261 C 
BRANCH   3   4
ATOM      4  O   UNL A   1      37.451  22.773  25.948  1.00  0.00    -0.463 OA
BRANCH   4   5
ATOM      5  C   UNL A   1      36.159  22.442  25.653  1.00  0.00     0.306 C 
ATOM      6  O   UNL A   1      35.607  21.412  26.019  1.00  0.00    -0.252 OA
BRANCH   5   7
ATOM      7  C   UNL A   1      35.496  23.451  24.690  1.00  0.00     0.141 C 
BRANCH   7   8
ATOM      8  C   UNL A   1      34.774  22.991  23.412  1.00  0.00     0.171 C 
BRANCH   8   9
ATOM      9  S   UNL A   1      33.475  24.102  22.760  1.00  0.00     0.233 S 
ATOM     10  O   UNL A   1      33.506  24.017  21.315  1.00  0.00    -0.207 OA
ATOM     11  O   UNL A   1      33.624  25.393  23.402  1.00  0.00    -0.207 OA
BRANCH   9  12
ATOM     12  N   UNL A   1      31.956  23.505  23.218  1.00  0.00    -0.274 N 
ATOM     13  H   UNL A   1      31.142  24.058  23.264  1.00  0.00     0.180 HD
BRANCH  12  14
ATOM     14  C   UNL A   1      31.986  22.117  23.529  1.00  0.00     0.117 A 
ATOM     15  C   UNL A   1      32.129  21.645  24.831  1.00  0.00     0.098 A 
ATOM     16  C   UNL A   1      32.478  20.191  24.680  1.00  0.00    -0.017 A 
ATOM     17  S   UNL A   1      31.910  20.955  22.292  1.00  0.00    -0.121 S 
ATOM     18  C   UNL A   1      32.370  19.774  23.369  1.00  0.00     0.011 A 
ATOM     19  C   UNL A   1      32.827  18.946  25.469  1.00  0.00     0.038 C 
ATOM     20  C   UNL A   1      32.616  18.336  23.088  1.00  0.00     0.047 C 
ATOM     21  C   UNL A   1      33.109  17.817  24.442  1.00  0.00     0.010 C 
BRANCH  15  22
ATOM     22  C   UNL A   1      31.848  22.704  25.918  1.00  0.00     0.341 C 
ATOM     23  O   UNL A   1      32.676  22.903  26.808  1.00  0.00    -0.246 OA
BRANCH  22  24
ATOM     24  O   UNL A   1      30.626  23.299  26.011  1.00  0.00    -0.465 OA
ATOM     25  C   UNL A   1      29.760  22.869  27.076  1.00  0.00     0.282 C 
ENDBRANCH  22  24
ENDBRANCH  15  22
ENDBRANCH  12  14
ENDBRANCH   9  12
ENDBRANCH   8   9
ENDBRANCH   7   8
ENDBRANCH   5   7
ENDBRANCH   4   5
ENDBRANCH   3   4
ENDBRANCH   2   3
ENDBRANCH   1   2
BRANCH   1  26
ATOM     26  C   UNL A   1      42.284  21.491  27.239  1.00  0.00     0.188 C 
BRANCH  26  27
ATOM     27  C   UNL A   1      43.466  21.096  26.330  1.00  0.00     0.188 C 
BRANCH  27  28
ATOM     28  O   UNL A   1      43.353  21.328  24.932  1.00  0.00    -0.376 OA
BRANCH  28  29
ATOM     29  C   UNL A   1      44.549  21.604  24.217  1.00  0.00     0.202 C 
BRANCH  29  30
ATOM     30  C   UNL A   1      45.064  23.052  24.228  1.00  0.00     0.261 C 
BRANCH  30  31
ATOM     31  O   UNL A   1      44.024  24.007  24.385  1.00  0.00    -0.460 OA
BRANCH  31  32
ATOM     32  C   UNL A   1      44.318  25.045  25.218  1.00  0.00     0.338 C 
ATOM     33  O   UNL A   1      45.375  25.627  25.325  1.00  0.00    -0.246 OA
BRANCH  32  34
ATOM     34  C   UNL A   1      43.105  25.312  26.026  1.00  0.00     0.060 A 
ATOM     35  C   UNL A   1      42.094  26.052  25.419  1.00  0.00     0.016 A 
ATOM     36  C   UNL A   1      43.083  25.043  27.414  1.00  0.00     0.016 A 
ATOM     37  C   UNL A   1      41.266  26.784  26.242  1.00  0.00     0.010 A 
ATOM     38  C   UNL A   1      42.198  25.693  28.231  1.00  0.00     0.010 A 
ATOM     39  C   UNL A   1      41.480  26.707  27.624  1.00  0.00    -0.014 A 
BRANCH  39  40
ATOM     40  C   UNL A   1      41.427  27.969  28.337  1.00  0.00     0.031 A 
ATOM     41  C   UNL A   1      42.556  28.873  28.128  1.00  0.00     0.074 A 
ATOM     42  C   UNL A   1      40.351  28.276  29.096  1.00  0.00     0.049 A 
ATOM     43  N   UNL A   1      43.501  29.144  28.962  1.00  0.00    -0.248 NA
ATOM     44  C   UNL A   1      42.720  29.457  26.792  1.00  0.00     0.031 C 
ATOM     45  C   UNL A   1      39.037  27.617  29.137  1.00  0.00     0.029 A 
ATOM     46  N   UNL A   1      40.179  29.332  29.931  1.00  0.00    -0.354 N 
ATOM     47  C   UNL A   1      44.260  30.119  28.337  1.00  0.00     0.074 A 
ATOM     48  C   UNL A   1      43.856  30.136  26.951  1.00  0.00     0.031 C 
ATOM     49  C   UNL A   1      38.153  28.419  29.768  1.00  0.00     0.029 A 
ATOM     50  C   UNL A   1      38.859  29.578  30.275  1.00  0.00     0.049 A 
ATOM     51  H   UNL A   1      40.928  29.877  30.265  1.00  0.00     0.167 HD
ATOM     52  C   UNL A   1      44.977  31.026  29.047  1.00  0.00     0.037 A 
ATOM     53  C   UNL A   1      38.384  30.716  30.835  1.00  0.00     0.037 A 
ATOM     54  C   UNL A   1      45.133  30.657  30.429  1.00  0.00     0.049 A 
ATOM     55  C   UNL A   1      39.544  31.396  31.480  1.00  0.00     0.074 A 
ATOM     56  C   UNL A   1      45.637  29.544  31.075  1.00  0.00     0.029 A 
ATOM     57  N   UNL A   1      44.391  31.329  31.372  1.00  0.00    -0.354 N 
ATOM     58  N   UNL A   1      40.184  30.927  32.519  1.00  0.00    -0.248 NA
ATOM     59  C   UNL A   1      40.280  32.377  30.694  1.00  0.00     0.031 C 
ATOM     60  C   UNL A   1      44.796  29.356  32.211  1.00  0.00     0.029 A 
ATOM     61  C   UNL A   1      43.850  30.382  32.209  1.00  0.00     0.049 A 
ATOM     62  H   UNL A   1      44.270  32.305  31.437  1.00  0.00     0.167 HD
ATOM     63  C   UNL A   1      41.521  31.238  32.294  1.00  0.00     0.074 A 
ATOM     64  C   UNL A   1      41.503  32.210  31.205  1.00  0.00     0.031 C 
ATOM     65  C   UNL A   1      42.533  30.474  32.804  1.00  0.00     0.037 A 
BRANCH  52  66
ATOM     66  C   UNL A   1      45.224  32.407  28.530  1.00  0.00     0.058 A 
ATOM     67  C   UNL A   1      46.535  32.869  28.341  1.00  0.00     0.135 A 
ATOM     68  C   UNL A   1      44.194  33.369  28.423  1.00  0.00     0.135 A 
ATOM     69  F   UNL A   1      47.576  32.032  28.472  1.00  0.00    -0.206 F 
ATOM     70  C   UNL A   1      46.807  34.209  28.073  1.00  0.00     0.059 A 
ATOM     71  C   UNL A   1      44.436  34.692  28.094  1.00  0.00     0.059 A 
ATOM     72  F   UNL A   1      42.920  33.072  28.719  1.00  0.00    -0.206 F 
ATOM     73  C   UNL A   1      45.749  35.112  27.958  1.00  0.00     0.060 A 
BRANCH  73  74
ATOM     74  S   UNL A   1      46.095  36.860  27.703  1.00  0.00     0.124 S 
ATOM     75  O   UNL A   1      44.820  37.459  28.081  1.00  0.00    -0.237 OA
ATOM     76  O   UNL A   1      47.209  37.091  28.617  1.00  0.00    -0.237 OA
ATOM     77  O   UNL A   1      46.432  36.926  26.284  1.00  0.00    -0.744 OA
ENDBRANCH  73  74
ENDBRANCH  52  66
BRANCH  53  78
ATOM     78  C   UNL A   1      37.109  31.402  30.483  1.00  0.00     0.058 A 
ATOM     79  C   UNL A   1      36.257  31.899  31.483  1.00  0.00     0.135 A 
ATOM     80  C   UNL A   1      36.812  31.808  29.163  1.00  0.00     0.135 A 
ATOM     81  F   UNL A   1      36.477  31.591  32.770  1.00  0.00    -0.206 F 
ATOM     82  C   UNL A   1      35.204  32.778  31.198  1.00  0.00     0.059 A 
ATOM     83  C   UNL A   1      35.756  32.661  28.852  1.00  0.00     0.059 A 
ATOM     84  F   UNL A   1      37.594  31.469  28.128  1.00  0.00    -0.206 F 
ATOM     85  C   UNL A   1      34.971  33.164  29.878  1.00  0.00     0.060 A 
BRANCH  85  86
ATOM     86  S   UNL A   1      33.727  34.424  29.518  1.00  0.00     0.124 S 
ATOM     87  O   UNL A   1      33.230  34.746  30.850  1.00  0.00    -0.237 OA
ATOM     88  O   UNL A   1      34.518  35.458  28.861  1.00  0.00    -0.237 OA
ATOM     89  O   UNL A   1      32.779  33.726  28.651  1.00  0.00    -0.744 OA
ENDBRANCH  85  86
ENDBRANCH  53  78
BRANCH  65  90
ATOM     90  C   UNL A   1      42.199  29.452  33.863  1.00  0.00     0.058 A 
ATOM     91  C   UNL A   1      41.717  28.162  33.578  1.00  0.00     0.135 A 
ATOM     92  C   UNL A   1      42.544  29.723  35.197  1.00  0.00     0.135 A 
ATOM     93  F   UNL A   1      41.473  27.783  32.316  1.00  0.00    -0.206 F 
ATOM     94  C   UNL A   1      41.544  27.201  34.577  1.00  0.00     0.059 A 
ATOM     95  C   UNL A   1      42.408  28.770  36.205  1.00  0.00     0.059 A 
ATOM     96  F   UNL A   1      43.074  30.913  35.526  1.00  0.00    -0.206 F 
ATOM     97  C   UNL A   1      41.895  27.513  35.889  1.00  0.00     0.060 A 
BRANCH  97  98
ATOM     98  S   UNL A   1      41.763  26.236  37.161  1.00  0.00     0.124 S 
ATOM     99  O   UNL A   1      42.884  26.558  38.036  1.00  0.00    -0.237 OA
ATOM    100  O   UNL A   1      40.435  26.477  37.718  1.00  0.00    -0.237 OA
ATOM    101  O   UNL A   1      41.895  24.991  36.408  1.00  0.00    -0.744 OA
ENDBRANCH  97  98
ENDBRANCH  65  90
ENDBRANCH  39  40
ENDBRANCH  32  34
ENDBRANCH  31  32
ENDBRANCH  30  31
ENDBRANCH  29  30
ENDBRANCH  28  29
ENDBRANCH  27  28
ENDBRANCH  26  27
ENDBRANCH   1  26
TORSDOF 26
ENDMDL
MODEL 2
REMARK VINA RESULT:      -9.9      2.227      3.345
REMARK SMILES COC(=O)c1c(NS(=O)(=O)CCC(=O)OCCOCCOCCOC(=O)c2ccc(-c3c4nc(c(-c5c(F)cc(S(=O)(=O)[O-])cc5F)c5ccc([nH]5)c(-c5c(F)cc(S(=O)(=O)[O-])cc5F)c5nc(c(-c6c(F)cc(S(=O)(=O)[O-])cc6F)c6ccc3[nH]6)C=C5)C=C4)cc2)sc2c1CCC2
REMARK SMILES IDX 18 1 17 2 16 3 15 4 13 5 14 6 12 7 11 8 8 9 9 10 10 11 7 12
REMARK SMILES IDX 6 14 5 15 95 16 93 17 94 18 96 19 98 20 97 21 3 22 4 23 2 24
REMARK SMILES IDX 1 25 19 26 20 27 21 28 22 29 23 30 24 31 25 32 26 33 27 34
REMARK SMILES IDX 28 35 92 36 29 37 91 38 30 39 31 40 32 41 85 42 33 43 90 44
REMARK SMILES IDX 84 45 86 46 34 47 89 48 83 49 82 50 35 52 69 53 48 54 68 55
REMARK SMILES IDX 49 56 52 57 67 58 87 59 50 60 51 61 66 63 88 64 53 65 36 66
REMARK SMILES IDX 37 67 46 68 38 69 39 70 45 71 47 72 40 73 41 74 42 75 43 76
REMARK SMILES IDX 44 77 70 78 71 79 80 80 72 81 73 82 79 83 81 84 74 85 75 86
REMARK SMILES IDX 76 87 77 88 78 89 54 90 55 91 64 92 56 93 57 94 63 95 65 96
REMARK SMILES IDX 58 97 59 98 60 99 61 100 62 101
REMARK H PARENT 7 13 86 51 52 62
REMARK Flexibility Score: inf
ROOT
ATOM      1  O   UNL A   1      38.611  21.596  25.562  1.00  0.00    -0.376 OA
ENDROOT
BRANCH   1   2
ATOM      2  C   UNL A   1      37.450  20.999  25.007  1.00  0.00     0.202 C 
BRANCH   2   3
ATOM      3  C   UNL A   1      36.458  21.986  24.191  1.00  0.00     0.261 C 
BRANCH   3   4
ATOM      4  O   UNL A   1      35.121  22.353  24.701  1.00  0.00    -0.463 OA
BRANCH   4   5
ATOM      5  C   UNL A   1      34.459  21.795  25.757  1.00  0.00     0.306 C 
ATOM      6  O   UNL A   1      34.023  20.650  25.775  1.00  0.00    -0.252 OA
BRANCH   5   7
ATOM      7  C   UNL A   1      34.199  22.808  26.893  1.00  0.00     0.141 C 
BRANCH   7   8
ATOM      8  C   UNL A   1      32.792  23.019  27.480  1.00  0.00     0.171 C 
BRANCH   8   9
ATOM      9  S   UNL A   1      31.529  23.709  26.350  1.00  0.00     0.233 S 
ATOM     10  O   UNL A   1      30.301  22.970  26.559  1.00  0.00    -0.207 OA
ATOM     11  O   UNL A   1      32.103  23.776  25.021  1.00  0.00    -0.207 OA
BRANCH   9  12
ATOM     12  N   UNL A   1      31.186  25.303  26.812  1.00  0.00    -0.274 N 
ATOM     13  H   UNL A   1      31.161  25.608  27.748  1.00  0.00     0.180 HD
BRANCH  12  14
ATOM     14  C   UNL A   1      30.939  26.153  25.697  1.00  0.00     0.117 A 
ATOM     15  C   UNL A   1      31.759  27.233  25.383  1.00  0.00     0.098 A 
ATOM     16  C   UNL A   1      30.965  28.051  24.404  1.00  0.00    -0.017 A 
ATOM     17  S   UNL A   1      29.571  25.915  24.718  1.00  0.00    -0.121 S 
ATOM     18  C   UNL A   1      29.812  27.402  24.014  1.00  0.00     0.011 A 
ATOM     19  C   UNL A   1      31.004  29.325  23.586  1.00  0.00     0.038 C 
ATOM     20  C   UNL A   1      28.968  28.068  22.990  1.00  0.00     0.047 C 
ATOM     21  C   UNL A   1      29.648  29.433  22.842  1.00  0.00     0.010 C 
BRANCH  15  22
ATOM     22  C   UNL A   1      33.140  27.194  26.072  1.00  0.00     0.341 C 
ATOM     23  O   UNL A   1      34.000  26.405  25.678  1.00  0.00    -0.246 OA
BRANCH  22  24
ATOM     24  O   UNL A   1      33.365  27.893  27.221  1.00  0.00    -0.465 OA
ATOM     25  C   UNL A   1      34.335  28.953  27.172  1.00  0.00     0.282 C 
ENDBRANCH  22  24
ENDBRANCH  15  22
ENDBRANCH  12  14
ENDBRANCH   9  12
ENDBRANCH   8   9
ENDBRANCH   7   8
ENDBRANCH   5   7
ENDBRANCH   4   5
ENDBRANCH   3   4
ENDBRANCH   2   3
ENDBRANCH   1   2
BRANCH   1  26
ATOM     26  C   UNL A   1      39.755  20.829  25.917  1.00  0.00     0.188 C 
BRANCH  26  27
ATOM     27  C   UNL A   1      40.452  21.490  27.124  1.00  0.00     0.188 C 
BRANCH  27  28
ATOM     28  O   UNL A   1      41.837  21.242  27.326  1.00  0.00    -0.376 OA
BRANCH  28  29
ATOM     29  C   UNL A   1      42.618  20.929  26.182  1.00  0.00     0.202 C 
BRANCH  29  30
ATOM     30  C   UNL A   1      43.390  22.078  25.515  1.00  0.00     0.261 C 
BRANCH  30  31
ATOM     31  O   UNL A   1      43.515  23.219  26.352  1.00  0.00    -0.460 OA
BRANCH  31  32
ATOM     32  C   UNL A   1      43.201  24.405  25.758  1.00  0.00     0.338 C 
ATOM     33  O   UNL A   1      43.771  24.938  24.831  1.00  0.00    -0.246 OA
BRANCH  32  34
ATOM     34  C   UNL A   1      42.044  24.968  26.492  1.00  0.00     0.060 A 
ATOM     35  C   UNL A   1      41.299  25.946  25.839  1.00  0.00     0.016 A 
ATOM     36  C   UNL A   1      41.858  24.702  27.868  1.00  0.00     0.016 A 
ATOM     37  C   UNL A   1      40.630  26.859  26.625  1.00  0.00     0.010 A 
ATOM     38  C   UNL A   1      41.113  25.551  28.642  1.00  0.00     0.010 A 
ATOM     39  C   UNL A   1      40.721  26.719  28.016  1.00  0.00    -0.014 A 
BRANCH  39  40
ATOM     40  C   UNL A   1      40.942  27.947  28.756  1.00  0.00     0.031 A 
ATOM     41  C   UNL A   1      42.081  28.758  28.329  1.00  0.00     0.074 A 
ATOM     42  C   UNL A   1      40.088  28.311  29.738  1.00  0.00     0.049 A 
ATOM     43  N   UNL A   1      43.204  28.908  28.944  1.00  0.00    -0.248 NA
ATOM     44  C   UNL A   1      42.008  29.386  27.004  1.00  0.00     0.031 C 
ATOM     45  C   UNL A   1      38.757  27.768  30.047  1.00  0.00     0.029 A 
ATOM     46  N   UNL A   1      40.200  29.339  30.618  1.00  0.00    -0.354 N 
ATOM     47  C   UNL A   1      43.899  29.840  28.194  1.00  0.00     0.074 A 
ATOM     48  C   UNL A   1      43.211  29.957  26.930  1.00  0.00     0.031 C 
ATOM     49  C   UNL A   1      38.109  28.613  30.876  1.00  0.00     0.029 A 
ATOM     50  C   UNL A   1      39.014  29.682  31.248  1.00  0.00     0.049 A 
ATOM     51  H   UNL A   1      41.051  29.801  30.794  1.00  0.00     0.167 HD
ATOM     52  C   UNL A   1      44.835  30.649  28.754  1.00  0.00     0.037 A 
ATOM     53  C   UNL A   1      38.780  30.831  31.927  1.00  0.00     0.037 A 
ATOM     54  C   UNL A   1      45.248  30.205  30.059  1.00  0.00     0.049 A 
ATOM     55  C   UNL A   1      40.110  31.377  32.321  1.00  0.00     0.074 A 
ATOM     56  C   UNL A   1      45.771  29.024  30.551  1.00  0.00     0.029 A 
ATOM     57  N   UNL A   1      44.793  30.895  31.158  1.00  0.00    -0.354 N 
ATOM     58  N   UNL A   1      40.911  30.807  33.182  1.00  0.00    -0.248 NA
ATOM     59  C   UNL A   1      40.750  32.326  31.419  1.00  0.00     0.031 C 
ATOM     60  C   UNL A   1      45.180  28.857  31.837  1.00  0.00     0.029 A 
ATOM     61  C   UNL A   1      44.357  29.961  32.068  1.00  0.00     0.049 A 
ATOM     62  H   UNL A   1      44.781  31.873  31.272  1.00  0.00     0.167 HD
ATOM     63  C   UNL A   1      42.192  31.011  32.680  1.00  0.00     0.074 A 
ATOM     64  C   UNL A   1      42.033  32.030  31.647  1.00  0.00     0.031 C 
ATOM     65  C   UNL A   1      43.212  30.139  32.938  1.00  0.00     0.037 A 
BRANCH  52  66
ATOM     66  C   UNL A   1      45.095  32.025  28.231  1.00  0.00     0.058 A 
ATOM     67  C   UNL A   1      46.370  32.376  27.764  1.00  0.00     0.135 A 
ATOM     68  C   UNL A   1      44.166  33.079  28.385  1.00  0.00     0.135 A 
ATOM     69  F   UNL A   1      47.327  31.444  27.634  1.00  0.00    -0.206 F 
ATOM     70  C   UNL A   1      46.705  33.698  27.477  1.00  0.00     0.059 A 
ATOM     71  C   UNL A   1      44.457  34.390  28.045  1.00  0.00     0.059 A 
ATOM     72  F   UNL A   1      42.967  32.883  28.952  1.00  0.00    -0.206 F 
ATOM     73  C   UNL A   1      45.742  34.696  27.628  1.00  0.00     0.060 A 
BRANCH  73  74
ATOM     74  S   UNL A   1      46.192  36.416  27.348  1.00  0.00     0.124 S 
ATOM     75  O   UNL A   1      46.082  36.962  28.696  1.00  0.00    -0.237 OA
ATOM     76  O   UNL A   1      47.544  36.299  26.812  1.00  0.00    -0.237 OA
ATOM     77  O   UNL A   1      45.184  36.870  26.394  1.00  0.00    -0.744 OA
ENDBRANCH  73  74
ENDBRANCH  52  66
BRANCH  53  78
ATOM     78  C   UNL A   1      37.530  31.640  31.878  1.00  0.00     0.058 A 
ATOM     79  C   UNL A   1      36.818  31.939  33.052  1.00  0.00     0.135 A 
ATOM     80  C   UNL A   1      37.136  32.349  30.722  1.00  0.00     0.135 A 
ATOM     81  F   UNL A   1      37.139  31.336  34.206  1.00  0.00    -0.206 F 
ATOM     82  C   UNL A   1      35.808  32.909  33.086  1.00  0.00     0.059 A 
ATOM     83  C   UNL A   1      36.119  33.301  30.726  1.00  0.00     0.059 A 
ATOM     84  F   UNL A   1      37.786  32.216  29.557  1.00  0.00    -0.206 F 
ATOM     85  C   UNL A   1      35.477  33.596  31.918  1.00  0.00     0.060 A 
BRANCH  85  86
ATOM     86  S   UNL A   1      34.298  34.964  31.985  1.00  0.00     0.124 S 
ATOM     87  O   UNL A   1      35.057  35.980  32.704  1.00  0.00    -0.237 OA
ATOM     88  O   UNL A   1      34.053  35.228  30.572  1.00  0.00    -0.237 OA
ATOM     89  O   UNL A   1      33.165  34.400  32.715  1.00  0.00    -0.744 OA
ENDBRANCH  85  86
ENDBRANCH  53  78
BRANCH  65  90
ATOM     90  C   UNL A   1      43.018  29.103  34.017  1.00  0.00     0.058 A 
ATOM     91  C   UNL A   1      43.231  29.351  35.385  1.00  0.00     0.135 A 
ATOM     92  C   UNL A   1      42.433  27.873  33.676  1.00  0.00     0.135 A 
ATOM     93  F   UNL A   1      43.678  30.542  35.805  1.00  0.00    -0.206 F 
ATOM     94  C   UNL A   1      42.915  28.407  36.364  1.00  0.00     0.059 A 
ATOM     95  C   UNL A   1      42.082  26.927  34.639  1.00  0.00     0.059 A 
ATOM     96  F   UNL A   1      42.140  27.600  32.393  1.00  0.00    -0.206 F 
ATOM     97  C   UNL A   1      42.338  27.197  35.982  1.00  0.00     0.060 A 
BRANCH  97  98
ATOM     98  S   UNL A   1      41.842  26.018  37.259  1.00  0.00     0.124 S 
ATOM     99  O   UNL A   1      40.544  26.541  37.670  1.00  0.00    -0.237 OA
ATOM    100  O   UNL A   1      41.814  24.752  36.531  1.00  0.00    -0.237 OA
ATOM    101  O   UNL A   1      42.904  26.128  38.255  1.00  0.00    -0.744 OA
ENDBRANCH  97  98
ENDBRANCH  65  90
ENDBRANCH  39  40
ENDBRANCH  32  34
ENDBRANCH  31  32
ENDBRANCH  30  31
ENDBRANCH  29  30
ENDBRANCH  28  29
ENDBRANCH  27  28
ENDBRANCH  26  27
ENDBRANCH   1  26
TORSDOF 26
ENDMDL
MODEL 3
REMARK VINA RESULT:      -9.4      2.319      3.995
REMARK SMILES COC(=O)c1c(NS(=O)(=O)CCC(=O)OCCOCCOCCOC(=O)c2ccc(-c3c4nc(c(-c5c(F)cc(S(=O)(=O)[O-])cc5F)c5ccc([nH]5)c(-c5c(F)cc(S(=O)(=O)[O-])cc5F)c5nc(c(-c6c(F)cc(S(=O)(=O)[O-])cc6F)c6ccc3[nH]6)C=C5)C=C4)cc2)sc2c1CCC2
REMARK SMILES IDX 18 1 17 2 16 3 15 4 13 5 14 6 12 7 11 8 8 9 9 10 10 11 7 12
REMARK SMILES IDX 6 14 5 15 95 16 93 17 94 18 96 19 98 20 97 21 3 22 4 23 2 24
REMARK SMILES IDX 1 25 19 26 20 27 21 28 22 29 23 30 24 31 25 32 26 33 27 34
REMARK SMILES IDX 28 35 92 36 29 37 91 38 30 39 31 40 32 41 85 42 33 43 90 44
REMARK SMILES IDX 84 45 86 46 34 47 89 48 83 49 82 50 35 52 69 53 48 54 68 55
REMARK SMILES IDX 49 56 52 57 67 58 87 59 50 60 51 61 66 63 88 64 53 65 36 66
REMARK SMILES IDX 37 67 46 68 38 69 39 70 45 71 47 72 40 73 41 74 42 75 43 76
REMARK SMILES IDX 44 77 70 78 71 79 80 80 72 81 73 82 79 83 81 84 74 85 75 86
REMARK SMILES IDX 76 87 77 88 78 89 54 90 55 91 64 92 56 93 57 94 63 95 65 96
REMARK SMILES IDX 58 97 59 98 60 99 61 100 62 101
REMARK H PARENT 7 13 86 51 52 62
REMARK Flexibility Score: inf
ROOT
ATOM      1  O   UNL A   1      35.492  21.919  25.793  1.00  0.00    -0.376 OA
ENDROOT
BRANCH   1   2
ATOM      2  C   UNL A   1      35.082  20.894  24.902  1.00  0.00     0.202 C 
BRANCH   2   3
ATOM      3  C   UNL A   1      33.512  20.501  24.937  1.00  0.00     0.261 C 
BRANCH   3   4
ATOM      4  O   UNL A   1      32.756  20.171  23.710  1.00  0.00    -0.463 OA
BRANCH   4   5
ATOM      5  C   UNL A   1      32.250  21.047  22.793  1.00  0.00     0.306 C 
ATOM      6  O   UNL A   1      31.854  20.731  21.678  1.00  0.00    -0.252 OA
BRANCH   5   7
ATOM      7  C   UNL A   1      32.351  22.515  23.261  1.00  0.00     0.141 C 
BRANCH   7   8
ATOM      8  C   UNL A   1      33.006  23.598  22.386  1.00  0.00     0.171 C 
BRANCH   8   9
ATOM      9  S   UNL A   1      32.986  25.305  23.044  1.00  0.00     0.233 S 
ATOM     10  O   UNL A   1      32.935  26.211  21.916  1.00  0.00    -0.207 OA
ATOM     11  O   UNL A   1      34.060  25.428  24.009  1.00  0.00    -0.207 OA
BRANCH   9  12
ATOM     12  N   UNL A   1      31.540  25.554  23.894  1.00  0.00    -0.274 N 
ATOM     13  H   UNL A   1      30.752  24.969  23.814  1.00  0.00     0.180 HD
BRANCH  12  14
ATOM     14  C   UNL A   1      31.593  26.700  24.735  1.00  0.00     0.117 A 
ATOM     15  C   UNL A   1      30.958  27.896  24.411  1.00  0.00     0.098 A 
ATOM     16  C   UNL A   1      31.554  28.915  25.341  1.00  0.00    -0.017 A 
ATOM     17  S   UNL A   1      32.503  26.676  26.170  1.00  0.00    -0.121 S 
ATOM     18  C   UNL A   1      32.364  28.328  26.290  1.00  0.00     0.011 A 
ATOM     19  C   UNL A   1      31.523  30.388  25.695  1.00  0.00     0.038 C 
ATOM     20  C   UNL A   1      32.961  29.216  27.320  1.00  0.00     0.047 C 
ATOM     21  C   UNL A   1      32.567  30.609  26.821  1.00  0.00     0.010 C 
BRANCH  15  22
ATOM     22  C   UNL A   1      29.888  27.760  23.307  1.00  0.00     0.341 C 
ATOM     23  O   UNL A   1      28.930  27.002  23.471  1.00  0.00    -0.246 OA
BRANCH  22  24
ATOM     24  O   UNL A   1      30.076  28.328  22.082  1.00  0.00    -0.465 OA
ATOM     25  C   UNL A   1      30.069  29.764  22.011  1.00  0.00     0.282 C 
ENDBRANCH  22  24
ENDBRANCH  15  22
ENDBRANCH  12  14
ENDBRANCH   9  12
ENDBRANCH   8   9
ENDBRANCH   7   8
ENDBRANCH   5   7
ENDBRANCH   4   5
ENDBRANCH   3   4
ENDBRANCH   2   3
ENDBRANCH   1   2
BRANCH   1  26
ATOM     26  C   UNL A   1      36.856  22.295  25.931  1.00  0.00     0.188 C 
BRANCH  26  27
ATOM     27  C   UNL A   1      37.731  21.340  25.092  1.00  0.00     0.188 C 
BRANCH  27  28
ATOM     28  O   UNL A   1      38.764  20.616  25.746  1.00  0.00    -0.376 OA
BRANCH  28  29
ATOM     29  C   UNL A   1      39.991  21.294  25.978  1.00  0.00     0.202 C 
BRANCH  29  30
ATOM     30  C   UNL A   1      40.800  20.890  27.221  1.00  0.00     0.261 C 
BRANCH  30  31
ATOM     31  O   UNL A   1      40.702  21.836  28.276  1.00  0.00    -0.460 OA
BRANCH  31  32
ATOM     32  C   UNL A   1      41.751  22.700  28.372  1.00  0.00     0.338 C 
ATOM     33  O   UNL A   1      42.827  22.498  28.892  1.00  0.00    -0.246 OA
BRANCH  32  34
ATOM     34  C   UNL A   1      41.321  23.979  27.760  1.00  0.00     0.060 A 
ATOM     35  C   UNL A   1      42.297  24.724  27.105  1.00  0.00     0.016 A 
ATOM     36  C   UNL A   1      40.047  24.526  28.041  1.00  0.00     0.016 A 
ATOM     37  C   UNL A   1      42.112  26.088  27.038  1.00  0.00     0.010 A 
ATOM     38  C   UNL A   1      39.820  25.867  27.886  1.00  0.00     0.010 A 
ATOM     39  C   UNL A   1      40.945  26.620  27.604  1.00  0.00    -0.014 A 
BRANCH  39  40
ATOM     40  C   UNL A   1      41.124  27.823  28.394  1.00  0.00     0.031 A 
ATOM     41  C   UNL A   1      42.205  28.713  27.974  1.00  0.00     0.074 A 
ATOM     42  C   UNL A   1      40.283  28.096  29.417  1.00  0.00     0.049 A 
ATOM     43  N   UNL A   1      43.337  28.895  28.562  1.00  0.00    -0.248 NA
ATOM     44  C   UNL A   1      42.059  29.395  26.683  1.00  0.00     0.031 C 
ATOM     45  C   UNL A   1      38.993  27.468  29.738  1.00  0.00     0.029 A 
ATOM     46  N   UNL A   1      40.368  29.086  30.340  1.00  0.00    -0.354 N 
ATOM     47  C   UNL A   1      43.959  29.896  27.838  1.00  0.00     0.074 A 
ATOM     48  C   UNL A   1      43.227  30.032  26.601  1.00  0.00     0.031 C 
ATOM     49  C   UNL A   1      38.327  28.239  30.624  1.00  0.00     0.029 A 
ATOM     50  C   UNL A   1      39.186  29.337  31.019  1.00  0.00     0.049 A 
ATOM     51  H   UNL A   1      41.199  29.585  30.513  1.00  0.00     0.167 HD
ATOM     52  C   UNL A   1      44.868  30.727  28.409  1.00  0.00     0.037 A 
ATOM     53  C   UNL A   1      38.913  30.439  31.758  1.00  0.00     0.037 A 
ATOM     54  C   UNL A   1      45.345  30.248  29.679  1.00  0.00     0.049 A 
ATOM     55  C   UNL A   1      40.225  31.038  32.139  1.00  0.00     0.074 A 
ATOM     56  C   UNL A   1      45.943  29.075  30.099  1.00  0.00     0.029 A 
ATOM     57  N   UNL A   1      44.888  30.861  30.821  1.00  0.00    -0.354 N 
ATOM     58  N   UNL A   1      41.081  30.473  32.950  1.00  0.00    -0.248 NA
ATOM     59  C   UNL A   1      40.786  32.059  31.265  1.00  0.00     0.031 C 
ATOM     60  C   UNL A   1      45.402  28.819  31.393  1.00  0.00     0.029 A 
ATOM     61  C   UNL A   1      44.529  29.865  31.699  1.00  0.00     0.049 A 
ATOM     62  H   UNL A   1      44.829  31.831  30.982  1.00  0.00     0.167 HD
ATOM     63  C   UNL A   1      42.333  30.768  32.421  1.00  0.00     0.074 A 
ATOM     64  C   UNL A   1      42.089  31.823  31.442  1.00  0.00     0.031 C 
ATOM     65  C   UNL A   1      43.405  29.942  32.608  1.00  0.00     0.037 A 
BRANCH  52  66
ATOM     66  C   UNL A   1      45.039  32.138  27.944  1.00  0.00     0.058 A 
ATOM     67  C   UNL A   1      46.246  32.550  27.359  1.00  0.00     0.135 A 
ATOM     68  C   UNL A   1      44.112  33.156  28.263  1.00  0.00     0.135 A 
ATOM     69  F   UNL A   1      47.201  31.653  27.068  1.00  0.00    -0.206 F 
ATOM     70  C   UNL A   1      46.519  33.894  27.117  1.00  0.00     0.059 A 
ATOM     71  C   UNL A   1      44.336  34.491  27.972  1.00  0.00     0.059 A 
ATOM     72  F   UNL A   1      42.989  32.895  28.948  1.00  0.00    -0.206 F 
ATOM     73  C   UNL A   1      45.559  34.856  27.434  1.00  0.00     0.060 A 
BRANCH  73  74
ATOM     74  S   UNL A   1      45.939  36.601  27.209  1.00  0.00     0.124 S 
ATOM     75  O   UNL A   1      44.622  37.139  26.888  1.00  0.00    -0.237 OA
ATOM     76  O   UNL A   1      46.482  36.970  28.512  1.00  0.00    -0.237 OA
ATOM     77  O   UNL A   1      46.906  36.590  26.115  1.00  0.00    -0.744 OA
ENDBRANCH  73  74
ENDBRANCH  52  66
BRANCH  53  78
ATOM     78  C   UNL A   1      37.621  31.182  31.783  1.00  0.00     0.058 A 
ATOM     79  C   UNL A   1      36.974  31.461  32.998  1.00  0.00     0.135 A 
ATOM     80  C   UNL A   1      37.114  31.850  30.647  1.00  0.00     0.135 A 
ATOM     81  F   UNL A   1      37.403  30.895  34.136  1.00  0.00    -0.206 F 
ATOM     82  C   UNL A   1      35.919  32.378  33.088  1.00  0.00     0.059 A 
ATOM     83  C   UNL A   1      36.052  32.747  30.708  1.00  0.00     0.059 A 
ATOM     84  F   UNL A   1      37.692  31.732  29.442  1.00  0.00    -0.206 F 
ATOM     85  C   UNL A   1      35.475  33.028  31.936  1.00  0.00     0.060 A 
BRANCH  85  86
ATOM     86  S   UNL A   1      34.233  34.333  32.065  1.00  0.00     0.124 S 
ATOM     87  O   UNL A   1      35.026  35.458  32.547  1.00  0.00    -0.237 OA
ATOM     88  O   UNL A   1      33.748  34.433  30.693  1.00  0.00    -0.237 OA
ATOM     89  O   UNL A   1      33.271  33.793  33.024  1.00  0.00    -0.744 OA
ENDBRANCH  85  86
ENDBRANCH  53  78
BRANCH  65  90
ATOM     90  C   UNL A   1      43.299  28.848  33.643  1.00  0.00     0.058 A 
ATOM     91  C   UNL A   1      43.590  29.033  35.006  1.00  0.00     0.135 A 
ATOM     92  C   UNL A   1      42.719  27.624  33.275  1.00  0.00     0.135 A 
ATOM     93  F   UNL A   1      44.037  30.212  35.459  1.00  0.00    -0.206 F 
ATOM     94  C   UNL A   1      43.355  28.034  35.953  1.00  0.00     0.059 A 
ATOM     95  C   UNL A   1      42.448  26.623  34.207  1.00  0.00     0.059 A 
ATOM     96  F   UNL A   1      42.355  27.408  32.000  1.00  0.00    -0.206 F 
ATOM     97  C   UNL A   1      42.781  26.831  35.544  1.00  0.00     0.060 A 
BRANCH  97  98
ATOM     98  S   UNL A   1      42.388  25.579  36.787  1.00  0.00     0.124 S 
ATOM     99  O   UNL A   1      41.804  24.516  35.977  1.00  0.00    -0.237 OA
ATOM    100  O   UNL A   1      43.695  25.287  37.369  1.00  0.00    -0.237 OA
ATOM    101  O   UNL A   1      41.459  26.266  37.681  1.00  0.00    -0.744 OA
ENDBRANCH  97  98
ENDBRANCH  65  90
ENDBRANCH  39  40
ENDBRANCH  32  34
ENDBRANCH  31  32
ENDBRANCH  30  31
ENDBRANCH  29  30
ENDBRANCH  28  29
ENDBRANCH  27  28
ENDBRANCH  26  27
ENDBRANCH   1  26
TORSDOF 26
ENDMDL
