MODEL 1
REMARK VINA RESULT:     -10.3      0.000      0.000
REMARK SMILES CC(C)(C)OC(=O)N1CCN(N[C@@H](C(=O)OCCOCCOCCOC(=O)c2ccc(-c3c4nc(c(-c5c(F)cc(S(=O)(=O)[O-])cc5F)c5ccc([nH]5)c(-c5c(F)cc(S(=O)(=O)[O-])cc5F)c5nc(c(-c6c(F)cc(S(=O)(=O)[O-])cc6F)c6ccc3[nH]6)C=C5)C=C4)cc2)c2ccccc2Cl)CC1
REMARK SMILES IDX 20 1 19 2 18 3 17 4 16 5 14 6 15 7 13 8 12 9 11 11 6 12 7 13
REMARK SMILES IDX 8 14 9 15 102 16 10 17 101 18 5 19 2 20 1 21 3 22 4 23 94 24
REMARK SMILES IDX 95 25 99 26 96 27 98 28 100 29 97 30 21 31 22 32 23 33 24 34
REMARK SMILES IDX 25 35 26 36 27 37 28 38 29 39 93 40 30 41 92 42 31 43 32 44
REMARK SMILES IDX 33 45 86 46 34 47 91 48 85 49 87 50 35 51 90 52 84 53 83 54
REMARK SMILES IDX 36 56 70 57 49 58 69 59 50 60 53 61 68 62 88 63 51 64 52 65
REMARK SMILES IDX 67 67 89 68 54 69 37 70 38 71 47 72 39 73 40 74 46 75 48 76
REMARK SMILES IDX 41 77 42 78 43 79 44 80 45 81 71 82 72 83 81 84 73 85 74 86
REMARK SMILES IDX 80 87 82 88 75 89 76 90 77 91 78 92 79 93 55 94 56 95 65 96
REMARK SMILES IDX 57 97 58 98 64 99 66 100 59 101 60 102 61 103 62 104 63 105
REMARK H PARENT 12 10 87 55 53 66
REMARK Flexibility Score: inf
ROOT
ATOM      1  C   UNL A   1      39.606  22.032  26.356  1.00  0.00     0.188 C 
ENDROOT
BRANCH   1   2
ATOM      2  O   UNL A   1      38.953  23.268  26.539  1.00  0.00    -0.376 OA
BRANCH   2   3
ATOM      3  C   UNL A   1      37.776  23.545  25.800  1.00  0.00     0.202 C 
BRANCH   3   4
ATOM      4  C   UNL A   1      36.747  22.457  25.446  1.00  0.00     0.261 C 
BRANCH   4   5
ATOM      5  O   UNL A   1      36.063  21.881  26.568  1.00  0.00    -0.462 OA
BRANCH   5   6
ATOM      6  C   UNL A   1      34.742  21.590  26.482  1.00  0.00     0.329 C 
ATOM      7  O   UNL A   1      34.011  21.494  27.465  1.00  0.00    -0.250 OA
BRANCH   6   8
ATOM      8  C   UNL A   1      34.239  21.358  25.038  1.00  0.00     0.211 C 
BRANCH   8   9
ATOM      9  N   UNL A   1      33.038  22.170  24.592  1.00  0.00    -0.237 NA
ATOM     10  H   UNL A   1      32.482  21.588  23.967  1.00  0.00     0.143 HD
BRANCH   9  11
ATOM     11  N   UNL A   1      33.340  23.418  23.893  1.00  0.00    -0.240 NA
ATOM     12  C   UNL A   1      30.119  26.175  24.391  1.00  0.00     0.410 C 
ATOM     13  O   UNL A   1      29.000  25.968  23.925  1.00  0.00    -0.224 OA
ATOM     14  N   UNL A   1      31.077  25.199  24.456  1.00  0.00    -0.306 N 
ATOM     15  C   UNL A   1      30.943  24.043  23.587  1.00  0.00     0.140 C 
ATOM     16  C   UNL A   1      32.158  25.134  25.439  1.00  0.00     0.140 C 
ATOM     17  C   UNL A   1      32.286  23.749  22.917  1.00  0.00     0.124 C 
ATOM     18  C   UNL A   1      33.471  24.548  24.865  1.00  0.00     0.124 C 
BRANCH  12  19
ATOM     19  O   UNL A   1      30.576  27.396  24.771  1.00  0.00    -0.444 OA
BRANCH  19  20
ATOM     20  C   UNL A   1      31.074  28.301  23.750  1.00  0.00     0.106 C 
ATOM     21  C   UNL A   1      32.453  28.767  24.241  1.00  0.00     0.056 C 
ATOM     22  C   UNL A   1      30.148  29.515  23.636  1.00  0.00     0.056 C 
ATOM     23  C   UNL A   1      31.288  27.609  22.390  1.00  0.00     0.056 C 
ENDBRANCH  19  20
ENDBRANCH  12  19
ENDBRANCH   9  11
ENDBRANCH   8   9
BRANCH   8  24
ATOM     24  C   UNL A   1      34.019  19.912  24.561  1.00  0.00     0.000 A 
ATOM     25  C   UNL A   1      32.691  19.618  24.143  1.00  0.00     0.007 A 
ATOM     26  C   UNL A   1      34.935  18.848  24.532  1.00  0.00     0.046 A 
ATOM     27  C   UNL A   1      32.285  18.335  23.778  1.00  0.00     0.000 A 
ATOM     28  C   UNL A   1      34.515  17.556  24.172  1.00  0.00     0.021 A 
ATOM     29  Cl  UNL A   1      36.617  18.980  24.882  1.00  0.00    -0.084 Cl
ATOM     30  C   UNL A   1      33.197  17.294  23.811  1.00  0.00     0.002 A 
ENDBRANCH   8  24
ENDBRANCH   6   8
ENDBRANCH   5   6
ENDBRANCH   4   5
ENDBRANCH   3   4
ENDBRANCH   2   3
ENDBRANCH   1   2
BRANCH   1  31
ATOM     31  C   UNL A   1      40.646  21.727  27.445  1.00  0.00     0.188 C 
BRANCH  31  32
ATOM     32  O   UNL A   1      41.898  22.392  27.461  1.00  0.00    -0.376 OA
BRANCH  32  33
ATOM     33  C   UNL A   1      42.633  22.438  26.250  1.00  0.00     0.202 C 
BRANCH  33  34
ATOM     34  C   UNL A   1      42.810  23.797  25.554  1.00  0.00     0.261 C 
BRANCH  34  35
ATOM     35  O   UNL A   1      41.771  24.770  25.787  1.00  0.00    -0.460 OA
BRANCH  35  36
ATOM     36  C   UNL A   1      42.150  26.076  25.762  1.00  0.00     0.338 C 
ATOM     37  O   UNL A   1      42.426  26.739  24.776  1.00  0.00    -0.246 OA
BRANCH  36  38
ATOM     38  C   UNL A   1      42.009  26.673  27.113  1.00  0.00     0.060 A 
ATOM     39  C   UNL A   1      41.053  26.153  28.002  1.00  0.00     0.016 A 
ATOM     40  C   UNL A   1      42.782  27.772  27.486  1.00  0.00     0.016 A 
ATOM     41  C   UNL A   1      40.871  26.729  29.265  1.00  0.00     0.010 A 
ATOM     42  C   UNL A   1      42.574  28.368  28.735  1.00  0.00     0.010 A 
ATOM     43  C   UNL A   1      41.611  27.862  29.628  1.00  0.00    -0.014 A 
BRANCH  43  44
ATOM     44  C   UNL A   1      41.316  28.604  30.882  1.00  0.00     0.031 A 
ATOM     45  C   UNL A   1      40.179  29.588  30.898  1.00  0.00     0.074 A 
ATOM     46  C   UNL A   1      42.080  28.447  31.979  1.00  0.00     0.049 A 
ATOM     47  N   UNL A   1      39.848  30.458  31.817  1.00  0.00    -0.248 NA
ATOM     48  C   UNL A   1      39.312  29.603  29.710  1.00  0.00     0.031 C 
ATOM     49  C   UNL A   1      43.192  27.509  32.099  1.00  0.00     0.029 A 
ATOM     50  N   UNL A   1      42.047  29.088  33.195  1.00  0.00    -0.354 N 
ATOM     51  C   UNL A   1      38.755  31.148  31.307  1.00  0.00     0.074 A 
ATOM     52  C   UNL A   1      38.481  30.593  29.997  1.00  0.00     0.031 C 
ATOM     53  C   UNL A   1      43.735  27.631  33.324  1.00  0.00     0.029 A 
ATOM     54  C   UNL A   1      43.053  28.701  34.049  1.00  0.00     0.049 A 
ATOM     55  H   UNL A   1      41.368  29.759  33.431  1.00  0.00     0.167 HD
ATOM     56  C   UNL A   1      38.055  32.160  31.874  1.00  0.00     0.037 A 
ATOM     57  C   UNL A   1      43.411  29.185  35.259  1.00  0.00     0.037 A 
ATOM     58  C   UNL A   1      38.343  32.717  33.171  1.00  0.00     0.049 A 
ATOM     59  C   UNL A   1      42.657  30.357  35.841  1.00  0.00     0.074 A 
ATOM     60  C   UNL A   1      37.684  33.739  33.833  1.00  0.00     0.029 A 
ATOM     61  N   UNL A   1      39.380  32.311  33.999  1.00  0.00    -0.354 N 
ATOM     62  N   UNL A   1      41.620  30.997  35.355  1.00  0.00    -0.248 NA
ATOM     63  C   UNL A   1      43.139  30.891  37.125  1.00  0.00     0.031 C 
ATOM     64  C   UNL A   1      38.359  33.993  35.030  1.00  0.00     0.029 A 
ATOM     65  C   UNL A   1      39.398  33.084  35.148  1.00  0.00     0.049 A 
ATOM     66  H   UNL A   1      40.010  31.582  33.798  1.00  0.00     0.167 HD
ATOM     67  C   UNL A   1      41.318  31.995  36.279  1.00  0.00     0.074 A 
ATOM     68  C   UNL A   1      42.268  31.862  37.362  1.00  0.00     0.031 C 
ATOM     69  C   UNL A   1      40.345  32.940  36.228  1.00  0.00     0.037 A 
BRANCH  56  70
ATOM     70  C   UNL A   1      36.936  32.768  31.072  1.00  0.00     0.058 A 
ATOM     71  C   UNL A   1      35.594  32.416  31.282  1.00  0.00     0.135 A 
ATOM     72  C   UNL A   1      37.212  33.743  30.097  1.00  0.00     0.135 A 
ATOM     73  F   UNL A   1      35.274  31.479  32.188  1.00  0.00    -0.206 F 
ATOM     74  C   UNL A   1      34.567  32.986  30.535  1.00  0.00     0.059 A 
ATOM     75  C   UNL A   1      36.198  34.349  29.361  1.00  0.00     0.059 A 
ATOM     76  F   UNL A   1      38.478  34.117  29.854  1.00  0.00    -0.206 F 
ATOM     77  C   UNL A   1      34.880  33.952  29.577  1.00  0.00     0.060 A 
BRANCH  77  78
ATOM     78  S   UNL A   1      33.536  34.680  28.616  1.00  0.00     0.124 S 
ATOM     79  O   UNL A   1      32.573  35.004  29.664  1.00  0.00    -0.237 OA
ATOM     80  O   UNL A   1      34.190  35.821  27.982  1.00  0.00    -0.237 OA
ATOM     81  O   UNL A   1      33.140  33.605  27.712  1.00  0.00    -0.744 OA
ENDBRANCH  77  78
ENDBRANCH  56  70
BRANCH  57  82
ATOM     82  C   UNL A   1      44.565  28.592  35.994  1.00  0.00     0.058 A 
ATOM     83  C   UNL A   1      44.377  27.542  36.906  1.00  0.00     0.135 A 
ATOM     84  C   UNL A   1      45.873  29.066  35.809  1.00  0.00     0.135 A 
ATOM     85  F   UNL A   1      43.144  27.065  37.134  1.00  0.00    -0.206 F 
ATOM     86  C   UNL A   1      45.440  26.991  37.616  1.00  0.00     0.059 A 
ATOM     87  C   UNL A   1      46.957  28.509  36.481  1.00  0.00     0.059 A 
ATOM     88  F   UNL A   1      46.112  30.068  34.949  1.00  0.00    -0.206 F 
ATOM     89  C   UNL A   1      46.729  27.478  37.390  1.00  0.00     0.060 A 
BRANCH  89  90
ATOM     90  S   UNL A   1      48.107  26.719  38.278  1.00  0.00     0.124 S 
ATOM     91  O   UNL A   1      47.788  25.302  38.161  1.00  0.00    -0.237 OA
ATOM     92  O   UNL A   1      49.258  27.180  37.506  1.00  0.00    -0.237 OA
ATOM     93  O   UNL A   1      47.994  27.284  39.620  1.00  0.00    -0.744 OA
ENDBRANCH  89  90
ENDBRANCH  57  82
BRANCH  69  94
ATOM     94  C   UNL A   1      40.228  33.896  37.388  1.00  0.00     0.058 A 
ATOM     95  C   UNL A   1      41.008  35.061  37.469  1.00  0.00     0.135 A 
ATOM     96  C   UNL A   1      39.261  33.689  38.385  1.00  0.00     0.135 A 
ATOM     97  F   UNL A   1      41.954  35.306  36.549  1.00  0.00    -0.206 F 
ATOM     98  C   UNL A   1      40.840  35.980  38.501  1.00  0.00     0.059 A 
ATOM     99  C   UNL A   1      39.055  34.609  39.409  1.00  0.00     0.059 A 
ATOM    100  F   UNL A   1      38.480  32.597  38.353  1.00  0.00    -0.206 F 
ATOM    101  C   UNL A   1      39.853  35.749  39.462  1.00  0.00     0.060 A 
BRANCH 101 102
ATOM    102  S   UNL A   1      39.602  36.982  40.758  1.00  0.00     0.124 S 
ATOM    103  O   UNL A   1      38.256  37.459  40.456  1.00  0.00    -0.237 OA
ATOM    104  O   UNL A   1      39.735  36.186  41.975  1.00  0.00    -0.237 OA
ATOM    105  O   UNL A   1      40.675  37.945  40.526  1.00  0.00    -0.744 OA
ENDBRANCH 101 102
ENDBRANCH  69  94
ENDBRANCH  43  44
ENDBRANCH  36  38
ENDBRANCH  35  36
ENDBRANCH  34  35
ENDBRANCH  33  34
ENDBRANCH  32  33
ENDBRANCH  31  32
ENDBRANCH   1  31
TORSDOF 25
ENDMDL
MODEL 2
REMARK VINA RESULT:     -10.2      6.122     11.906
REMARK SMILES CC(C)(C)OC(=O)N1CCN(N[C@@H](C(=O)OCCOCCOCCOC(=O)c2ccc(-c3c4nc(c(-c5c(F)cc(S(=O)(=O)[O-])cc5F)c5ccc([nH]5)c(-c5c(F)cc(S(=O)(=O)[O-])cc5F)c5nc(c(-c6c(F)cc(S(=O)(=O)[O-])cc6F)c6ccc3[nH]6)C=C5)C=C4)cc2)c2ccccc2Cl)CC1
REMARK SMILES IDX 20 1 19 2 18 3 17 4 16 5 14 6 15 7 13 8 12 9 11 11 6 12 7 13
REMARK SMILES IDX 8 14 9 15 102 16 10 17 101 18 5 19 2 20 1 21 3 22 4 23 94 24
REMARK SMILES IDX 95 25 99 26 96 27 98 28 100 29 97 30 21 31 22 32 23 33 24 34
REMARK SMILES IDX 25 35 26 36 27 37 28 38 29 39 93 40 30 41 92 42 31 43 32 44
REMARK SMILES IDX 33 45 86 46 34 47 91 48 85 49 87 50 35 51 90 52 84 53 83 54
REMARK SMILES IDX 36 56 70 57 49 58 69 59 50 60 53 61 68 62 88 63 51 64 52 65
REMARK SMILES IDX 67 67 89 68 54 69 37 70 38 71 47 72 39 73 40 74 46 75 48 76
REMARK SMILES IDX 41 77 42 78 43 79 44 80 45 81 71 82 72 83 81 84 73 85 74 86
REMARK SMILES IDX 80 87 82 88 75 89 76 90 77 91 78 92 79 93 55 94 56 95 65 96
REMARK SMILES IDX 57 97 58 98 64 99 66 100 59 101 60 102 61 103 62 104 63 105
REMARK H PARENT 12 10 87 55 53 66
REMARK Flexibility Score: inf
ROOT
ATOM      1  C   UNL A   1      34.682  31.136  28.399  1.00  0.00     0.188 C 
ENDROOT
BRANCH   1   2
ATOM      2  O   UNL A   1      33.787  30.979  27.322  1.00  0.00    -0.376 OA
BRANCH   2   3
ATOM      3  C   UNL A   1      33.310  29.684  27.001  1.00  0.00     0.202 C 
BRANCH   3   4
ATOM      4  C   UNL A   1      33.711  28.952  25.707  1.00  0.00     0.261 C 
BRANCH   4   5
ATOM      5  O   UNL A   1      33.310  29.603  24.494  1.00  0.00    -0.462 OA
BRANCH   5   6
ATOM      6  C   UNL A   1      32.647  28.908  23.537  1.00  0.00     0.329 C 
ATOM      7  O   UNL A   1      33.117  28.682  22.424  1.00  0.00    -0.250 OA
BRANCH   6   8
ATOM      8  C   UNL A   1      31.231  28.450  23.956  1.00  0.00     0.211 C 
BRANCH   8   9
ATOM      9  N   UNL A   1      30.835  27.030  23.595  1.00  0.00    -0.237 NA
ATOM     10  H   UNL A   1      29.857  27.042  23.308  1.00  0.00     0.143 HD
BRANCH   9  11
ATOM     11  N   UNL A   1      30.979  26.040  24.661  1.00  0.00    -0.240 NA
ATOM     12  C   UNL A   1      32.867  22.529  23.135  1.00  0.00     0.410 C 
ATOM     13  O   UNL A   1      32.336  21.813  22.289  1.00  0.00    -0.224 OA
ATOM     14  N   UNL A   1      32.392  23.776  23.443  1.00  0.00    -0.306 N 
ATOM     15  C   UNL A   1      31.017  24.093  23.101  1.00  0.00     0.140 C 
ATOM     16  C   UNL A   1      33.192  24.888  23.954  1.00  0.00     0.140 C 
ATOM     17  C   UNL A   1      30.335  24.766  24.293  1.00  0.00     0.124 C 
ATOM     18  C   UNL A   1      32.424  25.786  24.953  1.00  0.00     0.124 C 
BRANCH  12  19
ATOM     19  O   UNL A   1      33.887  22.135  23.941  1.00  0.00    -0.444 OA
BRANCH  19  20
ATOM     20  C   UNL A   1      33.580  21.306  25.095  1.00  0.00     0.106 C 
ATOM     21  C   UNL A   1      34.203  19.933  24.800  1.00  0.00     0.056 C 
ATOM     22  C   UNL A   1      32.064  21.149  25.233  1.00  0.00     0.056 C 
ATOM     23  C   UNL A   1      34.228  21.826  26.394  1.00  0.00     0.056 C 
ENDBRANCH  19  20
ENDBRANCH  12  19
ENDBRANCH   9  11
ENDBRANCH   8   9
BRANCH   8  24
ATOM     24  C   UNL A   1      30.036  29.359  23.622  1.00  0.00     0.000 A 
ATOM     25  C   UNL A   1      29.125  28.820  22.672  1.00  0.00     0.007 A 
ATOM     26  C   UNL A   1      29.759  30.654  24.092  1.00  0.00     0.046 A 
ATOM     27  C   UNL A   1      28.042  29.546  22.175  1.00  0.00     0.000 A 
ATOM     28  C   UNL A   1      28.673  31.381  23.578  1.00  0.00     0.021 A 
ATOM     29  Cl  UNL A   1      30.648  31.471  25.321  1.00  0.00    -0.084 Cl
ATOM     30  C   UNL A   1      27.826  30.840  22.615  1.00  0.00     0.002 A 
ENDBRANCH   8  24
ENDBRANCH   6   8
ENDBRANCH   5   6
ENDBRANCH   4   5
ENDBRANCH   3   4
ENDBRANCH   2   3
ENDBRANCH   1   2
BRANCH   1  31
ATOM     31  C   UNL A   1      35.540  32.406  28.297  1.00  0.00     0.188 C 
BRANCH  31  32
ATOM     32  O   UNL A   1      35.792  33.207  29.439  1.00  0.00    -0.376 OA
BRANCH  32  33
ATOM     33  C   UNL A   1      34.905  33.082  30.537  1.00  0.00     0.202 C 
BRANCH  33  34
ATOM     34  C   UNL A   1      35.326  32.194  31.719  1.00  0.00     0.261 C 
BRANCH  34  35
ATOM     35  O   UNL A   1      36.727  31.856  31.792  1.00  0.00    -0.460 OA
BRANCH  35  36
ATOM     36  C   UNL A   1      37.037  30.537  31.673  1.00  0.00     0.338 C 
ATOM     37  O   UNL A   1      36.298  29.590  31.886  1.00  0.00    -0.246 OA
BRANCH  36  38
ATOM     38  C   UNL A   1      38.377  30.382  31.057  1.00  0.00     0.060 A 
ATOM     39  C   UNL A   1      38.554  30.697  29.699  1.00  0.00     0.016 A 
ATOM     40  C   UNL A   1      39.445  29.881  31.800  1.00  0.00     0.016 A 
ATOM     41  C   UNL A   1      39.800  30.516  29.085  1.00  0.00     0.010 A 
ATOM     42  C   UNL A   1      40.680  29.669  31.175  1.00  0.00     0.010 A 
ATOM     43  C   UNL A   1      40.864  29.970  29.814  1.00  0.00    -0.014 A 
BRANCH  43  44
ATOM     44  C   UNL A   1      42.140  29.598  29.148  1.00  0.00     0.031 A 
ATOM     45  C   UNL A   1      42.307  28.200  28.621  1.00  0.00     0.074 A 
ATOM     46  C   UNL A   1      43.160  30.472  29.059  1.00  0.00     0.049 A 
ATOM     47  N   UNL A   1      43.379  27.610  28.159  1.00  0.00    -0.248 NA
ATOM     48  C   UNL A   1      41.107  27.349  28.633  1.00  0.00     0.031 C 
ATOM     49  C   UNL A   1      43.115  31.860  29.508  1.00  0.00     0.029 A 
ATOM     50  N   UNL A   1      44.438  30.314  28.579  1.00  0.00    -0.354 N 
ATOM     51  C   UNL A   1      42.995  26.310  27.857  1.00  0.00     0.074 A 
ATOM     52  C   UNL A   1      41.589  26.199  28.187  1.00  0.00     0.031 C 
ATOM     53  C   UNL A   1      44.311  32.432  29.279  1.00  0.00     0.029 A 
ATOM     54  C   UNL A   1      45.225  31.432  28.730  1.00  0.00     0.049 A 
ATOM     55  H   UNL A   1      44.759  29.481  28.167  1.00  0.00     0.167 HD
ATOM     56  C   UNL A   1      43.749  25.298  27.362  1.00  0.00     0.037 A 
ATOM     57  C   UNL A   1      46.543  31.616  28.493  1.00  0.00     0.037 A 
ATOM     58  C   UNL A   1      45.150  25.411  27.049  1.00  0.00     0.049 A 
ATOM     59  C   UNL A   1      47.377  30.455  28.004  1.00  0.00     0.074 A 
ATOM     60  C   UNL A   1      45.997  24.443  26.536  1.00  0.00     0.029 A 
ATOM     61  N   UNL A   1      45.917  26.553  27.231  1.00  0.00    -0.354 N 
ATOM     62  N   UNL A   1      47.001  29.232  27.713  1.00  0.00    -0.248 NA
ATOM     63  C   UNL A   1      48.820  30.692  27.838  1.00  0.00     0.031 C 
ATOM     64  C   UNL A   1      47.286  24.980  26.467  1.00  0.00     0.029 A 
ATOM     65  C   UNL A   1      47.231  26.304  26.871  1.00  0.00     0.049 A 
ATOM     66  H   UNL A   1      45.576  27.414  27.567  1.00  0.00     0.167 HD
ATOM     67  C   UNL A   1      48.156  28.562  27.315  1.00  0.00     0.074 A 
ATOM     68  C   UNL A   1      49.239  29.519  27.384  1.00  0.00     0.031 C 
ATOM     69  C   UNL A   1      48.304  27.267  26.935  1.00  0.00     0.037 A 
BRANCH  56  70
ATOM     70  C   UNL A   1      43.084  23.961  27.174  1.00  0.00     0.058 A 
ATOM     71  C   UNL A   1      42.951  23.042  28.226  1.00  0.00     0.135 A 
ATOM     72  C   UNL A   1      42.543  23.608  25.925  1.00  0.00     0.135 A 
ATOM     73  F   UNL A   1      43.462  23.320  29.435  1.00  0.00    -0.206 F 
ATOM     74  C   UNL A   1      42.332  21.809  28.041  1.00  0.00     0.059 A 
ATOM     75  C   UNL A   1      41.893  22.395  25.725  1.00  0.00     0.059 A 
ATOM     76  F   UNL A   1      42.643  24.449  24.883  1.00  0.00    -0.206 F 
ATOM     77  C   UNL A   1      41.807  21.495  26.786  1.00  0.00     0.060 A 
BRANCH  77  78
ATOM     78  S   UNL A   1      41.009  19.891  26.563  1.00  0.00     0.124 S 
ATOM     79  O   UNL A   1      40.956  19.400  27.938  1.00  0.00    -0.237 OA
ATOM     80  O   UNL A   1      39.726  20.261  25.973  1.00  0.00    -0.237 OA
ATOM     81  O   UNL A   1      41.921  19.175  25.678  1.00  0.00    -0.744 OA
ENDBRANCH  77  78
ENDBRANCH  56  70
BRANCH  57  82
ATOM     82  C   UNL A   1      47.174  32.941  28.750  1.00  0.00     0.058 A 
ATOM     83  C   UNL A   1      47.674  33.268  30.021  1.00  0.00     0.135 A 
ATOM     84  C   UNL A   1      47.283  33.911  27.741  1.00  0.00     0.135 A 
ATOM     85  F   UNL A   1      47.578  32.385  31.027  1.00  0.00    -0.206 F 
ATOM     86  C   UNL A   1      48.248  34.508  30.284  1.00  0.00     0.059 A 
ATOM     87  C   UNL A   1      47.883  35.145  27.970  1.00  0.00     0.059 A 
ATOM     88  F   UNL A   1      46.822  33.652  26.507  1.00  0.00    -0.206 F 
ATOM     89  C   UNL A   1      48.354  35.439  29.248  1.00  0.00     0.060 A 
BRANCH  89  90
ATOM     90  S   UNL A   1      49.148  37.025  29.588  1.00  0.00     0.124 S 
ATOM     91  O   UNL A   1      49.884  37.257  28.351  1.00  0.00    -0.237 OA
ATOM     92  O   UNL A   1      48.001  37.897  29.822  1.00  0.00    -0.237 OA
ATOM     93  O   UNL A   1      49.965  36.745  30.765  1.00  0.00    -0.744 OA
ENDBRANCH  89  90
ENDBRANCH  57  82
BRANCH  69  94
ATOM     94  C   UNL A   1      49.680  26.803  26.531  1.00  0.00     0.058 A 
ATOM     95  C   UNL A   1      50.500  26.068  27.404  1.00  0.00     0.135 A 
ATOM     96  C   UNL A   1      50.149  27.020  25.225  1.00  0.00     0.135 A 
ATOM     97  F   UNL A   1      50.107  25.839  28.667  1.00  0.00    -0.206 F 
ATOM     98  C   UNL A   1      51.737  25.575  26.998  1.00  0.00     0.059 A 
ATOM     99  C   UNL A   1      51.368  26.510  24.789  1.00  0.00     0.059 A 
ATOM    100  F   UNL A   1      49.403  27.708  24.345  1.00  0.00    -0.206 F 
ATOM    101  C   UNL A   1      52.159  25.792  25.685  1.00  0.00     0.060 A 
BRANCH 101 102
ATOM    102  S   UNL A   1      53.736  25.090  25.154  1.00  0.00     0.124 S 
ATOM    103  O   UNL A   1      54.655  25.650  26.140  1.00  0.00    -0.237 OA
ATOM    104  O   UNL A   1      53.489  23.655  25.262  1.00  0.00    -0.237 OA
ATOM    105  O   UNL A   1      53.893  25.592  23.793  1.00  0.00    -0.744 OA
ENDBRANCH 101 102
ENDBRANCH  69  94
ENDBRANCH  43  44
ENDBRANCH  36  38
ENDBRANCH  35  36
ENDBRANCH  34  35
ENDBRANCH  33  34
ENDBRANCH  32  33
ENDBRANCH  31  32
ENDBRANCH   1  31
TORSDOF 25
ENDMDL
MODEL 3
REMARK VINA RESULT:     -10.1      6.207     11.957
REMARK SMILES CC(C)(C)OC(=O)N1CCN(N[C@@H](C(=O)OCCOCCOCCOC(=O)c2ccc(-c3c4nc(c(-c5c(F)cc(S(=O)(=O)[O-])cc5F)c5ccc([nH]5)c(-c5c(F)cc(S(=O)(=O)[O-])cc5F)c5nc(c(-c6c(F)cc(S(=O)(=O)[O-])cc6F)c6ccc3[nH]6)C=C5)C=C4)cc2)c2ccccc2Cl)CC1
REMARK SMILES IDX 20 1 19 2 18 3 17 4 16 5 14 6 15 7 13 8 12 9 11 11 6 12 7 13
REMARK SMILES IDX 8 14 9 15 102 16 10 17 101 18 5 19 2 20 1 21 3 22 4 23 94 24
REMARK SMILES IDX 95 25 99 26 96 27 98 28 100 29 97 30 21 31 22 32 23 33 24 34
REMARK SMILES IDX 25 35 26 36 27 37 28 38 29 39 93 40 30 41 92 42 31 43 32 44
REMARK SMILES IDX 33 45 86 46 34 47 91 48 85 49 87 50 35 51 90 52 84 53 83 54
REMARK SMILES IDX 36 56 70 57 49 58 69 59 50 60 53 61 68 62 88 63 51 64 52 65
REMARK SMILES IDX 67 67 89 68 54 69 37 70 38 71 47 72 39 73 40 74 46 75 48 76
REMARK SMILES IDX 41 77 42 78 43 79 44 80 45 81 71 82 72 83 81 84 73 85 74 86
REMARK SMILES IDX 80 87 82 88 75 89 76 90 77 91 78 92 79 93 55 94 56 95 65 96
REMARK SMILES IDX 57 97 58 98 64 99 66 100 59 101 60 102 61 103 62 104 63 105
REMARK H PARENT 12 10 87 55 53 66
REMARK Flexibility Score: inf
ROOT
ATOM      1  C   UNL A   1      34.135  30.805  28.018  1.00  0.00     0.188 C 
ENDROOT
BRANCH   1   2
ATOM      2  O   UNL A   1      33.690  30.391  26.746  1.00  0.00    -0.376 OA
BRANCH   2   3
ATOM      3  C   UNL A   1      32.504  29.623  26.644  1.00  0.00     0.202 C 
BRANCH   3   4
ATOM      4  C   UNL A   1      32.394  28.192  27.200  1.00  0.00     0.261 C 
BRANCH   4   5
ATOM      5  O   UNL A   1      32.670  27.150  26.254  1.00  0.00    -0.462 OA
BRANCH   5   6
ATOM      6  C   UNL A   1      31.768  26.159  26.053  1.00  0.00     0.329 C 
ATOM      7  O   UNL A   1      31.281  25.498  26.966  1.00  0.00    -0.250 OA
BRANCH   6   8
ATOM      8  C   UNL A   1      31.428  25.909  24.564  1.00  0.00     0.211 C 
BRANCH   8   9
ATOM      9  N   UNL A   1      32.497  25.244  23.719  1.00  0.00    -0.237 NA
ATOM     10  H   UNL A   1      32.698  25.856  22.929  1.00  0.00     0.143 HD
BRANCH   9  11
ATOM     11  N   UNL A   1      32.159  23.924  23.190  1.00  0.00    -0.240 NA
ATOM     12  C   UNL A   1      34.378  20.919  25.255  1.00  0.00     0.410 C 
ATOM     13  O   UNL A   1      35.603  20.839  25.180  1.00  0.00    -0.224 OA
ATOM     14  N   UNL A   1      33.687  22.013  24.809  1.00  0.00    -0.306 N 
ATOM     15  C   UNL A   1      34.334  22.895  23.853  1.00  0.00     0.140 C 
ATOM     16  C   UNL A   1      32.397  22.472  25.326  1.00  0.00     0.140 C 
ATOM     17  C   UNL A   1      33.362  23.217  22.717  1.00  0.00     0.124 C 
ATOM     18  C   UNL A   1      31.488  23.092  24.237  1.00  0.00     0.124 C 
BRANCH  12  19
ATOM     19  O   UNL A   1      33.568  19.906  25.659  1.00  0.00    -0.444 OA
BRANCH  19  20
ATOM     20  C   UNL A   1      33.350  18.788  24.758  1.00  0.00     0.106 C 
ATOM     21  C   UNL A   1      32.499  17.779  25.544  1.00  0.00     0.056 C 
ATOM     22  C   UNL A   1      34.690  18.140  24.400  1.00  0.00     0.056 C 
ATOM     23  C   UNL A   1      32.543  19.179  23.504  1.00  0.00     0.056 C 
ENDBRANCH  19  20
ENDBRANCH  12  19
ENDBRANCH   9  11
ENDBRANCH   8   9
BRANCH   8  24
ATOM     24  C   UNL A   1      30.846  27.071  23.740  1.00  0.00     0.000 A 
ATOM     25  C   UNL A   1      31.817  27.912  23.130  1.00  0.00     0.007 A 
ATOM     26  C   UNL A   1      29.500  27.429  23.555  1.00  0.00     0.046 A 
ATOM     27  C   UNL A   1      31.475  29.070  22.432  1.00  0.00     0.000 A 
ATOM     28  C   UNL A   1      29.166  28.602  22.859  1.00  0.00     0.021 A 
ATOM     29  Cl  UNL A   1      28.148  26.509  24.098  1.00  0.00    -0.084 Cl
ATOM     30  C   UNL A   1      30.144  29.428  22.313  1.00  0.00     0.002 A 
ENDBRANCH   8  24
ENDBRANCH   6   8
ENDBRANCH   5   6
ENDBRANCH   4   5
ENDBRANCH   3   4
ENDBRANCH   2   3
ENDBRANCH   1   2
BRANCH   1  31
ATOM     31  C   UNL A   1      35.388  31.691  27.965  1.00  0.00     0.188 C 
BRANCH  31  32
ATOM     32  O   UNL A   1      35.539  32.791  28.847  1.00  0.00    -0.376 OA
BRANCH  32  33
ATOM     33  C   UNL A   1      34.812  32.763  30.063  1.00  0.00     0.202 C 
BRANCH  33  34
ATOM     34  C   UNL A   1      35.369  31.931  31.229  1.00  0.00     0.261 C 
BRANCH  34  35
ATOM     35  O   UNL A   1      36.794  31.704  31.222  1.00  0.00    -0.460 OA
BRANCH  35  36
ATOM     36  C   UNL A   1      37.199  30.407  31.286  1.00  0.00     0.338 C 
ATOM     37  O   UNL A   1      36.528  29.447  31.626  1.00  0.00    -0.246 OA
BRANCH  36  38
ATOM     38  C   UNL A   1      38.554  30.268  30.697  1.00  0.00     0.060 A 
ATOM     39  C   UNL A   1      38.766  30.633  29.357  1.00  0.00     0.016 A 
ATOM     40  C   UNL A   1      39.600  29.733  31.447  1.00  0.00     0.016 A 
ATOM     41  C   UNL A   1      40.026  30.468  28.767  1.00  0.00     0.010 A 
ATOM     42  C   UNL A   1      40.849  29.536  30.845  1.00  0.00     0.010 A 
ATOM     43  C   UNL A   1      41.068  29.888  29.501  1.00  0.00    -0.014 A 
BRANCH  43  44
ATOM     44  C   UNL A   1      42.359  29.532  28.854  1.00  0.00     0.031 A 
ATOM     45  C   UNL A   1      42.575  28.120  28.385  1.00  0.00     0.074 A 
ATOM     46  C   UNL A   1      43.348  30.437  28.730  1.00  0.00     0.049 A 
ATOM     47  N   UNL A   1      43.669  27.550  27.949  1.00  0.00    -0.248 NA
ATOM     48  C   UNL A   1      41.406  27.230  28.430  1.00  0.00     0.031 C 
ATOM     49  C   UNL A   1      43.254  31.840  29.121  1.00  0.00     0.029 A 
ATOM     50  N   UNL A   1      44.632  30.304  28.259  1.00  0.00    -0.354 N 
ATOM     51  C   UNL A   1      43.330  26.226  27.700  1.00  0.00     0.074 A 
ATOM     52  C   UNL A   1      41.928  26.080  28.032  1.00  0.00     0.031 C 
ATOM     53  C   UNL A   1      44.430  32.443  28.871  1.00  0.00     0.029 A 
ATOM     54  C   UNL A   1      45.380  31.454  28.365  1.00  0.00     0.049 A 
ATOM     55  H   UNL A   1      44.983  29.466  27.882  1.00  0.00     0.167 HD
ATOM     56  C   UNL A   1      44.120  25.221  27.248  1.00  0.00     0.037 A 
ATOM     57  C   UNL A   1      46.691  31.673  28.123  1.00  0.00     0.037 A 
ATOM     58  C   UNL A   1      45.518  25.370  26.933  1.00  0.00     0.049 A 
ATOM     59  C   UNL A   1      47.566  30.523  27.684  1.00  0.00     0.074 A 
ATOM     60  C   UNL A   1      46.399  24.411  26.462  1.00  0.00     0.029 A 
ATOM     61  N   UNL A   1      46.244  26.545  27.069  1.00  0.00    -0.354 N 
ATOM     62  N   UNL A   1      47.234  29.276  27.442  1.00  0.00    -0.248 NA
ATOM     63  C   UNL A   1      49.000  30.802  27.510  1.00  0.00     0.031 C 
ATOM     64  C   UNL A   1      47.669  24.990  26.372  1.00  0.00     0.029 A 
ATOM     65  C   UNL A   1      47.567  26.326  26.722  1.00  0.00     0.049 A 
ATOM     66  H   UNL A   1      45.873  27.406  27.369  1.00  0.00     0.167 HD
ATOM     67  C   UNL A   1      48.412  28.631  27.074  1.00  0.00     0.074 A 
ATOM     68  C   UNL A   1      49.461  29.627  27.105  1.00  0.00     0.031 C 
ATOM     69  C   UNL A   1      48.606  27.328  26.748  1.00  0.00     0.037 A 
BRANCH  56  70
ATOM     70  C   UNL A   1      43.502  23.855  27.114  1.00  0.00     0.058 A 
ATOM     71  C   UNL A   1      43.297  23.020  28.223  1.00  0.00     0.135 A 
ATOM     72  C   UNL A   1      43.081  23.389  25.857  1.00  0.00     0.135 A 
ATOM     73  F   UNL A   1      43.696  23.407  29.445  1.00  0.00    -0.206 F 
ATOM     74  C   UNL A   1      42.723  21.760  28.087  1.00  0.00     0.059 A 
ATOM     75  C   UNL A   1      42.475  22.146  25.703  1.00  0.00     0.059 A 
ATOM     76  F   UNL A   1      43.253  24.147  24.762  1.00  0.00    -0.206 F 
ATOM     77  C   UNL A   1      42.316  21.332  26.822  1.00  0.00     0.060 A 
BRANCH  77  78
ATOM     78  S   UNL A   1      41.574  19.693  26.665  1.00  0.00     0.124 S 
ATOM     79  O   UNL A   1      40.156  20.000  26.820  1.00  0.00    -0.237 OA
ATOM     80  O   UNL A   1      41.992  19.291  25.324  1.00  0.00    -0.237 OA
ATOM     81  O   UNL A   1      42.175  18.938  27.759  1.00  0.00    -0.744 OA
ENDBRANCH  77  78
ENDBRANCH  56  70
BRANCH  57  82
ATOM     82  C   UNL A   1      47.276  33.029  28.326  1.00  0.00     0.058 A 
ATOM     83  C   UNL A   1      47.311  33.964  27.280  1.00  0.00     0.135 A 
ATOM     84  C   UNL A   1      47.820  33.415  29.561  1.00  0.00     0.135 A 
ATOM     85  F   UNL A   1      46.822  33.639  26.073  1.00  0.00    -0.206 F 
ATOM     86  C   UNL A   1      47.872  35.227  27.447  1.00  0.00     0.059 A 
ATOM     87  C   UNL A   1      48.355  34.684  29.763  1.00  0.00     0.059 A 
ATOM     88  F   UNL A   1      47.813  32.562  30.596  1.00  0.00    -0.206 F 
ATOM     89  C   UNL A   1      48.386  35.580  28.696  1.00  0.00     0.060 A 
BRANCH  89  90
ATOM     90  S   UNL A   1      49.063  37.240  28.915  1.00  0.00     0.124 S 
ATOM     91  O   UNL A   1      47.874  38.067  28.749  1.00  0.00    -0.237 OA
ATOM     92  O   UNL A   1      49.609  37.171  30.268  1.00  0.00    -0.237 OA
ATOM     93  O   UNL A   1      50.057  37.340  27.850  1.00  0.00    -0.744 OA
ENDBRANCH  89  90
ENDBRANCH  57  82
BRANCH  69  94
ATOM     94  C   UNL A   1      49.999  26.895  26.366  1.00  0.00     0.058 A 
ATOM     95  C   UNL A   1      50.431  26.886  25.030  1.00  0.00     0.135 A 
ATOM     96  C   UNL A   1      50.940  26.570  27.357  1.00  0.00     0.135 A 
ATOM     97  F   UNL A   1      49.573  27.180  24.040  1.00  0.00    -0.206 F 
ATOM     98  C   UNL A   1      51.741  26.562  24.690  1.00  0.00     0.059 A 
ATOM     99  C   UNL A   1      52.263  26.272  27.043  1.00  0.00     0.059 A 
ATOM    100  F   UNL A   1      50.585  26.571  28.653  1.00  0.00    -0.206 F 
ATOM    101  C   UNL A   1      52.653  26.265  25.706  1.00  0.00     0.060 A 
BRANCH 101 102
ATOM    102  S   UNL A   1      54.366  25.910  25.255  1.00  0.00     0.124 S 
ATOM    103  O   UNL A   1      54.270  24.529  24.793  1.00  0.00    -0.237 OA
ATOM    104  O   UNL A   1      54.628  26.907  24.221  1.00  0.00    -0.237 OA
ATOM    105  O   UNL A   1      55.095  26.104  26.503  1.00  0.00    -0.744 OA
ENDBRANCH 101 102
ENDBRANCH  69  94
ENDBRANCH  43  44
ENDBRANCH  36  38
ENDBRANCH  35  36
ENDBRANCH  34  35
ENDBRANCH  33  34
ENDBRANCH  32  33
ENDBRANCH  31  32
ENDBRANCH   1  31
TORSDOF 25
ENDMDL
