MODEL 1
REMARK VINA RESULT:     -10.7      0.000      0.000
REMARK SMILES O=C(OCCOCCOCCOC(=O)C1(Cc2ccccc2Cl)CCN(c2ncnc3[nH]ccc23)CC1)c1ccc(-c2c3nc(c(-c4c(F)cc(S(=O)(=O)[O-])cc4F)c4ccc([nH]4)c(-c4c(F)cc(S(=O)(=O)[O-])cc4F)c4nc(c(-c5c(F)cc(S(=O)(=O)[O-])cc5F)c5ccc2[nH]5)C=C4)C=C3)cc1
REMARK SMILES IDX 7 1 6 2 5 3 4 4 3 5 2 6 1 7 38 8 39 9 103 10 40 11 102 12
REMARK SMILES IDX 41 13 42 14 43 15 96 16 44 17 101 18 95 19 97 20 45 21
REMARK SMILES IDX 100 22 94 23 93 24 46 26 80 27 59 28 79 29 60 30 63 31 78 32
REMARK SMILES IDX 98 33 61 34 62 35 77 37 99 38 64 39 47 40 48 41 57 42 49 43
REMARK SMILES IDX 50 44 56 45 58 46 51 47 52 48 53 49 54 50 55 51 81 52 82 53
REMARK SMILES IDX 91 54 83 55 84 56 90 57 92 58 85 59 86 60 87 61 88 62 89 63
REMARK SMILES IDX 65 64 66 65 75 66 67 67 68 68 74 69 76 70 69 71 70 72 71 73
REMARK SMILES IDX 72 74 73 75 8 76 9 77 10 78 11 79 12 80 13 81 14 82 15 83
REMARK SMILES IDX 24 84 37 85 25 86 36 87 26 88 16 89 17 90 18 91 22 92 19 93
REMARK SMILES IDX 21 94 23 95 20 96 27 97 28 98 35 99 29 100 31 101 34 102
REMARK SMILES IDX 30 103 32 104 33 105
REMARK H PARENT 97 25 63 36 32 106
REMARK Flexibility Score: inf
ROOT
ATOM      1  C   UNL A   1      34.796  21.844  25.984  1.00  0.00     0.188 C 
ENDROOT
BRANCH   1   2
ATOM      2  O   UNL A   1      35.979  22.128  25.228  1.00  0.00    -0.376 OA
BRANCH   2   3
ATOM      3  C   UNL A   1      36.924  21.054  25.248  1.00  0.00     0.202 C 
BRANCH   3   4
ATOM      4  C   UNL A   1      38.389  21.499  25.325  1.00  0.00     0.261 C 
BRANCH   4   5
ATOM      5  O   UNL A   1      38.870  21.596  26.668  1.00  0.00    -0.460 OA
BRANCH   5   6
ATOM      6  C   UNL A   1      40.064  22.094  27.066  1.00  0.00     0.338 C 
ATOM      7  O   UNL A   1      40.977  21.296  27.283  1.00  0.00    -0.246 OA
BRANCH   6   8
ATOM      8  C   UNL A   1      40.361  23.557  27.184  1.00  0.00     0.060 A 
ATOM      9  C   UNL A   1      39.786  24.610  26.456  1.00  0.00     0.016 A 
ATOM     10  C   UNL A   1      41.223  23.895  28.225  1.00  0.00     0.016 A 
ATOM     11  C   UNL A   1      40.041  25.964  26.766  1.00  0.00     0.010 A 
ATOM     12  C   UNL A   1      41.440  25.235  28.558  1.00  0.00     0.010 A 
ATOM     13  C   UNL A   1      40.827  26.297  27.864  1.00  0.00    -0.014 A 
BRANCH  13  14
ATOM     14  C   UNL A   1      41.234  27.699  28.200  1.00  0.00     0.031 A 
ATOM     15  C   UNL A   1      42.705  27.950  28.038  1.00  0.00     0.074 A 
ATOM     16  C   UNL A   1      40.437  28.678  28.696  1.00  0.00     0.049 A 
ATOM     17  N   UNL A   1      43.457  28.849  28.602  1.00  0.00    -0.248 NA
ATOM     18  C   UNL A   1      43.444  26.961  27.226  1.00  0.00     0.031 C 
ATOM     19  C   UNL A   1      39.009  28.587  28.933  1.00  0.00     0.029 A 
ATOM     20  N   UNL A   1      40.712  29.959  29.131  1.00  0.00    -0.354 N 
ATOM     21  C   UNL A   1      44.752  28.477  28.279  1.00  0.00     0.074 A 
ATOM     22  C   UNL A   1      44.687  27.205  27.600  1.00  0.00     0.031 C 
ATOM     23  C   UNL A   1      38.517  29.715  29.456  1.00  0.00     0.029 A 
ATOM     24  C   UNL A   1      39.617  30.621  29.665  1.00  0.00     0.049 A 
ATOM     25  H   UNL A   1      41.607  30.366  29.070  1.00  0.00     0.167 HD
ATOM     26  C   UNL A   1      45.890  29.177  28.470  1.00  0.00     0.037 A 
ATOM     27  C   UNL A   1      39.492  31.790  30.322  1.00  0.00     0.037 A 
ATOM     28  C   UNL A   1      45.882  30.489  29.049  1.00  0.00     0.049 A 
ATOM     29  C   UNL A   1      40.756  32.530  30.584  1.00  0.00     0.074 A 
ATOM     30  C   UNL A   1      46.928  31.374  29.199  1.00  0.00     0.029 A 
ATOM     31  N   UNL A   1      44.740  31.114  29.545  1.00  0.00    -0.354 N 
ATOM     32  N   UNL A   1      41.981  32.157  30.300  1.00  0.00    -0.248 NA
ATOM     33  C   UNL A   1      40.643  33.827  31.251  1.00  0.00     0.031 C 
ATOM     34  C   UNL A   1      46.424  32.528  29.806  1.00  0.00     0.029 A 
ATOM     35  C   UNL A   1      45.054  32.383  29.990  1.00  0.00     0.049 A 
ATOM     36  H   UNL A   1      43.843  30.712  29.575  1.00  0.00     0.167 HD
ATOM     37  C   UNL A   1      42.790  33.206  30.687  1.00  0.00     0.074 A 
ATOM     38  C   UNL A   1      41.913  34.208  31.275  1.00  0.00     0.031 C 
ATOM     39  C   UNL A   1      44.127  33.347  30.533  1.00  0.00     0.037 A 
BRANCH  26  40
ATOM     40  C   UNL A   1      47.167  28.530  28.011  1.00  0.00     0.058 A 
ATOM     41  C   UNL A   1      47.617  28.643  26.681  1.00  0.00     0.135 A 
ATOM     42  C   UNL A   1      47.893  27.698  28.874  1.00  0.00     0.135 A 
ATOM     43  F   UNL A   1      46.948  29.406  25.801  1.00  0.00    -0.206 F 
ATOM     44  C   UNL A   1      48.682  27.889  26.204  1.00  0.00     0.059 A 
ATOM     45  C   UNL A   1      48.993  26.968  28.430  1.00  0.00     0.059 A 
ATOM     46  F   UNL A   1      47.512  27.551  30.152  1.00  0.00    -0.206 F 
ATOM     47  C   UNL A   1      49.357  27.044  27.086  1.00  0.00     0.060 A 
BRANCH  47  48
ATOM     48  S   UNL A   1      50.711  26.043  26.438  1.00  0.00     0.124 S 
ATOM     49  O   UNL A   1      50.533  24.798  27.182  1.00  0.00    -0.237 OA
ATOM     50  O   UNL A   1      50.411  25.984  25.020  1.00  0.00    -0.237 OA
ATOM     51  O   UNL A   1      51.903  26.819  26.796  1.00  0.00    -0.744 OA
ENDBRANCH  47  48
ENDBRANCH  26  40
BRANCH  27  52
ATOM     52  C   UNL A   1      38.166  32.262  30.829  1.00  0.00     0.058 A 
ATOM     53  C   UNL A   1      37.717  32.015  32.132  1.00  0.00     0.135 A 
ATOM     54  C   UNL A   1      37.335  33.043  30.015  1.00  0.00     0.135 A 
ATOM     55  F   UNL A   1      38.442  31.243  32.955  1.00  0.00    -0.206 F 
ATOM     56  C   UNL A   1      36.516  32.551  32.610  1.00  0.00     0.059 A 
ATOM     57  C   UNL A   1      36.156  33.626  30.472  1.00  0.00     0.059 A 
ATOM     58  F   UNL A   1      37.680  33.249  28.744  1.00  0.00    -0.206 F 
ATOM     59  C   UNL A   1      35.752  33.373  31.777  1.00  0.00     0.060 A 
BRANCH  59  60
ATOM     60  S   UNL A   1      34.250  34.141  32.428  1.00  0.00     0.124 S 
ATOM     61  O   UNL A   1      33.527  32.985  32.946  1.00  0.00    -0.237 OA
ATOM     62  O   UNL A   1      34.789  35.060  33.425  1.00  0.00    -0.237 OA
ATOM     63  O   UNL A   1      33.662  34.779  31.254  1.00  0.00    -0.744 OA
ENDBRANCH  59  60
ENDBRANCH  27  52
BRANCH  39  64
ATOM     64  C   UNL A   1      44.684  34.687  30.873  1.00  0.00     0.058 A 
ATOM     65  C   UNL A   1      45.166  34.990  32.150  1.00  0.00     0.135 A 
ATOM     66  C   UNL A   1      44.798  35.648  29.857  1.00  0.00     0.135 A 
ATOM     67  F   UNL A   1      45.047  34.103  33.150  1.00  0.00    -0.206 F 
ATOM     68  C   UNL A   1      45.759  36.216  32.410  1.00  0.00     0.059 A 
ATOM     69  C   UNL A   1      45.414  36.866  30.088  1.00  0.00     0.059 A 
ATOM     70  F   UNL A   1      44.339  35.388  28.622  1.00  0.00    -0.206 F 
ATOM     71  C   UNL A   1      45.890  37.140  31.369  1.00  0.00     0.060 A 
BRANCH  71  72
ATOM     72  S   UNL A   1      46.746  38.690  31.698  1.00  0.00     0.124 S 
ATOM     73  O   UNL A   1      45.631  39.580  31.999  1.00  0.00    -0.237 OA
ATOM     74  O   UNL A   1      47.602  38.336  32.826  1.00  0.00    -0.237 OA
ATOM     75  O   UNL A   1      47.448  38.961  30.447  1.00  0.00    -0.744 OA
ENDBRANCH  71  72
ENDBRANCH  39  64
ENDBRANCH  13  14
ENDBRANCH   6   8
ENDBRANCH   5   6
ENDBRANCH   4   5
ENDBRANCH   3   4
ENDBRANCH   2   3
ENDBRANCH   1   2
BRANCH   1  76
ATOM     76  C   UNL A   1      33.705  21.168  25.163  1.00  0.00     0.188 C 
BRANCH  76  77
ATOM     77  O   UNL A   1      33.656  21.449  23.770  1.00  0.00    -0.376 OA
BRANCH  77  78
ATOM     78  C   UNL A   1      32.383  21.623  23.168  1.00  0.00     0.202 C 
BRANCH  78  79
ATOM     79  C   UNL A   1      31.639  22.958  23.313  1.00  0.00     0.261 C 
BRANCH  79  80
ATOM     80  O   UNL A   1      32.318  24.092  23.877  1.00  0.00    -0.463 OA
BRANCH  80  81
ATOM     81  C   UNL A   1      31.577  24.865  24.720  1.00  0.00     0.312 C 
ATOM     82  O   UNL A   1      30.856  24.406  25.602  1.00  0.00    -0.252 OA
BRANCH  81  83
ATOM     83  C   UNL A   1      31.653  26.368  24.434  1.00  0.00     0.075 C 
ATOM     84  C   UNL A   1      33.112  26.869  24.294  1.00  0.00     0.040 C 
ATOM     85  C   UNL A   1      30.874  27.144  25.579  1.00  0.00     0.040 C 
ATOM     86  C   UNL A   1      33.694  27.085  25.684  1.00  0.00     0.119 C 
ATOM     87  C   UNL A   1      31.687  27.653  26.790  1.00  0.00     0.119 C 
ATOM     88  N   UNL A   1      32.922  28.165  26.260  1.00  0.00    -0.356 N 
BRANCH  83  89
ATOM     89  C   UNL A   1      30.861  26.577  23.086  1.00  0.00     0.056 C 
BRANCH  89  90
ATOM     90  C   UNL A   1      29.934  27.782  23.020  1.00  0.00    -0.028 A 
ATOM     91  C   UNL A   1      30.484  29.027  22.661  1.00  0.00     0.005 A 
ATOM     92  C   UNL A   1      28.553  27.736  23.275  1.00  0.00     0.044 A 
ATOM     93  C   UNL A   1      29.673  30.143  22.448  1.00  0.00     0.000 A 
ATOM     94  C   UNL A   1      27.732  28.830  22.975  1.00  0.00     0.021 A 
ATOM     95  Cl  UNL A   1      27.789  26.417  24.086  1.00  0.00    -0.084 Cl
ATOM     96  C   UNL A   1      28.291  30.030  22.551  1.00  0.00     0.002 A 
ENDBRANCH  89  90
ENDBRANCH  83  89
BRANCH  88  97
ATOM     97  C   UNL A   1      33.501  29.279  26.838  1.00  0.00     0.141 A 
ATOM     98  N   UNL A   1      34.632  29.149  27.577  1.00  0.00    -0.219 NA
ATOM     99  C   UNL A   1      32.882  30.555  26.860  1.00  0.00     0.061 A 
ATOM    100  C   UNL A   1      35.180  30.249  28.144  1.00  0.00     0.226 A 
ATOM    101  C   UNL A   1      33.579  31.593  27.471  1.00  0.00     0.142 A 
ATOM    102  C   UNL A   1      31.629  31.112  26.471  1.00  0.00     0.033 A 
ATOM    103  N   UNL A   1      34.753  31.518  28.104  1.00  0.00    -0.218 NA
ATOM    104  N   UNL A   1      32.845  32.740  27.365  1.00  0.00    -0.346 N 
ATOM    105  C   UNL A   1      31.597  32.424  26.903  1.00  0.00     0.085 A 
ATOM    106  H   UNL A   1      33.162  33.645  27.586  1.00  0.00     0.167 HD
ENDBRANCH  88  97
ENDBRANCH  81  83
ENDBRANCH  80  81
ENDBRANCH  79  80
ENDBRANCH  78  79
ENDBRANCH  77  78
ENDBRANCH  76  77
ENDBRANCH   1  76
TORSDOF 23
ENDMDL
MODEL 2
REMARK VINA RESULT:      -9.6      4.397      5.882
REMARK SMILES O=C(OCCOCCOCCOC(=O)C1(Cc2ccccc2Cl)CCN(c2ncnc3[nH]ccc23)CC1)c1ccc(-c2c3nc(c(-c4c(F)cc(S(=O)(=O)[O-])cc4F)c4ccc([nH]4)c(-c4c(F)cc(S(=O)(=O)[O-])cc4F)c4nc(c(-c5c(F)cc(S(=O)(=O)[O-])cc5F)c5ccc2[nH]5)C=C4)C=C3)cc1
REMARK SMILES IDX 7 1 6 2 5 3 4 4 3 5 2 6 1 7 38 8 39 9 103 10 40 11 102 12
REMARK SMILES IDX 41 13 42 14 43 15 96 16 44 17 101 18 95 19 97 20 45 21
REMARK SMILES IDX 100 22 94 23 93 24 46 26 80 27 59 28 79 29 60 30 63 31 78 32
REMARK SMILES IDX 98 33 61 34 62 35 77 37 99 38 64 39 47 40 48 41 57 42 49 43
REMARK SMILES IDX 50 44 56 45 58 46 51 47 52 48 53 49 54 50 55 51 81 52 82 53
REMARK SMILES IDX 91 54 83 55 84 56 90 57 92 58 85 59 86 60 87 61 88 62 89 63
REMARK SMILES IDX 65 64 66 65 75 66 67 67 68 68 74 69 76 70 69 71 70 72 71 73
REMARK SMILES IDX 72 74 73 75 8 76 9 77 10 78 11 79 12 80 13 81 14 82 15 83
REMARK SMILES IDX 24 84 37 85 25 86 36 87 26 88 16 89 17 90 18 91 22 92 19 93
REMARK SMILES IDX 21 94 23 95 20 96 27 97 28 98 35 99 29 100 31 101 34 102
REMARK SMILES IDX 30 103 32 104 33 105
REMARK H PARENT 97 25 63 36 32 106
REMARK Flexibility Score: inf
ROOT
ATOM      1  C   UNL A   1      37.271  23.397  25.765  1.00  0.00     0.188 C 
ENDROOT
BRANCH   1   2
ATOM      2  O   UNL A   1      37.787  22.202  25.167  1.00  0.00    -0.376 OA
BRANCH   2   3
ATOM      3  C   UNL A   1      38.850  21.615  25.926  1.00  0.00     0.202 C 
BRANCH   3   4
ATOM      4  C   UNL A   1      39.804  22.627  26.569  1.00  0.00     0.261 C 
BRANCH   4   5
ATOM      5  O   UNL A   1      41.146  22.508  26.087  1.00  0.00    -0.460 OA
BRANCH   5   6
ATOM      6  C   UNL A   1      42.096  23.471  26.094  1.00  0.00     0.338 C 
ATOM      7  O   UNL A   1      43.058  23.337  25.337  1.00  0.00    -0.246 OA
BRANCH   6   8
ATOM      8  C   UNL A   1      42.009  24.724  26.911  1.00  0.00     0.060 A 
ATOM      9  C   UNL A   1      42.007  26.049  26.450  1.00  0.00     0.016 A 
ATOM     10  C   UNL A   1      41.787  24.519  28.271  1.00  0.00     0.016 A 
ATOM     11  C   UNL A   1      41.767  27.143  27.310  1.00  0.00     0.010 A 
ATOM     12  C   UNL A   1      41.507  25.599  29.113  1.00  0.00     0.010 A 
ATOM     13  C   UNL A   1      41.453  26.928  28.648  1.00  0.00    -0.014 A 
BRANCH  13  14
ATOM     14  C   UNL A   1      41.291  28.029  29.651  1.00  0.00     0.031 A 
ATOM     15  C   UNL A   1      42.241  27.929  30.809  1.00  0.00     0.074 A 
ATOM     16  C   UNL A   1      40.348  29.003  29.639  1.00  0.00     0.049 A 
ATOM     17  N   UNL A   1      42.131  28.413  32.011  1.00  0.00    -0.248 NA
ATOM     18  C   UNL A   1      43.410  27.047  30.612  1.00  0.00     0.031 C 
ATOM     19  C   UNL A   1      39.347  29.220  28.612  1.00  0.00     0.029 A 
ATOM     20  N   UNL A   1      40.039  29.999  30.545  1.00  0.00    -0.354 N 
ATOM     21  C   UNL A   1      43.165  27.824  32.722  1.00  0.00     0.074 A 
ATOM     22  C   UNL A   1      43.792  26.850  31.860  1.00  0.00     0.031 C 
ATOM     23  C   UNL A   1      38.543  30.247  28.906  1.00  0.00     0.029 A 
ATOM     24  C   UNL A   1      38.922  30.747  30.203  1.00  0.00     0.049 A 
ATOM     25  H   UNL A   1      40.565  30.164  31.362  1.00  0.00     0.167 HD
ATOM     26  C   UNL A   1      43.598  28.128  33.963  1.00  0.00     0.037 A 
ATOM     27  C   UNL A   1      38.214  31.680  30.868  1.00  0.00     0.037 A 
ATOM     28  C   UNL A   1      43.009  29.186  34.732  1.00  0.00     0.049 A 
ATOM     29  C   UNL A   1      38.658  31.968  32.259  1.00  0.00     0.074 A 
ATOM     30  C   UNL A   1      43.407  29.694  35.950  1.00  0.00     0.029 A 
ATOM     31  N   UNL A   1      41.899  29.920  34.322  1.00  0.00    -0.354 N 
ATOM     32  N   UNL A   1      39.620  31.386  32.934  1.00  0.00    -0.248 NA
ATOM     33  C   UNL A   1      37.937  33.014  32.985  1.00  0.00     0.031 C 
ATOM     34  C   UNL A   1      42.525  30.726  36.287  1.00  0.00     0.029 A 
ATOM     35  C   UNL A   1      41.606  30.892  35.258  1.00  0.00     0.049 A 
ATOM     36  H   UNL A   1      41.397  29.770  33.489  1.00  0.00     0.167 HD
ATOM     37  C   UNL A   1      39.675  32.043  34.146  1.00  0.00     0.074 A 
ATOM     38  C   UNL A   1      38.609  33.034  34.127  1.00  0.00     0.031 C 
ATOM     39  C   UNL A   1      40.551  31.873  35.164  1.00  0.00     0.037 A 
BRANCH  26  40
ATOM     40  C   UNL A   1      44.757  27.327  34.490  1.00  0.00     0.058 A 
ATOM     41  C   UNL A   1      44.564  26.134  35.213  1.00  0.00     0.135 A 
ATOM     42  C   UNL A   1      46.067  27.810  34.371  1.00  0.00     0.135 A 
ATOM     43  F   UNL A   1      43.328  25.636  35.383  1.00  0.00    -0.206 F 
ATOM     44  C   UNL A   1      45.612  25.501  35.869  1.00  0.00     0.059 A 
ATOM     45  C   UNL A   1      47.140  27.165  34.981  1.00  0.00     0.059 A 
ATOM     46  F   UNL A   1      46.313  28.942  33.694  1.00  0.00    -0.206 F 
ATOM     47  C   UNL A   1      46.897  26.032  35.756  1.00  0.00     0.060 A 
BRANCH  47  48
ATOM     48  S   UNL A   1      48.237  25.218  36.649  1.00  0.00     0.124 S 
ATOM     49  O   UNL A   1      49.376  25.493  35.776  1.00  0.00    -0.237 OA
ATOM     50  O   UNL A   1      48.233  25.908  37.924  1.00  0.00    -0.237 OA
ATOM     51  O   UNL A   1      47.808  23.816  36.691  1.00  0.00    -0.744 OA
ENDBRANCH  47  48
ENDBRANCH  26  40
BRANCH  27  52
ATOM     52  C   UNL A   1      37.004  32.317  30.263  1.00  0.00     0.058 A 
ATOM     53  C   UNL A   1      35.697  31.935  30.591  1.00  0.00     0.135 A 
ATOM     54  C   UNL A   1      37.140  33.391  29.372  1.00  0.00     0.135 A 
ATOM     55  F   UNL A   1      35.489  30.891  31.407  1.00  0.00    -0.206 F 
ATOM     56  C   UNL A   1      34.583  32.614  30.084  1.00  0.00     0.059 A 
ATOM     57  C   UNL A   1      36.055  34.113  28.884  1.00  0.00     0.059 A 
ATOM     58  F   UNL A   1      38.359  33.749  28.971  1.00  0.00    -0.206 F 
ATOM     59  C   UNL A   1      34.774  33.716  29.246  1.00  0.00     0.060 A 
BRANCH  59  60
ATOM     60  S   UNL A   1      33.336  34.648  28.670  1.00  0.00     0.124 S 
ATOM     61  O   UNL A   1      32.817  33.774  27.623  1.00  0.00    -0.237 OA
ATOM     62  O   UNL A   1      32.531  34.743  29.883  1.00  0.00    -0.237 OA
ATOM     63  O   UNL A   1      33.914  35.908  28.211  1.00  0.00    -0.744 OA
ENDBRANCH  59  60
ENDBRANCH  27  52
BRANCH  39  64
ATOM     64  C   UNL A   1      40.477  32.877  36.262  1.00  0.00     0.058 A 
ATOM     65  C   UNL A   1      41.290  34.014  36.288  1.00  0.00     0.135 A 
ATOM     66  C   UNL A   1      39.505  32.715  37.261  1.00  0.00     0.135 A 
ATOM     67  F   UNL A   1      42.248  34.185  35.363  1.00  0.00    -0.206 F 
ATOM     68  C   UNL A   1      41.135  34.974  37.276  1.00  0.00     0.059 A 
ATOM     69  C   UNL A   1      39.312  33.675  38.239  1.00  0.00     0.059 A 
ATOM     70  F   UNL A   1      38.712  31.630  37.266  1.00  0.00    -0.206 F 
ATOM     71  C   UNL A   1      40.135  34.801  38.237  1.00  0.00     0.060 A 
BRANCH  71  72
ATOM     72  S   UNL A   1      39.882  36.101  39.458  1.00  0.00     0.124 S 
ATOM     73  O   UNL A   1      41.243  36.327  39.928  1.00  0.00    -0.237 OA
ATOM     74  O   UNL A   1      39.300  37.171  38.653  1.00  0.00    -0.237 OA
ATOM     75  O   UNL A   1      38.975  35.486  40.423  1.00  0.00    -0.744 OA
ENDBRANCH  71  72
ENDBRANCH  39  64
ENDBRANCH  13  14
ENDBRANCH   6   8
ENDBRANCH   5   6
ENDBRANCH   4   5
ENDBRANCH   3   4
ENDBRANCH   2   3
ENDBRANCH   1   2
BRANCH   1  76
ATOM     76  C   UNL A   1      35.761  23.365  25.966  1.00  0.00     0.188 C 
BRANCH  76  77
ATOM     77  O   UNL A   1      34.954  22.995  24.855  1.00  0.00    -0.376 OA
BRANCH  77  78
ATOM     78  C   UNL A   1      33.569  22.780  25.079  1.00  0.00     0.202 C 
BRANCH  78  79
ATOM     79  C   UNL A   1      32.552  23.869  24.713  1.00  0.00     0.261 C 
BRANCH  79  80
ATOM     80  O   UNL A   1      32.883  24.841  23.708  1.00  0.00    -0.463 OA
BRANCH  80  81
ATOM     81  C   UNL A   1      31.879  25.693  23.357  1.00  0.00     0.312 C 
ATOM     82  O   UNL A   1      31.130  25.502  22.402  1.00  0.00    -0.252 OA
BRANCH  81  83
ATOM     83  C   UNL A   1      31.798  26.964  24.209  1.00  0.00     0.075 C 
ATOM     84  C   UNL A   1      30.342  27.330  24.587  1.00  0.00     0.040 C 
ATOM     85  C   UNL A   1      32.516  28.146  23.429  1.00  0.00     0.040 C 
ATOM     86  C   UNL A   1      29.695  28.053  23.415  1.00  0.00     0.119 C 
ATOM     87  C   UNL A   1      31.644  29.063  22.544  1.00  0.00     0.119 C 
ATOM     88  N   UNL A   1      30.428  29.293  23.277  1.00  0.00    -0.356 N 
BRANCH  83  89
ATOM     89  C   UNL A   1      32.649  26.655  25.501  1.00  0.00     0.056 C 
BRANCH  89  90
ATOM     90  C   UNL A   1      33.225  27.852  26.242  1.00  0.00    -0.028 A 
ATOM     91  C   UNL A   1      34.555  28.224  25.975  1.00  0.00     0.005 A 
ATOM     92  C   UNL A   1      32.510  28.633  27.166  1.00  0.00     0.044 A 
ATOM     93  C   UNL A   1      35.104  29.389  26.514  1.00  0.00     0.000 A 
ATOM     94  C   UNL A   1      33.029  29.846  27.634  1.00  0.00     0.021 A 
ATOM     95  Cl  UNL A   1      31.032  28.112  27.893  1.00  0.00    -0.084 Cl
ATOM     96  C   UNL A   1      34.323  30.230  27.298  1.00  0.00     0.002 A 
ENDBRANCH  89  90
ENDBRANCH  83  89
BRANCH  88  97
ATOM     97  C   UNL A   1      29.810  30.527  23.201  1.00  0.00     0.141 A 
ATOM     98  N   UNL A   1      29.788  31.342  24.285  1.00  0.00    -0.219 NA
ATOM     99  C   UNL A   1      29.026  30.938  22.092  1.00  0.00     0.061 A 
ATOM    100  C   UNL A   1      29.170  32.544  24.195  1.00  0.00     0.226 A 
ATOM    101  C   UNL A   1      28.465  32.210  22.142  1.00  0.00     0.142 A 
ATOM    102  C   UNL A   1      28.550  30.357  20.880  1.00  0.00     0.033 A 
ATOM    103  N   UNL A   1      28.527  33.083  23.152  1.00  0.00    -0.218 NA
ATOM    104  N   UNL A   1      27.779  32.436  20.983  1.00  0.00    -0.346 N 
ATOM    105  C   UNL A   1      27.693  31.263  20.286  1.00  0.00     0.085 A 
ATOM    106  H   UNL A   1      27.406  33.301  20.698  1.00  0.00     0.167 HD
ENDBRANCH  88  97
ENDBRANCH  81  83
ENDBRANCH  80  81
ENDBRANCH  79  80
ENDBRANCH  78  79
ENDBRANCH  77  78
ENDBRANCH  76  77
ENDBRANCH   1  76
TORSDOF 23
ENDMDL
MODEL 3
REMARK VINA RESULT:      -9.5      1.881      3.238
REMARK SMILES O=C(OCCOCCOCCOC(=O)C1(Cc2ccccc2Cl)CCN(c2ncnc3[nH]ccc23)CC1)c1ccc(-c2c3nc(c(-c4c(F)cc(S(=O)(=O)[O-])cc4F)c4ccc([nH]4)c(-c4c(F)cc(S(=O)(=O)[O-])cc4F)c4nc(c(-c5c(F)cc(S(=O)(=O)[O-])cc5F)c5ccc2[nH]5)C=C4)C=C3)cc1
REMARK SMILES IDX 7 1 6 2 5 3 4 4 3 5 2 6 1 7 38 8 39 9 103 10 40 11 102 12
REMARK SMILES IDX 41 13 42 14 43 15 96 16 44 17 101 18 95 19 97 20 45 21
REMARK SMILES IDX 100 22 94 23 93 24 46 26 80 27 59 28 79 29 60 30 63 31 78 32
REMARK SMILES IDX 98 33 61 34 62 35 77 37 99 38 64 39 47 40 48 41 57 42 49 43
REMARK SMILES IDX 50 44 56 45 58 46 51 47 52 48 53 49 54 50 55 51 81 52 82 53
REMARK SMILES IDX 91 54 83 55 84 56 90 57 92 58 85 59 86 60 87 61 88 62 89 63
REMARK SMILES IDX 65 64 66 65 75 66 67 67 68 68 74 69 76 70 69 71 70 72 71 73
REMARK SMILES IDX 72 74 73 75 8 76 9 77 10 78 11 79 12 80 13 81 14 82 15 83
REMARK SMILES IDX 24 84 37 85 25 86 36 87 26 88 16 89 17 90 18 91 22 92 19 93
REMARK SMILES IDX 21 94 23 95 20 96 27 97 28 98 35 99 29 100 31 101 34 102
REMARK SMILES IDX 30 103 32 104 33 105
REMARK H PARENT 97 25 63 36 32 106
REMARK Flexibility Score: inf
ROOT
ATOM      1  C   UNL A   1      35.925  22.721  25.276  1.00  0.00     0.188 C 
ENDROOT
BRANCH   1   2
ATOM      2  O   UNL A   1      36.831  21.833  24.612  1.00  0.00    -0.376 OA
BRANCH   2   3
ATOM      3  C   UNL A   1      37.898  21.391  25.458  1.00  0.00     0.202 C 
BRANCH   3   4
ATOM      4  C   UNL A   1      38.538  22.498  26.302  1.00  0.00     0.261 C 
BRANCH   4   5
ATOM      5  O   UNL A   1      39.846  22.155  26.768  1.00  0.00    -0.460 OA
BRANCH   5   6
ATOM      6  C   UNL A   1      41.008  22.764  26.438  1.00  0.00     0.338 C 
ATOM      7  O   UNL A   1      41.842  22.112  25.808  1.00  0.00    -0.246 OA
BRANCH   6   8
ATOM      8  C   UNL A   1      41.308  24.202  26.728  1.00  0.00     0.060 A 
ATOM      9  C   UNL A   1      41.120  25.305  25.881  1.00  0.00     0.016 A 
ATOM     10  C   UNL A   1      41.708  24.463  28.037  1.00  0.00     0.016 A 
ATOM     11  C   UNL A   1      41.301  26.633  26.326  1.00  0.00     0.010 A 
ATOM     12  C   UNL A   1      41.844  25.779  28.487  1.00  0.00     0.010 A 
ATOM     13  C   UNL A   1      41.607  26.892  27.657  1.00  0.00    -0.014 A 
BRANCH  13  14
ATOM     14  C   UNL A   1      41.921  28.258  28.188  1.00  0.00     0.031 A 
ATOM     15  C   UNL A   1      43.390  28.557  28.242  1.00  0.00     0.074 A 
ATOM     16  C   UNL A   1      41.034  29.159  28.678  1.00  0.00     0.049 A 
ATOM     17  N   UNL A   1      44.034  29.406  28.988  1.00  0.00    -0.248 NA
ATOM     18  C   UNL A   1      44.259  27.678  27.431  1.00  0.00     0.031 C 
ATOM     19  C   UNL A   1      39.591  29.012  28.721  1.00  0.00     0.029 A 
ATOM     20  N   UNL A   1      41.207  30.392  29.277  1.00  0.00    -0.354 N 
ATOM     21  C   UNL A   1      45.371  29.098  28.796  1.00  0.00     0.074 A 
ATOM     22  C   UNL A   1      45.436  27.907  27.984  1.00  0.00     0.031 C 
ATOM     23  C   UNL A   1      38.999  30.065  29.292  1.00  0.00     0.029 A 
ATOM     24  C   UNL A   1      40.031  30.968  29.734  1.00  0.00     0.049 A 
ATOM     25  H   UNL A   1      42.088  30.822  29.374  1.00  0.00     0.167 HD
ATOM     26  C   UNL A   1      46.451  29.798  29.203  1.00  0.00     0.037 A 
ATOM     27  C   UNL A   1      39.785  32.056  30.489  1.00  0.00     0.037 A 
ATOM     28  C   UNL A   1      46.325  31.040  29.910  1.00  0.00     0.049 A 
ATOM     29  C   UNL A   1      40.980  32.790  30.986  1.00  0.00     0.074 A 
ATOM     30  C   UNL A   1      47.313  31.925  30.285  1.00  0.00     0.029 A 
ATOM     31  N   UNL A   1      45.109  31.582  30.320  1.00  0.00    -0.354 N 
ATOM     32  N   UNL A   1      42.243  32.476  30.822  1.00  0.00    -0.248 NA
ATOM     33  C   UNL A   1      40.739  34.003  31.766  1.00  0.00     0.031 C 
ATOM     34  C   UNL A   1      46.697  32.995  30.940  1.00  0.00     0.029 A 
ATOM     35  C   UNL A   1      45.321  32.801  30.932  1.00  0.00     0.049 A 
ATOM     36  H   UNL A   1      44.230  31.160  30.192  1.00  0.00     0.167 HD
ATOM     37  C   UNL A   1      42.960  33.494  31.417  1.00  0.00     0.074 A 
ATOM     38  C   UNL A   1      41.982  34.407  31.991  1.00  0.00     0.031 C 
ATOM     39  C   UNL A   1      44.300  33.680  31.451  1.00  0.00     0.037 A 
BRANCH  26  40
ATOM     40  C   UNL A   1      47.797  29.233  28.844  1.00  0.00     0.058 A 
ATOM     41  C   UNL A   1      48.506  28.394  29.727  1.00  0.00     0.135 A 
ATOM     42  C   UNL A   1      48.438  29.619  27.659  1.00  0.00     0.135 A 
ATOM     43  F   UNL A   1      47.954  28.011  30.890  1.00  0.00    -0.206 F 
ATOM     44  C   UNL A   1      49.827  28.033  29.488  1.00  0.00     0.059 A 
ATOM     45  C   UNL A   1      49.745  29.230  27.377  1.00  0.00     0.059 A 
ATOM     46  F   UNL A   1      47.813  30.417  26.780  1.00  0.00    -0.206 F 
ATOM     47  C   UNL A   1      50.442  28.467  28.313  1.00  0.00     0.060 A 
BRANCH  47  48
ATOM     48  S   UNL A   1      52.169  28.022  28.042  1.00  0.00     0.124 S 
ATOM     49  O   UNL A   1      52.593  27.669  29.395  1.00  0.00    -0.237 OA
ATOM     50  O   UNL A   1      52.069  26.923  27.101  1.00  0.00    -0.237 OA
ATOM     51  O   UNL A   1      52.753  29.257  27.508  1.00  0.00    -0.744 OA
ENDBRANCH  47  48
ENDBRANCH  26  40
BRANCH  27  52
ATOM     52  C   UNL A   1      38.391  32.441  30.870  1.00  0.00     0.058 A 
ATOM     53  C   UNL A   1      37.783  32.022  32.059  1.00  0.00     0.135 A 
ATOM     54  C   UNL A   1      37.650  33.309  30.056  1.00  0.00     0.135 A 
ATOM     55  F   UNL A   1      38.416  31.159  32.868  1.00  0.00    -0.206 F 
ATOM     56  C   UNL A   1      36.513  32.476  32.437  1.00  0.00     0.059 A 
ATOM     57  C   UNL A   1      36.404  33.813  30.422  1.00  0.00     0.059 A 
ATOM     58  F   UNL A   1      38.152  33.681  28.879  1.00  0.00    -0.206 F 
ATOM     59  C   UNL A   1      35.840  33.388  31.619  1.00  0.00     0.060 A 
BRANCH  59  60
ATOM     60  S   UNL A   1      34.244  34.046  32.155  1.00  0.00     0.124 S 
ATOM     61  O   UNL A   1      33.647  32.883  32.803  1.00  0.00    -0.237 OA
ATOM     62  O   UNL A   1      34.647  35.135  33.039  1.00  0.00    -0.237 OA
ATOM     63  O   UNL A   1      33.616  34.465  30.906  1.00  0.00    -0.744 OA
ENDBRANCH  59  60
ENDBRANCH  27  52
BRANCH  39  64
ATOM     64  C   UNL A   1      44.763  34.987  31.998  1.00  0.00     0.058 A 
ATOM     65  C   UNL A   1      44.827  36.141  31.212  1.00  0.00     0.135 A 
ATOM     66  C   UNL A   1      45.069  35.077  33.364  1.00  0.00     0.135 A 
ATOM     67  F   UNL A   1      44.568  36.083  29.896  1.00  0.00    -0.206 F 
ATOM     68  C   UNL A   1      45.177  37.361  31.771  1.00  0.00     0.059 A 
ATOM     69  C   UNL A   1      45.391  36.290  33.949  1.00  0.00     0.059 A 
ATOM     70  F   UNL A   1      45.022  33.984  34.144  1.00  0.00    -0.206 F 
ATOM     71  C   UNL A   1      45.442  37.425  33.142  1.00  0.00     0.060 A 
BRANCH  71  72
ATOM     72  S   UNL A   1      45.803  39.031  33.873  1.00  0.00     0.124 S 
ATOM     73  O   UNL A   1      44.535  39.727  33.685  1.00  0.00    -0.237 OA
ATOM     74  O   UNL A   1      46.136  38.676  35.249  1.00  0.00    -0.237 OA
ATOM     75  O   UNL A   1      46.918  39.525  33.071  1.00  0.00    -0.744 OA
ENDBRANCH  71  72
ENDBRANCH  39  64
ENDBRANCH  13  14
ENDBRANCH   6   8
ENDBRANCH   5   6
ENDBRANCH   4   5
ENDBRANCH   3   4
ENDBRANCH   2   3
ENDBRANCH   1   2
BRANCH   1  76
ATOM     76  C   UNL A   1      34.511  22.163  25.389  1.00  0.00     0.188 C 
BRANCH  76  77
ATOM     77  O   UNL A   1      33.963  21.515  24.247  1.00  0.00    -0.376 OA
BRANCH  77  78
ATOM     78  C   UNL A   1      32.558  21.569  24.061  1.00  0.00     0.202 C 
BRANCH  78  79
ATOM     79  C   UNL A   1      31.913  22.805  23.419  1.00  0.00     0.261 C 
BRANCH  79  80
ATOM     80  O   UNL A   1      31.647  23.966  24.223  1.00  0.00    -0.463 OA
BRANCH  80  81
ATOM     81  C   UNL A   1      30.562  24.704  23.853  1.00  0.00     0.312 C 
ATOM     82  O   UNL A   1      29.692  24.295  23.089  1.00  0.00    -0.252 OA
BRANCH  81  83
ATOM     83  C   UNL A   1      30.546  26.131  24.412  1.00  0.00     0.075 C 
ATOM     84  C   UNL A   1      29.110  26.695  24.548  1.00  0.00     0.040 C 
ATOM     85  C   UNL A   1      31.452  27.050  23.486  1.00  0.00     0.040 C 
ATOM     86  C   UNL A   1      28.650  27.202  23.189  1.00  0.00     0.119 C 
ATOM     87  C   UNL A   1      30.764  27.826  22.343  1.00  0.00     0.119 C 
ATOM     88  N   UNL A   1      29.521  28.315  22.878  1.00  0.00    -0.356 N 
BRANCH  83  89
ATOM     89  C   UNL A   1      31.243  26.034  25.824  1.00  0.00     0.056 C 
BRANCH  89  90
ATOM     90  C   UNL A   1      32.144  27.194  26.220  1.00  0.00    -0.028 A 
ATOM     91  C   UNL A   1      31.545  28.353  26.747  1.00  0.00     0.005 A 
ATOM     92  C   UNL A   1      33.546  27.183  26.114  1.00  0.00     0.044 A 
ATOM     93  C   UNL A   1      32.316  29.400  27.256  1.00  0.00     0.000 A 
ATOM     94  C   UNL A   1      34.317  28.190  26.706  1.00  0.00     0.021 A 
ATOM     95  Cl  UNL A   1      34.407  26.034  25.155  1.00  0.00    -0.084 Cl
ATOM     96  C   UNL A   1      33.702  29.294  27.287  1.00  0.00     0.002 A 
ENDBRANCH  89  90
ENDBRANCH  83  89
BRANCH  88  97
ATOM     97  C   UNL A   1      29.049  29.552  22.483  1.00  0.00     0.141 A 
ATOM     98  N   UNL A   1      28.492  29.706  21.256  1.00  0.00    -0.219 NA
ATOM     99  C   UNL A   1      29.273  30.742  23.223  1.00  0.00     0.061 A 
ATOM    100  C   UNL A   1      28.044  30.928  20.882  1.00  0.00     0.226 A 
ATOM    101  C   UNL A   1      28.737  31.921  22.714  1.00  0.00     0.142 A 
ATOM    102  C   UNL A   1      30.001  31.124  24.387  1.00  0.00     0.033 A 
ATOM    103  N   UNL A   1      28.078  32.080  21.563  1.00  0.00    -0.218 NA
ATOM    104  N   UNL A   1      29.026  32.944  23.572  1.00  0.00    -0.346 N 
ATOM    105  C   UNL A   1      29.924  32.499  24.502  1.00  0.00     0.085 A 
ATOM    106  H   UNL A   1      28.650  33.853  23.527  1.00  0.00     0.167 HD
ENDBRANCH  88  97
ENDBRANCH  81  83
ENDBRANCH  80  81
ENDBRANCH  79  80
ENDBRANCH  78  79
ENDBRANCH  77  78
ENDBRANCH  76  77
ENDBRANCH   1  76
TORSDOF 23
ENDMDL
