MODEL 1
REMARK VINA RESULT:     -10.9      0.000      0.000
REMARK SMILES Cc1ccccc1NC(=O)CSc1nc(C(=O)OCCOCCOCCOC(=O)c2ccc(-c3c4nc(c(-c5c(F)cc(S(=O)(=O)[O-])cc5F)c5ccc([nH]5)c(-c5c(F)cc(S(=O)(=O)[O-])cc5F)c5nc(c(-c6c(F)cc(S(=O)(=O)[O-])cc6F)c6ccc3[nH]6)C=C5)C=C4)cc2)c2ccccc2n1
REMARK SMILES IDX 22 1 21 2 20 3 19 4 18 5 16 6 17 7 15 8 13 9 14 10 102 11
REMARK SMILES IDX 101 12 96 13 100 14 97 15 99 16 98 17 12 18 11 19 9 20 8 21
REMARK SMILES IDX 10 23 7 24 1 25 2 26 3 27 4 28 6 29 5 30 23 31 24 32 25 33
REMARK SMILES IDX 26 34 27 35 28 36 29 37 30 38 31 39 95 40 32 41 94 42 33 43
REMARK SMILES IDX 34 44 35 45 88 46 36 47 93 48 87 49 89 50 37 51 92 52 86 53
REMARK SMILES IDX 85 54 38 56 72 57 51 58 71 59 52 60 55 61 70 62 90 63 53 64
REMARK SMILES IDX 54 65 69 67 91 68 56 69 39 70 40 71 49 72 41 73 42 74 48 75
REMARK SMILES IDX 50 76 43 77 44 78 45 79 46 80 47 81 73 82 74 83 83 84 75 85
REMARK SMILES IDX 76 86 82 87 84 88 77 89 78 90 79 91 80 92 81 93 57 94 58 95
REMARK SMILES IDX 67 96 59 97 60 98 66 99 68 100 61 101 62 102 63 103 64 104
REMARK SMILES IDX 65 105
REMARK H PARENT 8 22 89 55 55 66
REMARK Flexibility Score: inf
ROOT
ATOM      1  C   UNL A   1      34.214  33.607  28.057  1.00  0.00     0.188 C 
ENDROOT
BRANCH   1   2
ATOM      2  O   UNL A   1      34.230  32.238  28.452  1.00  0.00    -0.376 OA
BRANCH   2   3
ATOM      3  C   UNL A   1      33.310  31.493  27.601  1.00  0.00     0.202 C 
BRANCH   3   4
ATOM      4  C   UNL A   1      33.979  30.140  27.083  1.00  0.00     0.261 C 
BRANCH   4   5
ATOM      5  O   UNL A   1      33.145  28.775  26.893  1.00  0.00    -0.458 OA
BRANCH   5   6
ATOM      6  C   UNL A   1      31.887  28.182  27.069  1.00  0.00     0.357 C 
ATOM      7  O   UNL A   1      31.114  28.211  28.013  1.00  0.00    -0.244 OA
BRANCH   6   8
ATOM      8  C   UNL A   1      31.475  27.151  26.090  1.00  0.00     0.160 A 
ATOM      9  C   UNL A   1      31.863  25.082  25.170  1.00  0.00     0.189 A 
ATOM     10  N   UNL A   1      31.886  25.846  26.267  1.00  0.00    -0.215 NA
ATOM     11  N   UNL A   1      31.483  25.543  23.960  1.00  0.00    -0.222 NA
ATOM     12  C   UNL A   1      31.134  26.834  23.829  1.00  0.00     0.076 A 
ATOM     13  C   UNL A   1      31.105  27.717  24.892  1.00  0.00     0.034 A 
ATOM     14  C   UNL A   1      30.809  27.357  22.588  1.00  0.00     0.029 A 
ATOM     15  C   UNL A   1      30.819  29.095  24.720  1.00  0.00     0.013 A 
ATOM     16  C   UNL A   1      30.496  28.714  22.406  1.00  0.00     0.002 A 
ATOM     17  C   UNL A   1      30.512  29.592  23.476  1.00  0.00     0.001 A 
BRANCH   9  18
ATOM     18  S   UNL A   1      31.989  23.301  25.210  1.00  0.00    -0.076 SA
BRANCH  18  19
ATOM     19  C   UNL A   1      33.702  22.858  25.627  1.00  0.00     0.178 C 
BRANCH  19  20
ATOM     20  C   UNL A   1      34.325  21.713  24.841  1.00  0.00     0.234 C 
ATOM     21  N   UNL A   1      35.652  21.395  24.792  1.00  0.00    -0.325 N 
ATOM     22  H   UNL A   1      35.829  20.571  24.283  1.00  0.00     0.169 HD
ATOM     23  O   UNL A   1      33.594  21.011  24.128  1.00  0.00    -0.274 OA
BRANCH  21  24
ATOM     24  C   UNL A   1      36.820  21.981  25.306  1.00  0.00     0.044 A 
ATOM     25  C   UNL A   1      38.124  19.782  24.921  1.00  0.00     0.046 C 
ATOM     26  C   UNL A   1      38.000  21.210  25.391  1.00  0.00    -0.027 A 
ATOM     27  C   UNL A   1      39.142  21.770  25.997  1.00  0.00     0.005 A 
ATOM     28  C   UNL A   1      39.139  23.082  26.460  1.00  0.00     0.000 A 
ATOM     29  C   UNL A   1      36.858  23.321  25.703  1.00  0.00     0.026 A 
ATOM     30  C   UNL A   1      38.006  23.867  26.285  1.00  0.00     0.002 A 
ENDBRANCH  21  24
ENDBRANCH  19  20
ENDBRANCH  18  19
ENDBRANCH   9  18
ENDBRANCH   6   8
ENDBRANCH   5   6
ENDBRANCH   4   5
ENDBRANCH   3   4
ENDBRANCH   2   3
ENDBRANCH   1   2
BRANCH   1  31
ATOM     31  C   UNL A   1      33.439  34.590  28.914  1.00  0.00     0.188 C 
BRANCH  31  32
ATOM     32  O   UNL A   1      33.229  34.296  30.284  1.00  0.00    -0.376 OA
BRANCH  32  33
ATOM     33  C   UNL A   1      34.364  34.191  31.138  1.00  0.00     0.202 C 
BRANCH  33  34
ATOM     34  C   UNL A   1      34.717  32.864  31.879  1.00  0.00     0.261 C 
BRANCH  34  35
ATOM     35  O   UNL A   1      35.982  32.819  32.568  1.00  0.00    -0.460 OA
BRANCH  35  36
ATOM     36  C   UNL A   1      37.124  33.042  31.807  1.00  0.00     0.338 C 
ATOM     37  O   UNL A   1      37.818  34.042  31.929  1.00  0.00    -0.246 OA
BRANCH  36  38
ATOM     38  C   UNL A   1      37.705  31.732  31.379  1.00  0.00     0.060 A 
ATOM     39  C   UNL A   1      38.264  30.702  32.124  1.00  0.00     0.016 A 
ATOM     40  C   UNL A   1      37.736  31.548  30.037  1.00  0.00     0.016 A 
ATOM     41  C   UNL A   1      39.083  29.667  31.509  1.00  0.00     0.010 A 
ATOM     42  C   UNL A   1      38.686  30.650  29.523  1.00  0.00     0.010 A 
ATOM     43  C   UNL A   1      39.453  29.679  30.155  1.00  0.00    -0.014 A 
BRANCH  43  44
ATOM     44  C   UNL A   1      40.782  29.022  29.561  1.00  0.00     0.031 A 
ATOM     45  C   UNL A   1      41.237  27.574  29.057  1.00  0.00     0.074 A 
ATOM     46  C   UNL A   1      41.798  29.911  29.480  1.00  0.00     0.049 A 
ATOM     47  N   UNL A   1      42.112  26.761  29.613  1.00  0.00    -0.248 NA
ATOM     48  C   UNL A   1      40.836  26.962  27.772  1.00  0.00     0.031 C 
ATOM     49  C   UNL A   1      43.180  29.666  29.097  1.00  0.00     0.029 A 
ATOM     50  N   UNL A   1      41.810  31.202  30.011  1.00  0.00    -0.354 N 
ATOM     51  C   UNL A   1      42.288  25.634  28.766  1.00  0.00     0.074 A 
ATOM     52  C   UNL A   1      41.307  25.723  27.772  1.00  0.00     0.031 C 
ATOM     53  C   UNL A   1      43.939  30.585  29.718  1.00  0.00     0.029 A 
ATOM     54  C   UNL A   1      43.083  31.429  30.541  1.00  0.00     0.049 A 
ATOM     55  H   UNL A   1      41.058  31.838  30.011  1.00  0.00     0.167 HD
ATOM     56  C   UNL A   1      43.359  24.791  28.658  1.00  0.00     0.037 A 
ATOM     57  C   UNL A   1      43.183  31.608  31.891  1.00  0.00     0.037 A 
ATOM     58  C   UNL A   1      44.444  25.399  29.376  1.00  0.00     0.049 A 
ATOM     59  C   UNL A   1      43.726  30.366  32.599  1.00  0.00     0.074 A 
ATOM     60  C   UNL A   1      45.391  26.324  28.970  1.00  0.00     0.029 A 
ATOM     61  N   UNL A   1      44.295  25.551  30.740  1.00  0.00    -0.354 N 
ATOM     62  N   UNL A   1      44.105  29.266  31.989  1.00  0.00    -0.248 NA
ATOM     63  C   UNL A   1      43.913  30.265  34.045  1.00  0.00     0.031 C 
ATOM     64  C   UNL A   1      45.660  27.168  30.086  1.00  0.00     0.029 A 
ATOM     65  C   UNL A   1      44.956  26.688  31.178  1.00  0.00     0.049 A 
ATOM     66  H   UNL A   1      43.789  24.938  31.321  1.00  0.00     0.167 HD
ATOM     67  C   UNL A   1      44.499  28.319  32.909  1.00  0.00     0.074 A 
ATOM     68  C   UNL A   1      44.412  29.022  34.176  1.00  0.00     0.031 C 
ATOM     69  C   UNL A   1      44.854  27.034  32.590  1.00  0.00     0.037 A 
BRANCH  56  70
ATOM     70  C   UNL A   1      43.422  23.735  27.530  1.00  0.00     0.058 A 
ATOM     71  C   UNL A   1      42.690  22.535  27.562  1.00  0.00     0.135 A 
ATOM     72  C   UNL A   1      44.317  23.835  26.427  1.00  0.00     0.135 A 
ATOM     73  F   UNL A   1      41.737  22.340  28.485  1.00  0.00    -0.206 F 
ATOM     74  C   UNL A   1      42.923  21.470  26.670  1.00  0.00     0.059 A 
ATOM     75  C   UNL A   1      44.616  22.762  25.565  1.00  0.00     0.059 A 
ATOM     76  F   UNL A   1      44.984  24.979  26.198  1.00  0.00    -0.206 F 
ATOM     77  C   UNL A   1      43.918  21.571  25.701  1.00  0.00     0.060 A 
BRANCH  77  78
ATOM     78  S   UNL A   1      44.326  20.134  24.669  1.00  0.00     0.124 S 
ATOM     79  O   UNL A   1      43.136  19.297  24.795  1.00  0.00    -0.237 OA
ATOM     80  O   UNL A   1      44.533  20.747  23.361  1.00  0.00    -0.237 OA
ATOM     81  O   UNL A   1      45.525  19.589  25.304  1.00  0.00    -0.744 OA
ENDBRANCH  77  78
ENDBRANCH  56  70
BRANCH  57  82
ATOM     82  C   UNL A   1      42.314  32.746  32.378  1.00  0.00     0.058 A 
ATOM     83  C   UNL A   1      41.331  32.395  33.342  1.00  0.00     0.135 A 
ATOM     84  C   UNL A   1      42.521  34.123  32.215  1.00  0.00     0.135 A 
ATOM     85  F   UNL A   1      40.995  31.105  33.511  1.00  0.00    -0.206 F 
ATOM     86  C   UNL A   1      40.762  33.306  34.228  1.00  0.00     0.059 A 
ATOM     87  C   UNL A   1      41.913  35.072  33.069  1.00  0.00     0.059 A 
ATOM     88  F   UNL A   1      43.413  34.577  31.322  1.00  0.00    -0.206 F 
ATOM     89  C   UNL A   1      41.106  34.642  34.127  1.00  0.00     0.060 A 
BRANCH  89  90
ATOM     90  S   UNL A   1      40.738  35.734  35.533  1.00  0.00     0.124 S 
ATOM     91  O   UNL A   1      39.431  36.268  35.178  1.00  0.00    -0.237 OA
ATOM     92  O   UNL A   1      40.767  34.815  36.670  1.00  0.00    -0.237 OA
ATOM     93  O   UNL A   1      41.855  36.667  35.492  1.00  0.00    -0.744 OA
ENDBRANCH  89  90
ENDBRANCH  57  82
BRANCH  69  94
ATOM     94  C   UNL A   1      45.160  25.907  33.569  1.00  0.00     0.058 A 
ATOM     95  C   UNL A   1      44.209  25.271  34.378  1.00  0.00     0.135 A 
ATOM     96  C   UNL A   1      46.450  25.304  33.558  1.00  0.00     0.135 A 
ATOM     97  F   UNL A   1      42.935  25.686  34.414  1.00  0.00    -0.206 F 
ATOM     98  C   UNL A   1      44.522  24.154  35.160  1.00  0.00     0.059 A 
ATOM     99  C   UNL A   1      46.756  24.142  34.256  1.00  0.00     0.059 A 
ATOM    100  F   UNL A   1      47.460  25.821  32.839  1.00  0.00    -0.206 F 
ATOM    101  C   UNL A   1      45.795  23.592  35.087  1.00  0.00     0.060 A 
BRANCH 101 102
ATOM    102  S   UNL A   1      46.224  22.143  36.065  1.00  0.00     0.124 S 
ATOM    103  O   UNL A   1      45.756  21.063  35.205  1.00  0.00    -0.237 OA
ATOM    104  O   UNL A   1      47.669  22.251  36.213  1.00  0.00    -0.237 OA
ATOM    105  O   UNL A   1      45.457  22.347  37.299  1.00  0.00    -0.744 OA
ENDBRANCH 101 102
ENDBRANCH  69  94
ENDBRANCH  43  44
ENDBRANCH  36  38
ENDBRANCH  35  36
ENDBRANCH  34  35
ENDBRANCH  33  34
ENDBRANCH  32  33
ENDBRANCH  31  32
ENDBRANCH   1  31
TORSDOF 24
ENDMDL
MODEL 2
REMARK VINA RESULT:     -10.1      1.664      2.178
REMARK SMILES Cc1ccccc1NC(=O)CSc1nc(C(=O)OCCOCCOCCOC(=O)c2ccc(-c3c4nc(c(-c5c(F)cc(S(=O)(=O)[O-])cc5F)c5ccc([nH]5)c(-c5c(F)cc(S(=O)(=O)[O-])cc5F)c5nc(c(-c6c(F)cc(S(=O)(=O)[O-])cc6F)c6ccc3[nH]6)C=C5)C=C4)cc2)c2ccccc2n1
REMARK SMILES IDX 22 1 21 2 20 3 19 4 18 5 16 6 17 7 15 8 13 9 14 10 102 11
REMARK SMILES IDX 101 12 96 13 100 14 97 15 99 16 98 17 12 18 11 19 9 20 8 21
REMARK SMILES IDX 10 23 7 24 1 25 2 26 3 27 4 28 6 29 5 30 23 31 24 32 25 33
REMARK SMILES IDX 26 34 27 35 28 36 29 37 30 38 31 39 95 40 32 41 94 42 33 43
REMARK SMILES IDX 34 44 35 45 88 46 36 47 93 48 87 49 89 50 37 51 92 52 86 53
REMARK SMILES IDX 85 54 38 56 72 57 51 58 71 59 52 60 55 61 70 62 90 63 53 64
REMARK SMILES IDX 54 65 69 67 91 68 56 69 39 70 40 71 49 72 41 73 42 74 48 75
REMARK SMILES IDX 50 76 43 77 44 78 45 79 46 80 47 81 73 82 74 83 83 84 75 85
REMARK SMILES IDX 76 86 82 87 84 88 77 89 78 90 79 91 80 92 81 93 57 94 58 95
REMARK SMILES IDX 67 96 59 97 60 98 66 99 68 100 61 101 62 102 63 103 64 104
REMARK SMILES IDX 65 105
REMARK H PARENT 8 22 89 55 55 66
REMARK Flexibility Score: inf
ROOT
ATOM      1  C   UNL A   1      35.077  33.893  28.275  1.00  0.00     0.188 C 
ENDROOT
BRANCH   1   2
ATOM      2  O   UNL A   1      34.634  32.702  27.632  1.00  0.00    -0.376 OA
BRANCH   2   3
ATOM      3  C   UNL A   1      35.466  31.590  28.077  1.00  0.00     0.202 C 
BRANCH   3   4
ATOM      4  C   UNL A   1      34.976  30.215  27.434  1.00  0.00     0.261 C 
BRANCH   4   5
ATOM      5  O   UNL A   1      33.706  30.120  26.447  1.00  0.00    -0.458 OA
BRANCH   5   6
ATOM      6  C   UNL A   1      32.310  29.993  26.406  1.00  0.00     0.357 C 
ATOM      7  O   UNL A   1      31.430  30.694  26.879  1.00  0.00    -0.244 OA
BRANCH   6   8
ATOM      8  C   UNL A   1      31.756  28.706  25.933  1.00  0.00     0.160 A 
ATOM      9  C   UNL A   1      32.086  26.458  25.592  1.00  0.00     0.189 A 
ATOM     10  N   UNL A   1      32.326  27.525  26.362  1.00  0.00    -0.215 NA
ATOM     11  N   UNL A   1      31.352  26.516  24.461  1.00  0.00    -0.222 NA
ATOM     12  C   UNL A   1      30.855  27.699  24.062  1.00  0.00     0.076 A 
ATOM     13  C   UNL A   1      31.025  28.868  24.780  1.00  0.00     0.034 A 
ATOM     14  C   UNL A   1      30.160  27.807  22.869  1.00  0.00     0.029 A 
ATOM     15  C   UNL A   1      30.567  30.121  24.299  1.00  0.00     0.013 A 
ATOM     16  C   UNL A   1      29.677  29.038  22.392  1.00  0.00     0.002 A 
ATOM     17  C   UNL A   1      29.892  30.204  23.106  1.00  0.00     0.001 A 
BRANCH   9  18
ATOM     18  S   UNL A   1      32.392  24.778  26.117  1.00  0.00    -0.076 SA
BRANCH  18  19
ATOM     19  C   UNL A   1      31.085  23.718  25.428  1.00  0.00     0.178 C 
BRANCH  19  20
ATOM     20  C   UNL A   1      31.237  23.301  23.972  1.00  0.00     0.234 C 
ATOM     21  N   UNL A   1      32.199  22.476  23.464  1.00  0.00    -0.325 N 
ATOM     22  H   UNL A   1      32.068  22.279  22.509  1.00  0.00     0.169 HD
ATOM     23  O   UNL A   1      30.461  23.776  23.131  1.00  0.00    -0.274 OA
BRANCH  21  24
ATOM     24  C   UNL A   1      33.332  21.845  24.002  1.00  0.00     0.044 A 
ATOM     25  C   UNL A   1      34.771  23.929  23.481  1.00  0.00     0.046 C 
ATOM     26  C   UNL A   1      34.570  22.525  23.993  1.00  0.00    -0.027 A 
ATOM     27  C   UNL A   1      35.725  21.852  24.443  1.00  0.00     0.005 A 
ATOM     28  C   UNL A   1      35.651  20.556  24.942  1.00  0.00     0.000 A 
ATOM     29  C   UNL A   1      33.263  20.574  24.579  1.00  0.00     0.026 A 
ATOM     30  C   UNL A   1      34.415  19.928  25.039  1.00  0.00     0.002 A 
ENDBRANCH  21  24
ENDBRANCH  19  20
ENDBRANCH  18  19
ENDBRANCH   9  18
ENDBRANCH   6   8
ENDBRANCH   5   6
ENDBRANCH   4   5
ENDBRANCH   3   4
ENDBRANCH   2   3
ENDBRANCH   1   2
BRANCH   1  31
ATOM     31  C   UNL A   1      34.035  34.785  28.923  1.00  0.00     0.188 C 
BRANCH  31  32
ATOM     32  O   UNL A   1      33.647  34.535  30.262  1.00  0.00    -0.376 OA
BRANCH  32  33
ATOM     33  C   UNL A   1      34.447  33.658  31.049  1.00  0.00     0.202 C 
BRANCH  33  34
ATOM     34  C   UNL A   1      35.611  34.186  31.945  1.00  0.00     0.261 C 
BRANCH  34  35
ATOM     35  O   UNL A   1      36.771  33.342  32.070  1.00  0.00    -0.460 OA
BRANCH  35  36
ATOM     36  C   UNL A   1      36.743  32.373  33.067  1.00  0.00     0.338 C 
ATOM     37  O   UNL A   1      35.867  32.325  33.920  1.00  0.00    -0.246 OA
BRANCH  36  38
ATOM     38  C   UNL A   1      37.439  31.139  32.589  1.00  0.00     0.060 A 
ATOM     39  C   UNL A   1      38.096  30.139  33.293  1.00  0.00     0.016 A 
ATOM     40  C   UNL A   1      37.476  31.007  31.242  1.00  0.00     0.016 A 
ATOM     41  C   UNL A   1      39.002  29.206  32.638  1.00  0.00     0.010 A 
ATOM     42  C   UNL A   1      38.499  30.218  30.690  1.00  0.00     0.010 A 
ATOM     43  C   UNL A   1      39.358  29.301  31.283  1.00  0.00    -0.014 A 
BRANCH  43  44
ATOM     44  C   UNL A   1      40.736  28.790  30.659  1.00  0.00     0.031 A 
ATOM     45  C   UNL A   1      41.245  27.497  29.868  1.00  0.00     0.074 A 
ATOM     46  C   UNL A   1      41.747  29.665  30.871  1.00  0.00     0.049 A 
ATOM     47  N   UNL A   1      42.082  26.570  30.285  1.00  0.00    -0.248 NA
ATOM     48  C   UNL A   1      40.955  27.207  28.447  1.00  0.00     0.031 C 
ATOM     49  C   UNL A   1      43.157  29.505  30.552  1.00  0.00     0.029 A 
ATOM     50  N   UNL A   1      41.702  30.795  31.688  1.00  0.00    -0.354 N 
ATOM     51  C   UNL A   1      42.338  25.671  29.214  1.00  0.00     0.074 A 
ATOM     52  C   UNL A   1      41.437  25.999  28.195  1.00  0.00     0.031 C 
ATOM     53  C   UNL A   1      43.855  30.247  31.430  1.00  0.00     0.029 A 
ATOM     54  C   UNL A   1      42.926  30.881  32.356  1.00  0.00     0.049 A 
ATOM     55  H   UNL A   1      40.946  31.419  31.778  1.00  0.00     0.167 HD
ATOM     56  C   UNL A   1      43.422  24.868  28.997  1.00  0.00     0.037 A 
ATOM     57  C   UNL A   1      42.918  30.737  33.715  1.00  0.00     0.037 A 
ATOM     58  C   UNL A   1      44.440  25.282  29.922  1.00  0.00     0.049 A 
ATOM     59  C   UNL A   1      43.416  29.359  34.153  1.00  0.00     0.074 A 
ATOM     60  C   UNL A   1      45.407  26.268  29.821  1.00  0.00     0.029 A 
ATOM     61  N   UNL A   1      44.182  25.111  31.267  1.00  0.00    -0.354 N 
ATOM     62  N   UNL A   1      43.853  28.430  33.334  1.00  0.00    -0.248 NA
ATOM     63  C   UNL A   1      43.488  28.921  35.544  1.00  0.00     0.031 C 
ATOM     64  C   UNL A   1      45.578  26.825  31.122  1.00  0.00     0.029 A 
ATOM     65  C   UNL A   1      44.794  26.108  32.011  1.00  0.00     0.049 A 
ATOM     66  H   UNL A   1      43.638  24.382  31.646  1.00  0.00     0.167 HD
ATOM     67  C   UNL A   1      44.183  27.291  34.034  1.00  0.00     0.074 A 
ATOM     68  C   UNL A   1      43.988  27.677  35.420  1.00  0.00     0.031 C 
ATOM     69  C   UNL A   1      44.577  26.113  33.452  1.00  0.00     0.037 A 
BRANCH  56  70
ATOM     70  C   UNL A   1      43.586  24.106  27.661  1.00  0.00     0.058 A 
ATOM     71  C   UNL A   1      43.114  22.796  27.465  1.00  0.00     0.135 A 
ATOM     72  C   UNL A   1      44.334  24.621  26.565  1.00  0.00     0.135 A 
ATOM     73  F   UNL A   1      42.312  22.215  28.369  1.00  0.00    -0.206 F 
ATOM     74  C   UNL A   1      43.468  22.013  26.348  1.00  0.00     0.059 A 
ATOM     75  C   UNL A   1      44.757  23.839  25.473  1.00  0.00     0.059 A 
ATOM     76  F   UNL A   1      44.734  25.904  26.561  1.00  0.00    -0.206 F 
ATOM     77  C   UNL A   1      44.326  22.523  25.376  1.00  0.00     0.060 A 
BRANCH  77  78
ATOM     78  S   UNL A   1      44.911  21.452  24.033  1.00  0.00     0.124 S 
ATOM     79  O   UNL A   1      44.180  20.209  24.267  1.00  0.00    -0.237 OA
ATOM     80  O   UNL A   1      44.515  22.204  22.848  1.00  0.00    -0.237 OA
ATOM     81  O   UNL A   1      46.351  21.365  24.270  1.00  0.00    -0.744 OA
ENDBRANCH  77  78
ENDBRANCH  56  70
BRANCH  57  82
ATOM     82  C   UNL A   1      42.000  31.736  34.384  1.00  0.00     0.058 A 
ATOM     83  C   UNL A   1      40.947  31.177  35.157  1.00  0.00     0.135 A 
ATOM     84  C   UNL A   1      42.205  33.111  34.566  1.00  0.00     0.135 A 
ATOM     85  F   UNL A   1      40.612  29.887  34.991  1.00  0.00    -0.206 F 
ATOM     86  C   UNL A   1      40.300  31.859  36.184  1.00  0.00     0.059 A 
ATOM     87  C   UNL A   1      41.521  33.838  35.568  1.00  0.00     0.059 A 
ATOM     88  F   UNL A   1      43.161  33.754  33.879  1.00  0.00    -0.206 F 
ATOM     89  C   UNL A   1      40.636  33.179  36.428  1.00  0.00     0.060 A 
BRANCH  89  90
ATOM     90  S   UNL A   1      40.146  33.912  38.016  1.00  0.00     0.124 S 
ATOM     91  O   UNL A   1      40.986  35.100  38.083  1.00  0.00    -0.237 OA
ATOM     92  O   UNL A   1      38.715  34.149  37.834  1.00  0.00    -0.237 OA
ATOM     93  O   UNL A   1      40.458  32.842  38.954  1.00  0.00    -0.744 OA
ENDBRANCH  89  90
ENDBRANCH  57  82
BRANCH  69  94
ATOM     94  C   UNL A   1      44.816  24.785  34.160  1.00  0.00     0.058 A 
ATOM     95  C   UNL A   1      43.813  23.865  34.494  1.00  0.00     0.135 A 
ATOM     96  C   UNL A   1      46.150  24.325  34.348  1.00  0.00     0.135 A 
ATOM     97  F   UNL A   1      42.518  24.140  34.286  1.00  0.00    -0.206 F 
ATOM     98  C   UNL A   1      44.104  22.603  35.024  1.00  0.00     0.059 A 
ATOM     99  C   UNL A   1      46.462  23.044  34.787  1.00  0.00     0.059 A 
ATOM    100  F   UNL A   1      47.207  25.111  34.085  1.00  0.00    -0.206 F 
ATOM    101  C   UNL A   1      45.430  22.199  35.159  1.00  0.00     0.060 A 
BRANCH 101 102
ATOM    102  S   UNL A   1      45.839  20.575  35.819  1.00  0.00     0.124 S 
ATOM    103  O   UNL A   1      45.661  20.789  37.249  1.00  0.00    -0.237 OA
ATOM    104  O   UNL A   1      44.866  19.697  35.184  1.00  0.00    -0.237 OA
ATOM    105  O   UNL A   1      47.225  20.386  35.377  1.00  0.00    -0.744 OA
ENDBRANCH 101 102
ENDBRANCH  69  94
ENDBRANCH  43  44
ENDBRANCH  36  38
ENDBRANCH  35  36
ENDBRANCH  34  35
ENDBRANCH  33  34
ENDBRANCH  32  33
ENDBRANCH  31  32
ENDBRANCH   1  31
TORSDOF 24
ENDMDL
MODEL 3
REMARK VINA RESULT:      -9.8      4.429     11.474
REMARK SMILES Cc1ccccc1NC(=O)CSc1nc(C(=O)OCCOCCOCCOC(=O)c2ccc(-c3c4nc(c(-c5c(F)cc(S(=O)(=O)[O-])cc5F)c5ccc([nH]5)c(-c5c(F)cc(S(=O)(=O)[O-])cc5F)c5nc(c(-c6c(F)cc(S(=O)(=O)[O-])cc6F)c6ccc3[nH]6)C=C5)C=C4)cc2)c2ccccc2n1
REMARK SMILES IDX 22 1 21 2 20 3 19 4 18 5 16 6 17 7 15 8 13 9 14 10 102 11
REMARK SMILES IDX 101 12 96 13 100 14 97 15 99 16 98 17 12 18 11 19 9 20 8 21
REMARK SMILES IDX 10 23 7 24 1 25 2 26 3 27 4 28 6 29 5 30 23 31 24 32 25 33
REMARK SMILES IDX 26 34 27 35 28 36 29 37 30 38 31 39 95 40 32 41 94 42 33 43
REMARK SMILES IDX 34 44 35 45 88 46 36 47 93 48 87 49 89 50 37 51 92 52 86 53
REMARK SMILES IDX 85 54 38 56 72 57 51 58 71 59 52 60 55 61 70 62 90 63 53 64
REMARK SMILES IDX 54 65 69 67 91 68 56 69 39 70 40 71 49 72 41 73 42 74 48 75
REMARK SMILES IDX 50 76 43 77 44 78 45 79 46 80 47 81 73 82 74 83 83 84 75 85
REMARK SMILES IDX 76 86 82 87 84 88 77 89 78 90 79 91 80 92 81 93 57 94 58 95
REMARK SMILES IDX 67 96 59 97 60 98 66 99 68 100 61 101 62 102 63 103 64 104
REMARK SMILES IDX 65 105
REMARK H PARENT 8 22 89 55 55 66
REMARK Flexibility Score: inf
ROOT
ATOM      1  C   UNL A   1      33.251  27.103  25.337  1.00  0.00     0.188 C 
ENDROOT
BRANCH   1   2
ATOM      2  O   UNL A   1      34.046  28.275  25.190  1.00  0.00    -0.376 OA
BRANCH   2   3
ATOM      3  C   UNL A   1      33.223  29.441  25.489  1.00  0.00     0.202 C 
BRANCH   3   4
ATOM      4  C   UNL A   1      33.242  29.769  27.050  1.00  0.00     0.261 C 
BRANCH   4   5
ATOM      5  O   UNL A   1      33.533  31.245  27.626  1.00  0.00    -0.458 OA
BRANCH   5   6
ATOM      6  C   UNL A   1      34.535  32.091  28.122  1.00  0.00     0.357 C 
ATOM      7  O   UNL A   1      35.138  33.011  27.594  1.00  0.00    -0.244 OA
BRANCH   6   8
ATOM      8  C   UNL A   1      35.176  31.712  29.401  1.00  0.00     0.160 A 
ATOM      9  C   UNL A   1      35.769  32.329  31.533  1.00  0.00     0.189 A 
ATOM     10  N   UNL A   1      34.871  32.417  30.547  1.00  0.00    -0.215 NA
ATOM     11  N   UNL A   1      36.911  31.617  31.427  1.00  0.00    -0.222 NA
ATOM     12  C   UNL A   1      37.185  30.985  30.274  1.00  0.00     0.076 A 
ATOM     13  C   UNL A   1      36.328  30.991  29.189  1.00  0.00     0.034 A 
ATOM     14  C   UNL A   1      38.382  30.307  30.106  1.00  0.00     0.029 A 
ATOM     15  C   UNL A   1      36.674  30.391  27.952  1.00  0.00     0.013 A 
ATOM     16  C   UNL A   1      38.726  29.683  28.895  1.00  0.00     0.002 A 
ATOM     17  C   UNL A   1      37.872  29.735  27.807  1.00  0.00     0.001 A 
BRANCH   9  18
ATOM     18  S   UNL A   1      35.437  32.832  33.214  1.00  0.00    -0.076 SA
BRANCH  18  19
ATOM     19  C   UNL A   1      36.937  32.548  34.202  1.00  0.00     0.178 C 
BRANCH  19  20
ATOM     20  C   UNL A   1      37.767  33.775  34.556  1.00  0.00     0.234 C 
ATOM     21  N   UNL A   1      38.649  34.417  33.736  1.00  0.00    -0.325 N 
ATOM     22  H   UNL A   1      39.023  35.233  34.141  1.00  0.00     0.169 HD
ATOM     23  O   UNL A   1      37.696  34.232  35.706  1.00  0.00    -0.274 OA
BRANCH  21  24
ATOM     24  C   UNL A   1      39.142  34.173  32.444  1.00  0.00     0.044 A 
ATOM     25  C   UNL A   1      40.913  32.549  33.398  1.00  0.00     0.046 C 
ATOM     26  C   UNL A   1      40.238  33.298  32.277  1.00  0.00    -0.027 A 
ATOM     27  C   UNL A   1      40.793  33.132  30.992  1.00  0.00     0.005 A 
ATOM     28  C   UNL A   1      40.243  33.772  29.885  1.00  0.00     0.000 A 
ATOM     29  C   UNL A   1      38.554  34.745  31.312  1.00  0.00     0.026 A 
ATOM     30  C   UNL A   1      39.105  34.554  30.041  1.00  0.00     0.002 A 
ENDBRANCH  21  24
ENDBRANCH  19  20
ENDBRANCH  18  19
ENDBRANCH   9  18
ENDBRANCH   6   8
ENDBRANCH   5   6
ENDBRANCH   4   5
ENDBRANCH   3   4
ENDBRANCH   2   3
ENDBRANCH   1   2
BRANCH   1  31
ATOM     31  C   UNL A   1      33.912  25.857  25.897  1.00  0.00     0.188 C 
BRANCH  31  32
ATOM     32  O   UNL A   1      34.800  25.118  25.077  1.00  0.00    -0.376 OA
BRANCH  32  33
ATOM     33  C   UNL A   1      35.141  23.792  25.467  1.00  0.00     0.202 C 
BRANCH  33  34
ATOM     34  C   UNL A   1      36.580  23.418  25.943  1.00  0.00     0.261 C 
BRANCH  34  35
ATOM     35  O   UNL A   1      37.546  24.485  25.997  1.00  0.00    -0.460 OA
BRANCH  35  36
ATOM     36  C   UNL A   1      38.752  24.213  26.632  1.00  0.00     0.338 C 
ATOM     37  O   UNL A   1      39.220  23.085  26.713  1.00  0.00    -0.246 OA
BRANCH  36  38
ATOM     38  C   UNL A   1      39.630  25.422  26.584  1.00  0.00     0.060 A 
ATOM     39  C   UNL A   1      40.587  25.811  25.656  1.00  0.00     0.016 A 
ATOM     40  C   UNL A   1      39.503  26.246  27.652  1.00  0.00     0.016 A 
ATOM     41  C   UNL A   1      41.575  26.838  25.956  1.00  0.00     0.010 A 
ATOM     42  C   UNL A   1      40.587  27.083  27.964  1.00  0.00     0.010 A 
ATOM     43  C   UNL A   1      41.704  27.439  27.218  1.00  0.00    -0.014 A 
BRANCH  43  44
ATOM     44  C   UNL A   1      43.058  28.040  27.813  1.00  0.00     0.031 A 
ATOM     45  C   UNL A   1      43.868  29.415  27.700  1.00  0.00     0.074 A 
ATOM     46  C   UNL A   1      43.706  27.153  28.604  1.00  0.00     0.049 A 
ATOM     47  N   UNL A   1      45.036  29.622  27.129  1.00  0.00    -0.248 NA
ATOM     48  C   UNL A   1      43.482  30.679  28.363  1.00  0.00     0.031 C 
ATOM     49  C   UNL A   1      45.011  27.293  29.231  1.00  0.00     0.029 A 
ATOM     50  N   UNL A   1      43.387  25.804  28.764  1.00  0.00    -0.354 N 
ATOM     51  C   UNL A   1      45.427  30.968  27.365  1.00  0.00     0.074 A 
ATOM     52  C   UNL A   1      44.321  31.610  27.932  1.00  0.00     0.031 C 
ATOM     53  C   UNL A   1      45.524  26.058  29.373  1.00  0.00     0.029 A 
ATOM     54  C   UNL A   1      44.587  25.090  28.818  1.00  0.00     0.049 A 
ATOM     55  H   UNL A   1      42.481  25.424  28.829  1.00  0.00     0.167 HD
ATOM     56  C   UNL A   1      46.679  31.514  27.391  1.00  0.00     0.037 A 
ATOM     57  C   UNL A   1      44.843  24.206  27.809  1.00  0.00     0.037 A 
ATOM     58  C   UNL A   1      47.612  30.422  27.407  1.00  0.00     0.049 A 
ATOM     59  C   UNL A   1      45.865  24.751  26.810  1.00  0.00     0.074 A 
ATOM     60  C   UNL A   1      48.131  29.691  28.463  1.00  0.00     0.029 A 
ATOM     61  N   UNL A   1      47.646  29.601  26.298  1.00  0.00    -0.354 N 
ATOM     62  N   UNL A   1      46.474  25.909  26.923  1.00  0.00    -0.248 NA
ATOM     63  C   UNL A   1      46.307  24.030  25.618  1.00  0.00     0.031 C 
ATOM     64  C   UNL A   1      48.291  28.351  28.009  1.00  0.00     0.029 A 
ATOM     65  C   UNL A   1      47.967  28.303  26.663  1.00  0.00     0.049 A 
ATOM     66  H   UNL A   1      47.467  29.896  25.376  1.00  0.00     0.167 HD
ATOM     67  C   UNL A   1      47.296  26.126  25.840  1.00  0.00     0.074 A 
ATOM     68  C   UNL A   1      47.195  24.890  25.085  1.00  0.00     0.031 C 
ATOM     69  C   UNL A   1      47.990  27.287  25.618  1.00  0.00     0.037 A 
BRANCH  56  70
ATOM     70  C   UNL A   1      46.895  32.972  27.859  1.00  0.00     0.058 A 
ATOM     71  C   UNL A   1      46.768  33.372  29.202  1.00  0.00     0.135 A 
ATOM     72  C   UNL A   1      47.120  34.049  26.956  1.00  0.00     0.135 A 
ATOM     73  F   UNL A   1      46.651  32.461  30.178  1.00  0.00    -0.206 F 
ATOM     74  C   UNL A   1      46.724  34.723  29.598  1.00  0.00     0.059 A 
ATOM     75  C   UNL A   1      47.013  35.406  27.316  1.00  0.00     0.059 A 
ATOM     76  F   UNL A   1      47.390  33.802  25.662  1.00  0.00    -0.206 F 
ATOM     77  C   UNL A   1      46.802  35.737  28.647  1.00  0.00     0.060 A 
BRANCH  77  78
ATOM     78  S   UNL A   1      46.574  37.467  29.147  1.00  0.00     0.124 S 
ATOM     79  O   UNL A   1      46.298  37.357  30.577  1.00  0.00    -0.237 OA
ATOM     80  O   UNL A   1      47.860  38.059  28.795  1.00  0.00    -0.237 OA
ATOM     81  O   UNL A   1      45.438  37.907  28.340  1.00  0.00    -0.744 OA
ENDBRANCH  77  78
ENDBRANCH  56  70
BRANCH  57  82
ATOM     82  C   UNL A   1      43.744  23.176  27.665  1.00  0.00     0.058 A 
ATOM     83  C   UNL A   1      43.226  23.014  26.353  1.00  0.00     0.135 A 
ATOM     84  C   UNL A   1      43.364  22.185  28.581  1.00  0.00     0.135 A 
ATOM     85  F   UNL A   1      43.459  23.956  25.424  1.00  0.00    -0.206 F 
ATOM     86  C   UNL A   1      42.576  21.861  25.919  1.00  0.00     0.059 A 
ATOM     87  C   UNL A   1      42.658  21.029  28.174  1.00  0.00     0.059 A 
ATOM     88  F   UNL A   1      43.779  22.239  29.856  1.00  0.00    -0.206 F 
ATOM     89  C   UNL A   1      42.348  20.840  26.823  1.00  0.00     0.060 A 
BRANCH  89  90
ATOM     90  S   UNL A   1      41.931  19.194  26.176  1.00  0.00     0.124 S 
ATOM     91  O   UNL A   1      42.484  18.311  27.193  1.00  0.00    -0.237 OA
ATOM     92  O   UNL A   1      40.472  19.241  26.093  1.00  0.00    -0.237 OA
ATOM     93  O   UNL A   1      42.603  19.197  24.883  1.00  0.00    -0.744 OA
ENDBRANCH  89  90
ENDBRANCH  57  82
BRANCH  69  94
ATOM     94  C   UNL A   1      48.799  27.639  24.375  1.00  0.00     0.058 A 
ATOM     95  C   UNL A   1      50.194  27.551  24.278  1.00  0.00     0.135 A 
ATOM     96  C   UNL A   1      48.120  27.902  23.152  1.00  0.00     0.135 A 
ATOM     97  F   UNL A   1      50.947  27.227  25.338  1.00  0.00    -0.206 F 
ATOM     98  C   UNL A   1      50.873  27.760  23.072  1.00  0.00     0.059 A 
ATOM     99  C   UNL A   1      48.768  28.021  21.928  1.00  0.00     0.059 A 
ATOM    100  F   UNL A   1      46.783  28.028  23.104  1.00  0.00    -0.206 F 
ATOM    101  C   UNL A   1      50.152  27.986  21.902  1.00  0.00     0.060 A 
BRANCH 101 102
ATOM    102  S   UNL A   1      50.993  28.238  20.331  1.00  0.00     0.124 S 
ATOM    103  O   UNL A   1      50.861  29.679  20.158  1.00  0.00    -0.237 OA
ATOM    104  O   UNL A   1      52.342  27.753  20.588  1.00  0.00    -0.237 OA
ATOM    105  O   UNL A   1      50.204  27.416  19.406  1.00  0.00    -0.744 OA
ENDBRANCH 101 102
ENDBRANCH  69  94
ENDBRANCH  43  44
ENDBRANCH  36  38
ENDBRANCH  35  36
ENDBRANCH  34  35
ENDBRANCH  33  34
ENDBRANCH  32  33
ENDBRANCH  31  32
ENDBRANCH   1  31
TORSDOF 24
ENDMDL
