MODEL 1
REMARK VINA RESULT:      -9.7      0.000      0.000
REMARK SMILES Cc1c[nH]c(C[N@H+]2C[C@@H]3CN(S(C)(=O)=O)C[C@@]3(C(=O)OCCOCCOCCOC(=O)c3ccc(-c4c5nc(c(-c6c(F)cc(S(=O)(=O)[O-])cc6F)c6ccc([nH]6)c(-c6c(F)cc(S(=O)(=O)[O-])cc6F)c6nc(c(-c7c(F)cc(S(=O)(=O)[O-])cc7F)c7ccc4[nH]7)C=C6)C=C5)cc3)C2)n1
REMARK SMILES IDX 25 1 24 2 23 3 22 4 21 5 20 6 18 7 19 8 17 9 7 10 8 11 98 12
REMARK SMILES IDX 9 14 10 15 16 16 11 17 6 18 5 19 1 20 2 21 3 22 99 23 4 24
REMARK SMILES IDX 12 26 13 27 14 28 15 29 26 30 27 31 28 32 29 33 30 34 31 35
REMARK SMILES IDX 32 36 33 37 97 38 34 39 96 40 35 41 36 42 37 43 90 44 38 45
REMARK SMILES IDX 95 46 89 47 91 48 39 49 94 50 88 51 87 52 40 54 74 55 53 56
REMARK SMILES IDX 73 57 54 58 57 59 72 60 92 61 55 62 56 63 71 65 93 66 58 67
REMARK SMILES IDX 41 68 42 69 51 70 43 71 44 72 50 73 52 74 45 75 46 76 47 77
REMARK SMILES IDX 48 78 49 79 75 80 76 81 85 82 77 83 78 84 84 85 86 86 79 87
REMARK SMILES IDX 80 88 81 89 82 90 83 91 59 92 60 93 69 94 61 95 62 96 68 97
REMARK SMILES IDX 70 98 63 99 64 100 65 101 66 102 67 103
REMARK H PARENT 7 13 4 25 91 53 57 64
REMARK Flexibility Score: inf
ROOT
ATOM      1  C   UNL A   1      40.493  21.440  27.197  1.00  0.00     0.188 C 
ENDROOT
BRANCH   1   2
ATOM      2  C   UNL A   1      39.493  22.119  26.262  1.00  0.00     0.188 C 
BRANCH   2   3
ATOM      3  O   UNL A   1      38.434  21.363  25.717  1.00  0.00    -0.376 OA
BRANCH   3   4
ATOM      4  C   UNL A   1      37.604  21.935  24.709  1.00  0.00     0.202 C 
BRANCH   4   5
ATOM      5  C   UNL A   1      37.028  23.377  24.786  1.00  0.00     0.261 C 
BRANCH   5   6
ATOM      6  O   UNL A   1      35.624  23.394  25.087  1.00  0.00    -0.463 OA
BRANCH   6   7
ATOM      7  C   UNL A   1      34.645  22.920  24.225  1.00  0.00     0.319 C 
ATOM      8  O   UNL A   1      34.698  22.952  23.010  1.00  0.00    -0.251 OA
BRANCH   7   9
ATOM      9  C   UNL A   1      33.584  22.276  25.141  1.00  0.00     0.140 C 
ATOM     10  N   UNL A   1      32.785  20.609  23.661  1.00  0.00    -0.327 N 
ATOM     11  C   UNL A   1      31.590  21.341  24.074  1.00  0.00     0.268 C 
ATOM     12  C   UNL A   1      33.865  20.801  24.695  1.00  0.00     0.283 C 
ATOM     13  H   UNL A   1      33.160  21.010  22.802  1.00  0.00     0.348 HD
ATOM     14  C   UNL A   1      32.100  21.958  25.327  1.00  0.00     0.084 C 
ATOM     15  C   UNL A   1      31.334  23.031  26.033  1.00  0.00     0.113 C 
ATOM     16  C   UNL A   1      33.702  23.210  26.372  1.00  0.00     0.127 C 
ATOM     17  N   UNL A   1      32.386  23.938  26.470  1.00  0.00    -0.200 NA
BRANCH  10  18
ATOM     18  C   UNL A   1      32.519  19.246  23.198  1.00  0.00     0.338 C 
BRANCH  18  19
ATOM     19  C   UNL A   1      32.997  18.158  24.112  1.00  0.00     0.161 A 
ATOM     20  C   UNL A   1      35.321  15.787  25.376  1.00  0.00     0.068 C 
ATOM     21  C   UNL A   1      34.147  16.640  25.111  1.00  0.00     0.056 A 
ATOM     22  C   UNL A   1      32.900  16.605  25.690  1.00  0.00     0.107 A 
ATOM     23  N   UNL A   1      34.205  17.630  24.160  1.00  0.00    -0.233 NA
ATOM     24  N   UNL A   1      32.174  17.559  25.037  1.00  0.00    -0.344 N 
ATOM     25  H   UNL A   1      31.229  17.780  25.200  1.00  0.00     0.167 HD
ENDBRANCH  18  19
ENDBRANCH  10  18
BRANCH  17  26
ATOM     26  S   UNL A   1      32.196  25.557  26.077  1.00  0.00     0.211 S 
ATOM     27  C   UNL A   1      31.631  25.496  24.387  1.00  0.00     0.176 C 
ATOM     28  O   UNL A   1      31.084  26.054  26.870  1.00  0.00    -0.213 OA
ATOM     29  O   UNL A   1      33.482  26.207  26.107  1.00  0.00    -0.213 OA
ENDBRANCH  17  26
ENDBRANCH   7   9
ENDBRANCH   6   7
ENDBRANCH   5   6
ENDBRANCH   4   5
ENDBRANCH   3   4
ENDBRANCH   2   3
ENDBRANCH   1   2
BRANCH   1  30
ATOM     30  O   UNL A   1      41.726  20.948  26.727  1.00  0.00    -0.376 OA
BRANCH  30  31
ATOM     31  C   UNL A   1      41.973  19.548  26.833  1.00  0.00     0.202 C 
BRANCH  31  32
ATOM     32  C   UNL A   1      42.828  18.731  25.831  1.00  0.00     0.261 C 
BRANCH  32  33
ATOM     33  O   UNL A   1      43.288  19.404  24.647  1.00  0.00    -0.460 OA
BRANCH  33  34
ATOM     34  C   UNL A   1      44.638  19.588  24.563  1.00  0.00     0.338 C 
ATOM     35  O   UNL A   1      45.465  18.791  24.158  1.00  0.00    -0.246 OA
BRANCH  34  36
ATOM     36  C   UNL A   1      44.938  21.017  24.808  1.00  0.00     0.060 A 
ATOM     37  C   UNL A   1      45.278  21.422  26.108  1.00  0.00     0.016 A 
ATOM     38  C   UNL A   1      44.887  21.949  23.776  1.00  0.00     0.016 A 
ATOM     39  C   UNL A   1      45.634  22.744  26.364  1.00  0.00     0.010 A 
ATOM     40  C   UNL A   1      45.181  23.291  24.053  1.00  0.00     0.010 A 
ATOM     41  C   UNL A   1      45.558  23.698  25.348  1.00  0.00    -0.014 A 
BRANCH  41  42
ATOM     42  C   UNL A   1      45.705  25.141  25.662  1.00  0.00     0.031 A 
ATOM     43  C   UNL A   1      47.069  25.762  25.554  1.00  0.00     0.074 A 
ATOM     44  C   UNL A   1      44.655  25.902  26.020  1.00  0.00     0.049 A 
ATOM     45  N   UNL A   1      47.483  26.936  25.951  1.00  0.00    -0.248 NA
ATOM     46  C   UNL A   1      48.106  24.943  24.904  1.00  0.00     0.031 C 
ATOM     47  C   UNL A   1      43.260  25.470  26.037  1.00  0.00     0.029 A 
ATOM     48  N   UNL A   1      44.609  27.208  26.449  1.00  0.00    -0.354 N 
ATOM     49  C   UNL A   1      48.834  26.987  25.633  1.00  0.00     0.074 A 
ATOM     50  C   UNL A   1      49.170  25.725  25.008  1.00  0.00     0.031 C 
ATOM     51  C   UNL A   1      42.496  26.483  26.482  1.00  0.00     0.029 A 
ATOM     52  C   UNL A   1      43.354  27.613  26.841  1.00  0.00     0.049 A 
ATOM     53  H   UNL A   1      45.398  27.796  26.474  1.00  0.00     0.167 HD
ATOM     54  C   UNL A   1      49.716  27.991  25.851  1.00  0.00     0.037 A 
ATOM     55  C   UNL A   1      42.953  28.740  27.466  1.00  0.00     0.037 A 
ATOM     56  C   UNL A   1      49.372  29.245  26.470  1.00  0.00     0.049 A 
ATOM     57  C   UNL A   1      43.975  29.793  27.823  1.00  0.00     0.074 A 
ATOM     58  C   UNL A   1      50.196  30.323  26.741  1.00  0.00     0.029 A 
ATOM     59  N   UNL A   1      48.107  29.587  26.924  1.00  0.00    -0.354 N 
ATOM     60  N   UNL A   1      45.258  29.825  27.552  1.00  0.00    -0.248 NA
ATOM     61  C   UNL A   1      43.497  30.954  28.591  1.00  0.00     0.031 C 
ATOM     62  C   UNL A   1      49.444  31.291  27.414  1.00  0.00     0.029 A 
ATOM     63  C   UNL A   1      48.136  30.843  27.507  1.00  0.00     0.049 A 
ATOM     64  H   UNL A   1      47.305  29.020  26.844  1.00  0.00     0.167 HD
ATOM     65  C   UNL A   1      45.735  31.014  28.098  1.00  0.00     0.074 A 
ATOM     66  C   UNL A   1      44.601  31.682  28.700  1.00  0.00     0.031 C 
ATOM     67  C   UNL A   1      47.000  31.506  28.102  1.00  0.00     0.037 A 
BRANCH  54  68
ATOM     68  C   UNL A   1      51.151  27.751  25.473  1.00  0.00     0.058 A 
ATOM     69  C   UNL A   1      52.100  27.293  26.399  1.00  0.00     0.135 A 
ATOM     70  C   UNL A   1      51.575  27.964  24.151  1.00  0.00     0.135 A 
ATOM     71  F   UNL A   1      51.754  27.092  27.680  1.00  0.00    -0.206 F 
ATOM     72  C   UNL A   1      53.426  27.081  26.034  1.00  0.00     0.059 A 
ATOM     73  C   UNL A   1      52.887  27.729  23.756  1.00  0.00     0.059 A 
ATOM     74  F   UNL A   1      50.708  28.405  23.225  1.00  0.00    -0.206 F 
ATOM     75  C   UNL A   1      53.810  27.302  24.709  1.00  0.00     0.060 A 
BRANCH  75  76
ATOM     76  S   UNL A   1      55.534  27.026  24.253  1.00  0.00     0.124 S 
ATOM     77  O   UNL A   1      55.713  25.626  24.627  1.00  0.00    -0.237 OA
ATOM     78  O   UNL A   1      55.525  27.303  22.821  1.00  0.00    -0.237 OA
ATOM     79  O   UNL A   1      56.262  27.990  25.071  1.00  0.00    -0.744 OA
ENDBRANCH  75  76
ENDBRANCH  54  68
BRANCH  55  80
ATOM     80  C   UNL A   1      41.524  28.914  27.850  1.00  0.00     0.058 A 
ATOM     81  C   UNL A   1      41.111  28.785  29.183  1.00  0.00     0.135 A 
ATOM     82  C   UNL A   1      40.541  29.200  26.889  1.00  0.00     0.135 A 
ATOM     83  F   UNL A   1      42.006  28.489  30.138  1.00  0.00    -0.206 F 
ATOM     84  C   UNL A   1      39.776  28.930  29.551  1.00  0.00     0.059 A 
ATOM     85  C   UNL A   1      39.205  29.379  27.236  1.00  0.00     0.059 A 
ATOM     86  F   UNL A   1      40.880  29.328  25.595  1.00  0.00    -0.206 F 
ATOM     87  C   UNL A   1      38.831  29.236  28.570  1.00  0.00     0.060 A 
BRANCH  87  88
ATOM     88  S   UNL A   1      37.115  29.486  29.071  1.00  0.00     0.124 S 
ATOM     89  O   UNL A   1      37.023  30.941  29.091  1.00  0.00    -0.237 OA
ATOM     90  O   UNL A   1      36.386  28.814  28.001  1.00  0.00    -0.237 OA
ATOM     91  O   UNL A   1      37.046  28.831  30.375  1.00  0.00    -0.744 OA
ENDBRANCH  87  88
ENDBRANCH  55  80
BRANCH  67  92
ATOM     92  C   UNL A   1      47.239  32.840  28.757  1.00  0.00     0.058 A 
ATOM     93  C   UNL A   1      47.082  34.045  28.054  1.00  0.00     0.135 A 
ATOM     94  C   UNL A   1      47.540  32.919  30.128  1.00  0.00     0.135 A 
ATOM     95  F   UNL A   1      46.804  34.030  26.742  1.00  0.00    -0.206 F 
ATOM     96  C   UNL A   1      47.220  35.279  28.684  1.00  0.00     0.059 A 
ATOM     97  C   UNL A   1      47.654  34.140  30.784  1.00  0.00     0.059 A 
ATOM     98  F   UNL A   1      47.694  31.798  30.851  1.00  0.00    -0.206 F 
ATOM     99  C   UNL A   1      47.496  35.316  30.053  1.00  0.00     0.060 A 
BRANCH  99 100
ATOM    100  S   UNL A   1      47.605  36.924  30.868  1.00  0.00     0.124 S 
ATOM    101  O   UNL A   1      48.651  36.685  31.856  1.00  0.00    -0.237 OA
ATOM    102  O   UNL A   1      47.966  37.808  29.763  1.00  0.00    -0.237 OA
ATOM    103  O   UNL A   1      46.264  37.123  31.410  1.00  0.00    -0.744 OA
ENDBRANCH  99 100
ENDBRANCH  67  92
ENDBRANCH  41  42
ENDBRANCH  34  36
ENDBRANCH  33  34
ENDBRANCH  32  33
ENDBRANCH  31  32
ENDBRANCH  30  31
ENDBRANCH   1  30
TORSDOF 23
ENDMDL
MODEL 2
REMARK VINA RESULT:      -9.5      1.548      3.514
REMARK SMILES Cc1c[nH]c(C[N@H+]2C[C@@H]3CN(S(C)(=O)=O)C[C@@]3(C(=O)OCCOCCOCCOC(=O)c3ccc(-c4c5nc(c(-c6c(F)cc(S(=O)(=O)[O-])cc6F)c6ccc([nH]6)c(-c6c(F)cc(S(=O)(=O)[O-])cc6F)c6nc(c(-c7c(F)cc(S(=O)(=O)[O-])cc7F)c7ccc4[nH]7)C=C6)C=C5)cc3)C2)n1
REMARK SMILES IDX 25 1 24 2 23 3 22 4 21 5 20 6 18 7 19 8 17 9 7 10 8 11 98 12
REMARK SMILES IDX 9 14 10 15 16 16 11 17 6 18 5 19 1 20 2 21 3 22 99 23 4 24
REMARK SMILES IDX 12 26 13 27 14 28 15 29 26 30 27 31 28 32 29 33 30 34 31 35
REMARK SMILES IDX 32 36 33 37 97 38 34 39 96 40 35 41 36 42 37 43 90 44 38 45
REMARK SMILES IDX 95 46 89 47 91 48 39 49 94 50 88 51 87 52 40 54 74 55 53 56
REMARK SMILES IDX 73 57 54 58 57 59 72 60 92 61 55 62 56 63 71 65 93 66 58 67
REMARK SMILES IDX 41 68 42 69 51 70 43 71 44 72 50 73 52 74 45 75 46 76 47 77
REMARK SMILES IDX 48 78 49 79 75 80 76 81 85 82 77 83 78 84 84 85 86 86 79 87
REMARK SMILES IDX 80 88 81 89 82 90 83 91 59 92 60 93 69 94 61 95 62 96 68 97
REMARK SMILES IDX 70 98 63 99 64 100 65 101 66 102 67 103
REMARK H PARENT 7 13 4 25 91 53 57 64
REMARK Flexibility Score: inf
ROOT
ATOM      1  C   UNL A   1      40.250  21.244  26.924  1.00  0.00     0.188 C 
ENDROOT
BRANCH   1   2
ATOM      2  C   UNL A   1      39.251  22.190  26.257  1.00  0.00     0.188 C 
BRANCH   2   3
ATOM      3  O   UNL A   1      37.985  21.701  25.876  1.00  0.00    -0.376 OA
BRANCH   3   4
ATOM      4  C   UNL A   1      37.184  22.449  24.965  1.00  0.00     0.202 C 
BRANCH   4   5
ATOM      5  C   UNL A   1      36.544  23.824  25.312  1.00  0.00     0.261 C 
BRANCH   5   6
ATOM      6  O   UNL A   1      35.130  23.850  25.063  1.00  0.00    -0.463 OA
BRANCH   6   7
ATOM      7  C   UNL A   1      34.571  23.853  23.792  1.00  0.00     0.319 C 
ATOM      8  O   UNL A   1      35.193  23.822  22.747  1.00  0.00    -0.251 OA
BRANCH   7   9
ATOM      9  C   UNL A   1      33.047  23.794  24.026  1.00  0.00     0.140 C 
ATOM     10  N   UNL A   1      32.772  25.853  25.162  1.00  0.00    -0.327 N 
ATOM     11  C   UNL A   1      32.175  24.858  26.049  1.00  0.00     0.268 C 
ATOM     12  C   UNL A   1      32.788  25.315  23.754  1.00  0.00     0.283 C 
ATOM     13  H   UNL A   1      33.751  25.997  25.408  1.00  0.00     0.348 HD
ATOM     14  C   UNL A   1      31.929  23.769  25.068  1.00  0.00     0.084 C 
ATOM     15  C   UNL A   1      31.545  22.393  25.511  1.00  0.00     0.113 C 
ATOM     16  C   UNL A   1      32.748  22.393  23.435  1.00  0.00     0.127 C 
ATOM     17  N   UNL A   1      32.291  21.543  24.593  1.00  0.00    -0.200 NA
BRANCH  10  18
ATOM     18  C   UNL A   1      32.268  27.212  25.368  1.00  0.00     0.338 C 
BRANCH  18  19
ATOM     19  C   UNL A   1      31.222  27.657  24.390  1.00  0.00     0.161 A 
ATOM     20  C   UNL A   1      29.785  29.791  21.941  1.00  0.00     0.068 C 
ATOM     21  C   UNL A   1      30.081  28.718  22.908  1.00  0.00     0.056 A 
ATOM     22  C   UNL A   1      29.283  27.675  23.316  1.00  0.00     0.107 A 
ATOM     23  N   UNL A   1      31.292  28.675  23.555  1.00  0.00    -0.233 NA
ATOM     24  N   UNL A   1      30.009  27.019  24.269  1.00  0.00    -0.344 N 
ATOM     25  H   UNL A   1      29.717  26.230  24.779  1.00  0.00     0.167 HD
ENDBRANCH  18  19
ENDBRANCH  10  18
BRANCH  17  26
ATOM     26  S   UNL A   1      33.231  20.336  25.279  1.00  0.00     0.211 S 
ATOM     27  C   UNL A   1      33.617  20.995  26.890  1.00  0.00     0.176 C 
ATOM     28  O   UNL A   1      32.357  19.194  25.495  1.00  0.00    -0.213 OA
ATOM     29  O   UNL A   1      34.455  20.205  24.531  1.00  0.00    -0.213 OA
ENDBRANCH  17  26
ENDBRANCH   7   9
ENDBRANCH   6   7
ENDBRANCH   5   6
ENDBRANCH   4   5
ENDBRANCH   3   4
ENDBRANCH   2   3
ENDBRANCH   1   2
BRANCH   1  30
ATOM     30  O   UNL A   1      41.434  20.845  26.277  1.00  0.00    -0.376 OA
BRANCH  30  31
ATOM     31  C   UNL A   1      41.889  19.509  26.474  1.00  0.00     0.202 C 
BRANCH  31  32
ATOM     32  C   UNL A   1      43.024  18.840  25.658  1.00  0.00     0.261 C 
BRANCH  32  33
ATOM     33  O   UNL A   1      43.519  19.544  24.508  1.00  0.00    -0.460 OA
BRANCH  33  34
ATOM     34  C   UNL A   1      44.870  19.734  24.471  1.00  0.00     0.338 C 
ATOM     35  O   UNL A   1      45.713  18.945  24.081  1.00  0.00    -0.246 OA
BRANCH  34  36
ATOM     36  C   UNL A   1      45.156  21.159  24.747  1.00  0.00     0.060 A 
ATOM     37  C   UNL A   1      45.507  21.537  26.053  1.00  0.00     0.016 A 
ATOM     38  C   UNL A   1      45.083  22.115  23.739  1.00  0.00     0.016 A 
ATOM     39  C   UNL A   1      45.851  22.856  26.337  1.00  0.00     0.010 A 
ATOM     40  C   UNL A   1      45.365  23.454  24.045  1.00  0.00     0.010 A 
ATOM     41  C   UNL A   1      45.752  23.833  25.344  1.00  0.00    -0.014 A 
BRANCH  41  42
ATOM     42  C   UNL A   1      45.887  25.270  25.692  1.00  0.00     0.031 A 
ATOM     43  C   UNL A   1      47.245  25.905  25.599  1.00  0.00     0.074 A 
ATOM     44  C   UNL A   1      44.830  26.014  26.068  1.00  0.00     0.049 A 
ATOM     45  N   UNL A   1      47.649  27.073  26.022  1.00  0.00    -0.248 NA
ATOM     46  C   UNL A   1      48.289  25.111  24.930  1.00  0.00     0.031 C 
ATOM     47  C   UNL A   1      43.439  25.569  26.074  1.00  0.00     0.029 A 
ATOM     48  N   UNL A   1      44.772  27.308  26.527  1.00  0.00    -0.354 N 
ATOM     49  C   UNL A   1      49.000  27.144  25.706  1.00  0.00     0.074 A 
ATOM     50  C   UNL A   1      49.346  25.899  25.053  1.00  0.00     0.031 C 
ATOM     51  C   UNL A   1      42.665  26.565  26.542  1.00  0.00     0.029 A 
ATOM     52  C   UNL A   1      43.514  27.693  26.928  1.00  0.00     0.049 A 
ATOM     53  H   UNL A   1      45.556  27.903  26.565  1.00  0.00     0.167 HD
ATOM     54  C   UNL A   1      49.872  28.151  25.948  1.00  0.00     0.037 A 
ATOM     55  C   UNL A   1      43.103  28.802  27.578  1.00  0.00     0.037 A 
ATOM     56  C   UNL A   1      49.517  29.386  26.596  1.00  0.00     0.049 A 
ATOM     57  C   UNL A   1      44.115  29.855  27.960  1.00  0.00     0.074 A 
ATOM     58  C   UNL A   1      50.332  30.465  26.891  1.00  0.00     0.029 A 
ATOM     59  N   UNL A   1      48.249  29.707  27.057  1.00  0.00    -0.354 N 
ATOM     60  N   UNL A   1      45.398  29.905  27.690  1.00  0.00    -0.248 NA
ATOM     61  C   UNL A   1      43.628  30.994  28.755  1.00  0.00     0.031 C 
ATOM     62  C   UNL A   1      49.571  31.411  27.586  1.00  0.00     0.029 A 
ATOM     63  C   UNL A   1      48.267  30.950  27.669  1.00  0.00     0.049 A 
ATOM     64  H   UNL A   1      47.453  29.135  26.963  1.00  0.00     0.167 HD
ATOM     65  C   UNL A   1      45.865  31.086  28.263  1.00  0.00     0.074 A 
ATOM     66  C   UNL A   1      44.725  31.729  28.881  1.00  0.00     0.031 C 
ATOM     67  C   UNL A   1      47.125  31.588  28.279  1.00  0.00     0.037 A 
BRANCH  54  68
ATOM     68  C   UNL A   1      51.309  27.932  25.564  1.00  0.00     0.058 A 
ATOM     69  C   UNL A   1      52.266  27.477  26.484  1.00  0.00     0.135 A 
ATOM     70  C   UNL A   1      51.727  28.163  24.243  1.00  0.00     0.135 A 
ATOM     71  F   UNL A   1      51.926  27.260  27.764  1.00  0.00    -0.206 F 
ATOM     72  C   UNL A   1      53.594  27.285  26.114  1.00  0.00     0.059 A 
ATOM     73  C   UNL A   1      53.042  27.947  23.844  1.00  0.00     0.059 A 
ATOM     74  F   UNL A   1      50.853  28.601  23.324  1.00  0.00    -0.206 F 
ATOM     75  C   UNL A   1      53.972  27.523  24.790  1.00  0.00     0.060 A 
BRANCH  75  76
ATOM     76  S   UNL A   1      55.698  27.273  24.329  1.00  0.00     0.124 S 
ATOM     77  O   UNL A   1      56.390  28.020  25.375  1.00  0.00    -0.237 OA
ATOM     78  O   UNL A   1      55.829  25.822  24.393  1.00  0.00    -0.237 OA
ATOM     79  O   UNL A   1      55.780  27.849  22.990  1.00  0.00    -0.744 OA
ENDBRANCH  75  76
ENDBRANCH  54  68
BRANCH  55  80
ATOM     80  C   UNL A   1      41.673  28.954  27.966  1.00  0.00     0.058 A 
ATOM     81  C   UNL A   1      41.268  28.839  29.303  1.00  0.00     0.135 A 
ATOM     82  C   UNL A   1      40.680  29.205  27.005  1.00  0.00     0.135 A 
ATOM     83  F   UNL A   1      42.172  28.575  30.259  1.00  0.00    -0.206 F 
ATOM     84  C   UNL A   1      39.932  28.963  29.675  1.00  0.00     0.059 A 
ATOM     85  C   UNL A   1      39.343  29.365  27.355  1.00  0.00     0.059 A 
ATOM     86  F   UNL A   1      41.011  29.319  25.708  1.00  0.00    -0.206 F 
ATOM     87  C   UNL A   1      38.977  29.235  28.693  1.00  0.00     0.060 A 
BRANCH  87  88
ATOM     88  S   UNL A   1      37.259  29.460  29.199  1.00  0.00     0.124 S 
ATOM     89  O   UNL A   1      36.541  28.889  28.065  1.00  0.00    -0.237 OA
ATOM     90  O   UNL A   1      37.205  28.695  30.440  1.00  0.00    -0.237 OA
ATOM     91  O   UNL A   1      37.141  30.907  29.356  1.00  0.00    -0.744 OA
ENDBRANCH  87  88
ENDBRANCH  55  80
BRANCH  67  92
ATOM     92  C   UNL A   1      47.352  32.909  28.965  1.00  0.00     0.058 A 
ATOM     93  C   UNL A   1      47.176  34.128  28.292  1.00  0.00     0.135 A 
ATOM     94  C   UNL A   1      47.662  32.958  30.335  1.00  0.00     0.135 A 
ATOM     95  F   UNL A   1      46.891  34.142  26.981  1.00  0.00    -0.206 F 
ATOM     96  C   UNL A   1      47.304  35.348  28.951  1.00  0.00     0.059 A 
ATOM     97  C   UNL A   1      47.765  34.164  31.020  1.00  0.00     0.059 A 
ATOM     98  F   UNL A   1      47.833  31.822  31.030  1.00  0.00    -0.206 F 
ATOM     99  C   UNL A   1      47.588  35.356  30.319  1.00  0.00     0.060 A 
BRANCH  99 100
ATOM    100  S   UNL A   1      47.683  36.945  31.171  1.00  0.00     0.124 S 
ATOM    101  O   UNL A   1      48.486  36.606  32.341  1.00  0.00    -0.237 OA
ATOM    102  O   UNL A   1      48.336  37.792  30.178  1.00  0.00    -0.237 OA
ATOM    103  O   UNL A   1      46.286  37.270  31.444  1.00  0.00    -0.744 OA
ENDBRANCH  99 100
ENDBRANCH  67  92
ENDBRANCH  41  42
ENDBRANCH  34  36
ENDBRANCH  33  34
ENDBRANCH  32  33
ENDBRANCH  31  32
ENDBRANCH  30  31
ENDBRANCH   1  30
TORSDOF 23
ENDMDL
MODEL 3
REMARK VINA RESULT:      -9.2      7.187     15.812
REMARK SMILES Cc1c[nH]c(C[N@H+]2C[C@@H]3CN(S(C)(=O)=O)C[C@@]3(C(=O)OCCOCCOCCOC(=O)c3ccc(-c4c5nc(c(-c6c(F)cc(S(=O)(=O)[O-])cc6F)c6ccc([nH]6)c(-c6c(F)cc(S(=O)(=O)[O-])cc6F)c6nc(c(-c7c(F)cc(S(=O)(=O)[O-])cc7F)c7ccc4[nH]7)C=C6)C=C5)cc3)C2)n1
REMARK SMILES IDX 25 1 24 2 23 3 22 4 21 5 20 6 18 7 19 8 17 9 7 10 8 11 98 12
REMARK SMILES IDX 9 14 10 15 16 16 11 17 6 18 5 19 1 20 2 21 3 22 99 23 4 24
REMARK SMILES IDX 12 26 13 27 14 28 15 29 26 30 27 31 28 32 29 33 30 34 31 35
REMARK SMILES IDX 32 36 33 37 97 38 34 39 96 40 35 41 36 42 37 43 90 44 38 45
REMARK SMILES IDX 95 46 89 47 91 48 39 49 94 50 88 51 87 52 40 54 74 55 53 56
REMARK SMILES IDX 73 57 54 58 57 59 72 60 92 61 55 62 56 63 71 65 93 66 58 67
REMARK SMILES IDX 41 68 42 69 51 70 43 71 44 72 50 73 52 74 45 75 46 76 47 77
REMARK SMILES IDX 48 78 49 79 75 80 76 81 85 82 77 83 78 84 84 85 86 86 79 87
REMARK SMILES IDX 80 88 81 89 82 90 83 91 59 92 60 93 69 94 61 95 62 96 68 97
REMARK SMILES IDX 70 98 63 99 64 100 65 101 66 102 67 103
REMARK H PARENT 7 13 4 25 91 53 57 64
REMARK Flexibility Score: inf
ROOT
ATOM      1  C   UNL A   1      44.844  40.614  25.749  1.00  0.00     0.188 C 
ENDROOT
BRANCH   1   2
ATOM      2  C   UNL A   1      43.449  40.434  26.349  1.00  0.00     0.188 C 
BRANCH   2   3
ATOM      3  O   UNL A   1      42.402  41.279  25.927  1.00  0.00    -0.376 OA
BRANCH   3   4
ATOM      4  C   UNL A   1      42.335  41.693  24.564  1.00  0.00     0.202 C 
BRANCH   4   5
ATOM      5  C   UNL A   1      43.033  42.973  24.020  1.00  0.00     0.261 C 
BRANCH   5   6
ATOM      6  O   UNL A   1      44.028  42.676  23.028  1.00  0.00    -0.463 OA
BRANCH   6   7
ATOM      7  C   UNL A   1      43.761  42.593  21.669  1.00  0.00     0.319 C 
ATOM      8  O   UNL A   1      43.090  41.731  21.132  1.00  0.00    -0.251 OA
BRANCH   7   9
ATOM      9  C   UNL A   1      44.397  43.860  21.059  1.00  0.00     0.140 C 
ATOM     10  N   UNL A   1      43.687  43.583  18.817  1.00  0.00    -0.327 N 
ATOM     11  C   UNL A   1      45.136  43.741  18.729  1.00  0.00     0.268 C 
ATOM     12  C   UNL A   1      43.199  44.194  20.106  1.00  0.00     0.283 C 
ATOM     13  H   UNL A   1      43.447  42.594  18.879  1.00  0.00     0.348 HD
ATOM     14  C   UNL A   1      45.391  44.406  20.033  1.00  0.00     0.084 C 
ATOM     15  C   UNL A   1      46.779  44.572  20.564  1.00  0.00     0.113 C 
ATOM     16  C   UNL A   1      45.137  44.405  22.306  1.00  0.00     0.127 C 
ATOM     17  N   UNL A   1      46.608  44.317  21.988  1.00  0.00    -0.200 NA
BRANCH  10  18
ATOM     18  C   UNL A   1      42.974  43.928  17.585  1.00  0.00     0.338 C 
BRANCH  18  19
ATOM     19  C   UNL A   1      42.903  45.395  17.282  1.00  0.00     0.161 A 
ATOM     20  C   UNL A   1      41.287  48.519  16.786  1.00  0.00     0.068 C 
ATOM     21  C   UNL A   1      42.253  47.412  16.919  1.00  0.00     0.056 A 
ATOM     22  C   UNL A   1      43.606  47.407  16.672  1.00  0.00     0.107 A 
ATOM     23  N   UNL A   1      41.837  46.169  17.330  1.00  0.00    -0.233 NA
ATOM     24  N   UNL A   1      44.005  46.119  16.887  1.00  0.00    -0.344 N 
ATOM     25  H   UNL A   1      44.919  45.770  16.780  1.00  0.00     0.167 HD
ENDBRANCH  18  19
ENDBRANCH  10  18
BRANCH  17  26
ATOM     26  S   UNL A   1      47.635  43.185  22.679  1.00  0.00     0.211 S 
ATOM     27  C   UNL A   1      49.217  44.006  22.644  1.00  0.00     0.176 C 
ATOM     28  O   UNL A   1      47.255  43.071  24.077  1.00  0.00    -0.213 OA
ATOM     29  O   UNL A   1      47.702  42.024  21.828  1.00  0.00    -0.213 OA
ENDBRANCH  17  26
ENDBRANCH   7   9
ENDBRANCH   6   7
ENDBRANCH   5   6
ENDBRANCH   4   5
ENDBRANCH   3   4
ENDBRANCH   2   3
ENDBRANCH   1   2
BRANCH   1  30
ATOM     30  O   UNL A   1      46.008  40.364  26.501  1.00  0.00    -0.376 OA
BRANCH  30  31
ATOM     31  C   UNL A   1      47.127  39.789  25.832  1.00  0.00     0.202 C 
BRANCH  31  32
ATOM     32  C   UNL A   1      48.226  38.945  26.527  1.00  0.00     0.261 C 
BRANCH  32  33
ATOM     33  O   UNL A   1      47.949  37.555  26.758  1.00  0.00    -0.460 OA
BRANCH  33  34
ATOM     34  C   UNL A   1      47.781  37.197  28.064  1.00  0.00     0.338 C 
ATOM     35  O   UNL A   1      47.703  37.941  29.026  1.00  0.00    -0.246 OA
BRANCH  34  36
ATOM     36  C   UNL A   1      47.453  35.755  28.123  1.00  0.00     0.060 A 
ATOM     37  C   UNL A   1      46.813  35.162  27.024  1.00  0.00     0.016 A 
ATOM     38  C   UNL A   1      47.771  34.991  29.242  1.00  0.00     0.016 A 
ATOM     39  C   UNL A   1      46.551  33.795  27.013  1.00  0.00     0.010 A 
ATOM     40  C   UNL A   1      47.443  33.629  29.254  1.00  0.00     0.010 A 
ATOM     41  C   UNL A   1      46.833  33.020  28.140  1.00  0.00    -0.014 A 
BRANCH  41  42
ATOM     42  C   UNL A   1      46.346  31.621  28.230  1.00  0.00     0.031 A 
ATOM     43  C   UNL A   1      47.219  30.523  27.692  1.00  0.00     0.074 A 
ATOM     44  C   UNL A   1      45.161  31.315  28.790  1.00  0.00     0.049 A 
ATOM     45  N   UNL A   1      46.939  29.264  27.485  1.00  0.00    -0.248 NA
ATOM     46  C   UNL A   1      48.599  30.901  27.344  1.00  0.00     0.031 C 
ATOM     47  C   UNL A   1      44.274  32.256  29.469  1.00  0.00     0.029 A 
ATOM     48  N   UNL A   1      44.499  30.112  28.866  1.00  0.00    -0.354 N 
ATOM     49  C   UNL A   1      48.093  28.704  26.951  1.00  0.00     0.074 A 
ATOM     50  C   UNL A   1      49.077  29.763  26.867  1.00  0.00     0.031 C 
ATOM     51  C   UNL A   1      43.170  31.602  29.869  1.00  0.00     0.029 A 
ATOM     52  C   UNL A   1      43.242  30.212  29.418  1.00  0.00     0.049 A 
ATOM     53  H   UNL A   1      44.885  29.262  28.555  1.00  0.00     0.167 HD
ATOM     54  C   UNL A   1      48.308  27.426  26.558  1.00  0.00     0.037 A 
ATOM     55  C   UNL A   1      42.249  29.303  29.502  1.00  0.00     0.037 A 
ATOM     56  C   UNL A   1      47.324  26.379  26.648  1.00  0.00     0.049 A 
ATOM     57  C   UNL A   1      42.459  27.919  28.935  1.00  0.00     0.074 A 
ATOM     58  C   UNL A   1      47.444  25.053  26.271  1.00  0.00     0.029 A 
ATOM     59  N   UNL A   1      46.037  26.537  27.142  1.00  0.00    -0.354 N 
ATOM     60  N   UNL A   1      43.539  27.401  28.399  1.00  0.00    -0.248 NA
ATOM     61  C   UNL A   1      41.309  27.002  28.964  1.00  0.00     0.031 C 
ATOM     62  C   UNL A   1      46.211  24.425  26.477  1.00  0.00     0.029 A 
ATOM     63  C   UNL A   1      45.341  25.343  27.043  1.00  0.00     0.049 A 
ATOM     64  H   UNL A   1      45.672  27.375  27.509  1.00  0.00     0.167 HD
ATOM     65  C   UNL A   1      43.204  26.096  28.048  1.00  0.00     0.074 A 
ATOM     66  C   UNL A   1      41.827  25.897  28.445  1.00  0.00     0.031 C 
ATOM     67  C   UNL A   1      43.969  25.150  27.446  1.00  0.00     0.037 A 
BRANCH  54  68
ATOM     68  C   UNL A   1      49.638  27.104  25.937  1.00  0.00     0.058 A 
ATOM     69  C   UNL A   1      50.699  26.566  26.681  1.00  0.00     0.135 A 
ATOM     70  C   UNL A   1      49.843  27.319  24.564  1.00  0.00     0.135 A 
ATOM     71  F   UNL A   1      50.565  26.359  28.000  1.00  0.00    -0.206 F 
ATOM     72  C   UNL A   1      51.926  26.279  26.091  1.00  0.00     0.059 A 
ATOM     73  C   UNL A   1      51.051  27.010  23.947  1.00  0.00     0.059 A 
ATOM     74  F   UNL A   1      48.862  27.834  23.805  1.00  0.00    -0.206 F 
ATOM     75  C   UNL A   1      52.093  26.504  24.723  1.00  0.00     0.060 A 
BRANCH  75  76
ATOM     76  S   UNL A   1      53.691  26.130  23.975  1.00  0.00     0.124 S 
ATOM     77  O   UNL A   1      54.484  27.284  24.390  1.00  0.00    -0.237 OA
ATOM     78  O   UNL A   1      54.040  24.862  24.607  1.00  0.00    -0.237 OA
ATOM     79  O   UNL A   1      53.393  26.055  22.549  1.00  0.00    -0.744 OA
ENDBRANCH  75  76
ENDBRANCH  54  68
BRANCH  55  80
ATOM     80  C   UNL A   1      40.936  29.683  30.096  1.00  0.00     0.058 A 
ATOM     81  C   UNL A   1      40.767  29.770  31.485  1.00  0.00     0.135 A 
ATOM     82  C   UNL A   1      39.821  29.953  29.286  1.00  0.00     0.135 A 
ATOM     83  F   UNL A   1      41.793  29.498  32.305  1.00  0.00    -0.206 F 
ATOM     84  C   UNL A   1      39.541  30.109  32.051  1.00  0.00     0.059 A 
ATOM     85  C   UNL A   1      38.594  30.324  29.827  1.00  0.00     0.059 A 
ATOM     86  F   UNL A   1      39.925  29.878  27.949  1.00  0.00    -0.206 F 
ATOM     87  C   UNL A   1      38.462  30.392  31.212  1.00  0.00     0.060 A 
BRANCH  87  88
ATOM     88  S   UNL A   1      36.896  30.894  31.959  1.00  0.00     0.124 S 
ATOM     89  O   UNL A   1      36.118  29.664  31.869  1.00  0.00    -0.237 OA
ATOM     90  O   UNL A   1      37.313  31.291  33.300  1.00  0.00    -0.237 OA
ATOM     91  O   UNL A   1      36.450  31.988  31.100  1.00  0.00    -0.744 OA
ENDBRANCH  87  88
ENDBRANCH  55  80
BRANCH  67  92
ATOM     92  C   UNL A   1      43.354  23.799  27.191  1.00  0.00     0.058 A 
ATOM     93  C   UNL A   1      42.792  23.468  25.949  1.00  0.00     0.135 A 
ATOM     94  C   UNL A   1      43.408  22.794  28.172  1.00  0.00     0.135 A 
ATOM     95  F   UNL A   1      42.704  24.391  24.979  1.00  0.00    -0.206 F 
ATOM     96  C   UNL A   1      42.301  22.191  25.689  1.00  0.00     0.059 A 
ATOM     97  C   UNL A   1      42.951  21.504  27.925  1.00  0.00     0.059 A 
ATOM     98  F   UNL A   1      43.942  23.053  29.376  1.00  0.00    -0.206 F 
ATOM     99  C   UNL A   1      42.395  21.212  26.680  1.00  0.00     0.060 A 
BRANCH  99 100
ATOM    100  S   UNL A   1      41.815  19.544  26.303  1.00  0.00     0.124 S 
ATOM    101  O   UNL A   1      42.191  18.819  27.513  1.00  0.00    -0.237 OA
ATOM    102  O   UNL A   1      40.384  19.750  26.106  1.00  0.00    -0.237 OA
ATOM    103  O   UNL A   1      42.563  19.187  25.101  1.00  0.00    -0.744 OA
ENDBRANCH  99 100
ENDBRANCH  67  92
ENDBRANCH  41  42
ENDBRANCH  34  36
ENDBRANCH  33  34
ENDBRANCH  32  33
ENDBRANCH  31  32
ENDBRANCH  30  31
ENDBRANCH   1  30
TORSDOF 23
ENDMDL
