MODEL 1
REMARK VINA RESULT:     -11.0      0.000      0.000
REMARK SMILES Cc1nn(-c2ccc(C(=O)OCCOCCOCCOC(=O)c3ccc(-c4c5nc(c(-c6c(F)cc(S(=O)(=O)[O-])cc6F)c6ccc([nH]6)c(-c6c(F)cc(S(=O)(=O)[O-])cc6F)c6nc(c(-c7c(F)cc(S(=O)(=O)[O-])cc7F)c7ccc4[nH]7)C=C6)C=C5)cc3)cc2)c(=O)c2ccccc12
REMARK SMILES IDX 16 1 15 2 14 3 13 4 12 5 11 6 9 7 10 8 8 9 5 10 6 11 90 12
REMARK SMILES IDX 7 13 89 14 4 15 1 16 2 17 3 18 98 19 93 20 97 21 91 22 94 23
REMARK SMILES IDX 96 24 92 25 95 26 17 27 18 28 19 29 20 30 21 31 22 32 23 33
REMARK SMILES IDX 24 34 88 35 25 36 87 37 26 38 27 39 28 40 81 41 29 42 86 43
REMARK SMILES IDX 80 44 82 45 30 46 85 47 79 48 78 49 31 51 65 52 44 53 64 54
REMARK SMILES IDX 45 55 48 56 63 57 83 58 46 59 47 60 62 62 84 63 49 64 32 65
REMARK SMILES IDX 33 66 42 67 34 68 35 69 41 70 43 71 36 72 37 73 38 74 39 75
REMARK SMILES IDX 40 76 66 77 67 78 76 79 68 80 69 81 75 82 77 83 70 84 71 85
REMARK SMILES IDX 72 86 73 87 74 88 50 89 51 90 60 91 52 92 53 93 59 94 61 95
REMARK SMILES IDX 54 96 55 97 56 98 57 99 58 100
REMARK H PARENT 82 50 48 61
REMARK Flexibility Score: inf
ROOT
ATOM      1  C   UNL A   1      32.975  31.162  27.204  1.00  0.00     0.188 C 
ENDROOT
BRANCH   1   2
ATOM      2  C   UNL A   1      32.760  29.634  27.285  1.00  0.00     0.188 C 
BRANCH   2   3
ATOM      3  O   UNL A   1      31.760  29.037  26.491  1.00  0.00    -0.376 OA
BRANCH   3   4
ATOM      4  C   UNL A   1      31.768  29.144  25.078  1.00  0.00     0.202 C 
BRANCH   4   5
ATOM      5  C   UNL A   1      32.775  28.462  24.138  1.00  0.00     0.261 C 
BRANCH   5   6
ATOM      6  O   UNL A   1      32.435  28.434  22.752  1.00  0.00    -0.460 OA
BRANCH   6   7
ATOM      7  C   UNL A   1      31.310  27.732  22.455  1.00  0.00     0.338 C 
ATOM      8  O   UNL A   1      30.298  28.153  21.922  1.00  0.00    -0.246 OA
BRANCH   7   9
ATOM      9  C   UNL A   1      31.550  26.300  22.710  1.00  0.00     0.060 A 
ATOM     10  C   UNL A   1      31.974  23.596  23.282  1.00  0.00     0.069 A 
ATOM     11  C   UNL A   1      30.784  24.217  23.683  1.00  0.00     0.029 A 
ATOM     12  C   UNL A   1      32.909  24.324  22.529  1.00  0.00     0.029 A 
ATOM     13  C   UNL A   1      30.591  25.578  23.433  1.00  0.00     0.018 A 
ATOM     14  C   UNL A   1      32.693  25.667  22.221  1.00  0.00     0.018 A 
BRANCH  10  15
ATOM     15  N   UNL A   1      32.274  22.282  23.731  1.00  0.00    -0.196 N 
ATOM     16  C   UNL A   1      33.646  20.971  26.889  1.00  0.00     0.069 C 
ATOM     17  C   UNL A   1      33.154  21.043  25.461  1.00  0.00     0.066 A 
ATOM     18  N   UNL A   1      32.835  22.209  24.985  1.00  0.00    -0.169 NA
ATOM     19  C   UNL A   1      33.060  19.794  24.678  1.00  0.00     0.010 A 
ATOM     20  C   UNL A   1      32.526  19.886  23.401  1.00  0.00     0.051 A 
ATOM     21  C   UNL A   1      33.525  18.557  25.143  1.00  0.00     0.011 A 
ATOM     22  C   UNL A   1      32.025  21.178  22.912  1.00  0.00     0.279 A 
ATOM     23  C   UNL A   1      32.487  18.763  22.563  1.00  0.00     0.014 A 
ATOM     24  C   UNL A   1      33.477  17.434  24.310  1.00  0.00     0.001 A 
ATOM     25  O   UNL A   1      31.477  21.200  21.810  1.00  0.00    -0.267 OA
ATOM     26  C   UNL A   1      32.969  17.539  23.016  1.00  0.00     0.001 A 
ENDBRANCH  10  15
ENDBRANCH   7   9
ENDBRANCH   6   7
ENDBRANCH   5   6
ENDBRANCH   4   5
ENDBRANCH   3   4
ENDBRANCH   2   3
ENDBRANCH   1   2
BRANCH   1  27
ATOM     27  O   UNL A   1      34.213  31.741  27.580  1.00  0.00    -0.376 OA
BRANCH  27  28
ATOM     28  C   UNL A   1      34.226  32.737  28.592  1.00  0.00     0.202 C 
BRANCH  28  29
ATOM     29  C   UNL A   1      35.017  32.505  29.884  1.00  0.00     0.261 C 
BRANCH  29  30
ATOM     30  O   UNL A   1      35.572  31.187  30.005  1.00  0.00    -0.460 OA
BRANCH  30  31
ATOM     31  C   UNL A   1      36.432  31.005  31.038  1.00  0.00     0.338 C 
ATOM     32  O   UNL A   1      36.187  31.095  32.229  1.00  0.00    -0.246 OA
BRANCH  31  33
ATOM     33  C   UNL A   1      37.708  30.486  30.509  1.00  0.00     0.060 A 
ATOM     34  C   UNL A   1      37.935  30.423  29.134  1.00  0.00     0.016 A 
ATOM     35  C   UNL A   1      38.693  30.065  31.415  1.00  0.00     0.016 A 
ATOM     36  C   UNL A   1      39.165  29.953  28.666  1.00  0.00     0.010 A 
ATOM     37  C   UNL A   1      39.913  29.579  30.943  1.00  0.00     0.010 A 
ATOM     38  C   UNL A   1      40.165  29.539  29.564  1.00  0.00    -0.014 A 
BRANCH  38  39
ATOM     39  C   UNL A   1      41.520  29.210  29.058  1.00  0.00     0.031 A 
ATOM     40  C   UNL A   1      42.630  30.217  29.061  1.00  0.00     0.074 A 
ATOM     41  C   UNL A   1      41.739  27.959  28.609  1.00  0.00     0.049 A 
ATOM     42  N   UNL A   1      43.889  30.046  28.747  1.00  0.00    -0.248 NA
ATOM     43  C   UNL A   1      42.288  31.588  29.465  1.00  0.00     0.031 C 
ATOM     44  C   UNL A   1      40.724  26.905  28.543  1.00  0.00     0.029 A 
ATOM     45  N   UNL A   1      42.877  27.357  28.142  1.00  0.00    -0.354 N 
ATOM     46  C   UNL A   1      44.503  31.276  28.950  1.00  0.00     0.074 A 
ATOM     47  C   UNL A   1      43.463  32.199  29.359  1.00  0.00     0.031 C 
ATOM     48  C   UNL A   1      41.296  25.775  28.099  1.00  0.00     0.029 A 
ATOM     49  C   UNL A   1      42.707  26.029  27.828  1.00  0.00     0.049 A 
ATOM     50  H   UNL A   1      43.735  27.830  28.041  1.00  0.00     0.167 HD
ATOM     51  C   UNL A   1      45.817  31.592  28.831  1.00  0.00     0.037 A 
ATOM     52  C   UNL A   1      43.591  25.116  27.385  1.00  0.00     0.037 A 
ATOM     53  C   UNL A   1      46.840  30.670  28.398  1.00  0.00     0.049 A 
ATOM     54  C   UNL A   1      45.028  25.514  27.195  1.00  0.00     0.074 A 
ATOM     55  C   UNL A   1      48.198  30.899  28.253  1.00  0.00     0.029 A 
ATOM     56  N   UNL A   1      46.620  29.350  28.031  1.00  0.00    -0.354 N 
ATOM     57  N   UNL A   1      45.603  26.667  27.442  1.00  0.00    -0.248 NA
ATOM     58  C   UNL A   1      45.939  24.487  26.671  1.00  0.00     0.031 C 
ATOM     59  C   UNL A   1      48.792  29.734  27.759  1.00  0.00     0.029 A 
ATOM     60  C   UNL A   1      47.814  28.761  27.641  1.00  0.00     0.049 A 
ATOM     61  H   UNL A   1      45.746  28.898  28.046  1.00  0.00     0.167 HD
ATOM     62  C   UNL A   1      46.947  26.495  27.128  1.00  0.00     0.074 A 
ATOM     63  C   UNL A   1      47.101  25.125  26.686  1.00  0.00     0.031 C 
ATOM     64  C   UNL A   1      47.960  27.395  27.200  1.00  0.00     0.037 A 
BRANCH  51  65
ATOM     65  C   UNL A   1      46.241  32.989  29.197  1.00  0.00     0.058 A 
ATOM     66  C   UNL A   1      46.685  33.294  30.493  1.00  0.00     0.135 A 
ATOM     67  C   UNL A   1      46.301  34.005  28.229  1.00  0.00     0.135 A 
ATOM     68  F   UNL A   1      46.643  32.363  31.459  1.00  0.00    -0.206 F 
ATOM     69  C   UNL A   1      47.165  34.558  30.820  1.00  0.00     0.059 A 
ATOM     70  C   UNL A   1      46.799  35.272  28.528  1.00  0.00     0.059 A 
ATOM     71  F   UNL A   1      45.893  33.766  26.972  1.00  0.00    -0.206 F 
ATOM     72  C   UNL A   1      47.225  35.539  29.829  1.00  0.00     0.060 A 
BRANCH  72  73
ATOM     73  S   UNL A   1      47.887  37.161  30.265  1.00  0.00     0.124 S 
ATOM     74  O   UNL A   1      49.253  36.824  30.659  1.00  0.00    -0.237 OA
ATOM     75  O   UNL A   1      47.755  37.897  29.012  1.00  0.00    -0.237 OA
ATOM     76  O   UNL A   1      47.016  37.608  31.347  1.00  0.00    -0.744 OA
ENDBRANCH  72  73
ENDBRANCH  51  65
BRANCH  52  77
ATOM     77  C   UNL A   1      43.148  23.720  27.132  1.00  0.00     0.058 A 
ATOM     78  C   UNL A   1      42.923  23.264  25.825  1.00  0.00     0.135 A 
ATOM     79  C   UNL A   1      42.956  22.813  28.186  1.00  0.00     0.135 A 
ATOM     80  F   UNL A   1      43.090  24.098  24.787  1.00  0.00    -0.206 F 
ATOM     81  C   UNL A   1      42.506  21.963  25.571  1.00  0.00     0.059 A 
ATOM     82  C   UNL A   1      42.564  21.499  27.954  1.00  0.00     0.059 A 
ATOM     83  F   UNL A   1      43.175  23.197  29.453  1.00  0.00    -0.206 F 
ATOM     84  C   UNL A   1      42.331  21.087  26.643  1.00  0.00     0.060 A 
BRANCH  84  85
ATOM     85  S   UNL A   1      41.822  19.390  26.296  1.00  0.00     0.124 S 
ATOM     86  O   UNL A   1      42.547  19.112  25.062  1.00  0.00    -0.237 OA
ATOM     87  O   UNL A   1      42.291  18.683  27.485  1.00  0.00    -0.237 OA
ATOM     88  O   UNL A   1      40.372  19.493  26.167  1.00  0.00    -0.744 OA
ENDBRANCH  84  85
ENDBRANCH  52  77
BRANCH  64  89
ATOM     89  C   UNL A   1      49.334  26.924  26.806  1.00  0.00     0.058 A 
ATOM     90  C   UNL A   1      50.231  26.405  27.752  1.00  0.00     0.135 A 
ATOM     91  C   UNL A   1      49.738  26.941  25.461  1.00  0.00     0.135 A 
ATOM     92  F   UNL A   1      49.899  26.373  29.053  1.00  0.00    -0.206 F 
ATOM     93  C   UNL A   1      51.488  25.937  27.383  1.00  0.00     0.059 A 
ATOM     94  C   UNL A   1      50.979  26.453  25.065  1.00  0.00     0.059 A 
ATOM     95  F   UNL A   1      48.916  27.421  24.514  1.00  0.00    -0.206 F 
ATOM     96  C   UNL A   1      51.852  25.961  26.035  1.00  0.00     0.060 A 
BRANCH  96  97
ATOM     97  S   UNL A   1      53.471  25.314  25.568  1.00  0.00     0.124 S 
ATOM     98  O   UNL A   1      54.259  25.598  26.763  1.00  0.00    -0.237 OA
ATOM     99  O   UNL A   1      53.183  23.904  25.320  1.00  0.00    -0.237 OA
ATOM    100  O   UNL A   1      53.823  26.094  24.386  1.00  0.00    -0.744 OA
ENDBRANCH  96  97
ENDBRANCH  64  89
ENDBRANCH  38  39
ENDBRANCH  31  33
ENDBRANCH  30  31
ENDBRANCH  29  30
ENDBRANCH  28  29
ENDBRANCH  27  28
ENDBRANCH   1  27
TORSDOF 21
ENDMDL
MODEL 2
REMARK VINA RESULT:     -10.8      6.073     11.821
REMARK SMILES Cc1nn(-c2ccc(C(=O)OCCOCCOCCOC(=O)c3ccc(-c4c5nc(c(-c6c(F)cc(S(=O)(=O)[O-])cc6F)c6ccc([nH]6)c(-c6c(F)cc(S(=O)(=O)[O-])cc6F)c6nc(c(-c7c(F)cc(S(=O)(=O)[O-])cc7F)c7ccc4[nH]7)C=C6)C=C5)cc3)cc2)c(=O)c2ccccc12
REMARK SMILES IDX 16 1 15 2 14 3 13 4 12 5 11 6 9 7 10 8 8 9 5 10 6 11 90 12
REMARK SMILES IDX 7 13 89 14 4 15 1 16 2 17 3 18 98 19 93 20 97 21 91 22 94 23
REMARK SMILES IDX 96 24 92 25 95 26 17 27 18 28 19 29 20 30 21 31 22 32 23 33
REMARK SMILES IDX 24 34 88 35 25 36 87 37 26 38 27 39 28 40 81 41 29 42 86 43
REMARK SMILES IDX 80 44 82 45 30 46 85 47 79 48 78 49 31 51 65 52 44 53 64 54
REMARK SMILES IDX 45 55 48 56 63 57 83 58 46 59 47 60 62 62 84 63 49 64 32 65
REMARK SMILES IDX 33 66 42 67 34 68 35 69 41 70 43 71 36 72 37 73 38 74 39 75
REMARK SMILES IDX 40 76 66 77 67 78 76 79 68 80 69 81 75 82 77 83 70 84 71 85
REMARK SMILES IDX 72 86 73 87 74 88 50 89 51 90 60 91 52 92 53 93 59 94 61 95
REMARK SMILES IDX 54 96 55 97 56 98 57 99 58 100
REMARK H PARENT 82 50 48 61
REMARK Flexibility Score: inf
ROOT
ATOM      1  C   UNL A   1      40.778  21.181  27.181  1.00  0.00     0.188 C 
ENDROOT
BRANCH   1   2
ATOM      2  C   UNL A   1      39.674  22.262  27.152  1.00  0.00     0.188 C 
BRANCH   2   3
ATOM      3  O   UNL A   1      39.047  22.573  25.930  1.00  0.00    -0.376 OA
BRANCH   3   4
ATOM      4  C   UNL A   1      37.998  21.777  25.407  1.00  0.00     0.202 C 
BRANCH   4   5
ATOM      5  C   UNL A   1      36.508  21.925  25.753  1.00  0.00     0.261 C 
BRANCH   5   6
ATOM      6  O   UNL A   1      35.781  22.922  25.036  1.00  0.00    -0.460 OA
BRANCH   6   7
ATOM      7  C   UNL A   1      34.495  22.593  24.746  1.00  0.00     0.338 C 
ATOM      8  O   UNL A   1      33.987  21.487  24.800  1.00  0.00    -0.246 OA
BRANCH   7   9
ATOM      9  C   UNL A   1      33.719  23.826  24.520  1.00  0.00     0.060 A 
ATOM     10  C   UNL A   1      32.325  26.214  24.103  1.00  0.00     0.069 A 
ATOM     11  C   UNL A   1      33.563  26.009  23.480  1.00  0.00     0.029 A 
ATOM     12  C   UNL A   1      31.763  25.182  24.872  1.00  0.00     0.029 A 
ATOM     13  C   UNL A   1      34.277  24.833  23.722  1.00  0.00     0.018 A 
ATOM     14  C   UNL A   1      32.444  23.980  25.066  1.00  0.00     0.018 A 
BRANCH  10  15
ATOM     15  N   UNL A   1      31.705  27.491  24.046  1.00  0.00    -0.196 N 
ATOM     16  C   UNL A   1      31.849  30.441  26.248  1.00  0.00     0.069 C 
ATOM     17  C   UNL A   1      31.435  29.499  25.141  1.00  0.00     0.066 A 
ATOM     18  N   UNL A   1      31.977  28.318  25.110  1.00  0.00    -0.169 NA
ATOM     19  C   UNL A   1      30.439  29.959  24.152  1.00  0.00     0.010 A 
ATOM     20  C   UNL A   1      30.146  29.101  23.102  1.00  0.00     0.051 A 
ATOM     21  C   UNL A   1      29.757  31.178  24.256  1.00  0.00     0.011 A 
ATOM     22  C   UNL A   1      30.867  27.825  22.980  1.00  0.00     0.279 A 
ATOM     23  C   UNL A   1      29.147  29.426  22.174  1.00  0.00     0.014 A 
ATOM     24  C   UNL A   1      28.767  31.507  23.324  1.00  0.00     0.001 A 
ATOM     25  O   UNL A   1      30.643  27.134  21.987  1.00  0.00    -0.267 OA
ATOM     26  C   UNL A   1      28.453  30.627  22.290  1.00  0.00     0.001 A 
ENDBRANCH  10  15
ENDBRANCH   7   9
ENDBRANCH   6   7
ENDBRANCH   5   6
ENDBRANCH   4   5
ENDBRANCH   3   4
ENDBRANCH   2   3
ENDBRANCH   1   2
BRANCH   1  27
ATOM     27  O   UNL A   1      42.146  21.540  27.095  1.00  0.00    -0.376 OA
BRANCH  27  28
ATOM     28  C   UNL A   1      42.690  21.873  25.827  1.00  0.00     0.202 C 
BRANCH  28  29
ATOM     29  C   UNL A   1      42.805  23.342  25.406  1.00  0.00     0.261 C 
BRANCH  29  30
ATOM     30  O   UNL A   1      42.174  24.263  26.308  1.00  0.00    -0.460 OA
BRANCH  30  31
ATOM     31  C   UNL A   1      42.256  25.572  25.963  1.00  0.00     0.338 C 
ATOM     32  O   UNL A   1      42.272  26.041  24.836  1.00  0.00    -0.246 OA
BRANCH  31  33
ATOM     33  C   UNL A   1      42.136  26.395  27.182  1.00  0.00     0.060 A 
ATOM     34  C   UNL A   1      42.972  27.493  27.383  1.00  0.00     0.016 A 
ATOM     35  C   UNL A   1      41.160  26.057  28.131  1.00  0.00     0.016 A 
ATOM     36  C   UNL A   1      42.815  28.269  28.536  1.00  0.00     0.010 A 
ATOM     37  C   UNL A   1      41.019  26.822  29.290  1.00  0.00     0.010 A 
ATOM     38  C   UNL A   1      41.832  27.947  29.490  1.00  0.00    -0.014 A 
BRANCH  38  39
ATOM     39  C   UNL A   1      41.564  28.877  30.614  1.00  0.00     0.031 A 
ATOM     40  C   UNL A   1      40.453  29.881  30.560  1.00  0.00     0.074 A 
ATOM     41  C   UNL A   1      42.342  28.782  31.709  1.00  0.00     0.049 A 
ATOM     42  N   UNL A   1      40.034  30.687  31.502  1.00  0.00    -0.248 NA
ATOM     43  C   UNL A   1      39.718  29.998  29.293  1.00  0.00     0.031 C 
ATOM     44  C   UNL A   1      43.464  27.853  31.860  1.00  0.00     0.029 A 
ATOM     45  N   UNL A   1      42.301  29.454  32.902  1.00  0.00    -0.354 N 
ATOM     46  C   UNL A   1      38.961  31.383  30.959  1.00  0.00     0.074 A 
ATOM     47  C   UNL A   1      38.832  30.944  29.584  1.00  0.00     0.031 C 
ATOM     48  C   UNL A   1      43.982  27.989  33.092  1.00  0.00     0.029 A 
ATOM     49  C   UNL A   1      43.244  29.026  33.807  1.00  0.00     0.049 A 
ATOM     50  H   UNL A   1      41.658  30.174  33.094  1.00  0.00     0.167 HD
ATOM     51  C   UNL A   1      38.148  32.284  31.564  1.00  0.00     0.037 A 
ATOM     52  C   UNL A   1      43.480  29.414  35.073  1.00  0.00     0.037 A 
ATOM     53  C   UNL A   1      38.302  32.733  32.928  1.00  0.00     0.049 A 
ATOM     54  C   UNL A   1      42.605  30.466  35.696  1.00  0.00     0.074 A 
ATOM     55  C   UNL A   1      37.522  33.638  33.629  1.00  0.00     0.029 A 
ATOM     56  N   UNL A   1      39.306  32.322  33.794  1.00  0.00    -0.354 N 
ATOM     57  N   UNL A   1      41.562  31.077  35.186  1.00  0.00    -0.248 NA
ATOM     58  C   UNL A   1      42.934  30.879  37.067  1.00  0.00     0.031 C 
ATOM     59  C   UNL A   1      38.077  33.806  34.901  1.00  0.00     0.029 A 
ATOM     60  C   UNL A   1      39.175  32.971  35.013  1.00  0.00     0.049 A 
ATOM     61  H   UNL A   1      40.006  31.666  33.576  1.00  0.00     0.167 HD
ATOM     62  C   UNL A   1      41.095  31.927  36.184  1.00  0.00     0.074 A 
ATOM     63  C   UNL A   1      41.962  31.741  37.329  1.00  0.00     0.031 C 
ATOM     64  C   UNL A   1      40.044  32.782  36.150  1.00  0.00     0.037 A 
BRANCH  51  65
ATOM     65  C   UNL A   1      36.993  32.834  30.771  1.00  0.00     0.058 A 
ATOM     66  C   UNL A   1      35.699  32.308  30.915  1.00  0.00     0.135 A 
ATOM     67  C   UNL A   1      37.153  33.955  29.940  1.00  0.00     0.135 A 
ATOM     68  F   UNL A   1      35.491  31.232  31.692  1.00  0.00    -0.206 F 
ATOM     69  C   UNL A   1      34.609  32.865  30.258  1.00  0.00     0.059 A 
ATOM     70  C   UNL A   1      36.071  34.544  29.289  1.00  0.00     0.059 A 
ATOM     71  F   UNL A   1      38.368  34.502  29.770  1.00  0.00    -0.206 F 
ATOM     72  C   UNL A   1      34.803  33.988  29.452  1.00  0.00     0.060 A 
BRANCH  72  73
ATOM     73  S   UNL A   1      33.366  34.719  28.638  1.00  0.00     0.124 S 
ATOM     74  O   UNL A   1      32.928  33.625  27.776  1.00  0.00    -0.237 OA
ATOM     75  O   UNL A   1      32.492  35.023  29.766  1.00  0.00    -0.237 OA
ATOM     76  O   UNL A   1      33.918  35.879  27.945  1.00  0.00    -0.744 OA
ENDBRANCH  72  73
ENDBRANCH  51  65
BRANCH  52  77
ATOM     77  C   UNL A   1      44.569  28.770  35.854  1.00  0.00     0.058 A 
ATOM     78  C   UNL A   1      44.307  27.662  36.672  1.00  0.00     0.135 A 
ATOM     79  C   UNL A   1      45.890  29.238  35.785  1.00  0.00     0.135 A 
ATOM     80  F   UNL A   1      43.057  27.183  36.772  1.00  0.00    -0.206 F 
ATOM     81  C   UNL A   1      45.312  27.050  37.411  1.00  0.00     0.059 A 
ATOM     82  C   UNL A   1      46.917  28.626  36.495  1.00  0.00     0.059 A 
ATOM     83  F   UNL A   1      46.194  30.285  35.003  1.00  0.00    -0.206 F 
ATOM     84  C   UNL A   1      46.616  27.538  37.314  1.00  0.00     0.060 A 
BRANCH  84  85
ATOM     85  S   UNL A   1      47.919  26.713  38.252  1.00  0.00     0.124 S 
ATOM     86  O   UNL A   1      47.690  25.315  37.906  1.00  0.00    -0.237 OA
ATOM     87  O   UNL A   1      49.125  27.320  37.696  1.00  0.00    -0.237 OA
ATOM     88  O   UNL A   1      47.622  27.078  39.634  1.00  0.00    -0.744 OA
ENDBRANCH  84  85
ENDBRANCH  52  77
BRANCH  64  89
ATOM     89  C   UNL A   1      39.758  33.577  37.395  1.00  0.00     0.058 A 
ATOM     90  C   UNL A   1      38.887  33.100  38.387  1.00  0.00     0.135 A 
ATOM     91  C   UNL A   1      40.401  34.805  37.624  1.00  0.00     0.135 A 
ATOM     92  F   UNL A   1      38.239  31.937  38.215  1.00  0.00    -0.206 F 
ATOM     93  C   UNL A   1      38.650  33.819  39.554  1.00  0.00     0.059 A 
ATOM     94  C   UNL A   1      40.200  35.528  38.796  1.00  0.00     0.059 A 
ATOM     95  F   UNL A   1      41.249  35.305  36.711  1.00  0.00    -0.206 F 
ATOM     96  C   UNL A   1      39.315  35.031  39.752  1.00  0.00     0.060 A 
BRANCH  96  97
ATOM     97  S   UNL A   1      39.026  35.932  41.290  1.00  0.00     0.124 S 
ATOM     98  O   UNL A   1      40.353  35.915  41.896  1.00  0.00    -0.237 OA
ATOM     99  O   UNL A   1      38.567  37.231  40.807  1.00  0.00    -0.237 OA
ATOM    100  O   UNL A   1      38.016  35.129  41.972  1.00  0.00    -0.744 OA
ENDBRANCH  96  97
ENDBRANCH  64  89
ENDBRANCH  38  39
ENDBRANCH  31  33
ENDBRANCH  30  31
ENDBRANCH  29  30
ENDBRANCH  28  29
ENDBRANCH  27  28
ENDBRANCH   1  27
TORSDOF 21
ENDMDL
MODEL 3
REMARK VINA RESULT:     -10.5      5.842     11.714
REMARK SMILES Cc1nn(-c2ccc(C(=O)OCCOCCOCCOC(=O)c3ccc(-c4c5nc(c(-c6c(F)cc(S(=O)(=O)[O-])cc6F)c6ccc([nH]6)c(-c6c(F)cc(S(=O)(=O)[O-])cc6F)c6nc(c(-c7c(F)cc(S(=O)(=O)[O-])cc7F)c7ccc4[nH]7)C=C6)C=C5)cc3)cc2)c(=O)c2ccccc12
REMARK SMILES IDX 16 1 15 2 14 3 13 4 12 5 11 6 9 7 10 8 8 9 5 10 6 11 90 12
REMARK SMILES IDX 7 13 89 14 4 15 1 16 2 17 3 18 98 19 93 20 97 21 91 22 94 23
REMARK SMILES IDX 96 24 92 25 95 26 17 27 18 28 19 29 20 30 21 31 22 32 23 33
REMARK SMILES IDX 24 34 88 35 25 36 87 37 26 38 27 39 28 40 81 41 29 42 86 43
REMARK SMILES IDX 80 44 82 45 30 46 85 47 79 48 78 49 31 51 65 52 44 53 64 54
REMARK SMILES IDX 45 55 48 56 63 57 83 58 46 59 47 60 62 62 84 63 49 64 32 65
REMARK SMILES IDX 33 66 42 67 34 68 35 69 41 70 43 71 36 72 37 73 38 74 39 75
REMARK SMILES IDX 40 76 66 77 67 78 76 79 68 80 69 81 75 82 77 83 70 84 71 85
REMARK SMILES IDX 72 86 73 87 74 88 50 89 51 90 60 91 52 92 53 93 59 94 61 95
REMARK SMILES IDX 54 96 55 97 56 98 57 99 58 100
REMARK H PARENT 82 50 48 61
REMARK Flexibility Score: inf
ROOT
ATOM      1  C   UNL A   1      40.842  21.825  27.512  1.00  0.00     0.188 C 
ENDROOT
BRANCH   1   2
ATOM      2  C   UNL A   1      39.699  22.823  27.221  1.00  0.00     0.188 C 
BRANCH   2   3
ATOM      3  O   UNL A   1      39.029  22.760  25.983  1.00  0.00    -0.376 OA
BRANCH   3   4
ATOM      4  C   UNL A   1      38.415  21.566  25.529  1.00  0.00     0.202 C 
BRANCH   4   5
ATOM      5  C   UNL A   1      36.907  21.269  25.565  1.00  0.00     0.261 C 
BRANCH   5   6
ATOM      6  O   UNL A   1      36.165  21.591  24.390  1.00  0.00    -0.460 OA
BRANCH   6   7
ATOM      7  C   UNL A   1      34.829  21.355  24.475  1.00  0.00     0.338 C 
ATOM      8  O   UNL A   1      34.282  20.288  24.686  1.00  0.00    -0.246 OA
BRANCH   7   9
ATOM      9  C   UNL A   1      34.107  22.641  24.455  1.00  0.00     0.060 A 
ATOM     10  C   UNL A   1      32.817  25.121  24.443  1.00  0.00     0.069 A 
ATOM     11  C   UNL A   1      34.088  24.991  23.868  1.00  0.00     0.029 A 
ATOM     12  C   UNL A   1      32.174  23.982  24.954  1.00  0.00     0.029 A 
ATOM     13  C   UNL A   1      34.748  23.761  23.911  1.00  0.00     0.018 A 
ATOM     14  C   UNL A   1      32.803  22.737  24.942  1.00  0.00     0.018 A 
BRANCH  10  15
ATOM     15  N   UNL A   1      32.241  26.410  24.606  1.00  0.00    -0.196 N 
ATOM     16  C   UNL A   1      29.937  28.399  22.530  1.00  0.00     0.069 C 
ATOM     17  C   UNL A   1      30.902  28.006  23.625  1.00  0.00     0.066 A 
ATOM     18  N   UNL A   1      31.454  26.832  23.560  1.00  0.00    -0.169 NA
ATOM     19  C   UNL A   1      31.174  28.971  24.711  1.00  0.00     0.010 A 
ATOM     20  C   UNL A   1      31.999  28.546  25.743  1.00  0.00     0.051 A 
ATOM     21  C   UNL A   1      30.686  30.283  24.716  1.00  0.00     0.011 A 
ATOM     22  C   UNL A   1      32.506  27.166  25.750  1.00  0.00     0.279 A 
ATOM     23  C   UNL A   1      32.377  29.430  26.762  1.00  0.00     0.014 A 
ATOM     24  C   UNL A   1      31.055  31.163  25.739  1.00  0.00     0.001 A 
ATOM     25  O   UNL A   1      33.159  26.801  26.727  1.00  0.00    -0.267 OA
ATOM     26  C   UNL A   1      31.910  30.741  26.756  1.00  0.00     0.001 A 
ENDBRANCH  10  15
ENDBRANCH   7   9
ENDBRANCH   6   7
ENDBRANCH   5   6
ENDBRANCH   4   5
ENDBRANCH   3   4
ENDBRANCH   2   3
ENDBRANCH   1   2
BRANCH   1  27
ATOM     27  O   UNL A   1      42.190  22.165  27.238  1.00  0.00    -0.376 OA
BRANCH  27  28
ATOM     28  C   UNL A   1      42.592  22.348  25.889  1.00  0.00     0.202 C 
BRANCH  28  29
ATOM     29  C   UNL A   1      42.750  23.763  25.322  1.00  0.00     0.261 C 
BRANCH  29  30
ATOM     30  O   UNL A   1      42.064  24.776  26.072  1.00  0.00    -0.460 OA
BRANCH  30  31
ATOM     31  C   UNL A   1      42.461  26.052  25.836  1.00  0.00     0.338 C 
ATOM     32  O   UNL A   1      42.726  26.556  24.757  1.00  0.00    -0.246 OA
BRANCH  31  33
ATOM     33  C   UNL A   1      42.350  26.824  27.088  1.00  0.00     0.060 A 
ATOM     34  C   UNL A   1      42.939  28.084  27.200  1.00  0.00     0.016 A 
ATOM     35  C   UNL A   1      41.634  26.273  28.161  1.00  0.00     0.016 A 
ATOM     36  C   UNL A   1      42.793  28.803  28.390  1.00  0.00     0.010 A 
ATOM     37  C   UNL A   1      41.506  26.987  29.354  1.00  0.00     0.010 A 
ATOM     38  C   UNL A   1      42.068  28.266  29.469  1.00  0.00    -0.014 A 
BRANCH  38  39
ATOM     39  C   UNL A   1      41.776  29.110  30.653  1.00  0.00     0.031 A 
ATOM     40  C   UNL A   1      42.670  29.120  31.856  1.00  0.00     0.074 A 
ATOM     41  C   UNL A   1      40.682  29.895  30.613  1.00  0.00     0.049 A 
ATOM     42  N   UNL A   1      42.601  29.879  32.920  1.00  0.00    -0.248 NA
ATOM     43  C   UNL A   1      43.782  28.159  31.870  1.00  0.00     0.031 C 
ATOM     44  C   UNL A   1      39.731  29.949  29.500  1.00  0.00     0.029 A 
ATOM     45  N   UNL A   1      40.195  30.805  31.514  1.00  0.00    -0.354 N 
ATOM     46  C   UNL A   1      43.680  29.518  33.717  1.00  0.00     0.074 A 
ATOM     47  C   UNL A   1      44.355  28.430  33.038  1.00  0.00     0.031 C 
ATOM     48  C   UNL A   1      38.796  30.873  29.769  1.00  0.00     0.029 A 
ATOM     49  C   UNL A   1      39.066  31.459  31.078  1.00  0.00     0.049 A 
ATOM     50  H   UNL A   1      40.612  30.975  32.389  1.00  0.00     0.167 HD
ATOM     51  C   UNL A   1      44.080  30.066  34.891  1.00  0.00     0.037 A 
ATOM     52  C   UNL A   1      38.339  32.431  31.660  1.00  0.00     0.037 A 
ATOM     53  C   UNL A   1      43.385  31.133  35.571  1.00  0.00     0.049 A 
ATOM     54  C   UNL A   1      38.768  32.970  32.997  1.00  0.00     0.074 A 
ATOM     55  C   UNL A   1      43.720  31.756  36.762  1.00  0.00     0.029 A 
ATOM     56  N   UNL A   1      42.212  31.729  35.129  1.00  0.00    -0.354 N 
ATOM     57  N   UNL A   1      39.821  32.655  33.713  1.00  0.00    -0.248 NA
ATOM     58  C   UNL A   1      37.914  34.000  33.602  1.00  0.00     0.031 C 
ATOM     59  C   UNL A   1      42.730  32.697  37.062  1.00  0.00     0.029 A 
ATOM     60  C   UNL A   1      41.801  32.697  36.034  1.00  0.00     0.049 A 
ATOM     61  H   UNL A   1      41.741  31.500  34.296  1.00  0.00     0.167 HD
ATOM     62  C   UNL A   1      39.769  33.466  34.841  1.00  0.00     0.074 A 
ATOM     63  C   UNL A   1      38.589  34.295  34.705  1.00  0.00     0.031 C 
ATOM     64  C   UNL A   1      40.623  33.518  35.893  1.00  0.00     0.037 A 
BRANCH  51  65
ATOM     65  C   UNL A   1      45.345  29.544  35.517  1.00  0.00     0.058 A 
ATOM     66  C   UNL A   1      45.322  28.437  36.381  1.00  0.00     0.135 A 
ATOM     67  C   UNL A   1      46.598  30.082  35.179  1.00  0.00     0.135 A 
ATOM     68  F   UNL A   1      44.152  27.887  36.743  1.00  0.00    -0.206 F 
ATOM     69  C   UNL A   1      46.492  27.889  36.894  1.00  0.00     0.059 A 
ATOM     70  C   UNL A   1      47.784  29.535  35.663  1.00  0.00     0.059 A 
ATOM     71  F   UNL A   1      46.679  31.138  34.353  1.00  0.00    -0.206 F 
ATOM     72  C   UNL A   1      47.720  28.440  36.524  1.00  0.00     0.060 A 
BRANCH  72  73
ATOM     73  S   UNL A   1      49.229  27.688  37.170  1.00  0.00     0.124 S 
ATOM     74  O   UNL A   1      49.066  27.892  38.607  1.00  0.00    -0.237 OA
ATOM     75  O   UNL A   1      49.110  26.308  36.710  1.00  0.00    -0.237 OA
ATOM     76  O   UNL A   1      50.294  28.466  36.546  1.00  0.00    -0.744 OA
ENDBRANCH  72  73
ENDBRANCH  51  65
BRANCH  52  77
ATOM     77  C   UNL A   1      37.153  32.987  30.960  1.00  0.00     0.058 A 
ATOM     78  C   UNL A   1      37.299  33.982  29.982  1.00  0.00     0.135 A 
ATOM     79  C   UNL A   1      35.857  32.528  31.241  1.00  0.00     0.135 A 
ATOM     80  F   UNL A   1      38.519  34.454  29.683  1.00  0.00    -0.206 F 
ATOM     81  C   UNL A   1      36.200  34.516  29.319  1.00  0.00     0.059 A 
ATOM     82  C   UNL A   1      34.746  33.028  30.573  1.00  0.00     0.059 A 
ATOM     83  F   UNL A   1      35.668  31.565  32.157  1.00  0.00    -0.206 F 
ATOM     84  C   UNL A   1      34.927  34.031  29.620  1.00  0.00     0.060 A 
BRANCH  84  85
ATOM     85  S   UNL A   1      33.511  34.709  28.728  1.00  0.00     0.124 S 
ATOM     86  O   UNL A   1      34.097  35.888  28.101  1.00  0.00    -0.237 OA
ATOM     87  O   UNL A   1      33.166  33.612  27.828  1.00  0.00    -0.237 OA
ATOM     88  O   UNL A   1      32.541  34.972  29.786  1.00  0.00    -0.744 OA
ENDBRANCH  84  85
ENDBRANCH  52  77
BRANCH  64  89
ATOM     89  C   UNL A   1      40.325  34.515  36.980  1.00  0.00     0.058 A 
ATOM     90  C   UNL A   1      40.945  35.774  37.011  1.00  0.00     0.135 A 
ATOM     91  C   UNL A   1      39.370  34.231  37.970  1.00  0.00     0.135 A 
ATOM     92  F   UNL A   1      41.872  36.094  36.094  1.00  0.00    -0.206 F 
ATOM     93  C   UNL A   1      40.642  36.710  37.995  1.00  0.00     0.059 A 
ATOM     94  C   UNL A   1      39.032  35.162  38.948  1.00  0.00     0.059 A 
ATOM     95  F   UNL A   1      38.742  33.045  37.983  1.00  0.00    -0.206 F 
ATOM     96  C   UNL A   1      39.681  36.396  38.958  1.00  0.00     0.060 A 
BRANCH  96  97
ATOM     97  S   UNL A   1      39.273  37.636  40.204  1.00  0.00     0.124 S 
ATOM     98  O   UNL A   1      38.168  38.344  39.565  1.00  0.00    -0.237 OA
ATOM     99  O   UNL A   1      38.916  36.814  41.356  1.00  0.00    -0.237 OA
ATOM    100  O   UNL A   1      40.508  38.400  40.344  1.00  0.00    -0.744 OA
ENDBRANCH  96  97
ENDBRANCH  64  89
ENDBRANCH  38  39
ENDBRANCH  31  33
ENDBRANCH  30  31
ENDBRANCH  29  30
ENDBRANCH  28  29
ENDBRANCH  27  28
ENDBRANCH   1  27
TORSDOF 21
ENDMDL
