MODEL 1
REMARK VINA RESULT:      -8.9      0.000      0.000
REMARK SMILES CC[NH2+]C[C@@H](C)C(=O)N1CCO[C@@H](CC(=O)OCCOCCOCCOC(=O)c2ccc(-c3c4nc(c(-c5c(F)cc(S(=O)(=O)[O-])cc5F)c5ccc([nH]5)c(-c5c(F)cc(S(=O)(=O)[O-])cc5F)c5nc(c(-c6c(F)cc(S(=O)(=O)[O-])cc6F)c6ccc3[nH]6)C=C5)C=C4)cc2)C1
REMARK SMILES IDX 20 1 19 2 18 3 17 4 15 5 16 6 14 7 13 8 9 9 10 10 95 11
REMARK SMILES IDX 11 12 12 13 7 14 8 15 5 16 6 17 4 18 3 19 2 22 1 23 21 24
REMARK SMILES IDX 22 25 23 26 24 27 25 28 26 29 27 30 28 31 29 32 30 33 94 34
REMARK SMILES IDX 31 35 93 36 32 37 33 38 34 39 87 40 35 41 92 42 86 43 88 44
REMARK SMILES IDX 36 45 91 46 85 47 84 48 37 50 71 51 50 52 70 53 51 54 54 55
REMARK SMILES IDX 69 56 89 57 52 58 53 59 68 61 90 62 55 63 38 64 39 65 48 66
REMARK SMILES IDX 40 67 41 68 47 69 49 70 42 71 43 72 44 73 45 74 46 75 72 76
REMARK SMILES IDX 73 77 82 78 74 79 75 80 81 81 83 82 76 83 77 84 78 85 79 86
REMARK SMILES IDX 80 87 56 88 57 89 66 90 58 91 59 92 65 93 67 94 60 95 61 96
REMARK SMILES IDX 62 97 63 98 64 99
REMARK H PARENT 3 20 3 21 88 49 54 60
REMARK Flexibility Score: inf
ROOT
ATOM      1  O   UNL A   1      33.130  31.632  26.969  1.00  0.00    -0.376 OA
ENDROOT
BRANCH   1   2
ATOM      2  C   UNL A   1      32.925  30.233  27.153  1.00  0.00     0.202 C 
BRANCH   2   3
ATOM      3  C   UNL A   1      32.789  29.414  25.865  1.00  0.00     0.261 C 
BRANCH   3   4
ATOM      4  O   UNL A   1      31.695  28.474  25.918  1.00  0.00    -0.463 OA
BRANCH   4   5
ATOM      5  C   UNL A   1      31.194  28.091  24.719  1.00  0.00     0.308 C 
ATOM      6  O   UNL A   1      31.067  28.835  23.752  1.00  0.00    -0.252 OA
BRANCH   5   7
ATOM      7  C   UNL A   1      30.878  26.623  24.614  1.00  0.00     0.156 C 
BRANCH   7   8
ATOM      8  C   UNL A   1      31.975  25.579  24.424  1.00  0.00     0.148 C 
ATOM      9  N   UNL A   1      32.876  23.350  25.015  1.00  0.00    -0.337 N 
ATOM     10  C   UNL A   1      32.540  22.873  23.681  1.00  0.00     0.148 C 
ATOM     11  C   UNL A   1      31.975  24.429  25.463  1.00  0.00     0.152 C 
ATOM     12  C   UNL A   1      32.614  24.024  22.689  1.00  0.00     0.182 C 
ATOM     13  O   UNL A   1      31.715  25.065  23.083  1.00  0.00    -0.374 OA
BRANCH   9  14
ATOM     14  C   UNL A   1      33.871  22.893  25.856  1.00  0.00     0.231 C 
ATOM     15  O   UNL A   1      33.834  23.166  27.063  1.00  0.00    -0.274 OA
BRANCH  14  16
ATOM     16  C   UNL A   1      35.151  22.222  25.309  1.00  0.00     0.130 C 
ATOM     17  C   UNL A   1      35.688  23.052  24.148  1.00  0.00     0.024 C 
BRANCH  16  18
ATOM     18  C   UNL A   1      35.126  20.725  24.985  1.00  0.00     0.273 C 
BRANCH  18  19
ATOM     19  N   UNL A   1      33.952  19.967  25.447  1.00  0.00    -0.346 N 
ATOM     20  H   UNL A   1      34.177  19.551  26.350  1.00  0.00     0.346 HD
ATOM     21  H   UNL A   1      33.179  20.631  25.494  1.00  0.00     0.346 HD
BRANCH  19  22
ATOM     22  C   UNL A   1      33.527  18.902  24.549  1.00  0.00     0.257 C 
ATOM     23  C   UNL A   1      32.717  17.884  25.341  1.00  0.00     0.071 C 
ENDBRANCH  19  22
ENDBRANCH  18  19
ENDBRANCH  16  18
ENDBRANCH  14  16
ENDBRANCH   9  14
ENDBRANCH   7   8
ENDBRANCH   5   7
ENDBRANCH   4   5
ENDBRANCH   3   4
ENDBRANCH   2   3
ENDBRANCH   1   2
BRANCH   1  24
ATOM     24  C   UNL A   1      33.649  32.352  28.084  1.00  0.00     0.188 C 
BRANCH  24  25
ATOM     25  C   UNL A   1      33.472  33.867  28.002  1.00  0.00     0.188 C 
BRANCH  25  26
ATOM     26  O   UNL A   1      32.658  34.463  28.993  1.00  0.00    -0.376 OA
BRANCH  26  27
ATOM     27  C   UNL A   1      33.233  35.398  29.910  1.00  0.00     0.202 C 
BRANCH  27  28
ATOM     28  C   UNL A   1      34.042  35.037  31.187  1.00  0.00     0.261 C 
BRANCH  28  29
ATOM     29  O   UNL A   1      35.206  34.214  31.049  1.00  0.00    -0.460 OA
BRANCH  29  30
ATOM     30  C   UNL A   1      35.071  32.900  31.334  1.00  0.00     0.338 C 
ATOM     31  O   UNL A   1      34.058  32.338  31.708  1.00  0.00    -0.246 OA
BRANCH  30  32
ATOM     32  C   UNL A   1      36.300  32.199  30.889  1.00  0.00     0.060 A 
ATOM     33  C   UNL A   1      36.995  31.428  31.833  1.00  0.00     0.016 A 
ATOM     34  C   UNL A   1      36.743  32.250  29.566  1.00  0.00     0.016 A 
ATOM     35  C   UNL A   1      38.147  30.729  31.466  1.00  0.00     0.010 A 
ATOM     36  C   UNL A   1      37.917  31.577  29.206  1.00  0.00     0.010 A 
ATOM     37  C   UNL A   1      38.641  30.840  30.161  1.00  0.00    -0.014 A 
BRANCH  37  38
ATOM     38  C   UNL A   1      40.022  30.386  29.854  1.00  0.00     0.031 A 
ATOM     39  C   UNL A   1      41.131  31.403  29.944  1.00  0.00     0.074 A 
ATOM     40  C   UNL A   1      40.302  29.113  29.520  1.00  0.00     0.049 A 
ATOM     41  N   UNL A   1      42.393  31.290  29.625  1.00  0.00    -0.248 NA
ATOM     42  C   UNL A   1      40.757  32.730  30.462  1.00  0.00     0.031 C 
ATOM     43  C   UNL A   1      39.334  28.019  29.455  1.00  0.00     0.029 A 
ATOM     44  N   UNL A   1      41.493  28.531  29.156  1.00  0.00    -0.354 N 
ATOM     45  C   UNL A   1      42.963  32.528  29.900  1.00  0.00     0.074 A 
ATOM     46  C   UNL A   1      41.903  33.387  30.379  1.00  0.00     0.031 C 
ATOM     47  C   UNL A   1      39.967  26.903  29.046  1.00  0.00     0.029 A 
ATOM     48  C   UNL A   1      41.372  27.211  28.785  1.00  0.00     0.049 A 
ATOM     49  H   UNL A   1      42.351  29.012  29.160  1.00  0.00     0.167 HD
ATOM     50  C   UNL A   1      44.255  32.912  29.777  1.00  0.00     0.037 A 
ATOM     51  C   UNL A   1      42.283  26.364  28.261  1.00  0.00     0.037 A 
ATOM     52  C   UNL A   1      45.307  32.059  29.289  1.00  0.00     0.049 A 
ATOM     53  C   UNL A   1      43.699  26.843  28.038  1.00  0.00     0.074 A 
ATOM     54  C   UNL A   1      46.645  32.361  29.108  1.00  0.00     0.029 A 
ATOM     55  N   UNL A   1      45.139  30.738  28.903  1.00  0.00    -0.354 N 
ATOM     56  N   UNL A   1      44.226  28.018  28.298  1.00  0.00    -0.248 NA
ATOM     57  C   UNL A   1      44.646  25.883  27.450  1.00  0.00     0.031 C 
ATOM     58  C   UNL A   1      47.277  31.237  28.569  1.00  0.00     0.029 A 
ATOM     59  C   UNL A   1      46.346  30.216  28.469  1.00  0.00     0.049 A 
ATOM     60  H   UNL A   1      44.288  30.244  28.932  1.00  0.00     0.167 HD
ATOM     61  C   UNL A   1      45.570  27.922  27.940  1.00  0.00     0.074 A 
ATOM     62  C   UNL A   1      45.776  26.575  27.454  1.00  0.00     0.031 C 
ATOM     63  C   UNL A   1      46.544  28.864  28.008  1.00  0.00     0.037 A 
BRANCH  50  64
ATOM     64  C   UNL A   1      44.599  34.327  30.157  1.00  0.00     0.058 A 
ATOM     65  C   UNL A   1      44.793  35.322  29.186  1.00  0.00     0.135 A 
ATOM     66  C   UNL A   1      44.704  34.698  31.507  1.00  0.00     0.135 A 
ATOM     67  F   UNL A   1      44.728  35.017  27.881  1.00  0.00    -0.206 F 
ATOM     68  C   UNL A   1      45.100  36.632  29.541  1.00  0.00     0.059 A 
ATOM     69  C   UNL A   1      44.980  36.008  31.885  1.00  0.00     0.059 A 
ATOM     70  F   UNL A   1      44.533  33.783  32.475  1.00  0.00    -0.206 F 
ATOM     71  C   UNL A   1      45.189  36.966  30.894  1.00  0.00     0.060 A 
BRANCH  71  72
ATOM     72  S   UNL A   1      45.578  38.672  31.334  1.00  0.00     0.124 S 
ATOM     73  O   UNL A   1      46.938  38.803  30.820  1.00  0.00    -0.237 OA
ATOM     74  O   UNL A   1      44.554  39.420  30.612  1.00  0.00    -0.237 OA
ATOM     75  O   UNL A   1      45.453  38.686  32.788  1.00  0.00    -0.744 OA
ENDBRANCH  71  72
ENDBRANCH  50  64
BRANCH  51  76
ATOM     76  C   UNL A   1      41.890  24.981  27.870  1.00  0.00     0.058 A 
ATOM     77  C   UNL A   1      42.123  23.888  28.718  1.00  0.00     0.135 A 
ATOM     78  C   UNL A   1      41.310  24.719  26.618  1.00  0.00     0.135 A 
ATOM     79  F   UNL A   1      42.690  24.080  29.919  1.00  0.00    -0.206 F 
ATOM     80  C   UNL A   1      41.823  22.584  28.331  1.00  0.00     0.059 A 
ATOM     81  C   UNL A   1      40.971  23.429  26.221  1.00  0.00     0.059 A 
ATOM     82  F   UNL A   1      41.060  25.728  25.768  1.00  0.00    -0.206 F 
ATOM     83  C   UNL A   1      41.247  22.366  27.078  1.00  0.00     0.060 A 
BRANCH  83  84
ATOM     84  S   UNL A   1      40.843  20.673  26.594  1.00  0.00     0.124 S 
ATOM     85  O   UNL A   1      40.876  19.984  27.879  1.00  0.00    -0.237 OA
ATOM     86  O   UNL A   1      39.524  20.834  25.989  1.00  0.00    -0.237 OA
ATOM     87  O   UNL A   1      41.913  20.325  25.663  1.00  0.00    -0.744 OA
ENDBRANCH  83  84
ENDBRANCH  51  76
BRANCH  63  88
ATOM     88  C   UNL A   1      47.938  28.464  27.602  1.00  0.00     0.058 A 
ATOM     89  C   UNL A   1      48.905  28.080  28.542  1.00  0.00     0.135 A 
ATOM     90  C   UNL A   1      48.287  28.403  26.241  1.00  0.00     0.135 A 
ATOM     91  F   UNL A   1      48.627  28.122  29.854  1.00  0.00    -0.206 F 
ATOM     92  C   UNL A   1      50.178  27.672  28.150  1.00  0.00     0.059 A 
ATOM     93  C   UNL A   1      49.543  27.970  25.826  1.00  0.00     0.059 A 
ATOM     94  F   UNL A   1      47.396  28.746  25.299  1.00  0.00    -0.206 F 
ATOM     95  C   UNL A   1      50.486  27.616  26.790  1.00  0.00     0.060 A 
BRANCH  95  96
ATOM     96  S   UNL A   1      52.127  27.048  26.295  1.00  0.00     0.124 S 
ATOM     97  O   UNL A   1      52.560  28.127  25.415  1.00  0.00    -0.237 OA
ATOM     98  O   UNL A   1      52.823  26.953  27.575  1.00  0.00    -0.237 OA
ATOM     99  O   UNL A   1      51.862  25.771  25.638  1.00  0.00    -0.744 OA
ENDBRANCH  95  96
ENDBRANCH  63  88
ENDBRANCH  37  38
ENDBRANCH  30  32
ENDBRANCH  29  30
ENDBRANCH  28  29
ENDBRANCH  27  28
ENDBRANCH  26  27
ENDBRANCH  25  26
ENDBRANCH  24  25
ENDBRANCH   1  24
TORSDOF 26
ENDMDL
MODEL 2
REMARK VINA RESULT:      -8.4      1.596      2.248
REMARK SMILES CC[NH2+]C[C@@H](C)C(=O)N1CCO[C@@H](CC(=O)OCCOCCOCCOC(=O)c2ccc(-c3c4nc(c(-c5c(F)cc(S(=O)(=O)[O-])cc5F)c5ccc([nH]5)c(-c5c(F)cc(S(=O)(=O)[O-])cc5F)c5nc(c(-c6c(F)cc(S(=O)(=O)[O-])cc6F)c6ccc3[nH]6)C=C5)C=C4)cc2)C1
REMARK SMILES IDX 20 1 19 2 18 3 17 4 15 5 16 6 14 7 13 8 9 9 10 10 95 11
REMARK SMILES IDX 11 12 12 13 7 14 8 15 5 16 6 17 4 18 3 19 2 22 1 23 21 24
REMARK SMILES IDX 22 25 23 26 24 27 25 28 26 29 27 30 28 31 29 32 30 33 94 34
REMARK SMILES IDX 31 35 93 36 32 37 33 38 34 39 87 40 35 41 92 42 86 43 88 44
REMARK SMILES IDX 36 45 91 46 85 47 84 48 37 50 71 51 50 52 70 53 51 54 54 55
REMARK SMILES IDX 69 56 89 57 52 58 53 59 68 61 90 62 55 63 38 64 39 65 48 66
REMARK SMILES IDX 40 67 41 68 47 69 49 70 42 71 43 72 44 73 45 74 46 75 72 76
REMARK SMILES IDX 73 77 82 78 74 79 75 80 81 81 83 82 76 83 77 84 78 85 79 86
REMARK SMILES IDX 80 87 56 88 57 89 66 90 58 91 59 92 65 93 67 94 60 95 61 96
REMARK SMILES IDX 62 97 63 98 64 99
REMARK H PARENT 3 20 3 21 88 49 54 60
REMARK Flexibility Score: inf
ROOT
ATOM      1  O   UNL A   1      33.214  32.220  27.080  1.00  0.00    -0.376 OA
ENDROOT
BRANCH   1   2
ATOM      2  C   UNL A   1      32.700  30.891  27.104  1.00  0.00     0.202 C 
BRANCH   2   3
ATOM      3  C   UNL A   1      32.581  30.207  25.738  1.00  0.00     0.261 C 
BRANCH   3   4
ATOM      4  O   UNL A   1      31.356  29.456  25.597  1.00  0.00    -0.463 OA
BRANCH   4   5
ATOM      5  C   UNL A   1      31.264  28.692  24.483  1.00  0.00     0.308 C 
ATOM      6  O   UNL A   1      31.606  29.055  23.362  1.00  0.00    -0.252 OA
BRANCH   5   7
ATOM      7  C   UNL A   1      30.784  27.286  24.728  1.00  0.00     0.156 C 
BRANCH   7   8
ATOM      8  C   UNL A   1      31.717  26.205  25.266  1.00  0.00     0.148 C 
ATOM      9  N   UNL A   1      32.120  23.796  25.678  1.00  0.00    -0.337 N 
ATOM     10  C   UNL A   1      33.139  23.801  24.637  1.00  0.00     0.148 C 
ATOM     11  C   UNL A   1      31.071  24.805  25.434  1.00  0.00     0.152 C 
ATOM     12  C   UNL A   1      33.784  25.177  24.555  1.00  0.00     0.182 C 
ATOM     13  O   UNL A   1      32.788  26.165  24.277  1.00  0.00    -0.374 OA
BRANCH   9  14
ATOM     14  C   UNL A   1      32.033  22.968  26.778  1.00  0.00     0.231 C 
ATOM     15  O   UNL A   1      31.154  23.160  27.629  1.00  0.00    -0.274 OA
BRANCH  14  16
ATOM     16  C   UNL A   1      33.128  21.926  27.099  1.00  0.00     0.130 C 
ATOM     17  C   UNL A   1      34.404  22.657  27.503  1.00  0.00     0.024 C 
BRANCH  16  18
ATOM     18  C   UNL A   1      33.401  20.801  26.095  1.00  0.00     0.273 C 
BRANCH  18  19
ATOM     19  N   UNL A   1      32.239  20.266  25.368  1.00  0.00    -0.346 N 
ATOM     20  H   UNL A   1      31.999  19.361  25.774  1.00  0.00     0.346 HD
ATOM     21  H   UNL A   1      31.495  20.957  25.464  1.00  0.00     0.346 HD
BRANCH  19  22
ATOM     22  C   UNL A   1      32.451  20.081  23.939  1.00  0.00     0.257 C 
ATOM     23  C   UNL A   1      32.758  18.614  23.672  1.00  0.00     0.071 C 
ENDBRANCH  19  22
ENDBRANCH  18  19
ENDBRANCH  16  18
ENDBRANCH  14  16
ENDBRANCH   9  14
ENDBRANCH   7   8
ENDBRANCH   5   7
ENDBRANCH   4   5
ENDBRANCH   3   4
ENDBRANCH   2   3
ENDBRANCH   1   2
BRANCH   1  24
ATOM     24  C   UNL A   1      33.650  32.758  28.325  1.00  0.00     0.188 C 
BRANCH  24  25
ATOM     25  C   UNL A   1      33.596  34.281  28.415  1.00  0.00     0.188 C 
BRANCH  25  26
ATOM     26  O   UNL A   1      32.634  34.830  29.295  1.00  0.00    -0.376 OA
BRANCH  26  27
ATOM     27  C   UNL A   1      33.053  35.727  30.328  1.00  0.00     0.202 C 
BRANCH  27  28
ATOM     28  C   UNL A   1      33.514  35.318  31.754  1.00  0.00     0.261 C 
BRANCH  28  29
ATOM     29  O   UNL A   1      34.783  34.672  31.905  1.00  0.00    -0.460 OA
BRANCH  29  30
ATOM     30  C   UNL A   1      34.777  33.340  32.127  1.00  0.00     0.338 C 
ATOM     31  O   UNL A   1      33.820  32.661  32.452  1.00  0.00    -0.246 OA
BRANCH  30  32
ATOM     32  C   UNL A   1      36.078  32.787  31.677  1.00  0.00     0.060 A 
ATOM     33  C   UNL A   1      36.822  32.028  32.593  1.00  0.00     0.016 A 
ATOM     34  C   UNL A   1      36.546  32.963  30.372  1.00  0.00     0.016 A 
ATOM     35  C   UNL A   1      38.044  31.466  32.218  1.00  0.00     0.010 A 
ATOM     36  C   UNL A   1      37.787  32.429  30.008  1.00  0.00     0.010 A 
ATOM     37  C   UNL A   1      38.556  31.704  30.938  1.00  0.00    -0.014 A 
BRANCH  37  38
ATOM     38  C   UNL A   1      39.981  31.404  30.645  1.00  0.00     0.031 A 
ATOM     39  C   UNL A   1      40.994  32.489  30.902  1.00  0.00     0.074 A 
ATOM     40  C   UNL A   1      40.381  30.205  30.181  1.00  0.00     0.049 A 
ATOM     41  N   UNL A   1      42.272  32.517  30.631  1.00  0.00    -0.248 NA
ATOM     42  C   UNL A   1      40.489  33.712  31.549  1.00  0.00     0.031 C 
ATOM     43  C   UNL A   1      39.514  29.052  29.948  1.00  0.00     0.029 A 
ATOM     44  N   UNL A   1      41.630  29.769  29.808  1.00  0.00    -0.354 N 
ATOM     45  C   UNL A   1      42.723  33.756  31.071  1.00  0.00     0.074 A 
ATOM     46  C   UNL A   1      41.576  34.465  31.595  1.00  0.00     0.031 C 
ATOM     47  C   UNL A   1      40.255  28.047  29.444  1.00  0.00     0.029 A 
ATOM     48  C   UNL A   1      41.637  28.496  29.284  1.00  0.00     0.049 A 
ATOM     49  H   UNL A   1      42.443  30.315  29.907  1.00  0.00     0.167 HD
ATOM     50  C   UNL A   1      43.981  34.257  31.052  1.00  0.00     0.037 A 
ATOM     51  C   UNL A   1      42.636  27.794  28.710  1.00  0.00     0.037 A 
ATOM     52  C   UNL A   1      45.119  33.555  30.519  1.00  0.00     0.049 A 
ATOM     53  C   UNL A   1      44.013  28.409  28.609  1.00  0.00     0.074 A 
ATOM     54  C   UNL A   1      46.433  33.984  30.436  1.00  0.00     0.029 A 
ATOM     55  N   UNL A   1      45.080  32.279  29.978  1.00  0.00    -0.354 N 
ATOM     56  N   UNL A   1      44.427  29.584  29.025  1.00  0.00    -0.248 NA
ATOM     57  C   UNL A   1      45.059  27.605  27.959  1.00  0.00     0.031 C 
ATOM     58  C   UNL A   1      47.178  32.986  29.802  1.00  0.00     0.029 A 
ATOM     59  C   UNL A   1      46.342  31.912  29.543  1.00  0.00     0.049 A 
ATOM     60  H   UNL A   1      44.274  31.718  29.911  1.00  0.00     0.167 HD
ATOM     61  C   UNL A   1      45.786  29.641  28.721  1.00  0.00     0.074 A 
ATOM     62  C   UNL A   1      46.125  28.381  28.094  1.00  0.00     0.031 C 
ATOM     63  C   UNL A   1      46.672  30.644  28.940  1.00  0.00     0.037 A 
BRANCH  50  64
ATOM     64  C   UNL A   1      44.188  35.640  31.606  1.00  0.00     0.058 A 
ATOM     65  C   UNL A   1      44.513  35.851  32.956  1.00  0.00     0.135 A 
ATOM     66  C   UNL A   1      44.091  36.765  30.772  1.00  0.00     0.135 A 
ATOM     67  F   UNL A   1      44.594  34.812  33.803  1.00  0.00    -0.206 F 
ATOM     68  C   UNL A   1      44.714  37.130  33.463  1.00  0.00     0.059 A 
ATOM     69  C   UNL A   1      44.317  38.051  31.251  1.00  0.00     0.059 A 
ATOM     70  F   UNL A   1      43.777  36.620  29.475  1.00  0.00    -0.206 F 
ATOM     71  C   UNL A   1      44.617  38.224  32.602  1.00  0.00     0.060 A 
BRANCH  71  72
ATOM     72  S   UNL A   1      44.891  39.876  33.275  1.00  0.00     0.124 S 
ATOM     73  O   UNL A   1      46.167  40.233  32.661  1.00  0.00    -0.237 OA
ATOM     74  O   UNL A   1      43.727  40.607  32.787  1.00  0.00    -0.237 OA
ATOM     75  O   UNL A   1      44.930  39.654  34.717  1.00  0.00    -0.744 OA
ENDBRANCH  71  72
ENDBRANCH  50  64
BRANCH  51  76
ATOM     76  C   UNL A   1      42.378  26.439  28.145  1.00  0.00     0.058 A 
ATOM     77  C   UNL A   1      42.753  25.276  28.837  1.00  0.00     0.135 A 
ATOM     78  C   UNL A   1      41.788  26.281  26.881  1.00  0.00     0.135 A 
ATOM     79  F   UNL A   1      43.336  25.371  30.041  1.00  0.00    -0.206 F 
ATOM     80  C   UNL A   1      42.578  24.010  28.285  1.00  0.00     0.059 A 
ATOM     81  C   UNL A   1      41.573  25.025  26.322  1.00  0.00     0.059 A 
ATOM     82  F   UNL A   1      41.405  27.358  26.178  1.00  0.00    -0.206 F 
ATOM     83  C   UNL A   1      41.988  23.895  27.026  1.00  0.00     0.060 A 
BRANCH  83  84
ATOM     84  S   UNL A   1      41.748  22.246  26.328  1.00  0.00     0.124 S 
ATOM     85  O   UNL A   1      42.260  21.397  27.398  1.00  0.00    -0.237 OA
ATOM     86  O   UNL A   1      40.304  22.209  26.118  1.00  0.00    -0.237 OA
ATOM     87  O   UNL A   1      42.551  22.277  25.108  1.00  0.00    -0.744 OA
ENDBRANCH  83  84
ENDBRANCH  51  76
BRANCH  63  88
ATOM     88  C   UNL A   1      48.109  30.409  28.556  1.00  0.00     0.058 A 
ATOM     89  C   UNL A   1      48.653  30.913  27.365  1.00  0.00     0.135 A 
ATOM     90  C   UNL A   1      48.972  29.723  29.429  1.00  0.00     0.135 A 
ATOM     91  F   UNL A   1      47.875  31.572  26.493  1.00  0.00    -0.206 F 
ATOM     92  C   UNL A   1      49.994  30.725  27.041  1.00  0.00     0.059 A 
ATOM     93  C   UNL A   1      50.322  29.550  29.140  1.00  0.00     0.059 A 
ATOM     94  F   UNL A   1      48.508  29.231  30.589  1.00  0.00    -0.206 F 
ATOM     95  C   UNL A   1      50.821  30.046  27.936  1.00  0.00     0.060 A 
BRANCH  95  96
ATOM     96  S   UNL A   1      52.567  29.844  27.521  1.00  0.00     0.124 S 
ATOM     97  O   UNL A   1      52.654  28.404  27.303  1.00  0.00    -0.237 OA
ATOM     98  O   UNL A   1      52.702  30.676  26.330  1.00  0.00    -0.237 OA
ATOM     99  O   UNL A   1      53.259  30.342  28.706  1.00  0.00    -0.744 OA
ENDBRANCH  95  96
ENDBRANCH  63  88
ENDBRANCH  37  38
ENDBRANCH  30  32
ENDBRANCH  29  30
ENDBRANCH  28  29
ENDBRANCH  27  28
ENDBRANCH  26  27
ENDBRANCH  25  26
ENDBRANCH  24  25
ENDBRANCH   1  24
TORSDOF 26
ENDMDL
MODEL 3
REMARK VINA RESULT:      -8.2      5.605     12.372
REMARK SMILES CC[NH2+]C[C@@H](C)C(=O)N1CCO[C@@H](CC(=O)OCCOCCOCCOC(=O)c2ccc(-c3c4nc(c(-c5c(F)cc(S(=O)(=O)[O-])cc5F)c5ccc([nH]5)c(-c5c(F)cc(S(=O)(=O)[O-])cc5F)c5nc(c(-c6c(F)cc(S(=O)(=O)[O-])cc6F)c6ccc3[nH]6)C=C5)C=C4)cc2)C1
REMARK SMILES IDX 20 1 19 2 18 3 17 4 15 5 16 6 14 7 13 8 9 9 10 10 95 11
REMARK SMILES IDX 11 12 12 13 7 14 8 15 5 16 6 17 4 18 3 19 2 22 1 23 21 24
REMARK SMILES IDX 22 25 23 26 24 27 25 28 26 29 27 30 28 31 29 32 30 33 94 34
REMARK SMILES IDX 31 35 93 36 32 37 33 38 34 39 87 40 35 41 92 42 86 43 88 44
REMARK SMILES IDX 36 45 91 46 85 47 84 48 37 50 71 51 50 52 70 53 51 54 54 55
REMARK SMILES IDX 69 56 89 57 52 58 53 59 68 61 90 62 55 63 38 64 39 65 48 66
REMARK SMILES IDX 40 67 41 68 47 69 49 70 42 71 43 72 44 73 45 74 46 75 72 76
REMARK SMILES IDX 73 77 82 78 74 79 75 80 81 81 83 82 76 83 77 84 78 85 79 86
REMARK SMILES IDX 80 87 56 88 57 89 66 90 58 91 59 92 65 93 67 94 60 95 61 96
REMARK SMILES IDX 62 97 63 98 64 99
REMARK H PARENT 3 20 3 21 88 49 54 60
REMARK Flexibility Score: inf
ROOT
ATOM      1  O   UNL A   1      36.908  20.389  25.562  1.00  0.00    -0.376 OA
ENDROOT
BRANCH   1   2
ATOM      2  C   UNL A   1      38.034  19.783  24.932  1.00  0.00     0.202 C 
BRANCH   2   3
ATOM      3  C   UNL A   1      39.401  20.315  25.378  1.00  0.00     0.261 C 
BRANCH   3   4
ATOM      4  O   UNL A   1      40.336  19.259  25.683  1.00  0.00    -0.463 OA
BRANCH   4   5
ATOM      5  C   UNL A   1      41.457  19.642  26.340  1.00  0.00     0.308 C 
ATOM      6  O   UNL A   1      42.322  18.871  26.743  1.00  0.00    -0.252 OA
BRANCH   5   7
ATOM      7  C   UNL A   1      41.627  21.132  26.467  1.00  0.00     0.156 C 
BRANCH   7   8
ATOM      8  C   UNL A   1      42.708  21.883  25.694  1.00  0.00     0.148 C 
ATOM      9  N   UNL A   1      44.664  23.401  25.761  1.00  0.00    -0.337 N 
ATOM     10  C   UNL A   1      45.526  22.288  25.387  1.00  0.00     0.148 C 
ATOM     11  C   UNL A   1      43.474  22.956  26.511  1.00  0.00     0.152 C 
ATOM     12  C   UNL A   1      44.746  21.296  24.537  1.00  0.00     0.182 C 
ATOM     13  O   UNL A   1      43.609  20.820  25.264  1.00  0.00    -0.374 OA
BRANCH   9  14
ATOM     14  C   UNL A   1      44.862  24.746  25.522  1.00  0.00     0.231 C 
ATOM     15  O   UNL A   1      45.791  25.114  24.790  1.00  0.00    -0.274 OA
BRANCH  14  16
ATOM     16  C   UNL A   1      44.091  25.831  26.305  1.00  0.00     0.130 C 
ATOM     17  C   UNL A   1      43.760  26.983  25.362  1.00  0.00     0.024 C 
BRANCH  16  18
ATOM     18  C   UNL A   1      44.653  26.325  27.642  1.00  0.00     0.273 C 
BRANCH  18  19
ATOM     19  N   UNL A   1      46.061  26.754  27.651  1.00  0.00    -0.346 N 
ATOM     20  H   UNL A   1      46.295  27.096  26.719  1.00  0.00     0.346 HD
ATOM     21  H   UNL A   1      46.140  27.472  28.372  1.00  0.00     0.346 HD
BRANCH  19  22
ATOM     22  C   UNL A   1      47.011  25.708  28.003  1.00  0.00     0.257 C 
ATOM     23  C   UNL A   1      47.211  25.714  29.513  1.00  0.00     0.071 C 
ENDBRANCH  19  22
ENDBRANCH  18  19
ENDBRANCH  16  18
ENDBRANCH  14  16
ENDBRANCH   9  14
ENDBRANCH   7   8
ENDBRANCH   5   7
ENDBRANCH   4   5
ENDBRANCH   3   4
ENDBRANCH   2   3
ENDBRANCH   1   2
BRANCH   1  24
ATOM     24  C   UNL A   1      36.133  21.277  24.762  1.00  0.00     0.188 C 
BRANCH  24  25
ATOM     25  C   UNL A   1      36.904  22.474  24.210  1.00  0.00     0.188 C 
BRANCH  25  26
ATOM     26  O   UNL A   1      36.670  23.720  24.836  1.00  0.00    -0.376 OA
BRANCH  26  27
ATOM     27  C   UNL A   1      37.480  24.114  25.948  1.00  0.00     0.202 C 
BRANCH  27  28
ATOM     28  C   UNL A   1      38.848  23.490  26.340  1.00  0.00     0.261 C 
BRANCH  28  29
ATOM     29  O   UNL A   1      39.693  24.210  27.245  1.00  0.00    -0.460 OA
BRANCH  29  30
ATOM     30  C   UNL A   1      40.201  25.385  26.814  1.00  0.00     0.338 C 
ATOM     31  O   UNL A   1      40.555  25.651  25.679  1.00  0.00    -0.246 OA
BRANCH  30  32
ATOM     32  C   UNL A   1      40.039  26.387  27.895  1.00  0.00     0.060 A 
ATOM     33  C   UNL A   1      40.717  27.608  27.767  1.00  0.00     0.016 A 
ATOM     34  C   UNL A   1      39.203  26.163  28.992  1.00  0.00     0.016 A 
ATOM     35  C   UNL A   1      40.584  28.597  28.744  1.00  0.00     0.010 A 
ATOM     36  C   UNL A   1      39.098  27.141  29.988  1.00  0.00     0.010 A 
ATOM     37  C   UNL A   1      39.812  28.349  29.884  1.00  0.00    -0.014 A 
BRANCH  37  38
ATOM     38  C   UNL A   1      39.934  29.241  31.067  1.00  0.00     0.031 A 
ATOM     39  C   UNL A   1      41.068  28.983  32.025  1.00  0.00     0.074 A 
ATOM     40  C   UNL A   1      39.084  30.260  31.288  1.00  0.00     0.049 A 
ATOM     41  N   UNL A   1      41.329  29.543  33.177  1.00  0.00    -0.248 NA
ATOM     42  C   UNL A   1      42.035  27.946  31.627  1.00  0.00     0.031 C 
ATOM     43  C   UNL A   1      37.984  30.654  30.410  1.00  0.00     0.029 A 
ATOM     44  N   UNL A   1      39.009  31.143  32.339  1.00  0.00    -0.354 N 
ATOM     45  C   UNL A   1      42.486  28.927  33.641  1.00  0.00     0.074 A 
ATOM     46  C   UNL A   1      42.857  27.927  32.664  1.00  0.00     0.031 C 
ATOM     47  C   UNL A   1      37.326  31.685  30.974  1.00  0.00     0.029 A 
ATOM     48  C   UNL A   1      37.933  31.998  32.267  1.00  0.00     0.049 A 
ATOM     49  H   UNL A   1      39.664  31.163  33.073  1.00  0.00     0.167 HD
ATOM     50  C   UNL A   1      43.184  29.178  34.774  1.00  0.00     0.037 A 
ATOM     51  C   UNL A   1      37.474  32.900  33.159  1.00  0.00     0.037 A 
ATOM     52  C   UNL A   1      42.806  30.165  35.751  1.00  0.00     0.049 A 
ATOM     53  C   UNL A   1      38.213  33.097  34.463  1.00  0.00     0.074 A 
ATOM     54  C   UNL A   1      43.437  30.482  36.941  1.00  0.00     0.029 A 
ATOM     55  N   UNL A   1      41.699  30.993  35.652  1.00  0.00    -0.354 N 
ATOM     56  N   UNL A   1      39.303  32.505  34.894  1.00  0.00    -0.248 NA
ATOM     57  C   UNL A   1      37.658  34.082  35.404  1.00  0.00     0.031 C 
ATOM     58  C   UNL A   1      42.684  31.469  37.584  1.00  0.00     0.029 A 
ATOM     59  C   UNL A   1      41.618  31.809  36.768  1.00  0.00     0.049 A 
ATOM     60  H   UNL A   1      41.063  31.000  34.900  1.00  0.00     0.167 HD
ATOM     61  C   UNL A   1      39.582  33.074  36.135  1.00  0.00     0.074 A 
ATOM     62  C   UNL A   1      38.553  34.061  36.382  1.00  0.00     0.031 C 
ATOM     63  C   UNL A   1      40.599  32.805  36.992  1.00  0.00     0.037 A 
BRANCH  50  64
ATOM     64  C   UNL A   1      44.418  28.356  35.027  1.00  0.00     0.058 A 
ATOM     65  C   UNL A   1      44.363  27.150  35.744  1.00  0.00     0.135 A 
ATOM     66  C   UNL A   1      45.663  28.761  34.519  1.00  0.00     0.135 A 
ATOM     67  F   UNL A   1      43.203  26.729  36.273  1.00  0.00    -0.206 F 
ATOM     68  C   UNL A   1      45.504  26.386  35.967  1.00  0.00     0.059 A 
ATOM     69  C   UNL A   1      46.810  27.997  34.704  1.00  0.00     0.059 A 
ATOM     70  F   UNL A   1      45.771  29.908  33.830  1.00  0.00    -0.206 F 
ATOM     71  C   UNL A   1      46.723  26.817  35.441  1.00  0.00     0.060 A 
BRANCH  71  72
ATOM     72  S   UNL A   1      48.190  25.807  35.732  1.00  0.00     0.124 S 
ATOM     73  O   UNL A   1      47.740  24.498  35.268  1.00  0.00    -0.237 OA
ATOM     74  O   UNL A   1      49.190  26.465  34.896  1.00  0.00    -0.237 OA
ATOM     75  O   UNL A   1      48.404  25.922  37.170  1.00  0.00    -0.744 OA
ENDBRANCH  71  72
ENDBRANCH  50  64
BRANCH  51  76
ATOM     76  C   UNL A   1      36.229  33.671  32.879  1.00  0.00     0.058 A 
ATOM     77  C   UNL A   1      36.278  34.995  32.419  1.00  0.00     0.135 A 
ATOM     78  C   UNL A   1      34.963  33.109  33.110  1.00  0.00     0.135 A 
ATOM     79  F   UNL A   1      37.462  35.586  32.198  1.00  0.00    -0.206 F 
ATOM     80  C   UNL A   1      35.121  35.744  32.222  1.00  0.00     0.059 A 
ATOM     81  C   UNL A   1      33.791  33.827  32.890  1.00  0.00     0.059 A 
ATOM     82  F   UNL A   1      34.857  31.844  33.546  1.00  0.00    -0.206 F 
ATOM     83  C   UNL A   1      33.881  35.150  32.462  1.00  0.00     0.060 A 
BRANCH  83  84
ATOM     84  S   UNL A   1      32.384  36.124  32.185  1.00  0.00     0.124 S 
ATOM     85  O   UNL A   1      31.343  35.171  32.552  1.00  0.00    -0.237 OA
ATOM     86  O   UNL A   1      32.575  37.245  33.099  1.00  0.00    -0.237 OA
ATOM     87  O   UNL A   1      32.461  36.460  30.766  1.00  0.00    -0.744 OA
ENDBRANCH  83  84
ENDBRANCH  51  76
BRANCH  63  88
ATOM     88  C   UNL A   1      40.690  33.622  38.254  1.00  0.00     0.058 A 
ATOM     89  C   UNL A   1      39.961  33.293  39.407  1.00  0.00     0.135 A 
ATOM     90  C   UNL A   1      41.572  34.714  38.327  1.00  0.00     0.135 A 
ATOM     91  F   UNL A   1      39.102  32.263  39.393  1.00  0.00    -0.206 F 
ATOM     92  C   UNL A   1      40.086  34.032  40.581  1.00  0.00     0.059 A 
ATOM     93  C   UNL A   1      41.735  35.447  39.498  1.00  0.00     0.059 A 
ATOM     94  F   UNL A   1      42.304  35.065  37.258  1.00  0.00    -0.206 F 
ATOM     95  C   UNL A   1      40.979  35.105  40.618  1.00  0.00     0.060 A 
BRANCH  95  96
ATOM     96  S   UNL A   1      41.159  36.029  42.159  1.00  0.00     0.124 S 
ATOM     97  O   UNL A   1      40.585  37.320  41.797  1.00  0.00    -0.237 OA
ATOM     98  O   UNL A   1      40.379  35.227  43.096  1.00  0.00    -0.237 OA
ATOM     99  O   UNL A   1      42.600  36.026  42.391  1.00  0.00    -0.744 OA
ENDBRANCH  95  96
ENDBRANCH  63  88
ENDBRANCH  37  38
ENDBRANCH  30  32
ENDBRANCH  29  30
ENDBRANCH  28  29
ENDBRANCH  27  28
ENDBRANCH  26  27
ENDBRANCH  25  26
ENDBRANCH  24  25
ENDBRANCH   1  24
TORSDOF 26
ENDMDL
