MODEL 1
REMARK VINA RESULT:     -11.8      0.000      0.000
REMARK SMILES Cc1cc(NC(=O)[C@H]2[C@@H](C(=O)OCCOCCOCCOC(=O)c3ccc(-c4c5nc(c(-c6c(F)cc(S(=O)(=O)[O-])cc6F)c6ccc([nH]6)c(-c6c(F)cc(S(=O)(=O)[O-])cc6F)c6nc(c(-c7c(F)cc(S(=O)(=O)[O-])cc7F)c7ccc4[nH]7)C=C6)C=C5)cc3)C2(C)C)n(-c2ccc(F)cc2)n1
REMARK SMILES IDX 16 1 15 2 14 3 13 4 12 5 10 6 11 7 9 8 8 9 90 10 91 11 92 12
REMARK SMILES IDX 6 13 5 14 7 16 4 17 1 18 2 19 3 20 101 21 93 22 94 23 95 24
REMARK SMILES IDX 100 25 96 26 99 27 97 28 98 29 17 30 18 31 19 32 20 33 21 34
REMARK SMILES IDX 22 35 23 36 24 37 25 38 89 39 26 40 88 41 27 42 28 43 29 44
REMARK SMILES IDX 82 45 30 46 87 47 81 48 83 49 31 50 86 51 80 52 79 53 32 55
REMARK SMILES IDX 66 56 45 57 65 58 46 59 49 60 64 61 84 62 47 63 48 64 63 66
REMARK SMILES IDX 85 67 50 68 33 69 34 70 43 71 35 72 36 73 42 74 44 75 37 76
REMARK SMILES IDX 38 77 39 78 40 79 41 80 67 81 68 82 77 83 69 84 70 85 76 86
REMARK SMILES IDX 78 87 71 88 72 89 73 90 74 91 75 92 51 93 52 94 61 95 53 96
REMARK SMILES IDX 54 97 60 98 62 99 55 100 56 101 57 102 58 103 59 104
REMARK H PARENT 5 15 83 54 49 65
REMARK Flexibility Score: inf
ROOT
ATOM      1  C   UNL A   1      42.301  19.040  27.420  1.00  0.00     0.188 C 
ENDROOT
BRANCH   1   2
ATOM      2  O   UNL A   1      41.848  20.375  27.336  1.00  0.00    -0.376 OA
BRANCH   2   3
ATOM      3  C   UNL A   1      40.858  20.700  26.368  1.00  0.00     0.202 C 
BRANCH   3   4
ATOM      4  C   UNL A   1      40.048  22.004  26.529  1.00  0.00     0.261 C 
BRANCH   4   5
ATOM      5  O   UNL A   1      38.874  22.018  25.693  1.00  0.00    -0.463 OA
BRANCH   5   6
ATOM      6  C   UNL A   1      37.958  22.983  25.956  1.00  0.00     0.310 C 
ATOM      7  O   UNL A   1      38.088  24.178  25.737  1.00  0.00    -0.252 OA
BRANCH   6   8
ATOM      8  C   UNL A   1      36.610  22.419  26.212  1.00  0.00     0.118 C 
ATOM      9  C   UNL A   1      35.671  22.100  25.086  1.00  0.00     0.100 C 
ATOM     10  C   UNL A   1      35.254  23.103  26.168  1.00  0.00    -0.009 C 
ATOM     11  C   UNL A   1      35.145  24.566  25.817  1.00  0.00     0.013 C 
ATOM     12  C   UNL A   1      34.202  22.678  27.173  1.00  0.00     0.013 C 
BRANCH   9  13
ATOM     13  C   UNL A   1      35.846  22.533  23.701  1.00  0.00     0.230 C 
ATOM     14  N   UNL A   1      34.733  22.879  22.889  1.00  0.00    -0.310 N 
ATOM     15  H   UNL A   1      34.972  23.132  21.968  1.00  0.00     0.171 HD
ATOM     16  O   UNL A   1      36.929  22.787  23.204  1.00  0.00    -0.274 OA
BRANCH  14  17
ATOM     17  C   UNL A   1      33.369  22.926  23.154  1.00  0.00     0.136 A 
ATOM     18  C   UNL A   1      30.307  24.932  23.453  1.00  0.00     0.069 C 
ATOM     19  C   UNL A   1      31.387  23.922  23.350  1.00  0.00     0.062 A 
ATOM     20  C   UNL A   1      32.730  24.142  23.007  1.00  0.00     0.072 A 
ATOM     21  N   UNL A   1      31.152  22.638  23.613  1.00  0.00    -0.171 NA
ATOM     22  N   UNL A   1      32.361  22.029  23.530  1.00  0.00    -0.217 N 
BRANCH  22  23
ATOM     23  C   UNL A   1      32.408  20.656  23.835  1.00  0.00     0.067 A 
ATOM     24  C   UNL A   1      32.343  19.744  22.776  1.00  0.00     0.031 A 
ATOM     25  C   UNL A   1      32.642  20.208  25.137  1.00  0.00     0.031 A 
ATOM     26  C   UNL A   1      32.281  18.376  23.039  1.00  0.00     0.041 A 
ATOM     27  C   UNL A   1      32.656  18.829  25.386  1.00  0.00     0.041 A 
ATOM     28  C   UNL A   1      32.426  17.931  24.346  1.00  0.00     0.123 A 
ATOM     29  F   UNL A   1      32.353  16.620  24.605  1.00  0.00    -0.207 F 
ENDBRANCH  22  23
ENDBRANCH  14  17
ENDBRANCH   9  13
ENDBRANCH   6   8
ENDBRANCH   5   6
ENDBRANCH   4   5
ENDBRANCH   3   4
ENDBRANCH   2   3
ENDBRANCH   1   2
BRANCH   1  30
ATOM     30  C   UNL A   1      42.898  18.414  26.157  1.00  0.00     0.188 C 
BRANCH  30  31
ATOM     31  O   UNL A   1      44.248  17.996  26.058  1.00  0.00    -0.376 OA
BRANCH  31  32
ATOM     32  C   UNL A   1      45.269  18.618  25.289  1.00  0.00     0.202 C 
BRANCH  32  33
ATOM     33  C   UNL A   1      44.994  19.442  24.031  1.00  0.00     0.261 C 
BRANCH  33  34
ATOM     34  O   UNL A   1      44.382  20.678  24.280  1.00  0.00    -0.460 OA
BRANCH  34  35
ATOM     35  C   UNL A   1      45.182  21.576  24.893  1.00  0.00     0.338 C 
ATOM     36  O   UNL A   1      46.386  21.721  24.753  1.00  0.00    -0.246 OA
BRANCH  35  37
ATOM     37  C   UNL A   1      44.313  22.389  25.750  1.00  0.00     0.060 A 
ATOM     38  C   UNL A   1      43.376  23.198  25.113  1.00  0.00     0.016 A 
ATOM     39  C   UNL A   1      44.575  22.474  27.130  1.00  0.00     0.016 A 
ATOM     40  C   UNL A   1      42.937  24.302  25.793  1.00  0.00     0.010 A 
ATOM     41  C   UNL A   1      44.153  23.585  27.801  1.00  0.00     0.010 A 
ATOM     42  C   UNL A   1      43.448  24.533  27.074  1.00  0.00    -0.014 A 
BRANCH  42  43
ATOM     43  C   UNL A   1      43.263  25.846  27.634  1.00  0.00     0.031 A 
ATOM     44  C   UNL A   1      44.378  26.743  27.312  1.00  0.00     0.074 A 
ATOM     45  C   UNL A   1      42.130  26.157  28.292  1.00  0.00     0.049 A 
ATOM     46  N   UNL A   1      45.335  27.118  28.091  1.00  0.00    -0.248 NA
ATOM     47  C   UNL A   1      44.584  27.080  25.893  1.00  0.00     0.031 C 
ATOM     48  C   UNL A   1      40.884  25.377  28.315  1.00  0.00     0.029 A 
ATOM     49  N   UNL A   1      41.801  27.282  28.981  1.00  0.00    -0.354 N 
ATOM     50  C   UNL A   1      46.063  28.013  27.320  1.00  0.00     0.074 A 
ATOM     51  C   UNL A   1      45.751  27.722  25.948  1.00  0.00     0.031 C 
ATOM     52  C   UNL A   1      39.881  26.159  28.770  1.00  0.00     0.029 A 
ATOM     53  C   UNL A   1      40.438  27.427  29.206  1.00  0.00     0.049 A 
ATOM     54  H   UNL A   1      42.468  27.935  29.292  1.00  0.00     0.167 HD
ATOM     55  C   UNL A   1      46.508  29.171  27.875  1.00  0.00     0.037 A 
ATOM     56  C   UNL A   1      39.814  28.544  29.652  1.00  0.00     0.037 A 
ATOM     57  C   UNL A   1      46.461  29.110  29.313  1.00  0.00     0.049 A 
ATOM     58  C   UNL A   1      40.832  29.388  30.327  1.00  0.00     0.074 A 
ATOM     59  C   UNL A   1      47.206  28.532  30.316  1.00  0.00     0.029 A 
ATOM     60  N   UNL A   1      45.245  29.450  29.849  1.00  0.00    -0.354 N 
ATOM     61  N   UNL A   1      41.459  29.032  31.417  1.00  0.00    -0.248 NA
ATOM     62  C   UNL A   1      41.439  30.496  29.594  1.00  0.00     0.031 C 
ATOM     63  C   UNL A   1      46.356  28.450  31.457  1.00  0.00     0.029 A 
ATOM     64  C   UNL A   1      45.118  28.999  31.136  1.00  0.00     0.049 A 
ATOM     65  H   UNL A   1      44.551  29.954  29.368  1.00  0.00     0.167 HD
ATOM     66  C   UNL A   1      42.719  29.581  31.286  1.00  0.00     0.074 A 
ATOM     67  C   UNL A   1      42.602  30.592  30.245  1.00  0.00     0.031 C 
ATOM     68  C   UNL A   1      43.821  28.945  31.776  1.00  0.00     0.037 A 
BRANCH  55  69
ATOM     69  C   UNL A   1      46.497  30.503  27.158  1.00  0.00     0.058 A 
ATOM     70  C   UNL A   1      47.688  31.252  27.102  1.00  0.00     0.135 A 
ATOM     71  C   UNL A   1      45.323  31.196  26.780  1.00  0.00     0.135 A 
ATOM     72  F   UNL A   1      48.858  30.699  27.464  1.00  0.00    -0.206 F 
ATOM     73  C   UNL A   1      47.705  32.599  26.738  1.00  0.00     0.059 A 
ATOM     74  C   UNL A   1      45.325  32.517  26.357  1.00  0.00     0.059 A 
ATOM     75  F   UNL A   1      44.101  30.666  26.897  1.00  0.00    -0.206 F 
ATOM     76  C   UNL A   1      46.514  33.222  26.374  1.00  0.00     0.060 A 
BRANCH  76  77
ATOM     77  S   UNL A   1      46.513  34.975  25.968  1.00  0.00     0.124 S 
ATOM     78  O   UNL A   1      45.161  35.151  25.451  1.00  0.00    -0.237 OA
ATOM     79  O   UNL A   1      46.791  35.584  27.265  1.00  0.00    -0.237 OA
ATOM     80  O   UNL A   1      47.588  35.091  24.986  1.00  0.00    -0.744 OA
ENDBRANCH  76  77
ENDBRANCH  55  69
BRANCH  56  81
ATOM     81  C   UNL A   1      38.480  29.061  29.254  1.00  0.00     0.058 A 
ATOM     82  C   UNL A   1      37.490  29.320  30.215  1.00  0.00     0.135 A 
ATOM     83  C   UNL A   1      38.249  29.577  27.962  1.00  0.00     0.135 A 
ATOM     84  F   UNL A   1      37.639  28.879  31.473  1.00  0.00    -0.206 F 
ATOM     85  C   UNL A   1      36.359  30.093  29.929  1.00  0.00     0.059 A 
ATOM     86  C   UNL A   1      37.126  30.340  27.651  1.00  0.00     0.059 A 
ATOM     87  F   UNL A   1      39.156  29.431  26.986  1.00  0.00    -0.206 F 
ATOM     88  C   UNL A   1      36.198  30.617  28.647  1.00  0.00     0.060 A 
BRANCH  88  89
ATOM     89  S   UNL A   1      34.835  31.760  28.323  1.00  0.00     0.124 S 
ATOM     90  O   UNL A   1      35.483  32.771  27.496  1.00  0.00    -0.237 OA
ATOM     91  O   UNL A   1      33.871  30.902  27.644  1.00  0.00    -0.237 OA
ATOM     92  O   UNL A   1      34.441  32.204  29.658  1.00  0.00    -0.744 OA
ENDBRANCH  88  89
ENDBRANCH  56  81
BRANCH  68  93
ATOM     93  C   UNL A   1      43.648  28.046  32.959  1.00  0.00     0.058 A 
ATOM     94  C   UNL A   1      43.601  26.645  32.912  1.00  0.00     0.135 A 
ATOM     95  C   UNL A   1      43.634  28.655  34.225  1.00  0.00     0.135 A 
ATOM     96  F   UNL A   1      43.675  25.993  31.742  1.00  0.00    -0.206 F 
ATOM     97  C   UNL A   1      43.533  25.882  34.081  1.00  0.00     0.059 A 
ATOM     98  C   UNL A   1      43.596  27.915  35.399  1.00  0.00     0.059 A 
ATOM     99  F   UNL A   1      43.716  29.992  34.328  1.00  0.00    -0.206 F 
ATOM    100  C   UNL A   1      43.538  26.527  35.320  1.00  0.00     0.060 A 
BRANCH 100 101
ATOM    101  S   UNL A   1      43.557  25.541  36.833  1.00  0.00     0.124 S 
ATOM    102  O   UNL A   1      42.852  24.333  36.421  1.00  0.00    -0.237 OA
ATOM    103  O   UNL A   1      44.987  25.386  37.091  1.00  0.00    -0.237 OA
ATOM    104  O   UNL A   1      42.849  26.380  37.797  1.00  0.00    -0.744 OA
ENDBRANCH 100 101
ENDBRANCH  68  93
ENDBRANCH  42  43
ENDBRANCH  35  37
ENDBRANCH  34  35
ENDBRANCH  33  34
ENDBRANCH  32  33
ENDBRANCH  31  32
ENDBRANCH  30  31
ENDBRANCH   1  30
TORSDOF 23
ENDMDL
MODEL 2
REMARK VINA RESULT:     -10.7      3.905     10.365
REMARK SMILES Cc1cc(NC(=O)[C@H]2[C@@H](C(=O)OCCOCCOCCOC(=O)c3ccc(-c4c5nc(c(-c6c(F)cc(S(=O)(=O)[O-])cc6F)c6ccc([nH]6)c(-c6c(F)cc(S(=O)(=O)[O-])cc6F)c6nc(c(-c7c(F)cc(S(=O)(=O)[O-])cc7F)c7ccc4[nH]7)C=C6)C=C5)cc3)C2(C)C)n(-c2ccc(F)cc2)n1
REMARK SMILES IDX 16 1 15 2 14 3 13 4 12 5 10 6 11 7 9 8 8 9 90 10 91 11 92 12
REMARK SMILES IDX 6 13 5 14 7 16 4 17 1 18 2 19 3 20 101 21 93 22 94 23 95 24
REMARK SMILES IDX 100 25 96 26 99 27 97 28 98 29 17 30 18 31 19 32 20 33 21 34
REMARK SMILES IDX 22 35 23 36 24 37 25 38 89 39 26 40 88 41 27 42 28 43 29 44
REMARK SMILES IDX 82 45 30 46 87 47 81 48 83 49 31 50 86 51 80 52 79 53 32 55
REMARK SMILES IDX 66 56 45 57 65 58 46 59 49 60 64 61 84 62 47 63 48 64 63 66
REMARK SMILES IDX 85 67 50 68 33 69 34 70 43 71 35 72 36 73 42 74 44 75 37 76
REMARK SMILES IDX 38 77 39 78 40 79 41 80 67 81 68 82 77 83 69 84 70 85 76 86
REMARK SMILES IDX 78 87 71 88 72 89 73 90 74 91 75 92 51 93 52 94 61 95 53 96
REMARK SMILES IDX 54 97 60 98 62 99 55 100 56 101 57 102 58 103 59 104
REMARK H PARENT 5 15 83 54 49 65
REMARK Flexibility Score: inf
ROOT
ATOM      1  C   UNL A   1      34.334  31.973  28.265  1.00  0.00     0.188 C 
ENDROOT
BRANCH   1   2
ATOM      2  O   UNL A   1      33.994  31.134  27.181  1.00  0.00    -0.376 OA
BRANCH   2   3
ATOM      3  C   UNL A   1      33.006  30.130  27.377  1.00  0.00     0.202 C 
BRANCH   3   4
ATOM      4  C   UNL A   1      31.995  29.839  26.248  1.00  0.00     0.261 C 
BRANCH   4   5
ATOM      5  O   UNL A   1      32.634  29.276  25.085  1.00  0.00    -0.463 OA
BRANCH   5   6
ATOM      6  C   UNL A   1      32.362  27.973  24.820  1.00  0.00     0.310 C 
ATOM      7  O   UNL A   1      33.067  27.017  25.109  1.00  0.00    -0.252 OA
BRANCH   6   8
ATOM      8  C   UNL A   1      30.940  27.762  24.454  1.00  0.00     0.118 C 
ATOM      9  C   UNL A   1      30.539  26.714  23.458  1.00  0.00     0.100 C 
ATOM     10  C   UNL A   1      30.194  28.186  23.200  1.00  0.00    -0.009 C 
ATOM     11  C   UNL A   1      30.907  28.930  22.099  1.00  0.00     0.013 C 
ATOM     12  C   UNL A   1      28.748  28.619  23.337  1.00  0.00     0.013 C 
BRANCH   9  13
ATOM     13  C   UNL A   1      31.458  26.002  22.573  1.00  0.00     0.230 C 
ATOM     14  N   UNL A   1      32.066  24.780  22.967  1.00  0.00    -0.310 N 
ATOM     15  H   UNL A   1      32.685  24.406  22.298  1.00  0.00     0.171 HD
ATOM     16  O   UNL A   1      31.638  26.299  21.405  1.00  0.00    -0.274 OA
BRANCH  14  17
ATOM     17  C   UNL A   1      31.950  24.015  24.122  1.00  0.00     0.136 A 
ATOM     18  C   UNL A   1      29.899  22.950  26.977  1.00  0.00     0.069 C 
ATOM     19  C   UNL A   1      30.886  23.196  25.898  1.00  0.00     0.062 A 
ATOM     20  C   UNL A   1      30.731  24.018  24.771  1.00  0.00     0.072 A 
ATOM     21  N   UNL A   1      32.091  22.629  25.929  1.00  0.00    -0.171 NA
ATOM     22  N   UNL A   1      32.758  23.149  24.870  1.00  0.00    -0.217 N 
BRANCH  22  23
ATOM     23  C   UNL A   1      34.102  22.762  24.707  1.00  0.00     0.067 A 
ATOM     24  C   UNL A   1      34.471  21.477  25.120  1.00  0.00     0.031 A 
ATOM     25  C   UNL A   1      35.018  23.578  24.039  1.00  0.00     0.031 A 
ATOM     26  C   UNL A   1      35.810  21.090  25.074  1.00  0.00     0.041 A 
ATOM     27  C   UNL A   1      36.347  23.151  23.927  1.00  0.00     0.041 A 
ATOM     28  C   UNL A   1      36.740  21.938  24.488  1.00  0.00     0.123 A 
ATOM     29  F   UNL A   1      38.029  21.577  24.455  1.00  0.00    -0.207 F 
ENDBRANCH  22  23
ENDBRANCH  14  17
ENDBRANCH   9  13
ENDBRANCH   6   8
ENDBRANCH   5   6
ENDBRANCH   4   5
ENDBRANCH   3   4
ENDBRANCH   2   3
ENDBRANCH   1   2
BRANCH   1  30
ATOM     30  C   UNL A   1      35.221  33.185  27.972  1.00  0.00     0.188 C 
BRANCH  30  31
ATOM     31  O   UNL A   1      35.173  34.386  28.724  1.00  0.00    -0.376 OA
BRANCH  31  32
ATOM     32  C   UNL A   1      34.135  35.356  28.698  1.00  0.00     0.202 C 
BRANCH  32  33
ATOM     33  C   UNL A   1      33.104  35.520  29.814  1.00  0.00     0.261 C 
BRANCH  33  34
ATOM     34  O   UNL A   1      33.243  34.599  30.861  1.00  0.00    -0.460 OA
BRANCH  34  35
ATOM     35  C   UNL A   1      33.413  35.165  32.075  1.00  0.00     0.338 C 
ATOM     36  O   UNL A   1      32.760  36.068  32.575  1.00  0.00    -0.246 OA
BRANCH  35  37
ATOM     37  C   UNL A   1      34.527  34.456  32.712  1.00  0.00     0.060 A 
ATOM     38  C   UNL A   1      35.656  35.207  33.024  1.00  0.00     0.016 A 
ATOM     39  C   UNL A   1      34.500  33.052  32.805  1.00  0.00     0.016 A 
ATOM     40  C   UNL A   1      36.847  34.538  33.120  1.00  0.00     0.010 A 
ATOM     41  C   UNL A   1      35.689  32.387  32.880  1.00  0.00     0.010 A 
ATOM     42  C   UNL A   1      36.844  33.155  32.909  1.00  0.00    -0.014 A 
BRANCH  42  43
ATOM     43  C   UNL A   1      38.112  32.520  32.666  1.00  0.00     0.031 A 
ATOM     44  C   UNL A   1      38.914  32.406  33.888  1.00  0.00     0.074 A 
ATOM     45  C   UNL A   1      38.415  32.041  31.444  1.00  0.00     0.049 A 
ATOM     46  N   UNL A   1      39.930  33.122  34.231  1.00  0.00    -0.248 NA
ATOM     47  C   UNL A   1      38.384  31.550  34.964  1.00  0.00     0.031 C 
ATOM     48  C   UNL A   1      37.486  31.847  30.321  1.00  0.00     0.029 A 
ATOM     49  N   UNL A   1      39.577  31.513  30.977  1.00  0.00    -0.354 N 
ATOM     50  C   UNL A   1      40.354  32.552  35.424  1.00  0.00     0.074 A 
ATOM     51  C   UNL A   1      39.232  31.828  35.955  1.00  0.00     0.031 C 
ATOM     52  C   UNL A   1      38.059  31.034  29.408  1.00  0.00     0.029 A 
ATOM     53  C   UNL A   1      39.432  30.777  29.807  1.00  0.00     0.049 A 
ATOM     54  H   UNL A   1      40.443  31.640  31.426  1.00  0.00     0.167 HD
ATOM     55  C   UNL A   1      41.682  32.366  35.644  1.00  0.00     0.037 A 
ATOM     56  C   UNL A   1      40.360  29.959  29.255  1.00  0.00     0.037 A 
ATOM     57  C   UNL A   1      42.476  33.147  34.731  1.00  0.00     0.049 A 
ATOM     58  C   UNL A   1      41.686  30.357  29.793  1.00  0.00     0.074 A 
ATOM     59  C   UNL A   1      42.847  34.466  34.603  1.00  0.00     0.029 A 
ATOM     60  N   UNL A   1      42.704  32.536  33.524  1.00  0.00    -0.354 N 
ATOM     61  N   UNL A   1      42.243  31.516  29.560  1.00  0.00    -0.248 NA
ATOM     62  C   UNL A   1      42.259  29.605  30.906  1.00  0.00     0.031 C 
ATOM     63  C   UNL A   1      43.220  34.651  33.240  1.00  0.00     0.029 A 
ATOM     64  C   UNL A   1      43.092  33.438  32.569  1.00  0.00     0.049 A 
ATOM     65  H   UNL A   1      42.601  31.571  33.365  1.00  0.00     0.167 HD
ATOM     66  C   UNL A   1      42.937  31.805  30.718  1.00  0.00     0.074 A 
ATOM     67  C   UNL A   1      43.047  30.544  31.436  1.00  0.00     0.031 C 
ATOM     68  C   UNL A   1      43.062  33.086  31.165  1.00  0.00     0.037 A 
BRANCH  55  69
ATOM     69  C   UNL A   1      42.257  31.134  36.308  1.00  0.00     0.058 A 
ATOM     70  C   UNL A   1      43.207  31.298  37.334  1.00  0.00     0.135 A 
ATOM     71  C   UNL A   1      42.133  29.821  35.797  1.00  0.00     0.135 A 
ATOM     72  F   UNL A   1      43.424  32.510  37.874  1.00  0.00    -0.206 F 
ATOM     73  C   UNL A   1      44.004  30.246  37.787  1.00  0.00     0.059 A 
ATOM     74  C   UNL A   1      42.872  28.748  36.274  1.00  0.00     0.059 A 
ATOM     75  F   UNL A   1      41.368  29.525  34.741  1.00  0.00    -0.206 F 
ATOM     76  C   UNL A   1      43.831  28.976  37.244  1.00  0.00     0.060 A 
BRANCH  76  77
ATOM     77  S   UNL A   1      44.898  27.627  37.772  1.00  0.00     0.124 S 
ATOM     78  O   UNL A   1      46.114  27.908  37.018  1.00  0.00    -0.237 OA
ATOM     79  O   UNL A   1      44.967  27.845  39.213  1.00  0.00    -0.237 OA
ATOM     80  O   UNL A   1      44.158  26.437  37.360  1.00  0.00    -0.744 OA
ENDBRANCH  76  77
ENDBRANCH  55  69
BRANCH  56  81
ATOM     81  C   UNL A   1      40.135  28.672  28.551  1.00  0.00     0.058 A 
ATOM     82  C   UNL A   1      40.758  28.402  27.322  1.00  0.00     0.135 A 
ATOM     83  C   UNL A   1      39.533  27.575  29.202  1.00  0.00     0.135 A 
ATOM     84  F   UNL A   1      41.369  29.386  26.645  1.00  0.00    -0.206 F 
ATOM     85  C   UNL A   1      40.830  27.109  26.792  1.00  0.00     0.059 A 
ATOM     86  C   UNL A   1      39.583  26.280  28.689  1.00  0.00     0.059 A 
ATOM     87  F   UNL A   1      38.958  27.714  30.405  1.00  0.00    -0.206 F 
ATOM     88  C   UNL A   1      40.257  26.051  27.496  1.00  0.00     0.060 A 
BRANCH  88  89
ATOM     89  S   UNL A   1      40.503  24.360  26.906  1.00  0.00     0.124 S 
ATOM     90  O   UNL A   1      41.023  23.699  28.098  1.00  0.00    -0.237 OA
ATOM     91  O   UNL A   1      39.154  23.977  26.503  1.00  0.00    -0.237 OA
ATOM     92  O   UNL A   1      41.457  24.518  25.813  1.00  0.00    -0.744 OA
ENDBRANCH  88  89
ENDBRANCH  56  81
BRANCH  68  93
ATOM     93  C   UNL A   1      43.037  34.191  30.156  1.00  0.00     0.058 A 
ATOM     94  C   UNL A   1      41.879  34.784  29.632  1.00  0.00     0.135 A 
ATOM     95  C   UNL A   1      44.274  34.741  29.784  1.00  0.00     0.135 A 
ATOM     96  F   UNL A   1      40.661  34.353  29.994  1.00  0.00    -0.206 F 
ATOM     97  C   UNL A   1      41.953  35.877  28.763  1.00  0.00     0.059 A 
ATOM     98  C   UNL A   1      44.370  35.843  28.945  1.00  0.00     0.059 A 
ATOM     99  F   UNL A   1      45.413  34.235  30.287  1.00  0.00    -0.206 F 
ATOM    100  C   UNL A   1      43.203  36.404  28.432  1.00  0.00     0.060 A 
BRANCH 100 101
ATOM    101  S   UNL A   1      43.298  37.879  27.395  1.00  0.00     0.124 S 
ATOM    102  O   UNL A   1      44.531  37.652  26.650  1.00  0.00    -0.237 OA
ATOM    103  O   UNL A   1      42.063  37.799  26.619  1.00  0.00    -0.237 OA
ATOM    104  O   UNL A   1      43.344  38.974  28.361  1.00  0.00    -0.744 OA
ENDBRANCH 100 101
ENDBRANCH  68  93
ENDBRANCH  42  43
ENDBRANCH  35  37
ENDBRANCH  34  35
ENDBRANCH  33  34
ENDBRANCH  32  33
ENDBRANCH  31  32
ENDBRANCH  30  31
ENDBRANCH   1  30
TORSDOF 23
ENDMDL
MODEL 3
REMARK VINA RESULT:     -10.2      4.337     10.673
REMARK SMILES Cc1cc(NC(=O)[C@H]2[C@@H](C(=O)OCCOCCOCCOC(=O)c3ccc(-c4c5nc(c(-c6c(F)cc(S(=O)(=O)[O-])cc6F)c6ccc([nH]6)c(-c6c(F)cc(S(=O)(=O)[O-])cc6F)c6nc(c(-c7c(F)cc(S(=O)(=O)[O-])cc7F)c7ccc4[nH]7)C=C6)C=C5)cc3)C2(C)C)n(-c2ccc(F)cc2)n1
REMARK SMILES IDX 16 1 15 2 14 3 13 4 12 5 10 6 11 7 9 8 8 9 90 10 91 11 92 12
REMARK SMILES IDX 6 13 5 14 7 16 4 17 1 18 2 19 3 20 101 21 93 22 94 23 95 24
REMARK SMILES IDX 100 25 96 26 99 27 97 28 98 29 17 30 18 31 19 32 20 33 21 34
REMARK SMILES IDX 22 35 23 36 24 37 25 38 89 39 26 40 88 41 27 42 28 43 29 44
REMARK SMILES IDX 82 45 30 46 87 47 81 48 83 49 31 50 86 51 80 52 79 53 32 55
REMARK SMILES IDX 66 56 45 57 65 58 46 59 49 60 64 61 84 62 47 63 48 64 63 66
REMARK SMILES IDX 85 67 50 68 33 69 34 70 43 71 35 72 36 73 42 74 44 75 37 76
REMARK SMILES IDX 38 77 39 78 40 79 41 80 67 81 68 82 77 83 69 84 70 85 76 86
REMARK SMILES IDX 78 87 71 88 72 89 73 90 74 91 75 92 51 93 52 94 61 95 53 96
REMARK SMILES IDX 54 97 60 98 62 99 55 100 56 101 57 102 58 103 59 104
REMARK H PARENT 5 15 83 54 49 65
REMARK Flexibility Score: inf
ROOT
ATOM      1  C   UNL A   1      34.048  31.742  28.349  1.00  0.00     0.188 C 
ENDROOT
BRANCH   1   2
ATOM      2  O   UNL A   1      33.222  30.887  27.588  1.00  0.00    -0.376 OA
BRANCH   2   3
ATOM      3  C   UNL A   1      33.807  29.752  26.961  1.00  0.00     0.202 C 
BRANCH   3   4
ATOM      4  C   UNL A   1      33.244  28.349  27.270  1.00  0.00     0.261 C 
BRANCH   4   5
ATOM      5  O   UNL A   1      32.462  27.828  26.178  1.00  0.00    -0.463 OA
BRANCH   5   6
ATOM      6  C   UNL A   1      31.768  26.688  26.423  1.00  0.00     0.310 C 
ATOM      7  O   UNL A   1      30.565  26.605  26.622  1.00  0.00    -0.252 OA
BRANCH   6   8
ATOM      8  C   UNL A   1      32.547  25.474  26.073  1.00  0.00     0.118 C 
ATOM      9  C   UNL A   1      32.233  24.676  24.842  1.00  0.00     0.100 C 
ATOM     10  C   UNL A   1      32.168  24.010  26.221  1.00  0.00    -0.009 C 
ATOM     11  C   UNL A   1      30.826  23.619  26.790  1.00  0.00     0.013 C 
ATOM     12  C   UNL A   1      33.255  23.021  26.594  1.00  0.00     0.013 C 
BRANCH   9  13
ATOM     13  C   UNL A   1      31.026  24.823  24.032  1.00  0.00     0.230 C 
ATOM     14  N   UNL A   1      30.806  25.978  23.234  1.00  0.00    -0.310 N 
ATOM     15  H   UNL A   1      29.948  25.975  22.752  1.00  0.00     0.171 HD
ATOM     16  O   UNL A   1      30.222  23.926  23.848  1.00  0.00    -0.274 OA
BRANCH  14  17
ATOM     17  C   UNL A   1      31.580  27.112  23.009  1.00  0.00     0.136 A 
ATOM     18  C   UNL A   1      34.888  28.563  22.350  1.00  0.00     0.069 C 
ATOM     19  C   UNL A   1      33.465  28.210  22.566  1.00  0.00     0.062 A 
ATOM     20  C   UNL A   1      32.919  26.927  22.727  1.00  0.00     0.072 A 
ATOM     21  N   UNL A   1      32.529  29.155  22.648  1.00  0.00    -0.171 NA
ATOM     22  N   UNL A   1      31.383  28.498  22.952  1.00  0.00    -0.217 N 
BRANCH  22  23
ATOM     23  C   UNL A   1      30.234  29.281  23.166  1.00  0.00     0.067 A 
ATOM     24  C   UNL A   1      29.008  28.791  22.702  1.00  0.00     0.031 A 
ATOM     25  C   UNL A   1      30.282  30.451  23.929  1.00  0.00     0.031 A 
ATOM     26  C   UNL A   1      27.863  29.580  22.799  1.00  0.00     0.041 A 
ATOM     27  C   UNL A   1      29.111  31.202  24.089  1.00  0.00     0.041 A 
ATOM     28  C   UNL A   1      27.928  30.787  23.482  1.00  0.00     0.123 A 
ATOM     29  F   UNL A   1      26.834  31.555  23.566  1.00  0.00    -0.207 F 
ENDBRANCH  22  23
ENDBRANCH  14  17
ENDBRANCH   9  13
ENDBRANCH   6   8
ENDBRANCH   5   6
ENDBRANCH   4   5
ENDBRANCH   3   4
ENDBRANCH   2   3
ENDBRANCH   1   2
BRANCH   1  30
ATOM     30  C   UNL A   1      34.752  32.886  27.615  1.00  0.00     0.188 C 
BRANCH  30  31
ATOM     31  O   UNL A   1      35.255  34.038  28.269  1.00  0.00    -0.376 OA
BRANCH  31  32
ATOM     32  C   UNL A   1      34.977  34.440  29.603  1.00  0.00     0.202 C 
BRANCH  32  33
ATOM     33  C   UNL A   1      33.684  35.140  30.021  1.00  0.00     0.261 C 
BRANCH  33  34
ATOM     34  O   UNL A   1      33.088  34.603  31.170  1.00  0.00    -0.460 OA
BRANCH  34  35
ATOM     35  C   UNL A   1      33.413  35.246  32.312  1.00  0.00     0.338 C 
ATOM     36  O   UNL A   1      32.884  36.240  32.785  1.00  0.00    -0.246 OA
BRANCH  35  37
ATOM     37  C   UNL A   1      34.518  34.494  32.913  1.00  0.00     0.060 A 
ATOM     38  C   UNL A   1      35.656  35.215  33.261  1.00  0.00     0.016 A 
ATOM     39  C   UNL A   1      34.474  33.087  32.938  1.00  0.00     0.016 A 
ATOM     40  C   UNL A   1      36.839  34.527  33.323  1.00  0.00     0.010 A 
ATOM     41  C   UNL A   1      35.655  32.404  32.980  1.00  0.00     0.010 A 
ATOM     42  C   UNL A   1      36.819  33.157  33.046  1.00  0.00    -0.014 A 
BRANCH  42  43
ATOM     43  C   UNL A   1      38.079  32.519  32.771  1.00  0.00     0.031 A 
ATOM     44  C   UNL A   1      38.905  32.390  33.976  1.00  0.00     0.074 A 
ATOM     45  C   UNL A   1      38.356  32.050  31.539  1.00  0.00     0.049 A 
ATOM     46  N   UNL A   1      39.930  33.098  34.306  1.00  0.00    -0.248 NA
ATOM     47  C   UNL A   1      38.393  31.526  35.054  1.00  0.00     0.031 C 
ATOM     48  C   UNL A   1      37.405  31.871  30.433  1.00  0.00     0.029 A 
ATOM     49  N   UNL A   1      39.506  31.522  31.043  1.00  0.00    -0.354 N 
ATOM     50  C   UNL A   1      40.376  32.515  35.484  1.00  0.00     0.074 A 
ATOM     51  C   UNL A   1      39.262  31.791  36.030  1.00  0.00     0.031 C 
ATOM     52  C   UNL A   1      37.956  31.064  29.500  1.00  0.00     0.029 A 
ATOM     53  C   UNL A   1      39.335  30.798  29.870  1.00  0.00     0.049 A 
ATOM     54  H   UNL A   1      40.382  31.642  31.477  1.00  0.00     0.167 HD
ATOM     55  C   UNL A   1      41.707  32.321  35.676  1.00  0.00     0.037 A 
ATOM     56  C   UNL A   1      40.249  29.982  29.292  1.00  0.00     0.037 A 
ATOM     57  C   UNL A   1      42.486  33.108  34.754  1.00  0.00     0.049 A 
ATOM     58  C   UNL A   1      41.587  30.369  29.807  1.00  0.00     0.074 A 
ATOM     59  C   UNL A   1      42.860  34.427  34.631  1.00  0.00     0.029 A 
ATOM     60  N   UNL A   1      42.687  32.508  33.538  1.00  0.00    -0.354 N 
ATOM     61  N   UNL A   1      42.143  31.528  29.574  1.00  0.00    -0.248 NA
ATOM     62  C   UNL A   1      42.178  29.604  30.902  1.00  0.00     0.031 C 
ATOM     63  C   UNL A   1      43.207  34.623  33.263  1.00  0.00     0.029 A 
ATOM     64  C   UNL A   1      43.060  33.418  32.584  1.00  0.00     0.049 A 
ATOM     65  H   UNL A   1      42.577  31.545  33.371  1.00  0.00     0.167 HD
ATOM     66  C   UNL A   1      42.862  31.803  30.720  1.00  0.00     0.074 A 
ATOM     67  C   UNL A   1      42.981  30.535  31.424  1.00  0.00     0.031 C 
ATOM     68  C   UNL A   1      43.001  33.080  31.178  1.00  0.00     0.037 A 
BRANCH  55  69
ATOM     69  C   UNL A   1      42.290  31.081  36.317  1.00  0.00     0.058 A 
ATOM     70  C   UNL A   1      43.275  31.231  37.311  1.00  0.00     0.135 A 
ATOM     71  C   UNL A   1      42.135  29.771  35.805  1.00  0.00     0.135 A 
ATOM     72  F   UNL A   1      43.524  32.438  37.847  1.00  0.00    -0.206 F 
ATOM     73  C   UNL A   1      44.075  30.169  37.734  1.00  0.00     0.059 A 
ATOM     74  C   UNL A   1      42.877  28.689  36.255  1.00  0.00     0.059 A 
ATOM     75  F   UNL A   1      41.333  29.488  34.774  1.00  0.00    -0.206 F 
ATOM     76  C   UNL A   1      43.870  28.903  37.193  1.00  0.00     0.060 A 
BRANCH  76  77
ATOM     77  S   UNL A   1      44.939  27.540  37.681  1.00  0.00     0.124 S 
ATOM     78  O   UNL A   1      44.939  27.678  39.132  1.00  0.00    -0.237 OA
ATOM     79  O   UNL A   1      44.223  26.389  37.143  1.00  0.00    -0.237 OA
ATOM     80  O   UNL A   1      46.201  27.851  37.014  1.00  0.00    -0.744 OA
ENDBRANCH  76  77
ENDBRANCH  55  69
BRANCH  56  81
ATOM     81  C   UNL A   1      40.004  28.702  28.580  1.00  0.00     0.058 A 
ATOM     82  C   UNL A   1      40.619  28.432  27.347  1.00  0.00     0.135 A 
ATOM     83  C   UNL A   1      39.390  27.609  29.226  1.00  0.00     0.135 A 
ATOM     84  F   UNL A   1      41.240  29.413  26.675  1.00  0.00    -0.206 F 
ATOM     85  C   UNL A   1      40.672  27.142  26.809  1.00  0.00     0.059 A 
ATOM     86  C   UNL A   1      39.421  26.317  28.705  1.00  0.00     0.059 A 
ATOM     87  F   UNL A   1      38.821  27.748  30.432  1.00  0.00    -0.206 F 
ATOM     88  C   UNL A   1      40.088  26.087  27.508  1.00  0.00     0.060 A 
BRANCH  88  89
ATOM     89  S   UNL A   1      40.309  24.396  26.906  1.00  0.00     0.124 S 
ATOM     90  O   UNL A   1      38.951  24.038  26.512  1.00  0.00    -0.237 OA
ATOM     91  O   UNL A   1      41.262  24.581  25.817  1.00  0.00    -0.237 OA
ATOM     92  O   UNL A   1      40.828  23.687  28.072  1.00  0.00    -0.744 OA
ENDBRANCH  88  89
ENDBRANCH  56  81
BRANCH  68  93
ATOM     93  C   UNL A   1      42.961  34.194  30.179  1.00  0.00     0.058 A 
ATOM     94  C   UNL A   1      41.799  34.848  29.741  1.00  0.00     0.135 A 
ATOM     95  C   UNL A   1      44.195  34.687  29.726  1.00  0.00     0.135 A 
ATOM     96  F   UNL A   1      40.590  34.473  30.184  1.00  0.00    -0.206 F 
ATOM     97  C   UNL A   1      41.866  35.944  28.876  1.00  0.00     0.059 A 
ATOM     98  C   UNL A   1      44.286  35.792  28.889  1.00  0.00     0.059 A 
ATOM     99  F   UNL A   1      45.339  34.122  30.145  1.00  0.00    -0.206 F 
ATOM    100  C   UNL A   1      43.116  36.413  28.462  1.00  0.00     0.060 A 
BRANCH 100 101
ATOM    101  S   UNL A   1      43.211  37.892  27.431  1.00  0.00     0.124 S 
ATOM    102  O   UNL A   1      42.915  38.953  28.387  1.00  0.00    -0.237 OA
ATOM    103  O   UNL A   1      44.586  37.846  26.939  1.00  0.00    -0.237 OA
ATOM    104  O   UNL A   1      42.189  37.665  26.412  1.00  0.00    -0.744 OA
ENDBRANCH 100 101
ENDBRANCH  68  93
ENDBRANCH  42  43
ENDBRANCH  35  37
ENDBRANCH  34  35
ENDBRANCH  33  34
ENDBRANCH  32  33
ENDBRANCH  31  32
ENDBRANCH  30  31
ENDBRANCH   1  30
TORSDOF 23
ENDMDL
