MODEL 1
REMARK VINA RESULT:     -10.7      0.000      0.000
REMARK SMILES CC(=O)Nc1cccc(-c2cc(F)ccc2C(=O)OCCOCCOCCOC(=O)c2ccc(-c3c4nc(c(-c5c(F)cc(S(=O)(=O)[O-])cc5F)c5ccc([nH]5)c(-c5c(F)cc(S(=O)(=O)[O-])cc5F)c5nc(c(-c6c(F)cc(S(=O)(=O)[O-])cc6F)c6ccc3[nH]6)C=C5)C=C4)cc2)c1
REMARK SMILES IDX 24 1 23 2 22 3 21 4 20 5 19 6 17 7 18 8 16 9 10 10 11 11
REMARK SMILES IDX 12 12 15 13 13 14 14 15 9 16 5 17 6 18 97 19 7 20 8 21 4 22
REMARK SMILES IDX 1 23 2 24 3 25 25 27 26 28 27 29 28 30 29 31 30 32 31 33
REMARK SMILES IDX 32 34 96 35 33 36 95 37 34 38 35 39 36 40 89 41 37 42 94 43
REMARK SMILES IDX 88 44 90 45 38 46 93 47 87 48 86 49 39 51 73 52 52 53 72 54
REMARK SMILES IDX 53 55 56 56 71 57 91 58 54 59 55 60 70 62 92 63 57 64 40 65
REMARK SMILES IDX 41 66 50 67 42 68 43 69 49 70 51 71 44 72 45 73 46 74 47 75
REMARK SMILES IDX 48 76 74 77 75 78 84 79 76 80 77 81 83 82 85 83 78 84 79 85
REMARK SMILES IDX 80 86 81 87 82 88 58 89 59 90 68 91 60 92 61 93 67 94 69 95
REMARK SMILES IDX 62 96 63 97 64 98 65 99 66 100
REMARK H PARENT 4 26 90 50 56 61
REMARK Flexibility Score: inf
ROOT
ATOM      1  C   UNL A   1      40.952  20.946  26.266  1.00  0.00     0.188 C 
ENDROOT
BRANCH   1   2
ATOM      2  C   UNL A   1      39.505  21.460  26.098  1.00  0.00     0.188 C 
BRANCH   2   3
ATOM      3  O   UNL A   1      39.176  22.786  26.485  1.00  0.00    -0.376 OA
BRANCH   3   4
ATOM      4  C   UNL A   1      37.905  23.313  26.116  1.00  0.00     0.202 C 
BRANCH   4   5
ATOM      5  C   UNL A   1      37.192  22.656  24.940  1.00  0.00     0.261 C 
BRANCH   5   6
ATOM      6  O   UNL A   1      35.888  22.219  25.350  1.00  0.00    -0.460 OA
BRANCH   6   7
ATOM      7  C   UNL A   1      34.904  22.390  24.446  1.00  0.00     0.338 C 
ATOM      8  O   UNL A   1      35.020  22.348  23.232  1.00  0.00    -0.246 OA
BRANCH   7   9
ATOM      9  C   UNL A   1      33.592  22.535  25.127  1.00  0.00     0.068 A 
ATOM     10  C   UNL A   1      32.564  21.556  25.117  1.00  0.00    -0.001 A 
ATOM     11  C   UNL A   1      31.402  21.843  25.864  1.00  0.00     0.048 A 
ATOM     12  C   UNL A   1      31.256  23.052  26.543  1.00  0.00     0.123 A 
ATOM     13  C   UNL A   1      33.424  23.756  25.810  1.00  0.00     0.019 A 
ATOM     14  F   UNL A   1      30.132  23.283  27.233  1.00  0.00    -0.207 F 
ATOM     15  C   UNL A   1      32.248  24.018  26.507  1.00  0.00     0.040 A 
BRANCH  10  16
ATOM     16  C   UNL A   1      32.622  20.300  24.328  1.00  0.00    -0.015 A 
ATOM     17  C   UNL A   1      33.554  18.063  23.977  1.00  0.00     0.041 A 
ATOM     18  C   UNL A   1      33.027  18.057  22.682  1.00  0.00     0.026 A 
ATOM     19  C   UNL A   1      33.304  19.163  24.800  1.00  0.00     0.034 A 
ATOM     20  C   UNL A   1      32.268  19.129  22.219  1.00  0.00     0.003 A 
ATOM     21  C   UNL A   1      32.081  20.245  23.031  1.00  0.00     0.009 A 
BRANCH  17  22
ATOM     22  N   UNL A   1      34.408  16.999  24.316  1.00  0.00    -0.326 N 
ATOM     23  C   UNL A   1      32.864  15.348  25.382  1.00  0.00     0.114 C 
ATOM     24  C   UNL A   1      34.236  15.860  25.044  1.00  0.00     0.221 C 
ATOM     25  O   UNL A   1      35.239  15.224  25.379  1.00  0.00    -0.275 OA
ATOM     26  H   UNL A   1      35.318  17.096  23.952  1.00  0.00     0.169 HD
ENDBRANCH  17  22
ENDBRANCH  10  16
ENDBRANCH   7   9
ENDBRANCH   6   7
ENDBRANCH   5   6
ENDBRANCH   4   5
ENDBRANCH   3   4
ENDBRANCH   2   3
ENDBRANCH   1   2
BRANCH   1  27
ATOM     27  O   UNL A   1      41.410  19.776  25.612  1.00  0.00    -0.376 OA
BRANCH  27  28
ATOM     28  C   UNL A   1      42.284  18.885  26.288  1.00  0.00     0.202 C 
BRANCH  28  29
ATOM     29  C   UNL A   1      43.496  18.307  25.556  1.00  0.00     0.261 C 
BRANCH  29  30
ATOM     30  O   UNL A   1      43.789  18.957  24.313  1.00  0.00    -0.460 OA
BRANCH  30  31
ATOM     31  C   UNL A   1      44.998  19.568  24.262  1.00  0.00     0.338 C 
ATOM     32  O   UNL A   1      46.018  19.144  23.748  1.00  0.00    -0.246 OA
BRANCH  31  33
ATOM     33  C   UNL A   1      44.868  20.947  24.765  1.00  0.00     0.060 A 
ATOM     34  C   UNL A   1      44.567  21.959  23.842  1.00  0.00     0.016 A 
ATOM     35  C   UNL A   1      45.077  21.249  26.111  1.00  0.00     0.016 A 
ATOM     36  C   UNL A   1      44.511  23.287  24.259  1.00  0.00     0.010 A 
ATOM     37  C   UNL A   1      45.045  22.583  26.523  1.00  0.00     0.010 A 
ATOM     38  C   UNL A   1      44.793  23.608  25.593  1.00  0.00    -0.014 A 
BRANCH  38  39
ATOM     39  C   UNL A   1      45.015  25.022  25.974  1.00  0.00     0.031 A 
ATOM     40  C   UNL A   1      46.401  25.589  25.831  1.00  0.00     0.074 A 
ATOM     41  C   UNL A   1      44.006  25.789  26.423  1.00  0.00     0.049 A 
ATOM     42  N   UNL A   1      46.849  26.773  26.153  1.00  0.00    -0.248 NA
ATOM     43  C   UNL A   1      47.418  24.698  25.246  1.00  0.00     0.031 C 
ATOM     44  C   UNL A   1      42.615  25.361  26.565  1.00  0.00     0.029 A 
ATOM     45  N   UNL A   1      44.005  27.091  26.854  1.00  0.00    -0.354 N 
ATOM     46  C   UNL A   1      48.195  26.773  25.808  1.00  0.00     0.074 A 
ATOM     47  C   UNL A   1      48.499  25.462  25.278  1.00  0.00     0.031 C 
ATOM     48  C   UNL A   1      41.896  26.381  27.071  1.00  0.00     0.029 A 
ATOM     49  C   UNL A   1      42.781  27.519  27.311  1.00  0.00     0.049 A 
ATOM     50  H   UNL A   1      44.804  27.666  26.836  1.00  0.00     0.167 HD
ATOM     51  C   UNL A   1      49.095  27.778  25.918  1.00  0.00     0.037 A 
ATOM     52  C   UNL A   1      42.429  28.689  27.883  1.00  0.00     0.037 A 
ATOM     53  C   UNL A   1      48.793  29.076  26.458  1.00  0.00     0.049 A 
ATOM     54  C   UNL A   1      43.469  29.766  28.065  1.00  0.00     0.074 A 
ATOM     55  C   UNL A   1      49.639  30.158  26.620  1.00  0.00     0.029 A 
ATOM     56  N   UNL A   1      47.548  29.466  26.927  1.00  0.00    -0.354 N 
ATOM     57  N   UNL A   1      44.737  29.757  27.723  1.00  0.00    -0.248 NA
ATOM     58  C   UNL A   1      43.032  31.013  28.710  1.00  0.00     0.031 C 
ATOM     59  C   UNL A   1      48.914  31.193  27.221  1.00  0.00     0.029 A 
ATOM     60  C   UNL A   1      47.606  30.768  27.392  1.00  0.00     0.049 A 
ATOM     61  H   UNL A   1      46.743  28.900  26.929  1.00  0.00     0.167 HD
ATOM     62  C   UNL A   1      45.236  31.006  28.082  1.00  0.00     0.074 A 
ATOM     63  C   UNL A   1      44.135  31.747  28.661  1.00  0.00     0.031 C 
ATOM     64  C   UNL A   1      46.493  31.497  27.945  1.00  0.00     0.037 A 
BRANCH  51  65
ATOM     65  C   UNL A   1      50.498  27.506  25.457  1.00  0.00     0.058 A 
ATOM     66  C   UNL A   1      50.868  27.660  24.112  1.00  0.00     0.135 A 
ATOM     67  C   UNL A   1      51.491  27.128  26.374  1.00  0.00     0.135 A 
ATOM     68  F   UNL A   1      49.951  27.996  23.191  1.00  0.00    -0.206 F 
ATOM     69  C   UNL A   1      52.174  27.437  23.690  1.00  0.00     0.059 A 
ATOM     70  C   UNL A   1      52.808  26.922  25.978  1.00  0.00     0.059 A 
ATOM     71  F   UNL A   1      51.184  26.960  27.670  1.00  0.00    -0.206 F 
ATOM     72  C   UNL A   1      53.138  27.071  24.631  1.00  0.00     0.060 A 
BRANCH  72  73
ATOM     73  S   UNL A   1      54.834  26.809  24.072  1.00  0.00     0.124 S 
ATOM     74  O   UNL A   1      55.177  25.566  24.758  1.00  0.00    -0.237 OA
ATOM     75  O   UNL A   1      54.675  26.709  22.625  1.00  0.00    -0.237 OA
ATOM     76  O   UNL A   1      55.536  27.998  24.543  1.00  0.00    -0.744 OA
ENDBRANCH  72  73
ENDBRANCH  51  65
BRANCH  52  77
ATOM     77  C   UNL A   1      41.034  28.907  28.352  1.00  0.00     0.058 A 
ATOM     78  C   UNL A   1      40.009  29.229  27.450  1.00  0.00     0.135 A 
ATOM     79  C   UNL A   1      40.708  28.841  29.715  1.00  0.00     0.135 A 
ATOM     80  F   UNL A   1      40.273  29.314  26.137  1.00  0.00    -0.206 F 
ATOM     81  C   UNL A   1      38.718  29.509  27.885  1.00  0.00     0.059 A 
ATOM     82  C   UNL A   1      39.418  29.091  30.172  1.00  0.00     0.059 A 
ATOM     83  F   UNL A   1      41.651  28.526  30.617  1.00  0.00    -0.206 F 
ATOM     84  C   UNL A   1      38.433  29.442  29.250  1.00  0.00     0.060 A 
BRANCH  84  85
ATOM     85  S   UNL A   1      36.752  29.795  29.807  1.00  0.00     0.124 S 
ATOM     86  O   UNL A   1      36.822  31.231  30.054  1.00  0.00    -0.237 OA
ATOM     87  O   UNL A   1      35.953  29.384  28.657  1.00  0.00    -0.237 OA
ATOM     88  O   UNL A   1      36.610  28.954  30.992  1.00  0.00    -0.744 OA
ENDBRANCH  84  85
ENDBRANCH  52  77
BRANCH  64  89
ATOM     89  C   UNL A   1      46.738  32.914  28.380  1.00  0.00     0.058 A 
ATOM     90  C   UNL A   1      47.165  33.225  29.680  1.00  0.00     0.135 A 
ATOM     91  C   UNL A   1      46.602  33.970  27.463  1.00  0.00     0.135 A 
ATOM     92  F   UNL A   1      47.305  32.253  30.595  1.00  0.00    -0.206 F 
ATOM     93  C   UNL A   1      47.429  34.536  30.063  1.00  0.00     0.059 A 
ATOM     94  C   UNL A   1      46.885  35.285  27.817  1.00  0.00     0.059 A 
ATOM     95  F   UNL A   1      46.209  33.723  26.203  1.00  0.00    -0.206 F 
ATOM     96  C   UNL A   1      47.288  35.560  29.123  1.00  0.00     0.060 A 
BRANCH  96  97
ATOM     97  S   UNL A   1      47.669  37.254  29.619  1.00  0.00     0.124 S 
ATOM     98  O   UNL A   1      46.343  37.773  29.935  1.00  0.00    -0.237 OA
ATOM     99  O   UNL A   1      48.560  37.054  30.758  1.00  0.00    -0.237 OA
ATOM    100  O   UNL A   1      48.301  37.821  28.431  1.00  0.00    -0.744 OA
ENDBRANCH  96  97
ENDBRANCH  64  89
ENDBRANCH  38  39
ENDBRANCH  31  33
ENDBRANCH  30  31
ENDBRANCH  29  30
ENDBRANCH  28  29
ENDBRANCH  27  28
ENDBRANCH   1  27
TORSDOF 22
ENDMDL
MODEL 2
REMARK VINA RESULT:     -10.4      5.395     10.537
REMARK SMILES CC(=O)Nc1cccc(-c2cc(F)ccc2C(=O)OCCOCCOCCOC(=O)c2ccc(-c3c4nc(c(-c5c(F)cc(S(=O)(=O)[O-])cc5F)c5ccc([nH]5)c(-c5c(F)cc(S(=O)(=O)[O-])cc5F)c5nc(c(-c6c(F)cc(S(=O)(=O)[O-])cc6F)c6ccc3[nH]6)C=C5)C=C4)cc2)c1
REMARK SMILES IDX 24 1 23 2 22 3 21 4 20 5 19 6 17 7 18 8 16 9 10 10 11 11
REMARK SMILES IDX 12 12 15 13 13 14 14 15 9 16 5 17 6 18 97 19 7 20 8 21 4 22
REMARK SMILES IDX 1 23 2 24 3 25 25 27 26 28 27 29 28 30 29 31 30 32 31 33
REMARK SMILES IDX 32 34 96 35 33 36 95 37 34 38 35 39 36 40 89 41 37 42 94 43
REMARK SMILES IDX 88 44 90 45 38 46 93 47 87 48 86 49 39 51 73 52 52 53 72 54
REMARK SMILES IDX 53 55 56 56 71 57 91 58 54 59 55 60 70 62 92 63 57 64 40 65
REMARK SMILES IDX 41 66 50 67 42 68 43 69 49 70 51 71 44 72 45 73 46 74 47 75
REMARK SMILES IDX 48 76 74 77 75 78 84 79 76 80 77 81 83 82 85 83 78 84 79 85
REMARK SMILES IDX 80 86 81 87 82 88 58 89 59 90 68 91 60 92 61 93 67 94 69 95
REMARK SMILES IDX 62 96 63 97 64 98 65 99 66 100
REMARK H PARENT 4 26 90 50 56 61
REMARK Flexibility Score: inf
ROOT
ATOM      1  C   UNL A   1      30.950  28.652  23.659  1.00  0.00     0.188 C 
ENDROOT
BRANCH   1   2
ATOM      2  C   UNL A   1      30.090  27.369  23.694  1.00  0.00     0.188 C 
BRANCH   2   3
ATOM      3  O   UNL A   1      30.636  26.166  24.217  1.00  0.00    -0.376 OA
BRANCH   3   4
ATOM      4  C   UNL A   1      31.205  26.183  25.523  1.00  0.00     0.202 C 
BRANCH   4   5
ATOM      5  C   UNL A   1      32.629  25.658  25.669  1.00  0.00     0.261 C 
BRANCH   5   6
ATOM      6  O   UNL A   1      32.714  24.338  25.112  1.00  0.00    -0.460 OA
BRANCH   6   7
ATOM      7  C   UNL A   1      33.034  23.357  25.980  1.00  0.00     0.338 C 
ATOM      8  O   UNL A   1      32.300  22.870  26.825  1.00  0.00    -0.246 OA
BRANCH   7   9
ATOM      9  C   UNL A   1      34.401  22.847  25.705  1.00  0.00     0.068 A 
ATOM     10  C   UNL A   1      34.692  21.692  24.932  1.00  0.00    -0.001 A 
ATOM     11  C   UNL A   1      36.054  21.384  24.732  1.00  0.00     0.048 A 
ATOM     12  C   UNL A   1      37.064  22.155  25.306  1.00  0.00     0.123 A 
ATOM     13  C   UNL A   1      35.434  23.608  26.287  1.00  0.00     0.019 A 
ATOM     14  F   UNL A   1      38.343  21.821  25.095  1.00  0.00    -0.207 F 
ATOM     15  C   UNL A   1      36.766  23.253  26.097  1.00  0.00     0.040 A 
BRANCH  10  16
ATOM     16  C   UNL A   1      33.659  20.777  24.386  1.00  0.00    -0.015 A 
ATOM     17  C   UNL A   1      32.603  18.567  24.334  1.00  0.00     0.041 A 
ATOM     18  C   UNL A   1      31.962  18.913  23.140  1.00  0.00     0.026 A 
ATOM     19  C   UNL A   1      33.405  19.520  24.967  1.00  0.00     0.034 A 
ATOM     20  C   UNL A   1      32.120  20.183  22.591  1.00  0.00     0.003 A 
ATOM     21  C   UNL A   1      32.973  21.100  23.202  1.00  0.00     0.009 A 
BRANCH  17  22
ATOM     22  N   UNL A   1      32.487  17.229  24.748  1.00  0.00    -0.326 N 
ATOM     23  C   UNL A   1      34.859  16.448  24.816  1.00  0.00     0.114 C 
ATOM     24  C   UNL A   1      33.377  16.202  24.846  1.00  0.00     0.221 C 
ATOM     25  O   UNL A   1      32.937  15.062  25.014  1.00  0.00    -0.275 OA
ATOM     26  H   UNL A   1      31.575  16.983  25.025  1.00  0.00     0.169 HD
ENDBRANCH  17  22
ENDBRANCH  10  16
ENDBRANCH   7   9
ENDBRANCH   6   7
ENDBRANCH   5   6
ENDBRANCH   4   5
ENDBRANCH   3   4
ENDBRANCH   2   3
ENDBRANCH   1   2
BRANCH   1  27
ATOM     27  O   UNL A   1      31.059  29.509  24.782  1.00  0.00    -0.376 OA
BRANCH  27  28
ATOM     28  C   UNL A   1      32.322  29.710  25.397  1.00  0.00     0.202 C 
BRANCH  28  29
ATOM     29  C   UNL A   1      32.418  30.514  26.694  1.00  0.00     0.261 C 
BRANCH  29  30
ATOM     30  O   UNL A   1      33.523  30.143  27.527  1.00  0.00    -0.460 OA
BRANCH  30  31
ATOM     31  C   UNL A   1      34.522  31.058  27.589  1.00  0.00     0.338 C 
ATOM     32  O   UNL A   1      34.427  32.265  27.442  1.00  0.00    -0.246 OA
BRANCH  31  33
ATOM     33  C   UNL A   1      35.755  30.402  28.058  1.00  0.00     0.060 A 
ATOM     34  C   UNL A   1      35.724  29.755  29.301  1.00  0.00     0.016 A 
ATOM     35  C   UNL A   1      36.933  30.456  27.311  1.00  0.00     0.016 A 
ATOM     36  C   UNL A   1      36.886  29.189  29.820  1.00  0.00     0.010 A 
ATOM     37  C   UNL A   1      38.102  29.910  27.844  1.00  0.00     0.010 A 
ATOM     38  C   UNL A   1      38.090  29.303  29.112  1.00  0.00    -0.014 A 
BRANCH  38  39
ATOM     39  C   UNL A   1      39.366  28.961  29.781  1.00  0.00     0.031 A 
ATOM     40  C   UNL A   1      39.783  29.772  30.977  1.00  0.00     0.074 A 
ATOM     41  C   UNL A   1      40.131  27.945  29.344  1.00  0.00     0.049 A 
ATOM     42  N   UNL A   1      40.877  29.699  31.687  1.00  0.00    -0.248 NA
ATOM     43  C   UNL A   1      38.835  30.803  31.434  1.00  0.00     0.031 C 
ATOM     44  C   UNL A   1      39.811  27.066  28.221  1.00  0.00     0.029 A 
ATOM     45  N   UNL A   1      41.346  27.492  29.792  1.00  0.00    -0.354 N 
ATOM     46  C   UNL A   1      40.751  30.669  32.674  1.00  0.00     0.074 A 
ATOM     47  C   UNL A   1      39.487  31.337  32.457  1.00  0.00     0.031 C 
ATOM     48  C   UNL A   1      40.818  26.188  28.055  1.00  0.00     0.029 A 
ATOM     49  C   UNL A   1      41.862  26.463  29.041  1.00  0.00     0.049 A 
ATOM     50  H   UNL A   1      41.805  27.868  30.578  1.00  0.00     0.167 HD
ATOM     51  C   UNL A   1      41.610  30.972  33.675  1.00  0.00     0.037 A 
ATOM     52  C   UNL A   1      43.053  25.837  29.128  1.00  0.00     0.037 A 
ATOM     53  C   UNL A   1      42.872  30.316  33.881  1.00  0.00     0.049 A 
ATOM     54  C   UNL A   1      44.026  26.245  30.207  1.00  0.00     0.074 A 
ATOM     55  C   UNL A   1      43.818  30.557  34.862  1.00  0.00     0.029 A 
ATOM     56  N   UNL A   1      43.368  29.291  33.090  1.00  0.00    -0.354 N 
ATOM     57  N   UNL A   1      43.889  27.157  31.141  1.00  0.00    -0.248 NA
ATOM     58  C   UNL A   1      45.315  25.540  30.243  1.00  0.00     0.031 C 
ATOM     59  C   UNL A   1      44.903  29.702  34.643  1.00  0.00     0.029 A 
ATOM     60  C   UNL A   1      44.612  28.898  33.552  1.00  0.00     0.049 A 
ATOM     61  H   UNL A   1      42.904  28.901  32.315  1.00  0.00     0.167 HD
ATOM     62  C   UNL A   1      45.059  27.110  31.893  1.00  0.00     0.074 A 
ATOM     63  C   UNL A   1      45.890  26.077  31.310  1.00  0.00     0.031 C 
ATOM     64  C   UNL A   1      45.415  27.853  32.970  1.00  0.00     0.037 A 
BRANCH  51  65
ATOM     65  C   UNL A   1      41.217  32.073  34.617  1.00  0.00     0.058 A 
ATOM     66  C   UNL A   1      40.520  31.805  35.805  1.00  0.00     0.135 A 
ATOM     67  C   UNL A   1      41.575  33.404  34.350  1.00  0.00     0.135 A 
ATOM     68  F   UNL A   1      40.132  30.552  36.095  1.00  0.00    -0.206 F 
ATOM     69  C   UNL A   1      40.182  32.821  36.693  1.00  0.00     0.059 A 
ATOM     70  C   UNL A   1      41.267  34.433  35.234  1.00  0.00     0.059 A 
ATOM     71  F   UNL A   1      42.235  33.712  33.223  1.00  0.00    -0.206 F 
ATOM     72  C   UNL A   1      40.562  34.132  36.400  1.00  0.00     0.060 A 
BRANCH  72  73
ATOM     73  S   UNL A   1      40.137  35.436  37.572  1.00  0.00     0.124 S 
ATOM     74  O   UNL A   1      39.956  36.579  36.682  1.00  0.00    -0.237 OA
ATOM     75  O   UNL A   1      38.921  34.917  38.190  1.00  0.00    -0.237 OA
ATOM     76  O   UNL A   1      41.303  35.502  38.447  1.00  0.00    -0.744 OA
ENDBRANCH  72  73
ENDBRANCH  51  65
BRANCH  52  77
ATOM     77  C   UNL A   1      43.415  24.770  28.158  1.00  0.00     0.058 A 
ATOM     78  C   UNL A   1      44.060  25.077  26.950  1.00  0.00     0.135 A 
ATOM     79  C   UNL A   1      43.086  23.428  28.399  1.00  0.00     0.135 A 
ATOM     80  F   UNL A   1      44.386  26.349  26.669  1.00  0.00    -0.206 F 
ATOM     81  C   UNL A   1      44.337  24.098  26.002  1.00  0.00     0.059 A 
ATOM     82  C   UNL A   1      43.376  22.426  27.478  1.00  0.00     0.059 A 
ATOM     83  F   UNL A   1      42.479  23.080  29.545  1.00  0.00    -0.206 F 
ATOM     84  C   UNL A   1      43.985  22.774  26.274  1.00  0.00     0.060 A 
BRANCH  84  85
ATOM     85  S   UNL A   1      44.358  21.505  25.044  1.00  0.00     0.124 S 
ATOM     86  O   UNL A   1      44.280  22.269  23.804  1.00  0.00    -0.237 OA
ATOM     87  O   UNL A   1      45.693  21.071  25.443  1.00  0.00    -0.237 OA
ATOM     88  O   UNL A   1      43.300  20.521  25.249  1.00  0.00    -0.744 OA
ENDBRANCH  84  85
ENDBRANCH  52  77
BRANCH  64  89
ATOM     89  C   UNL A   1      46.735  27.548  33.621  1.00  0.00     0.058 A 
ATOM     90  C   UNL A   1      46.852  26.594  34.643  1.00  0.00     0.135 A 
ATOM     91  C   UNL A   1      47.908  28.177  33.173  1.00  0.00     0.135 A 
ATOM     92  F   UNL A   1      45.760  25.968  35.111  1.00  0.00    -0.206 F 
ATOM     93  C   UNL A   1      48.084  26.288  35.213  1.00  0.00     0.059 A 
ATOM     94  C   UNL A   1      49.153  27.869  33.710  1.00  0.00     0.059 A 
ATOM     95  F   UNL A   1      47.851  29.088  32.188  1.00  0.00    -0.206 F 
ATOM     96  C   UNL A   1      49.230  26.930  34.738  1.00  0.00     0.060 A 
BRANCH  96  97
ATOM     97  S   UNL A   1      50.829  26.498  35.458  1.00  0.00     0.124 S 
ATOM     98  O   UNL A   1      50.921  27.449  36.561  1.00  0.00    -0.237 OA
ATOM     99  O   UNL A   1      50.635  25.103  35.839  1.00  0.00    -0.237 OA
ATOM    100  O   UNL A   1      51.765  26.716  34.359  1.00  0.00    -0.744 OA
ENDBRANCH  96  97
ENDBRANCH  64  89
ENDBRANCH  38  39
ENDBRANCH  31  33
ENDBRANCH  30  31
ENDBRANCH  29  30
ENDBRANCH  28  29
ENDBRANCH  27  28
ENDBRANCH   1  27
TORSDOF 22
ENDMDL
MODEL 3
REMARK VINA RESULT:     -10.4      3.476      9.565
REMARK SMILES CC(=O)Nc1cccc(-c2cc(F)ccc2C(=O)OCCOCCOCCOC(=O)c2ccc(-c3c4nc(c(-c5c(F)cc(S(=O)(=O)[O-])cc5F)c5ccc([nH]5)c(-c5c(F)cc(S(=O)(=O)[O-])cc5F)c5nc(c(-c6c(F)cc(S(=O)(=O)[O-])cc6F)c6ccc3[nH]6)C=C5)C=C4)cc2)c1
REMARK SMILES IDX 24 1 23 2 22 3 21 4 20 5 19 6 17 7 18 8 16 9 10 10 11 11
REMARK SMILES IDX 12 12 15 13 13 14 14 15 9 16 5 17 6 18 97 19 7 20 8 21 4 22
REMARK SMILES IDX 1 23 2 24 3 25 25 27 26 28 27 29 28 30 29 31 30 32 31 33
REMARK SMILES IDX 32 34 96 35 33 36 95 37 34 38 35 39 36 40 89 41 37 42 94 43
REMARK SMILES IDX 88 44 90 45 38 46 93 47 87 48 86 49 39 51 73 52 52 53 72 54
REMARK SMILES IDX 53 55 56 56 71 57 91 58 54 59 55 60 70 62 92 63 57 64 40 65
REMARK SMILES IDX 41 66 50 67 42 68 43 69 49 70 51 71 44 72 45 73 46 74 47 75
REMARK SMILES IDX 48 76 74 77 75 78 84 79 76 80 77 81 83 82 85 83 78 84 79 85
REMARK SMILES IDX 80 86 81 87 82 88 58 89 59 90 68 91 60 92 61 93 67 94 69 95
REMARK SMILES IDX 62 96 63 97 64 98 65 99 66 100
REMARK H PARENT 4 26 90 50 56 61
REMARK Flexibility Score: inf
ROOT
ATOM      1  C   UNL A   1      33.244  34.296  28.575  1.00  0.00     0.188 C 
ENDROOT
BRANCH   1   2
ATOM      2  C   UNL A   1      32.979  33.065  27.680  1.00  0.00     0.188 C 
BRANCH   2   3
ATOM      3  O   UNL A   1      31.752  32.956  26.972  1.00  0.00    -0.376 OA
BRANCH   3   4
ATOM      4  C   UNL A   1      31.277  31.660  26.620  1.00  0.00     0.202 C 
BRANCH   4   5
ATOM      5  C   UNL A   1      32.321  30.584  26.350  1.00  0.00     0.261 C 
BRANCH   5   6
ATOM      6  O   UNL A   1      31.668  29.367  25.958  1.00  0.00    -0.460 OA
BRANCH   6   7
ATOM      7  C   UNL A   1      31.776  29.040  24.655  1.00  0.00     0.338 C 
ATOM      8  O   UNL A   1      32.812  28.825  24.045  1.00  0.00    -0.246 OA
BRANCH   7   9
ATOM      9  C   UNL A   1      30.432  28.859  24.051  1.00  0.00     0.068 A 
ATOM     10  C   UNL A   1      29.740  27.621  23.976  1.00  0.00    -0.001 A 
ATOM     11  C   UNL A   1      28.446  27.646  23.414  1.00  0.00     0.048 A 
ATOM     12  C   UNL A   1      27.894  28.825  22.915  1.00  0.00     0.123 A 
ATOM     13  C   UNL A   1      29.863  30.039  23.533  1.00  0.00     0.019 A 
ATOM     14  F   UNL A   1      26.666  28.800  22.384  1.00  0.00    -0.207 F 
ATOM     15  C   UNL A   1      28.598  30.018  22.953  1.00  0.00     0.040 A 
BRANCH  10  16
ATOM     16  C   UNL A   1      30.319  26.320  24.393  1.00  0.00    -0.015 A 
ATOM     17  C   UNL A   1      31.000  24.032  23.843  1.00  0.00     0.041 A 
ATOM     18  C   UNL A   1      31.077  23.737  25.207  1.00  0.00     0.026 A 
ATOM     19  C   UNL A   1      30.669  25.332  23.453  1.00  0.00     0.034 A 
ATOM     20  C   UNL A   1      30.828  24.720  26.162  1.00  0.00     0.003 A 
ATOM     21  C   UNL A   1      30.438  25.995  25.756  1.00  0.00     0.009 A 
BRANCH  17  22
ATOM     22  N   UNL A   1      31.145  22.952  22.954  1.00  0.00    -0.326 N 
ATOM     23  C   UNL A   1      32.993  21.619  23.979  1.00  0.00     0.114 C 
ATOM     24  C   UNL A   1      32.061  21.948  22.849  1.00  0.00     0.221 C 
ATOM     25  O   UNL A   1      32.072  21.276  21.814  1.00  0.00    -0.275 OA
ATOM     26  H   UNL A   1      30.441  22.913  22.268  1.00  0.00     0.169 HD
ENDBRANCH  17  22
ENDBRANCH  10  16
ENDBRANCH   7   9
ENDBRANCH   6   7
ENDBRANCH   5   6
ENDBRANCH   4   5
ENDBRANCH   3   4
ENDBRANCH   2   3
ENDBRANCH   1   2
BRANCH   1  27
ATOM     27  O   UNL A   1      34.022  34.209  29.755  1.00  0.00    -0.376 OA
BRANCH  27  28
ATOM     28  C   UNL A   1      34.993  33.182  29.886  1.00  0.00     0.202 C 
BRANCH  28  29
ATOM     29  C   UNL A   1      35.076  32.374  31.182  1.00  0.00     0.261 C 
BRANCH  29  30
ATOM     30  O   UNL A   1      36.369  31.810  31.433  1.00  0.00    -0.460 OA
BRANCH  30  31
ATOM     31  C   UNL A   1      36.552  30.562  30.937  1.00  0.00     0.338 C 
ATOM     32  O   UNL A   1      35.696  29.724  30.713  1.00  0.00    -0.246 OA
BRANCH  31  33
ATOM     33  C   UNL A   1      37.954  30.408  30.512  1.00  0.00     0.060 A 
ATOM     34  C   UNL A   1      38.217  30.281  29.141  1.00  0.00     0.016 A 
ATOM     35  C   UNL A   1      38.991  30.347  31.445  1.00  0.00     0.016 A 
ATOM     36  C   UNL A   1      39.518  30.055  28.699  1.00  0.00     0.010 A 
ATOM     37  C   UNL A   1      40.291  30.096  31.002  1.00  0.00     0.010 A 
ATOM     38  C   UNL A   1      40.554  29.919  29.632  1.00  0.00    -0.014 A 
BRANCH  38  39
ATOM     39  C   UNL A   1      41.870  29.401  29.193  1.00  0.00     0.031 A 
ATOM     40  C   UNL A   1      43.032  30.355  29.147  1.00  0.00     0.074 A 
ATOM     41  C   UNL A   1      42.032  28.109  28.856  1.00  0.00     0.049 A 
ATOM     42  N   UNL A   1      44.258  30.149  28.743  1.00  0.00    -0.248 NA
ATOM     43  C   UNL A   1      42.776  31.726  29.621  1.00  0.00     0.031 C 
ATOM     44  C   UNL A   1      40.990  27.085  28.900  1.00  0.00     0.029 A 
ATOM     45  N   UNL A   1      43.141  27.444  28.398  1.00  0.00    -0.354 N 
ATOM     46  C   UNL A   1      44.919  31.358  28.916  1.00  0.00     0.074 A 
ATOM     47  C   UNL A   1      43.954  32.302  29.435  1.00  0.00     0.031 C 
ATOM     48  C   UNL A   1      41.507  25.920  28.465  1.00  0.00     0.029 A 
ATOM     49  C   UNL A   1      42.904  26.126  28.088  1.00  0.00     0.049 A 
ATOM     50  H   UNL A   1      44.024  27.870  28.301  1.00  0.00     0.167 HD
ATOM     51  C   UNL A   1      46.217  31.654  28.670  1.00  0.00     0.037 A 
ATOM     52  C   UNL A   1      43.719  25.204  27.537  1.00  0.00     0.037 A 
ATOM     53  C   UNL A   1      47.171  30.718  28.141  1.00  0.00     0.049 A 
ATOM     54  C   UNL A   1      45.141  25.580  27.200  1.00  0.00     0.074 A 
ATOM     55  C   UNL A   1      48.507  30.924  27.848  1.00  0.00     0.029 A 
ATOM     56  N   UNL A   1      46.890  29.398  27.822  1.00  0.00    -0.354 N 
ATOM     57  N   UNL A   1      45.758  26.725  27.380  1.00  0.00    -0.248 NA
ATOM     58  C   UNL A   1      45.978  24.539  26.586  1.00  0.00     0.031 C 
ATOM     59  C   UNL A   1      49.026  29.738  27.318  1.00  0.00     0.029 A 
ATOM     60  C   UNL A   1      48.023  28.781  27.323  1.00  0.00     0.049 A 
ATOM     61  H   UNL A   1      46.013  28.964  27.935  1.00  0.00     0.167 HD
ATOM     62  C   UNL A   1      47.061  26.530  26.931  1.00  0.00     0.074 A 
ATOM     63  C   UNL A   1      47.146  25.158  26.478  1.00  0.00     0.031 C 
ATOM     64  C   UNL A   1      48.095  27.407  26.897  1.00  0.00     0.037 A 
BRANCH  51  65
ATOM     65  C   UNL A   1      46.676  33.054  28.957  1.00  0.00     0.058 A 
ATOM     66  C   UNL A   1      47.216  33.406  30.203  1.00  0.00     0.135 A 
ATOM     67  C   UNL A   1      46.612  34.045  27.964  1.00  0.00     0.135 A 
ATOM     68  F   UNL A   1      47.277  32.501  31.194  1.00  0.00    -0.206 F 
ATOM     69  C   UNL A   1      47.670  34.695  30.460  1.00  0.00     0.059 A 
ATOM     70  C   UNL A   1      47.079  35.335  28.192  1.00  0.00     0.059 A 
ATOM     71  F   UNL A   1      46.095  33.761  26.759  1.00  0.00    -0.206 F 
ATOM     72  C   UNL A   1      47.599  35.653  29.446  1.00  0.00     0.060 A 
BRANCH  72  73
ATOM     73  S   UNL A   1      48.213  37.316  29.786  1.00  0.00     0.124 S 
ATOM     74  O   UNL A   1      48.352  37.283  31.239  1.00  0.00    -0.237 OA
ATOM     75  O   UNL A   1      49.462  37.348  29.032  1.00  0.00    -0.237 OA
ATOM     76  O   UNL A   1      47.153  38.180  29.278  1.00  0.00    -0.744 OA
ENDBRANCH  72  73
ENDBRANCH  51  65
BRANCH  52  77
ATOM     77  C   UNL A   1      43.217  23.835  27.243  1.00  0.00     0.058 A 
ATOM     78  C   UNL A   1      43.252  22.826  28.216  1.00  0.00     0.135 A 
ATOM     79  C   UNL A   1      42.733  23.499  25.970  1.00  0.00     0.135 A 
ATOM     80  F   UNL A   1      43.716  23.096  29.446  1.00  0.00    -0.206 F 
ATOM     81  C   UNL A   1      42.854  21.523  27.930  1.00  0.00     0.059 A 
ATOM     82  C   UNL A   1      42.305  22.210  25.666  1.00  0.00     0.059 A 
ATOM     83  F   UNL A   1      42.669  24.431  25.006  1.00  0.00    -0.206 F 
ATOM     84  C   UNL A   1      42.387  21.224  26.649  1.00  0.00     0.060 A 
BRANCH  84  85
ATOM     85  S   UNL A   1      41.862  19.535  26.287  1.00  0.00     0.124 S 
ATOM     86  O   UNL A   1      42.645  19.235  25.094  1.00  0.00    -0.237 OA
ATOM     87  O   UNL A   1      42.250  18.824  27.501  1.00  0.00    -0.237 OA
ATOM     88  O   UNL A   1      40.422  19.669  26.082  1.00  0.00    -0.744 OA
ENDBRANCH  84  85
ENDBRANCH  52  77
BRANCH  64  89
ATOM     89  C   UNL A   1      49.420  26.902  26.402  1.00  0.00     0.058 A 
ATOM     90  C   UNL A   1      50.279  26.153  27.220  1.00  0.00     0.135 A 
ATOM     91  C   UNL A   1      49.807  27.119  25.069  1.00  0.00     0.135 A 
ATOM     92  F   UNL A   1      49.958  25.922  28.503  1.00  0.00    -0.206 F 
ATOM     93  C   UNL A   1      51.487  25.655  26.741  1.00  0.00     0.059 A 
ATOM     94  C   UNL A   1      50.998  26.609  24.561  1.00  0.00     0.059 A 
ATOM     95  F   UNL A   1      49.014  27.818  24.241  1.00  0.00    -0.206 F 
ATOM     96  C   UNL A   1      51.837  25.886  25.409  1.00  0.00     0.060 A 
BRANCH  96  97
ATOM     97  S   UNL A   1      53.388  25.203  24.787  1.00  0.00     0.124 S 
ATOM     98  O   UNL A   1      53.316  23.827  25.267  1.00  0.00    -0.237 OA
ATOM     99  O   UNL A   1      53.251  25.378  23.344  1.00  0.00    -0.237 OA
ATOM    100  O   UNL A   1      54.405  26.038  25.419  1.00  0.00    -0.744 OA
ENDBRANCH  96  97
ENDBRANCH  64  89
ENDBRANCH  38  39
ENDBRANCH  31  33
ENDBRANCH  30  31
ENDBRANCH  29  30
ENDBRANCH  28  29
ENDBRANCH  27  28
ENDBRANCH   1  27
TORSDOF 22
ENDMDL
