MODEL 1
REMARK VINA RESULT:     -10.6      0.000      0.000
REMARK SMILES O=C(OCCOCCOCCOC(=O)[C@H]1CC[C@H]2CCCC[C@@H]2N1C(=O)c1ccn[nH]1)c1ccc(-c2c3nc(c(-c4c(F)cc(S(=O)(=O)[O-])cc4F)c4ccc([nH]4)c(-c4c(F)cc(S(=O)(=O)[O-])cc4F)c4nc(c(-c5c(F)cc(S(=O)(=O)[O-])cc5F)c5ccc2[nH]5)C=C4)C=C3)cc1
REMARK SMILES IDX 7 1 6 2 5 3 4 4 3 5 2 6 1 7 32 8 33 9 97 10 34 11 96 12
REMARK SMILES IDX 35 13 36 14 37 15 90 16 38 17 95 18 89 19 91 20 39 21 94 22
REMARK SMILES IDX 88 23 87 24 40 26 74 27 53 28 73 29 54 30 57 31 72 32 92 33
REMARK SMILES IDX 55 34 56 35 71 37 93 38 58 39 41 40 42 41 51 42 43 43 44 44
REMARK SMILES IDX 50 45 52 46 45 47 46 48 47 49 48 50 49 51 75 52 76 53 85 54
REMARK SMILES IDX 77 55 78 56 84 57 86 58 79 59 80 60 81 61 82 62 83 63 59 64
REMARK SMILES IDX 60 65 69 66 61 67 62 68 68 69 70 70 63 71 64 72 65 73 66 74
REMARK SMILES IDX 67 75 8 76 9 77 10 78 11 79 12 80 13 81 14 82 15 83 16 84
REMARK SMILES IDX 24 85 17 86 23 87 18 88 22 89 19 90 21 91 20 92 25 93 26 94
REMARK SMILES IDX 27 95 28 96 31 97 29 98 30 99
REMARK H PARENT 91 25 57 36 31 100
REMARK Flexibility Score: inf
ROOT
ATOM      1  C   UNL A   1      33.945  30.764  27.987  1.00  0.00     0.188 C 
ENDROOT
BRANCH   1   2
ATOM      2  O   UNL A   1      34.304  32.131  27.726  1.00  0.00    -0.376 OA
BRANCH   2   3
ATOM      3  C   UNL A   1      35.282  32.641  28.633  1.00  0.00     0.202 C 
BRANCH   3   4
ATOM      4  C   UNL A   1      34.903  32.462  30.106  1.00  0.00     0.261 C 
BRANCH   4   5
ATOM      5  O   UNL A   1      36.038  32.093  30.905  1.00  0.00    -0.460 OA
BRANCH   5   6
ATOM      6  C   UNL A   1      36.615  30.865  30.970  1.00  0.00     0.338 C 
ATOM      7  O   UNL A   1      35.955  29.923  31.408  1.00  0.00    -0.246 OA
BRANCH   6   8
ATOM      8  C   UNL A   1      37.953  30.569  30.375  1.00  0.00     0.060 A 
ATOM      9  C   UNL A   1      38.222  30.361  29.019  1.00  0.00     0.016 A 
ATOM     10  C   UNL A   1      39.035  30.554  31.272  1.00  0.00     0.016 A 
ATOM     11  C   UNL A   1      39.504  29.993  28.590  1.00  0.00     0.010 A 
ATOM     12  C   UNL A   1      40.329  30.254  30.837  1.00  0.00     0.010 A 
ATOM     13  C   UNL A   1      40.563  29.914  29.499  1.00  0.00    -0.014 A 
BRANCH  13  14
ATOM     14  C   UNL A   1      41.899  29.415  29.085  1.00  0.00     0.031 A 
ATOM     15  C   UNL A   1      43.038  30.386  28.933  1.00  0.00     0.074 A 
ATOM     16  C   UNL A   1      42.098  28.111  28.817  1.00  0.00     0.049 A 
ATOM     17  N   UNL A   1      44.265  30.164  28.536  1.00  0.00    -0.248 NA
ATOM     18  C   UNL A   1      42.763  31.788  29.286  1.00  0.00     0.031 C 
ATOM     19  C   UNL A   1      41.100  27.055  28.954  1.00  0.00     0.029 A 
ATOM     20  N   UNL A   1      43.206  27.460  28.336  1.00  0.00    -0.354 N 
ATOM     21  C   UNL A   1      44.917  31.386  28.626  1.00  0.00     0.074 A 
ATOM     22  C   UNL A   1      43.933  32.361  29.049  1.00  0.00     0.031 C 
ATOM     23  C   UNL A   1      41.609  25.905  28.483  1.00  0.00     0.029 A 
ATOM     24  C   UNL A   1      42.979  26.137  28.047  1.00  0.00     0.049 A 
ATOM     25  H   UNL A   1      44.079  27.898  28.210  1.00  0.00     0.167 HD
ATOM     26  C   UNL A   1      46.225  31.668  28.418  1.00  0.00     0.037 A 
ATOM     27  C   UNL A   1      43.780  25.211  27.488  1.00  0.00     0.037 A 
ATOM     28  C   UNL A   1      47.207  30.711  27.988  1.00  0.00     0.049 A 
ATOM     29  C   UNL A   1      45.200  25.561  27.166  1.00  0.00     0.074 A 
ATOM     30  C   UNL A   1      48.562  30.895  27.778  1.00  0.00     0.029 A 
ATOM     31  N   UNL A   1      46.934  29.384  27.695  1.00  0.00    -0.354 N 
ATOM     32  N   UNL A   1      45.810  26.711  27.303  1.00  0.00    -0.248 NA
ATOM     33  C   UNL A   1      46.046  24.479  26.647  1.00  0.00     0.031 C 
ATOM     34  C   UNL A   1      49.106  29.681  27.337  1.00  0.00     0.029 A 
ATOM     35  C   UNL A   1      48.090  28.739  27.290  1.00  0.00     0.049 A 
ATOM     36  H   UNL A   1      46.048  28.961  27.763  1.00  0.00     0.167 HD
ATOM     37  C   UNL A   1      47.124  26.487  26.914  1.00  0.00     0.074 A 
ATOM     38  C   UNL A   1      47.216  25.094  26.526  1.00  0.00     0.031 C 
ATOM     39  C   UNL A   1      48.164  27.356  26.900  1.00  0.00     0.037 A 
BRANCH  26  40
ATOM     40  C   UNL A   1      46.654  33.079  28.687  1.00  0.00     0.058 A 
ATOM     41  C   UNL A   1      46.664  34.034  27.658  1.00  0.00     0.135 A 
ATOM     42  C   UNL A   1      47.097  33.472  29.958  1.00  0.00     0.135 A 
ATOM     43  F   UNL A   1      46.270  33.697  26.420  1.00  0.00    -0.206 F 
ATOM     44  C   UNL A   1      47.133  35.324  27.871  1.00  0.00     0.059 A 
ATOM     45  C   UNL A   1      47.558  34.763  30.198  1.00  0.00     0.059 A 
ATOM     46  F   UNL A   1      47.114  32.590  30.970  1.00  0.00    -0.206 F 
ATOM     47  C   UNL A   1      47.592  35.675  29.142  1.00  0.00     0.060 A 
BRANCH  47  48
ATOM     48  S   UNL A   1      48.248  37.337  29.398  1.00  0.00     0.124 S 
ATOM     49  O   UNL A   1      47.338  38.134  28.581  1.00  0.00    -0.237 OA
ATOM     50  O   UNL A   1      48.120  37.511  30.841  1.00  0.00    -0.237 OA
ATOM     51  O   UNL A   1      49.617  37.238  28.901  1.00  0.00    -0.744 OA
ENDBRANCH  47  48
ENDBRANCH  26  40
BRANCH  27  52
ATOM     52  C   UNL A   1      43.252  23.857  27.207  1.00  0.00     0.058 A 
ATOM     53  C   UNL A   1      42.771  23.518  25.936  1.00  0.00     0.135 A 
ATOM     54  C   UNL A   1      43.238  22.876  28.206  1.00  0.00     0.135 A 
ATOM     55  F   UNL A   1      42.780  24.427  24.950  1.00  0.00    -0.206 F 
ATOM     56  C   UNL A   1      42.281  22.246  25.663  1.00  0.00     0.059 A 
ATOM     57  C   UNL A   1      42.756  21.597  27.957  1.00  0.00     0.059 A 
ATOM     58  F   UNL A   1      43.710  23.155  29.431  1.00  0.00    -0.206 F 
ATOM     59  C   UNL A   1      42.280  21.293  26.681  1.00  0.00     0.060 A 
BRANCH  59  60
ATOM     60  S   UNL A   1      41.719  19.609  26.347  1.00  0.00     0.124 S 
ATOM     61  O   UNL A   1      42.127  18.921  27.564  1.00  0.00    -0.237 OA
ATOM     62  O   UNL A   1      40.282  19.778  26.163  1.00  0.00    -0.237 OA
ATOM     63  O   UNL A   1      42.471  19.270  25.141  1.00  0.00    -0.744 OA
ENDBRANCH  59  60
ENDBRANCH  27  52
BRANCH  39  64
ATOM     64  C   UNL A   1      49.489  26.809  26.470  1.00  0.00     0.058 A 
ATOM     65  C   UNL A   1      49.901  26.869  25.131  1.00  0.00     0.135 A 
ATOM     66  C   UNL A   1      50.356  26.227  27.406  1.00  0.00     0.135 A 
ATOM     67  F   UNL A   1      49.098  27.406  24.199  1.00  0.00    -0.206 F 
ATOM     68  C   UNL A   1      51.129  26.353  24.730  1.00  0.00     0.059 A 
ATOM     69  C   UNL A   1      51.592  25.716  27.030  1.00  0.00     0.059 A 
ATOM     70  F   UNL A   1      50.000  26.148  28.699  1.00  0.00    -0.206 F 
ATOM     71  C   UNL A   1      51.965  25.772  25.687  1.00  0.00     0.060 A 
BRANCH  71  72
ATOM     72  S   UNL A   1      53.568  25.119  25.171  1.00  0.00     0.124 S 
ATOM     73  O   UNL A   1      54.444  25.639  26.216  1.00  0.00    -0.237 OA
ATOM     74  O   UNL A   1      53.347  23.675  25.190  1.00  0.00    -0.237 OA
ATOM     75  O   UNL A   1      53.752  25.700  23.845  1.00  0.00    -0.744 OA
ENDBRANCH  71  72
ENDBRANCH  39  64
ENDBRANCH  13  14
ENDBRANCH   6   8
ENDBRANCH   5   6
ENDBRANCH   4   5
ENDBRANCH   3   4
ENDBRANCH   2   3
ENDBRANCH   1   2
BRANCH   1  76
ATOM     76  C   UNL A   1      33.910  29.968  26.680  1.00  0.00     0.188 C 
BRANCH  76  77
ATOM     77  O   UNL A   1      32.934  30.472  25.757  1.00  0.00    -0.376 OA
BRANCH  77  78
ATOM     78  C   UNL A   1      31.619  29.926  25.891  1.00  0.00     0.202 C 
BRANCH  78  79
ATOM     79  C   UNL A   1      30.990  29.544  24.556  1.00  0.00     0.261 C 
BRANCH  79  80
ATOM     80  O   UNL A   1      30.735  28.135  24.483  1.00  0.00    -0.462 OA
BRANCH  80  81
ATOM     81  C   UNL A   1      31.491  27.479  23.565  1.00  0.00     0.328 C 
ATOM     82  O   UNL A   1      31.309  27.522  22.352  1.00  0.00    -0.250 OA
BRANCH  81  83
ATOM     83  C   UNL A   1      32.566  26.584  24.197  1.00  0.00     0.195 C 
ATOM     84  C   UNL A   1      32.857  26.669  25.693  1.00  0.00     0.037 C 
ATOM     85  N   UNL A   1      32.354  25.181  23.820  1.00  0.00    -0.320 N 
ATOM     86  C   UNL A   1      34.077  25.790  26.060  1.00  0.00     0.008 C 
ATOM     87  C   UNL A   1      33.497  24.286  24.040  1.00  0.00     0.089 C 
ATOM     88  C   UNL A   1      34.616  24.957  24.881  1.00  0.00     0.012 C 
ATOM     89  C   UNL A   1      34.126  23.748  22.751  1.00  0.00     0.025 C 
ATOM     90  C   UNL A   1      35.622  23.882  25.312  1.00  0.00     0.006 C 
ATOM     91  C   UNL A   1      35.182  22.694  23.090  1.00  0.00     0.002 C 
ATOM     92  C   UNL A   1      36.231  23.195  24.084  1.00  0.00     0.000 C 
BRANCH  85  93
ATOM     93  C   UNL A   1      31.056  24.665  23.966  1.00  0.00     0.272 C 
ATOM     94  O   UNL A   1      30.236  24.695  23.049  1.00  0.00    -0.267 OA
BRANCH  93  95
ATOM     95  C   UNL A   1      30.772  24.003  25.203  1.00  0.00     0.123 A 
ATOM     96  C   UNL A   1      31.303  22.867  25.778  1.00  0.00     0.055 A 
ATOM     97  N   UNL A   1      29.917  24.515  26.139  1.00  0.00    -0.273 N 
ATOM     98  C   UNL A   1      30.663  22.763  27.029  1.00  0.00     0.135 A 
ATOM     99  N   UNL A   1      29.863  23.805  27.273  1.00  0.00    -0.183 NA
ATOM    100  H   UNL A   1      29.387  25.332  25.992  1.00  0.00     0.190 HD
ENDBRANCH  93  95
ENDBRANCH  85  93
ENDBRANCH  81  83
ENDBRANCH  80  81
ENDBRANCH  79  80
ENDBRANCH  78  79
ENDBRANCH  77  78
ENDBRANCH  76  77
ENDBRANCH   1  76
TORSDOF 22
ENDMDL
MODEL 2
REMARK VINA RESULT:     -10.1      4.847      6.545
REMARK SMILES O=C(OCCOCCOCCOC(=O)[C@H]1CC[C@H]2CCCC[C@@H]2N1C(=O)c1ccn[nH]1)c1ccc(-c2c3nc(c(-c4c(F)cc(S(=O)(=O)[O-])cc4F)c4ccc([nH]4)c(-c4c(F)cc(S(=O)(=O)[O-])cc4F)c4nc(c(-c5c(F)cc(S(=O)(=O)[O-])cc5F)c5ccc2[nH]5)C=C4)C=C3)cc1
REMARK SMILES IDX 7 1 6 2 5 3 4 4 3 5 2 6 1 7 32 8 33 9 97 10 34 11 96 12
REMARK SMILES IDX 35 13 36 14 37 15 90 16 38 17 95 18 89 19 91 20 39 21 94 22
REMARK SMILES IDX 88 23 87 24 40 26 74 27 53 28 73 29 54 30 57 31 72 32 92 33
REMARK SMILES IDX 55 34 56 35 71 37 93 38 58 39 41 40 42 41 51 42 43 43 44 44
REMARK SMILES IDX 50 45 52 46 45 47 46 48 47 49 48 50 49 51 75 52 76 53 85 54
REMARK SMILES IDX 77 55 78 56 84 57 86 58 79 59 80 60 81 61 82 62 83 63 59 64
REMARK SMILES IDX 60 65 69 66 61 67 62 68 68 69 70 70 63 71 64 72 65 73 66 74
REMARK SMILES IDX 67 75 8 76 9 77 10 78 11 79 12 80 13 81 14 82 15 83 16 84
REMARK SMILES IDX 24 85 17 86 23 87 18 88 22 89 19 90 21 91 20 92 25 93 26 94
REMARK SMILES IDX 27 95 28 96 31 97 29 98 30 99
REMARK H PARENT 91 25 57 36 31 100
REMARK Flexibility Score: inf
ROOT
ATOM      1  C   UNL A   1      32.721  27.102  26.086  1.00  0.00     0.188 C 
ENDROOT
BRANCH   1   2
ATOM      2  O   UNL A   1      32.997  28.508  26.195  1.00  0.00    -0.376 OA
BRANCH   2   3
ATOM      3  C   UNL A   1      31.977  29.232  26.884  1.00  0.00     0.202 C 
BRANCH   3   4
ATOM      4  C   UNL A   1      32.328  30.703  27.128  1.00  0.00     0.261 C 
BRANCH   4   5
ATOM      5  O   UNL A   1      33.724  30.959  26.905  1.00  0.00    -0.460 OA
BRANCH   5   6
ATOM      6  C   UNL A   1      34.573  31.595  27.753  1.00  0.00     0.338 C 
ATOM      7  O   UNL A   1      34.243  32.688  28.212  1.00  0.00    -0.246 OA
BRANCH   6   8
ATOM      8  C   UNL A   1      35.812  30.952  28.289  1.00  0.00     0.060 A 
ATOM      9  C   UNL A   1      35.903  29.663  28.823  1.00  0.00     0.016 A 
ATOM     10  C   UNL A   1      36.990  31.711  28.189  1.00  0.00     0.016 A 
ATOM     11  C   UNL A   1      37.101  29.203  29.386  1.00  0.00     0.010 A 
ATOM     12  C   UNL A   1      38.203  31.227  28.688  1.00  0.00     0.010 A 
ATOM     13  C   UNL A   1      38.256  29.991  29.344  1.00  0.00    -0.014 A 
BRANCH  13  14
ATOM     14  C   UNL A   1      39.501  29.572  30.034  1.00  0.00     0.031 A 
ATOM     15  C   UNL A   1      39.947  30.306  31.269  1.00  0.00     0.074 A 
ATOM     16  C   UNL A   1      40.251  28.562  29.556  1.00  0.00     0.049 A 
ATOM     17  N   UNL A   1      41.024  30.131  31.991  1.00  0.00    -0.248 NA
ATOM     18  C   UNL A   1      39.056  31.369  31.764  1.00  0.00     0.031 C 
ATOM     19  C   UNL A   1      39.926  27.741  28.394  1.00  0.00     0.029 A 
ATOM     20  N   UNL A   1      41.466  28.080  29.974  1.00  0.00    -0.354 N 
ATOM     21  C   UNL A   1      40.925  31.032  33.042  1.00  0.00     0.074 A 
ATOM     22  C   UNL A   1      39.716  31.802  32.827  1.00  0.00     0.031 C 
ATOM     23  C   UNL A   1      40.955  26.917  28.136  1.00  0.00     0.029 A 
ATOM     24  C   UNL A   1      41.993  27.128  29.136  1.00  0.00     0.049 A 
ATOM     25  H   UNL A   1      41.916  28.386  30.794  1.00  0.00     0.167 HD
ATOM     26  C   UNL A   1      41.739  31.181  34.113  1.00  0.00     0.037 A 
ATOM     27  C   UNL A   1      43.180  26.495  29.163  1.00  0.00     0.037 A 
ATOM     28  C   UNL A   1      42.945  30.431  34.331  1.00  0.00     0.049 A 
ATOM     29  C   UNL A   1      44.121  26.742  30.301  1.00  0.00     0.074 A 
ATOM     30  C   UNL A   1      43.822  30.490  35.400  1.00  0.00     0.029 A 
ATOM     31  N   UNL A   1      43.450  29.484  33.452  1.00  0.00    -0.354 N 
ATOM     32  N   UNL A   1      43.987  27.565  31.311  1.00  0.00    -0.248 NA
ATOM     33  C   UNL A   1      45.358  25.950  30.321  1.00  0.00     0.031 C 
ATOM     34  C   UNL A   1      44.870  29.591  35.158  1.00  0.00     0.029 A 
ATOM     35  C   UNL A   1      44.634  28.962  33.945  1.00  0.00     0.049 A 
ATOM     36  H   UNL A   1      43.029  29.222  32.602  1.00  0.00     0.167 HD
ATOM     37  C   UNL A   1      45.109  27.370  32.105  1.00  0.00     0.074 A 
ATOM     38  C   UNL A   1      45.917  26.359  31.452  1.00  0.00     0.031 C 
ATOM     39  C   UNL A   1      45.429  27.964  33.280  1.00  0.00     0.037 A 
BRANCH  26  40
ATOM     40  C   UNL A   1      41.315  32.188  35.139  1.00  0.00     0.058 A 
ATOM     41  C   UNL A   1      40.421  31.835  36.163  1.00  0.00     0.135 A 
ATOM     42  C   UNL A   1      41.763  33.515  35.082  1.00  0.00     0.135 A 
ATOM     43  F   UNL A   1      39.948  30.582  36.244  1.00  0.00    -0.206 F 
ATOM     44  C   UNL A   1      39.955  32.775  37.075  1.00  0.00     0.059 A 
ATOM     45  C   UNL A   1      41.321  34.470  35.993  1.00  0.00     0.059 A 
ATOM     46  F   UNL A   1      42.612  33.901  34.115  1.00  0.00    -0.206 F 
ATOM     47  C   UNL A   1      40.401  34.094  36.972  1.00  0.00     0.060 A 
BRANCH  47  48
ATOM     48  S   UNL A   1      39.753  35.319  38.128  1.00  0.00     0.124 S 
ATOM     49  O   UNL A   1      39.559  36.469  37.250  1.00  0.00    -0.237 OA
ATOM     50  O   UNL A   1      38.533  34.684  38.616  1.00  0.00    -0.237 OA
ATOM     51  O   UNL A   1      40.823  35.452  39.112  1.00  0.00    -0.744 OA
ENDBRANCH  47  48
ENDBRANCH  26  40
BRANCH  27  52
ATOM     52  C   UNL A   1      43.538  25.558  28.075  1.00  0.00     0.058 A 
ATOM     53  C   UNL A   1      43.080  24.234  28.080  1.00  0.00     0.135 A 
ATOM     54  C   UNL A   1      44.332  25.983  27.002  1.00  0.00     0.135 A 
ATOM     55  F   UNL A   1      42.308  23.794  29.084  1.00  0.00    -0.206 F 
ATOM     56  C   UNL A   1      43.407  23.352  27.056  1.00  0.00     0.059 A 
ATOM     57  C   UNL A   1      44.669  25.120  25.967  1.00  0.00     0.059 A 
ATOM     58  F   UNL A   1      44.771  27.249  26.949  1.00  0.00    -0.206 F 
ATOM     59  C   UNL A   1      44.201  23.806  26.004  1.00  0.00     0.060 A 
BRANCH  59  60
ATOM     60  S   UNL A   1      44.587  22.712  24.621  1.00  0.00     0.124 S 
ATOM     61  O   UNL A   1      43.307  22.661  23.925  1.00  0.00    -0.237 OA
ATOM     62  O   UNL A   1      45.657  23.425  23.932  1.00  0.00    -0.237 OA
ATOM     63  O   UNL A   1      44.989  21.485  25.304  1.00  0.00    -0.744 OA
ENDBRANCH  59  60
ENDBRANCH  27  52
BRANCH  39  64
ATOM     64  C   UNL A   1      46.696  27.513  33.937  1.00  0.00     0.058 A 
ATOM     65  C   UNL A   1      46.693  26.505  34.911  1.00  0.00     0.135 A 
ATOM     66  C   UNL A   1      47.925  28.091  33.584  1.00  0.00     0.135 A 
ATOM     67  F   UNL A   1      45.538  25.933  35.289  1.00  0.00    -0.206 F 
ATOM     68  C   UNL A   1      47.868  26.092  35.528  1.00  0.00     0.059 A 
ATOM     69  C   UNL A   1      49.113  27.686  34.179  1.00  0.00     0.059 A 
ATOM     70  F   UNL A   1      47.973  29.061  32.657  1.00  0.00    -0.206 F 
ATOM     71  C   UNL A   1      49.074  26.694  35.159  1.00  0.00     0.060 A 
BRANCH  71  72
ATOM     72  S   UNL A   1      50.605  26.147  35.944  1.00  0.00     0.124 S 
ATOM     73  O   UNL A   1      50.626  26.971  37.148  1.00  0.00    -0.237 OA
ATOM     74  O   UNL A   1      50.366  24.722  36.156  1.00  0.00    -0.237 OA
ATOM     75  O   UNL A   1      51.622  26.462  34.945  1.00  0.00    -0.744 OA
ENDBRANCH  71  72
ENDBRANCH  39  64
ENDBRANCH  13  14
ENDBRANCH   6   8
ENDBRANCH   5   6
ENDBRANCH   4   5
ENDBRANCH   3   4
ENDBRANCH   2   3
ENDBRANCH   1   2
BRANCH   1  76
ATOM     76  C   UNL A   1      31.211  26.854  26.132  1.00  0.00     0.188 C 
BRANCH  76  77
ATOM     77  O   UNL A   1      30.721  26.229  24.938  1.00  0.00    -0.376 OA
BRANCH  77  78
ATOM     78  C   UNL A   1      31.588  26.300  23.804  1.00  0.00     0.202 C 
BRANCH  78  79
ATOM     79  C   UNL A   1      31.773  24.958  23.106  1.00  0.00     0.261 C 
BRANCH  79  80
ATOM     80  O   UNL A   1      32.298  23.970  24.004  1.00  0.00    -0.462 OA
BRANCH  80  81
ATOM     81  C   UNL A   1      33.204  23.131  23.439  1.00  0.00     0.328 C 
ATOM     82  O   UNL A   1      32.986  22.425  22.459  1.00  0.00    -0.250 OA
BRANCH  81  83
ATOM     83  C   UNL A   1      34.532  23.073  24.206  1.00  0.00     0.195 C 
ATOM     84  C   UNL A   1      34.926  24.207  25.151  1.00  0.00     0.037 C 
ATOM     85  N   UNL A   1      34.669  21.788  24.903  1.00  0.00    -0.320 N 
ATOM     86  C   UNL A   1      36.365  23.996  25.681  1.00  0.00     0.008 C 
ATOM     87  C   UNL A   1      36.024  21.454  25.358  1.00  0.00     0.089 C 
ATOM     88  C   UNL A   1      36.996  22.660  25.245  1.00  0.00     0.012 C 
ATOM     89  C   UNL A   1      36.653  20.263  24.628  1.00  0.00     0.025 C 
ATOM     90  C   UNL A   1      38.288  22.326  26.002  1.00  0.00     0.006 C 
ATOM     91  C   UNL A   1      37.978  19.888  25.293  1.00  0.00     0.002 C 
ATOM     92  C   UNL A   1      38.943  21.069  25.418  1.00  0.00     0.000 C 
BRANCH  85  93
ATOM     93  C   UNL A   1      33.574  21.352  25.668  1.00  0.00     0.272 C 
ATOM     94  O   UNL A   1      33.014  22.087  26.480  1.00  0.00    -0.267 OA
BRANCH  93  95
ATOM     95  C   UNL A   1      33.074  20.044  25.372  1.00  0.00     0.123 A 
ATOM     96  C   UNL A   1      32.810  19.412  24.174  1.00  0.00     0.055 A 
ATOM     97  N   UNL A   1      32.864  19.095  26.334  1.00  0.00    -0.273 N 
ATOM     98  C   UNL A   1      32.402  18.113  24.535  1.00  0.00     0.135 A 
ATOM     99  N   UNL A   1      32.496  17.902  25.850  1.00  0.00    -0.183 NA
ATOM    100  H   UNL A   1      32.973  19.274  27.296  1.00  0.00     0.190 HD
ENDBRANCH  93  95
ENDBRANCH  85  93
ENDBRANCH  81  83
ENDBRANCH  80  81
ENDBRANCH  79  80
ENDBRANCH  78  79
ENDBRANCH  77  78
ENDBRANCH  76  77
ENDBRANCH   1  76
TORSDOF 22
ENDMDL
MODEL 3
REMARK VINA RESULT:      -9.9      4.468      7.239
REMARK SMILES O=C(OCCOCCOCCOC(=O)[C@H]1CC[C@H]2CCCC[C@@H]2N1C(=O)c1ccn[nH]1)c1ccc(-c2c3nc(c(-c4c(F)cc(S(=O)(=O)[O-])cc4F)c4ccc([nH]4)c(-c4c(F)cc(S(=O)(=O)[O-])cc4F)c4nc(c(-c5c(F)cc(S(=O)(=O)[O-])cc5F)c5ccc2[nH]5)C=C4)C=C3)cc1
REMARK SMILES IDX 7 1 6 2 5 3 4 4 3 5 2 6 1 7 32 8 33 9 97 10 34 11 96 12
REMARK SMILES IDX 35 13 36 14 37 15 90 16 38 17 95 18 89 19 91 20 39 21 94 22
REMARK SMILES IDX 88 23 87 24 40 26 74 27 53 28 73 29 54 30 57 31 72 32 92 33
REMARK SMILES IDX 55 34 56 35 71 37 93 38 58 39 41 40 42 41 51 42 43 43 44 44
REMARK SMILES IDX 50 45 52 46 45 47 46 48 47 49 48 50 49 51 75 52 76 53 85 54
REMARK SMILES IDX 77 55 78 56 84 57 86 58 79 59 80 60 81 61 82 62 83 63 59 64
REMARK SMILES IDX 60 65 69 66 61 67 62 68 68 69 70 70 63 71 64 72 65 73 66 74
REMARK SMILES IDX 67 75 8 76 9 77 10 78 11 79 12 80 13 81 14 82 15 83 16 84
REMARK SMILES IDX 24 85 17 86 23 87 18 88 22 89 19 90 21 91 20 92 25 93 26 94
REMARK SMILES IDX 27 95 28 96 31 97 29 98 30 99
REMARK H PARENT 91 25 57 36 31 100
REMARK Flexibility Score: inf
ROOT
ATOM      1  C   UNL A   1      36.671  32.846  34.165  1.00  0.00     0.188 C 
ENDROOT
BRANCH   1   2
ATOM      2  O   UNL A   1      35.991  33.680  33.214  1.00  0.00    -0.376 OA
BRANCH   2   3
ATOM      3  C   UNL A   1      34.780  33.104  32.722  1.00  0.00     0.202 C 
BRANCH   3   4
ATOM      4  C   UNL A   1      34.863  32.662  31.258  1.00  0.00     0.261 C 
BRANCH   4   5
ATOM      5  O   UNL A   1      36.158  32.133  30.936  1.00  0.00    -0.460 OA
BRANCH   5   6
ATOM      6  C   UNL A   1      36.469  31.350  29.870  1.00  0.00     0.338 C 
ATOM      7  O   UNL A   1      35.674  31.284  28.933  1.00  0.00    -0.246 OA
BRANCH   6   8
ATOM      8  C   UNL A   1      37.805  30.702  29.706  1.00  0.00     0.060 A 
ATOM      9  C   UNL A   1      38.749  30.499  30.717  1.00  0.00     0.016 A 
ATOM     10  C   UNL A   1      38.097  30.213  28.421  1.00  0.00     0.016 A 
ATOM     11  C   UNL A   1      40.012  29.966  30.423  1.00  0.00     0.010 A 
ATOM     12  C   UNL A   1      39.330  29.618  28.140  1.00  0.00     0.010 A 
ATOM     13  C   UNL A   1      40.321  29.543  29.126  1.00  0.00    -0.014 A 
BRANCH  13  14
ATOM     14  C   UNL A   1      41.687  29.085  28.771  1.00  0.00     0.031 A 
ATOM     15  C   UNL A   1      42.799  30.092  28.651  1.00  0.00     0.074 A 
ATOM     16  C   UNL A   1      41.940  27.785  28.526  1.00  0.00     0.049 A 
ATOM     17  N   UNL A   1      44.047  29.907  28.305  1.00  0.00    -0.248 NA
ATOM     18  C   UNL A   1      42.464  31.488  28.977  1.00  0.00     0.031 C 
ATOM     19  C   UNL A   1      40.973  26.698  28.637  1.00  0.00     0.029 A 
ATOM     20  N   UNL A   1      43.087  27.167  28.096  1.00  0.00    -0.354 N 
ATOM     21  C   UNL A   1      44.654  31.151  28.406  1.00  0.00     0.074 A 
ATOM     22  C   UNL A   1      43.623  32.097  28.778  1.00  0.00     0.031 C 
ATOM     23  C   UNL A   1      41.538  25.561  28.200  1.00  0.00     0.029 A 
ATOM     24  C   UNL A   1      42.916  25.834  27.814  1.00  0.00     0.049 A 
ATOM     25  H   UNL A   1      43.949  27.633  28.000  1.00  0.00     0.167 HD
ATOM     26  C   UNL A   1      45.959  31.475  28.245  1.00  0.00     0.037 A 
ATOM     27  C   UNL A   1      43.768  24.930  27.299  1.00  0.00     0.037 A 
ATOM     28  C   UNL A   1      46.989  30.547  27.866  1.00  0.00     0.049 A 
ATOM     29  C   UNL A   1      45.187  25.324  27.029  1.00  0.00     0.074 A 
ATOM     30  C   UNL A   1      48.344  30.774  27.706  1.00  0.00     0.029 A 
ATOM     31  N   UNL A   1      46.771  29.208  27.578  1.00  0.00    -0.354 N 
ATOM     32  N   UNL A   1      45.753  26.495  27.175  1.00  0.00    -0.248 NA
ATOM     33  C   UNL A   1      46.089  24.266  26.556  1.00  0.00     0.031 C 
ATOM     34  C   UNL A   1      48.945  29.574  27.302  1.00  0.00     0.029 A 
ATOM     35  C   UNL A   1      47.964  28.599  27.226  1.00  0.00     0.049 A 
ATOM     36  H   UNL A   1      45.898  28.757  27.617  1.00  0.00     0.167 HD
ATOM     37  C   UNL A   1      47.088  26.311  26.841  1.00  0.00     0.074 A 
ATOM     38  C   UNL A   1      47.241  24.918  26.473  1.00  0.00     0.031 C 
ATOM     39  C   UNL A   1      48.098  27.214  26.856  1.00  0.00     0.037 A 
BRANCH  26  40
ATOM     40  C   UNL A   1      46.330  32.902  28.514  1.00  0.00     0.058 A 
ATOM     41  C   UNL A   1      46.665  33.324  29.810  1.00  0.00     0.135 A 
ATOM     42  C   UNL A   1      46.313  33.861  27.490  1.00  0.00     0.135 A 
ATOM     43  F   UNL A   1      46.673  32.446  30.825  1.00  0.00    -0.206 F 
ATOM     44  C   UNL A   1      46.934  34.658  30.092  1.00  0.00     0.059 A 
ATOM     45  C   UNL A   1      46.593  35.200  27.747  1.00  0.00     0.059 A 
ATOM     46  F   UNL A   1      45.990  33.505  26.236  1.00  0.00    -0.206 F 
ATOM     47  C   UNL A   1      46.881  35.591  29.055  1.00  0.00     0.060 A 
BRANCH  47  48
ATOM     48  S   UNL A   1      47.182  37.329  29.437  1.00  0.00     0.124 S 
ATOM     49  O   UNL A   1      48.565  37.485  28.999  1.00  0.00    -0.237 OA
ATOM     50  O   UNL A   1      46.180  38.012  28.626  1.00  0.00    -0.237 OA
ATOM     51  O   UNL A   1      46.967  37.398  30.880  1.00  0.00    -0.744 OA
ENDBRANCH  47  48
ENDBRANCH  26  40
BRANCH  27  52
ATOM     52  C   UNL A   1      43.297  23.556  27.013  1.00  0.00     0.058 A 
ATOM     53  C   UNL A   1      42.982  23.155  25.709  1.00  0.00     0.135 A 
ATOM     54  C   UNL A   1      43.172  22.617  28.045  1.00  0.00     0.135 A 
ATOM     55  F   UNL A   1      43.101  24.023  24.693  1.00  0.00    -0.206 F 
ATOM     56  C   UNL A   1      42.546  21.864  25.433  1.00  0.00     0.059 A 
ATOM     57  C   UNL A   1      42.742  21.320  27.794  1.00  0.00     0.059 A 
ATOM     58  F   UNL A   1      43.485  22.955  29.305  1.00  0.00    -0.206 F 
ATOM     59  C   UNL A   1      42.431  20.954  26.484  1.00  0.00     0.060 A 
BRANCH  59  60
ATOM     60  S   UNL A   1      41.938  19.248  26.156  1.00  0.00     0.124 S 
ATOM     61  O   UNL A   1      40.506  19.398  25.937  1.00  0.00    -0.237 OA
ATOM     62  O   UNL A   1      42.729  18.904  24.979  1.00  0.00    -0.237 OA
ATOM     63  O   UNL A   1      42.327  18.574  27.393  1.00  0.00    -0.744 OA
ENDBRANCH  59  60
ENDBRANCH  27  52
BRANCH  39  64
ATOM     64  C   UNL A   1      49.457  26.708  26.485  1.00  0.00     0.058 A 
ATOM     65  C   UNL A   1      49.945  26.826  25.176  1.00  0.00     0.135 A 
ATOM     66  C   UNL A   1      50.280  26.106  27.449  1.00  0.00     0.135 A 
ATOM     67  F   UNL A   1      49.186  27.383  24.219  1.00  0.00    -0.206 F 
ATOM     68  C   UNL A   1      51.203  26.347  24.829  1.00  0.00     0.059 A 
ATOM     69  C   UNL A   1      51.545  25.631  27.126  1.00  0.00     0.059 A 
ATOM     70  F   UNL A   1      49.851  25.972  28.714  1.00  0.00    -0.206 F 
ATOM     71  C   UNL A   1      51.994  25.745  25.811  1.00  0.00     0.060 A 
BRANCH  71  72
ATOM     72  S   UNL A   1      53.637  25.140  25.367  1.00  0.00     0.124 S 
ATOM     73  O   UNL A   1      53.810  25.718  24.038  1.00  0.00    -0.237 OA
ATOM     74  O   UNL A   1      54.480  25.703  26.417  1.00  0.00    -0.237 OA
ATOM     75  O   UNL A   1      53.479  23.690  25.410  1.00  0.00    -0.744 OA
ENDBRANCH  71  72
ENDBRANCH  39  64
ENDBRANCH  13  14
ENDBRANCH   6   8
ENDBRANCH   5   6
ENDBRANCH   4   5
ENDBRANCH   3   4
ENDBRANCH   2   3
ENDBRANCH   1   2
BRANCH   1  76
ATOM     76  C   UNL A   1      37.448  33.707  35.164  1.00  0.00     0.188 C 
BRANCH  76  77
ATOM     77  O   UNL A   1      38.806  33.273  35.323  1.00  0.00    -0.376 OA
BRANCH  77  78
ATOM     78  C   UNL A   1      39.034  32.338  36.381  1.00  0.00     0.202 C 
BRANCH  78  79
ATOM     79  C   UNL A   1      39.471  30.966  35.881  1.00  0.00     0.261 C 
BRANCH  79  80
ATOM     80  O   UNL A   1      40.551  31.071  34.944  1.00  0.00    -0.462 OA
BRANCH  80  81
ATOM     81  C   UNL A   1      40.651  30.020  34.089  1.00  0.00     0.328 C 
ATOM     82  O   UNL A   1      39.781  29.170  33.924  1.00  0.00    -0.250 OA
BRANCH  81  83
ATOM     83  C   UNL A   1      42.016  29.935  33.395  1.00  0.00     0.195 C 
ATOM     84  C   UNL A   1      42.976  31.122  33.433  1.00  0.00     0.037 C 
ATOM     85  N   UNL A   1      42.729  28.718  33.807  1.00  0.00    -0.320 N 
ATOM     86  C   UNL A   1      44.210  30.852  32.539  1.00  0.00     0.008 C 
ATOM     87  C   UNL A   1      43.859  28.326  32.957  1.00  0.00     0.089 C 
ATOM     88  C   UNL A   1      44.241  29.433  31.937  1.00  0.00     0.012 C 
ATOM     89  C   UNL A   1      43.635  27.022  32.184  1.00  0.00     0.025 C 
ATOM     90  C   UNL A   1      45.590  29.076  31.302  1.00  0.00     0.006 C 
ATOM     91  C   UNL A   1      44.928  26.611  31.476  1.00  0.00     0.002 C 
ATOM     92  C   UNL A   1      45.506  27.719  30.593  1.00  0.00     0.000 C 
BRANCH  85  93
ATOM     93  C   UNL A   1      42.795  28.449  35.184  1.00  0.00     0.272 C 
ATOM     94  O   UNL A   1      43.157  29.299  35.997  1.00  0.00    -0.267 OA
BRANCH  93  95
ATOM     95  C   UNL A   1      42.314  27.167  35.604  1.00  0.00     0.123 A 
ATOM     96  C   UNL A   1      42.821  26.245  36.496  1.00  0.00     0.055 A 
ATOM     97  N   UNL A   1      41.101  26.668  35.217  1.00  0.00    -0.273 N 
ATOM     98  C   UNL A   1      41.861  25.214  36.531  1.00  0.00     0.135 A 
ATOM     99  N   UNL A   1      40.783  25.504  35.798  1.00  0.00    -0.183 NA
ATOM    100  H   UNL A   1      40.515  27.123  34.571  1.00  0.00     0.190 HD
ENDBRANCH  93  95
ENDBRANCH  85  93
ENDBRANCH  81  83
ENDBRANCH  80  81
ENDBRANCH  79  80
ENDBRANCH  78  79
ENDBRANCH  77  78
ENDBRANCH  76  77
ENDBRANCH   1  76
TORSDOF 22
ENDMDL
