MODEL 1
REMARK VINA RESULT:      -9.2      0.000      0.000
REMARK SMILES C=CCN(CC(=O)OCCOCCOCCOC(=O)c1ccc(-c2c3nc(c(-c4c(F)cc(S(=O)(=O)[O-])cc4F)c4ccc([nH]4)c(-c4c(F)cc(S(=O)(=O)[O-])cc4F)c4nc(c(-c5c(F)cc(S(=O)(=O)[O-])cc5F)c5ccc2[nH]5)C=C4)C=C3)cc1)C(=O)N1CC[C@@H]([NH+]2CCCCC2)C1
REMARK SMILES IDX 12 1 11 2 10 3 9 4 8 5 6 6 7 7 5 8 4 9 3 10 2 11 1 12 86 13
REMARK SMILES IDX 87 14 88 15 89 16 98 17 90 18 91 19 92 20 93 21 97 22 94 24
REMARK SMILES IDX 96 25 95 26 13 27 14 28 15 29 16 30 17 31 18 32 19 33 20 34
REMARK SMILES IDX 21 35 85 36 22 37 84 38 23 39 24 40 25 41 78 42 26 43 83 44
REMARK SMILES IDX 77 45 79 46 27 47 82 48 76 49 75 50 28 52 62 53 41 54 61 55
REMARK SMILES IDX 42 56 45 57 60 58 80 59 43 60 44 61 59 63 81 64 46 65 29 66
REMARK SMILES IDX 30 67 39 68 31 69 32 70 38 71 40 72 33 73 34 74 35 75 36 76
REMARK SMILES IDX 37 77 63 78 64 79 73 80 65 81 66 82 72 83 74 84 67 85 68 86
REMARK SMILES IDX 69 87 70 88 71 89 47 90 48 91 57 92 49 93 50 94 56 95 58 96
REMARK SMILES IDX 51 97 52 98 53 99 54 100 55 101
REMARK H PARENT 92 23 79 51 45 62
REMARK Flexibility Score: inf
ROOT
ATOM      1  C   UNL A   1      30.600  29.531  24.194  1.00  0.00     0.188 C 
ENDROOT
BRANCH   1   2
ATOM      2  O   UNL A   1      29.961  28.261  24.048  1.00  0.00    -0.376 OA
BRANCH   2   3
ATOM      3  C   UNL A   1      30.250  27.648  22.791  1.00  0.00     0.202 C 
BRANCH   3   4
ATOM      4  C   UNL A   1      30.702  26.201  23.000  1.00  0.00     0.261 C 
BRANCH   4   5
ATOM      5  O   UNL A   1      31.446  25.674  21.878  1.00  0.00    -0.462 OA
BRANCH   5   6
ATOM      6  C   UNL A   1      32.234  24.596  22.132  1.00  0.00     0.325 C 
ATOM      7  O   UNL A   1      33.176  24.254  21.426  1.00  0.00    -0.250 OA
BRANCH   6   8
ATOM      8  C   UNL A   1      31.726  23.745  23.300  1.00  0.00     0.244 C 
BRANCH   8   9
ATOM      9  N   UNL A   1      32.538  22.595  23.709  1.00  0.00    -0.310 N 
BRANCH   9  10
ATOM     10  C   UNL A   1      32.171  21.306  23.118  1.00  0.00     0.149 C 
BRANCH  10  11
ATOM     11  C   UNL A   1      32.176  20.232  24.175  1.00  0.00    -0.013 C 
ATOM     12  C   UNL A   1      32.859  19.083  24.067  1.00  0.00     0.006 C 
ENDBRANCH  10  11
ENDBRANCH   9  10
BRANCH   9  13
ATOM     13  C   UNL A   1      33.578  22.580  24.610  1.00  0.00     0.321 C 
ATOM     14  O   UNL A   1      33.330  22.563  25.824  1.00  0.00    -0.248 OA
BRANCH  13  15
ATOM     15  N   UNL A   1      34.889  22.622  24.214  1.00  0.00    -0.318 N 
ATOM     16  C   UNL A   1      35.666  23.495  23.353  1.00  0.00     0.128 C 
ATOM     17  C   UNL A   1      35.721  21.501  24.605  1.00  0.00     0.186 C 
ATOM     18  C   UNL A   1      36.964  22.756  23.059  1.00  0.00     0.088 C 
ATOM     19  C   UNL A   1      37.176  21.813  24.252  1.00  0.00     0.205 C 
BRANCH  19  20
ATOM     20  N   UNL A   1      38.140  22.450  25.163  1.00  0.00    -0.331 N 
ATOM     21  C   UNL A   1      37.642  23.509  26.036  1.00  0.00     0.262 C 
ATOM     22  C   UNL A   1      38.695  21.422  26.077  1.00  0.00     0.262 C 
ATOM     23  H   UNL A   1      38.808  22.880  24.524  1.00  0.00     0.348 HD
ATOM     24  C   UNL A   1      38.784  24.157  26.832  1.00  0.00     0.062 C 
ATOM     25  C   UNL A   1      40.059  21.902  26.518  1.00  0.00     0.062 C 
ATOM     26  C   UNL A   1      40.114  23.392  26.851  1.00  0.00     0.012 C 
ENDBRANCH  19  20
ENDBRANCH  13  15
ENDBRANCH   9  13
ENDBRANCH   8   9
ENDBRANCH   6   8
ENDBRANCH   5   6
ENDBRANCH   4   5
ENDBRANCH   3   4
ENDBRANCH   2   3
ENDBRANCH   1   2
BRANCH   1  27
ATOM     27  C   UNL A   1      31.573  29.524  25.367  1.00  0.00     0.188 C 
BRANCH  27  28
ATOM     28  O   UNL A   1      31.391  28.377  26.196  1.00  0.00    -0.376 OA
BRANCH  28  29
ATOM     29  C   UNL A   1      32.299  28.375  27.307  1.00  0.00     0.202 C 
BRANCH  29  30
ATOM     30  C   UNL A   1      33.756  28.325  26.827  1.00  0.00     0.261 C 
BRANCH  30  31
ATOM     31  O   UNL A   1      34.325  29.638  26.623  1.00  0.00    -0.460 OA
BRANCH  31  32
ATOM     32  C   UNL A   1      34.527  30.413  27.720  1.00  0.00     0.338 C 
ATOM     33  O   UNL A   1      33.820  31.323  28.122  1.00  0.00    -0.246 OA
BRANCH  32  34
ATOM     34  C   UNL A   1      35.881  30.116  28.253  1.00  0.00     0.060 A 
ATOM     35  C   UNL A   1      37.045  30.322  27.508  1.00  0.00     0.016 A 
ATOM     36  C   UNL A   1      35.980  29.638  29.562  1.00  0.00     0.016 A 
ATOM     37  C   UNL A   1      38.309  30.110  28.101  1.00  0.00     0.010 A 
ATOM     38  C   UNL A   1      37.236  29.462  30.162  1.00  0.00     0.010 A 
ATOM     39  C   UNL A   1      38.423  29.695  29.442  1.00  0.00    -0.014 A 
BRANCH  39  40
ATOM     40  C   UNL A   1      39.722  29.205  30.007  1.00  0.00     0.031 A 
ATOM     41  C   UNL A   1      40.234  29.960  31.202  1.00  0.00     0.074 A 
ATOM     42  C   UNL A   1      40.468  28.186  29.518  1.00  0.00     0.049 A 
ATOM     43  N   UNL A   1      41.290  29.731  31.934  1.00  0.00    -0.248 NA
ATOM     44  C   UNL A   1      39.432  31.118  31.635  1.00  0.00     0.031 C 
ATOM     45  C   UNL A   1      40.113  27.325  28.402  1.00  0.00     0.029 A 
ATOM     46  N   UNL A   1      41.703  27.696  29.895  1.00  0.00    -0.354 N 
ATOM     47  C   UNL A   1      41.237  30.671  32.952  1.00  0.00     0.074 A 
ATOM     48  C   UNL A   1      40.108  31.533  32.690  1.00  0.00     0.031 C 
ATOM     49  C   UNL A   1      41.105  26.460  28.136  1.00  0.00     0.029 A 
ATOM     50  C   UNL A   1      42.176  26.670  29.097  1.00  0.00     0.049 A 
ATOM     51  H   UNL A   1      42.204  28.048  30.666  1.00  0.00     0.167 HD
ATOM     52  C   UNL A   1      42.029  30.783  34.041  1.00  0.00     0.037 A 
ATOM     53  C   UNL A   1      43.321  25.956  29.142  1.00  0.00     0.037 A 
ATOM     54  C   UNL A   1      43.202  29.995  34.268  1.00  0.00     0.049 A 
ATOM     55  C   UNL A   1      44.277  26.205  30.278  1.00  0.00     0.074 A 
ATOM     56  C   UNL A   1      44.107  30.081  35.307  1.00  0.00     0.029 A 
ATOM     57  N   UNL A   1      43.652  28.996  33.418  1.00  0.00    -0.354 N 
ATOM     58  N   UNL A   1      44.156  27.039  31.284  1.00  0.00    -0.248 NA
ATOM     59  C   UNL A   1      45.508  25.399  30.312  1.00  0.00     0.031 C 
ATOM     60  C   UNL A   1      45.133  29.162  35.062  1.00  0.00     0.029 A 
ATOM     61  C   UNL A   1      44.839  28.472  33.896  1.00  0.00     0.049 A 
ATOM     62  H   UNL A   1      43.193  28.702  32.598  1.00  0.00     0.167 HD
ATOM     63  C   UNL A   1      45.262  26.819  32.095  1.00  0.00     0.074 A 
ATOM     64  C   UNL A   1      46.046  25.779  31.463  1.00  0.00     0.031 C 
ATOM     65  C   UNL A   1      45.591  27.418  33.265  1.00  0.00     0.037 A 
BRANCH  52  66
ATOM     66  C   UNL A   1      41.619  31.825  35.034  1.00  0.00     0.058 A 
ATOM     67  C   UNL A   1      40.559  31.588  35.928  1.00  0.00     0.135 A 
ATOM     68  C   UNL A   1      42.205  33.098  35.024  1.00  0.00     0.135 A 
ATOM     69  F   UNL A   1      39.941  30.395  35.943  1.00  0.00    -0.206 F 
ATOM     70  C   UNL A   1      40.064  32.596  36.744  1.00  0.00     0.059 A 
ATOM     71  C   UNL A   1      41.741  34.114  35.851  1.00  0.00     0.059 A 
ATOM     72  F   UNL A   1      43.205  33.375  34.172  1.00  0.00    -0.206 F 
ATOM     73  C   UNL A   1      40.653  33.859  36.688  1.00  0.00     0.060 A 
BRANCH  73  74
ATOM     74  S   UNL A   1      39.959  35.176  37.706  1.00  0.00     0.124 S 
ATOM     75  O   UNL A   1      39.711  36.211  36.708  1.00  0.00    -0.237 OA
ATOM     76  O   UNL A   1      38.771  34.541  38.271  1.00  0.00    -0.237 OA
ATOM     77  O   UNL A   1      41.025  35.464  38.660  1.00  0.00    -0.744 OA
ENDBRANCH  73  74
ENDBRANCH  52  66
BRANCH  53  78
ATOM     78  C   UNL A   1      43.630  24.902  28.126  1.00  0.00     0.058 A 
ATOM     79  C   UNL A   1      43.299  23.555  28.348  1.00  0.00     0.135 A 
ATOM     80  C   UNL A   1      44.329  25.205  26.945  1.00  0.00     0.135 A 
ATOM     81  F   UNL A   1      42.639  23.204  29.462  1.00  0.00    -0.206 F 
ATOM     82  C   UNL A   1      43.682  22.546  27.465  1.00  0.00     0.059 A 
ATOM     83  C   UNL A   1      44.705  24.217  26.035  1.00  0.00     0.059 A 
ATOM     84  F   UNL A   1      44.664  26.476  26.672  1.00  0.00    -0.206 F 
ATOM     85  C   UNL A   1      44.392  22.887  26.313  1.00  0.00     0.060 A 
BRANCH  85  86
ATOM     86  S   UNL A   1      44.886  21.568  25.177  1.00  0.00     0.124 S 
ATOM     87  O   UNL A   1      46.340  21.606  25.295  1.00  0.00    -0.237 OA
ATOM     88  O   UNL A   1      44.229  20.402  25.759  1.00  0.00    -0.237 OA
ATOM     89  O   UNL A   1      44.345  22.009  23.895  1.00  0.00    -0.744 OA
ENDBRANCH  85  86
ENDBRANCH  53  78
BRANCH  65  90
ATOM     90  C   UNL A   1      46.825  26.939  33.973  1.00  0.00     0.058 A 
ATOM     91  C   UNL A   1      46.782  25.888  34.900  1.00  0.00     0.135 A 
ATOM     92  C   UNL A   1      48.079  27.476  33.641  1.00  0.00     0.135 A 
ATOM     93  F   UNL A   1      45.605  25.348  35.257  1.00  0.00    -0.206 F 
ATOM     94  C   UNL A   1      47.942  25.385  35.477  1.00  0.00     0.059 A 
ATOM     95  C   UNL A   1      49.254  26.970  34.184  1.00  0.00     0.059 A 
ATOM     96  F   UNL A   1      48.171  28.478  32.753  1.00  0.00    -0.206 F 
ATOM     97  C   UNL A   1      49.175  25.927  35.104  1.00  0.00     0.060 A 
BRANCH  97  98
ATOM     98  S   UNL A   1      50.680  25.210  35.795  1.00  0.00     0.124 S 
ATOM     99  O   UNL A   1      51.224  26.336  36.546  1.00  0.00    -0.237 OA
ATOM    100  O   UNL A   1      50.161  24.105  36.596  1.00  0.00    -0.237 OA
ATOM    101  O   UNL A   1      51.442  24.815  34.614  1.00  0.00    -0.744 OA
ENDBRANCH  97  98
ENDBRANCH  65  90
ENDBRANCH  39  40
ENDBRANCH  32  34
ENDBRANCH  31  32
ENDBRANCH  30  31
ENDBRANCH  29  30
ENDBRANCH  28  29
ENDBRANCH  27  28
ENDBRANCH   1  27
TORSDOF 26
ENDMDL
MODEL 2
REMARK VINA RESULT:      -9.2      4.359     10.134
REMARK SMILES C=CCN(CC(=O)OCCOCCOCCOC(=O)c1ccc(-c2c3nc(c(-c4c(F)cc(S(=O)(=O)[O-])cc4F)c4ccc([nH]4)c(-c4c(F)cc(S(=O)(=O)[O-])cc4F)c4nc(c(-c5c(F)cc(S(=O)(=O)[O-])cc5F)c5ccc2[nH]5)C=C4)C=C3)cc1)C(=O)N1CC[C@@H]([NH+]2CCCCC2)C1
REMARK SMILES IDX 12 1 11 2 10 3 9 4 8 5 6 6 7 7 5 8 4 9 3 10 2 11 1 12 86 13
REMARK SMILES IDX 87 14 88 15 89 16 98 17 90 18 91 19 92 20 93 21 97 22 94 24
REMARK SMILES IDX 96 25 95 26 13 27 14 28 15 29 16 30 17 31 18 32 19 33 20 34
REMARK SMILES IDX 21 35 85 36 22 37 84 38 23 39 24 40 25 41 78 42 26 43 83 44
REMARK SMILES IDX 77 45 79 46 27 47 82 48 76 49 75 50 28 52 62 53 41 54 61 55
REMARK SMILES IDX 42 56 45 57 60 58 80 59 43 60 44 61 59 63 81 64 46 65 29 66
REMARK SMILES IDX 30 67 39 68 31 69 32 70 38 71 40 72 33 73 34 74 35 75 36 76
REMARK SMILES IDX 37 77 63 78 64 79 73 80 65 81 66 82 72 83 74 84 67 85 68 86
REMARK SMILES IDX 69 87 70 88 71 89 47 90 48 91 57 92 49 93 50 94 56 95 58 96
REMARK SMILES IDX 51 97 52 98 53 99 54 100 55 101
REMARK H PARENT 92 23 79 51 45 62
REMARK Flexibility Score: inf
ROOT
ATOM      1  C   UNL A   1      34.822  22.500  23.826  1.00  0.00     0.188 C 
ENDROOT
BRANCH   1   2
ATOM      2  O   UNL A   1      33.635  22.252  24.582  1.00  0.00    -0.376 OA
BRANCH   2   3
ATOM      3  C   UNL A   1      32.464  22.237  23.765  1.00  0.00     0.202 C 
BRANCH   3   4
ATOM      4  C   UNL A   1      31.599  23.465  24.056  1.00  0.00     0.261 C 
BRANCH   4   5
ATOM      5  O   UNL A   1      31.210  24.179  22.860  1.00  0.00    -0.462 OA
BRANCH   5   6
ATOM      6  C   UNL A   1      31.944  25.280  22.550  1.00  0.00     0.325 C 
ATOM      7  O   UNL A   1      33.154  25.370  22.733  1.00  0.00    -0.250 OA
BRANCH   6   8
ATOM      8  C   UNL A   1      31.085  26.466  22.104  1.00  0.00     0.244 C 
BRANCH   8   9
ATOM      9  N   UNL A   1      30.923  27.581  23.042  1.00  0.00    -0.310 N 
BRANCH   9  10
ATOM     10  C   UNL A   1      29.567  27.801  23.551  1.00  0.00     0.149 C 
BRANCH  10  11
ATOM     11  C   UNL A   1      28.867  28.849  22.725  1.00  0.00    -0.013 C 
ATOM     12  C   UNL A   1      27.568  29.154  22.852  1.00  0.00     0.006 C 
ENDBRANCH  10  11
ENDBRANCH   9  10
BRANCH   9  13
ATOM     13  C   UNL A   1      31.886  28.465  23.470  1.00  0.00     0.321 C 
ATOM     14  O   UNL A   1      32.564  29.078  22.633  1.00  0.00    -0.248 OA
BRANCH  13  15
ATOM     15  N   UNL A   1      32.154  28.668  24.799  1.00  0.00    -0.318 N 
ATOM     16  C   UNL A   1      32.512  27.805  25.909  1.00  0.00     0.128 C 
ATOM     17  C   UNL A   1      31.929  30.006  25.309  1.00  0.00     0.186 C 
ATOM     18  C   UNL A   1      32.298  28.627  27.173  1.00  0.00     0.088 C 
ATOM     19  C   UNL A   1      32.464  30.091  26.740  1.00  0.00     0.205 C 
BRANCH  19  20
ATOM     20  N   UNL A   1      33.826  30.515  27.100  1.00  0.00    -0.331 N 
ATOM     21  C   UNL A   1      33.971  31.782  27.810  1.00  0.00     0.262 C 
ATOM     22  C   UNL A   1      34.428  29.497  27.996  1.00  0.00     0.262 C 
ATOM     23  H   UNL A   1      34.278  30.627  26.193  1.00  0.00     0.348 HD
ATOM     24  C   UNL A   1      35.450  32.145  28.005  1.00  0.00     0.062 C 
ATOM     25  C   UNL A   1      35.928  29.586  27.833  1.00  0.00     0.062 C 
ATOM     26  C   UNL A   1      36.460  31.016  27.764  1.00  0.00     0.012 C 
ENDBRANCH  19  20
ENDBRANCH  13  15
ENDBRANCH   9  13
ENDBRANCH   8   9
ENDBRANCH   6   8
ENDBRANCH   5   6
ENDBRANCH   4   5
ENDBRANCH   3   4
ENDBRANCH   2   3
ENDBRANCH   1   2
BRANCH   1  27
ATOM     27  C   UNL A   1      35.983  22.883  24.738  1.00  0.00     0.188 C 
BRANCH  27  28
ATOM     28  O   UNL A   1      36.357  21.805  25.595  1.00  0.00    -0.376 OA
BRANCH  28  29
ATOM     29  C   UNL A   1      37.022  20.759  24.872  1.00  0.00     0.202 C 
BRANCH  29  30
ATOM     30  C   UNL A   1      38.479  20.613  25.334  1.00  0.00     0.261 C 
BRANCH  30  31
ATOM     31  O   UNL A   1      39.051  21.860  25.791  1.00  0.00    -0.460 OA
BRANCH  31  32
ATOM     32  C   UNL A   1      40.004  21.798  26.757  1.00  0.00     0.338 C 
ATOM     33  O   UNL A   1      40.439  20.797  27.302  1.00  0.00    -0.246 OA
BRANCH  32  34
ATOM     34  C   UNL A   1      40.295  23.182  27.207  1.00  0.00     0.060 A 
ATOM     35  C   UNL A   1      39.544  24.284  26.788  1.00  0.00     0.016 A 
ATOM     36  C   UNL A   1      41.347  23.372  28.107  1.00  0.00     0.016 A 
ATOM     37  C   UNL A   1      39.810  25.564  27.323  1.00  0.00     0.010 A 
ATOM     38  C   UNL A   1      41.586  24.637  28.665  1.00  0.00     0.010 A 
ATOM     39  C   UNL A   1      40.822  25.755  28.283  1.00  0.00    -0.014 A 
BRANCH  39  40
ATOM     40  C   UNL A   1      41.301  27.125  28.659  1.00  0.00     0.031 A 
ATOM     41  C   UNL A   1      42.767  27.379  28.442  1.00  0.00     0.074 A 
ATOM     42  C   UNL A   1      40.546  28.112  29.196  1.00  0.00     0.049 A 
ATOM     43  N   UNL A   1      43.450  28.477  28.616  1.00  0.00    -0.248 NA
ATOM     44  C   UNL A   1      43.560  26.242  27.944  1.00  0.00     0.031 C 
ATOM     45  C   UNL A   1      39.114  28.059  29.437  1.00  0.00     0.029 A 
ATOM     46  N   UNL A   1      40.881  29.372  29.652  1.00  0.00    -0.354 N 
ATOM     47  C   UNL A   1      44.733  28.181  28.182  1.00  0.00     0.074 A 
ATOM     48  C   UNL A   1      44.761  26.779  27.832  1.00  0.00     0.031 C 
ATOM     49  C   UNL A   1      38.693  29.181  30.042  1.00  0.00     0.029 A 
ATOM     50  C   UNL A   1      39.827  30.077  30.204  1.00  0.00     0.049 A 
ATOM     51  H   UNL A   1      41.794  29.737  29.589  1.00  0.00     0.167 HD
ATOM     52  C   UNL A   1      45.790  29.010  28.039  1.00  0.00     0.037 A 
ATOM     53  C   UNL A   1      39.763  31.309  30.753  1.00  0.00     0.037 A 
ATOM     54  C   UNL A   1      45.804  30.377  28.464  1.00  0.00     0.049 A 
ATOM     55  C   UNL A   1      41.000  32.168  30.732  1.00  0.00     0.074 A 
ATOM     56  C   UNL A   1      46.850  31.278  28.423  1.00  0.00     0.029 A 
ATOM     57  N   UNL A   1      44.726  31.029  29.042  1.00  0.00    -0.354 N 
ATOM     58  N   UNL A   1      42.180  31.894  30.227  1.00  0.00    -0.248 NA
ATOM     59  C   UNL A   1      40.895  33.513  31.319  1.00  0.00     0.031 C 
ATOM     60  C   UNL A   1      46.417  32.467  29.022  1.00  0.00     0.029 A 
ATOM     61  C   UNL A   1      45.088  32.317  29.389  1.00  0.00     0.049 A 
ATOM     62  H   UNL A   1      43.835  30.635  29.184  1.00  0.00     0.167 HD
ATOM     63  C   UNL A   1      42.937  33.048  30.387  1.00  0.00     0.074 A 
ATOM     64  C   UNL A   1      42.087  34.022  31.038  1.00  0.00     0.031 C 
ATOM     65  C   UNL A   1      44.219  33.281  30.014  1.00  0.00     0.037 A 
BRANCH  52  66
ATOM     66  C   UNL A   1      47.004  28.406  27.406  1.00  0.00     0.058 A 
ATOM     67  C   UNL A   1      48.106  28.018  28.190  1.00  0.00     0.135 A 
ATOM     68  C   UNL A   1      47.118  28.316  26.012  1.00  0.00     0.135 A 
ATOM     69  F   UNL A   1      48.055  28.126  29.528  1.00  0.00    -0.206 F 
ATOM     70  C   UNL A   1      49.297  27.606  27.607  1.00  0.00     0.059 A 
ATOM     71  C   UNL A   1      48.293  27.882  25.410  1.00  0.00     0.059 A 
ATOM     72  F   UNL A   1      46.100  28.697  25.225  1.00  0.00    -0.206 F 
ATOM     73  C   UNL A   1      49.384  27.554  26.216  1.00  0.00     0.060 A 
BRANCH  73  74
ATOM     74  S   UNL A   1      50.957  27.080  25.472  1.00  0.00     0.124 S 
ATOM     75  O   UNL A   1      51.909  27.684  26.399  1.00  0.00    -0.237 OA
ATOM     76  O   UNL A   1      50.887  25.622  25.495  1.00  0.00    -0.237 OA
ATOM     77  O   UNL A   1      50.900  27.687  24.146  1.00  0.00    -0.744 OA
ENDBRANCH  73  74
ENDBRANCH  52  66
BRANCH  53  78
ATOM     78  C   UNL A   1      38.491  31.848  31.329  1.00  0.00     0.058 A 
ATOM     79  C   UNL A   1      37.782  32.880  30.692  1.00  0.00     0.135 A 
ATOM     80  C   UNL A   1      37.997  31.396  32.564  1.00  0.00     0.135 A 
ATOM     81  F   UNL A   1      38.211  33.357  29.514  1.00  0.00    -0.206 F 
ATOM     82  C   UNL A   1      36.660  33.470  31.272  1.00  0.00     0.059 A 
ATOM     83  C   UNL A   1      36.864  31.956  33.155  1.00  0.00     0.059 A 
ATOM     84  F   UNL A   1      38.625  30.405  33.215  1.00  0.00    -0.206 F 
ATOM     85  C   UNL A   1      36.212  33.006  32.510  1.00  0.00     0.060 A 
BRANCH  85  86
ATOM     86  S   UNL A   1      34.758  33.783  33.253  1.00  0.00     0.124 S 
ATOM     87  O   UNL A   1      34.774  35.100  32.625  1.00  0.00    -0.237 OA
ATOM     88  O   UNL A   1      33.685  32.889  32.834  1.00  0.00    -0.237 OA
ATOM     89  O   UNL A   1      35.061  33.763  34.682  1.00  0.00    -0.744 OA
ENDBRANCH  85  86
ENDBRANCH  53  78
BRANCH  65  90
ATOM     90  C   UNL A   1      44.777  34.654  30.253  1.00  0.00     0.058 A 
ATOM     91  C   UNL A   1      45.486  34.969  31.421  1.00  0.00     0.135 A 
ATOM     92  C   UNL A   1      44.686  35.634  29.251  1.00  0.00     0.135 A 
ATOM     93  F   UNL A   1      45.592  34.069  32.412  1.00  0.00    -0.206 F 
ATOM     94  C   UNL A   1      46.084  36.212  31.591  1.00  0.00     0.059 A 
ATOM     95  C   UNL A   1      45.300  36.873  29.387  1.00  0.00     0.059 A 
ATOM     96  F   UNL A   1      44.025  35.376  28.112  1.00  0.00    -0.206 F 
ATOM     97  C   UNL A   1      45.995  37.153  30.562  1.00  0.00     0.060 A 
BRANCH  97  98
ATOM     98  S   UNL A   1      46.847  38.732  30.758  1.00  0.00     0.124 S 
ATOM     99  O   UNL A   1      45.918  39.650  30.107  1.00  0.00    -0.237 OA
ATOM    100  O   UNL A   1      46.949  38.855  32.210  1.00  0.00    -0.237 OA
ATOM    101  O   UNL A   1      48.114  38.523  30.064  1.00  0.00    -0.744 OA
ENDBRANCH  97  98
ENDBRANCH  65  90
ENDBRANCH  39  40
ENDBRANCH  32  34
ENDBRANCH  31  32
ENDBRANCH  30  31
ENDBRANCH  29  30
ENDBRANCH  28  29
ENDBRANCH  27  28
ENDBRANCH   1  27
TORSDOF 26
ENDMDL
MODEL 3
REMARK VINA RESULT:      -9.1      5.000      8.354
REMARK SMILES C=CCN(CC(=O)OCCOCCOCCOC(=O)c1ccc(-c2c3nc(c(-c4c(F)cc(S(=O)(=O)[O-])cc4F)c4ccc([nH]4)c(-c4c(F)cc(S(=O)(=O)[O-])cc4F)c4nc(c(-c5c(F)cc(S(=O)(=O)[O-])cc5F)c5ccc2[nH]5)C=C4)C=C3)cc1)C(=O)N1CC[C@@H]([NH+]2CCCCC2)C1
REMARK SMILES IDX 12 1 11 2 10 3 9 4 8 5 6 6 7 7 5 8 4 9 3 10 2 11 1 12 86 13
REMARK SMILES IDX 87 14 88 15 89 16 98 17 90 18 91 19 92 20 93 21 97 22 94 24
REMARK SMILES IDX 96 25 95 26 13 27 14 28 15 29 16 30 17 31 18 32 19 33 20 34
REMARK SMILES IDX 21 35 85 36 22 37 84 38 23 39 24 40 25 41 78 42 26 43 83 44
REMARK SMILES IDX 77 45 79 46 27 47 82 48 76 49 75 50 28 52 62 53 41 54 61 55
REMARK SMILES IDX 42 56 45 57 60 58 80 59 43 60 44 61 59 63 81 64 46 65 29 66
REMARK SMILES IDX 30 67 39 68 31 69 32 70 38 71 40 72 33 73 34 74 35 75 36 76
REMARK SMILES IDX 37 77 63 78 64 79 73 80 65 81 66 82 72 83 74 84 67 85 68 86
REMARK SMILES IDX 69 87 70 88 71 89 47 90 48 91 57 92 49 93 50 94 56 95 58 96
REMARK SMILES IDX 51 97 52 98 53 99 54 100 55 101
REMARK H PARENT 92 23 79 51 45 62
REMARK Flexibility Score: inf
ROOT
ATOM      1  C   UNL A   1      37.206  22.900  25.168  1.00  0.00     0.188 C 
ENDROOT
BRANCH   1   2
ATOM      2  O   UNL A   1      36.284  23.735  25.871  1.00  0.00    -0.376 OA
BRANCH   2   3
ATOM      3  C   UNL A   1      35.402  24.433  24.992  1.00  0.00     0.202 C 
BRANCH   3   4
ATOM      4  C   UNL A   1      34.432  25.302  25.794  1.00  0.00     0.261 C 
BRANCH   4   5
ATOM      5  O   UNL A   1      33.418  25.925  24.972  1.00  0.00    -0.462 OA
BRANCH   5   6
ATOM      6  C   UNL A   1      33.599  27.242  24.689  1.00  0.00     0.325 C 
ATOM      7  O   UNL A   1      33.991  28.071  25.503  1.00  0.00    -0.250 OA
BRANCH   6   8
ATOM      8  C   UNL A   1      33.102  27.627  23.292  1.00  0.00     0.244 C 
BRANCH   8   9
ATOM      9  N   UNL A   1      31.914  26.939  22.777  1.00  0.00    -0.310 N 
BRANCH   9  10
ATOM     10  C   UNL A   1      30.622  27.457  23.233  1.00  0.00     0.149 C 
BRANCH  10  11
ATOM     11  C   UNL A   1      30.370  28.818  22.636  1.00  0.00    -0.013 C 
ATOM     12  C   UNL A   1      29.148  29.338  22.457  1.00  0.00     0.006 C 
ENDBRANCH  10  11
ENDBRANCH   9  10
BRANCH   9  13
ATOM     13  C   UNL A   1      31.873  25.842  21.947  1.00  0.00     0.321 C 
ATOM     14  O   UNL A   1      31.545  25.990  20.761  1.00  0.00    -0.248 OA
BRANCH  13  15
ATOM     15  N   UNL A   1      32.146  24.576  22.394  1.00  0.00    -0.318 N 
ATOM     16  C   UNL A   1      33.222  23.627  22.171  1.00  0.00     0.128 C 
ATOM     17  C   UNL A   1      31.110  23.924  23.170  1.00  0.00     0.186 C 
ATOM     18  C   UNL A   1      32.713  22.282  22.673  1.00  0.00     0.088 C 
ATOM     19  C   UNL A   1      31.663  22.617  23.742  1.00  0.00     0.205 C 
BRANCH  19  20
ATOM     20  N   UNL A   1      32.304  22.486  25.059  1.00  0.00    -0.331 N 
ATOM     21  C   UNL A   1      31.526  22.882  26.229  1.00  0.00     0.262 C 
ATOM     22  C   UNL A   1      32.652  21.062  25.288  1.00  0.00     0.262 C 
ATOM     23  H   UNL A   1      33.093  23.128  24.994  1.00  0.00     0.348 HD
ATOM     24  C   UNL A   1      32.369  22.805  27.511  1.00  0.00     0.062 C 
ATOM     25  C   UNL A   1      33.814  21.032  26.254  1.00  0.00     0.062 C 
ATOM     26  C   UNL A   1      33.687  22.028  27.406  1.00  0.00     0.012 C 
ENDBRANCH  19  20
ENDBRANCH  13  15
ENDBRANCH   9  13
ENDBRANCH   8   9
ENDBRANCH   6   8
ENDBRANCH   5   6
ENDBRANCH   4   5
ENDBRANCH   3   4
ENDBRANCH   2   3
ENDBRANCH   1   2
BRANCH   1  27
ATOM     27  C   UNL A   1      38.493  22.712  25.963  1.00  0.00     0.188 C 
BRANCH  27  28
ATOM     28  O   UNL A   1      39.297  21.663  25.425  1.00  0.00    -0.376 OA
BRANCH  28  29
ATOM     29  C   UNL A   1      39.598  20.666  26.411  1.00  0.00     0.202 C 
BRANCH  29  30
ATOM     30  C   UNL A   1      39.914  19.317  25.751  1.00  0.00     0.261 C 
BRANCH  30  31
ATOM     31  O   UNL A   1      41.309  19.178  25.398  1.00  0.00    -0.460 OA
BRANCH  31  32
ATOM     32  C   UNL A   1      42.222  19.256  26.401  1.00  0.00     0.338 C 
ATOM     33  O   UNL A   1      42.493  18.396  27.222  1.00  0.00    -0.246 OA
BRANCH  32  34
ATOM     34  C   UNL A   1      42.705  20.658  26.477  1.00  0.00     0.060 A 
ATOM     35  C   UNL A   1      43.101  21.379  25.347  1.00  0.00     0.016 A 
ATOM     36  C   UNL A   1      42.733  21.276  27.729  1.00  0.00     0.016 A 
ATOM     37  C   UNL A   1      43.463  22.740  25.470  1.00  0.00     0.010 A 
ATOM     38  C   UNL A   1      43.057  22.636  27.845  1.00  0.00     0.010 A 
ATOM     39  C   UNL A   1      43.427  23.392  26.717  1.00  0.00    -0.014 A 
BRANCH  39  40
ATOM     40  C   UNL A   1      44.058  24.737  26.919  1.00  0.00     0.031 A 
ATOM     41  C   UNL A   1      43.108  25.852  27.260  1.00  0.00     0.074 A 
ATOM     42  C   UNL A   1      45.374  25.026  26.791  1.00  0.00     0.049 A 
ATOM     43  N   UNL A   1      43.366  27.099  27.547  1.00  0.00    -0.248 NA
ATOM     44  C   UNL A   1      41.677  25.503  27.295  1.00  0.00     0.031 C 
ATOM     45  C   UNL A   1      46.435  24.074  26.508  1.00  0.00     0.029 A 
ATOM     46  N   UNL A   1      46.059  26.223  26.873  1.00  0.00    -0.354 N 
ATOM     47  C   UNL A   1      42.138  27.660  27.866  1.00  0.00     0.074 A 
ATOM     48  C   UNL A   1      41.128  26.652  27.641  1.00  0.00     0.031 C 
ATOM     49  C   UNL A   1      47.614  24.702  26.379  1.00  0.00     0.029 A 
ATOM     50  C   UNL A   1      47.412  26.123  26.611  1.00  0.00     0.049 A 
ATOM     51  H   UNL A   1      45.618  27.074  27.099  1.00  0.00     0.167 HD
ATOM     52  C   UNL A   1      41.873  28.892  28.351  1.00  0.00     0.037 A 
ATOM     53  C   UNL A   1      48.391  27.054  26.587  1.00  0.00     0.037 A 
ATOM     54  C   UNL A   1      42.850  29.928  28.496  1.00  0.00     0.049 A 
ATOM     55  C   UNL A   1      48.045  28.467  26.976  1.00  0.00     0.074 A 
ATOM     56  C   UNL A   1      42.665  31.231  28.914  1.00  0.00     0.029 A 
ATOM     57  N   UNL A   1      44.195  29.786  28.189  1.00  0.00    -0.354 N 
ATOM     58  N   UNL A   1      46.890  28.951  27.366  1.00  0.00    -0.248 NA
ATOM     59  C   UNL A   1      49.135  29.456  26.958  1.00  0.00     0.031 C 
ATOM     60  C   UNL A   1      43.894  31.894  28.816  1.00  0.00     0.029 A 
ATOM     61  C   UNL A   1      44.850  30.987  28.383  1.00  0.00     0.049 A 
ATOM     62  H   UNL A   1      44.620  28.954  27.879  1.00  0.00     0.167 HD
ATOM     63  C   UNL A   1      47.126  30.281  27.691  1.00  0.00     0.074 A 
ATOM     64  C   UNL A   1      48.531  30.530  27.449  1.00  0.00     0.031 C 
ATOM     65  C   UNL A   1      46.257  31.208  28.161  1.00  0.00     0.037 A 
BRANCH  52  66
ATOM     66  C   UNL A   1      40.448  29.144  28.732  1.00  0.00     0.058 A 
ATOM     67  C   UNL A   1      39.475  29.398  27.747  1.00  0.00     0.135 A 
ATOM     68  C   UNL A   1      40.070  29.244  30.078  1.00  0.00     0.135 A 
ATOM     69  F   UNL A   1      39.803  29.353  26.446  1.00  0.00    -0.206 F 
ATOM     70  C   UNL A   1      38.188  29.789  28.089  1.00  0.00     0.059 A 
ATOM     71  C   UNL A   1      38.779  29.609  30.440  1.00  0.00     0.059 A 
ATOM     72  F   UNL A   1      40.971  29.032  31.050  1.00  0.00    -0.206 F 
ATOM     73  C   UNL A   1      37.854  29.905  29.438  1.00  0.00     0.060 A 
BRANCH  73  74
ATOM     74  S   UNL A   1      36.198  30.476  29.867  1.00  0.00     0.124 S 
ATOM     75  O   UNL A   1      35.968  29.776  31.126  1.00  0.00    -0.237 OA
ATOM     76  O   UNL A   1      36.382  31.921  29.968  1.00  0.00    -0.237 OA
ATOM     77  O   UNL A   1      35.384  30.029  28.741  1.00  0.00    -0.744 OA
ENDBRANCH  73  74
ENDBRANCH  52  66
BRANCH  53  78
ATOM     78  C   UNL A   1      49.801  26.703  26.232  1.00  0.00     0.058 A 
ATOM     79  C   UNL A   1      50.304  26.919  24.938  1.00  0.00     0.135 A 
ATOM     80  C   UNL A   1      50.654  26.076  27.156  1.00  0.00     0.135 A 
ATOM     81  F   UNL A   1      49.532  27.506  24.012  1.00  0.00    -0.206 F 
ATOM     82  C   UNL A   1      51.577  26.493  24.561  1.00  0.00     0.059 A 
ATOM     83  C   UNL A   1      51.940  25.659  26.809  1.00  0.00     0.059 A 
ATOM     84  F   UNL A   1      50.235  25.852  28.411  1.00  0.00    -0.206 F 
ATOM     85  C   UNL A   1      52.386  25.856  25.503  1.00  0.00     0.060 A 
BRANCH  85  86
ATOM     86  S   UNL A   1      54.033  25.305  24.999  1.00  0.00     0.124 S 
ATOM     87  O   UNL A   1      53.834  23.867  24.858  1.00  0.00    -0.237 OA
ATOM     88  O   UNL A   1      54.238  26.046  23.759  1.00  0.00    -0.237 OA
ATOM     89  O   UNL A   1      54.881  25.716  26.115  1.00  0.00    -0.744 OA
ENDBRANCH  85  86
ENDBRANCH  53  78
BRANCH  65  90
ATOM     90  C   UNL A   1      46.797  32.569  28.493  1.00  0.00     0.058 A 
ATOM     91  C   UNL A   1      47.330  32.863  29.756  1.00  0.00     0.135 A 
ATOM     92  C   UNL A   1      46.873  33.557  27.498  1.00  0.00     0.135 A 
ATOM     93  F   UNL A   1      47.272  31.953  30.742  1.00  0.00    -0.206 F 
ATOM     94  C   UNL A   1      47.917  34.093  30.025  1.00  0.00     0.059 A 
ATOM     95  C   UNL A   1      47.481  34.783  27.736  1.00  0.00     0.059 A 
ATOM     96  F   UNL A   1      46.383  33.320  26.271  1.00  0.00    -0.206 F 
ATOM     97  C   UNL A   1      47.998  35.043  29.003  1.00  0.00     0.060 A 
BRANCH  97  98
ATOM     98  S   UNL A   1      48.839  36.604  29.339  1.00  0.00     0.124 S 
ATOM     99  O   UNL A   1      49.029  37.131  27.991  1.00  0.00    -0.237 OA
ATOM    100  O   UNL A   1      47.865  37.313  30.165  1.00  0.00    -0.237 OA
ATOM    101  O   UNL A   1      50.056  36.193  30.031  1.00  0.00    -0.744 OA
ENDBRANCH  97  98
ENDBRANCH  65  90
ENDBRANCH  39  40
ENDBRANCH  32  34
ENDBRANCH  31  32
ENDBRANCH  30  31
ENDBRANCH  29  30
ENDBRANCH  28  29
ENDBRANCH  27  28
ENDBRANCH   1  27
TORSDOF 26
ENDMDL
