MODEL 1
REMARK VINA RESULT:      -9.8      0.000      0.000
REMARK SMILES CN1CC(=O)N(CC(=O)N2CCCC[C@H]2C(=O)OCCOCCOCCOC(=O)c2ccc(-c3c4nc(c(-c5c(F)cc(S(=O)(=O)[O-])cc5F)c5ccc([nH]5)c(-c5c(F)cc(S(=O)(=O)[O-])cc5F)c5nc(c(-c6c(F)cc(S(=O)(=O)[O-])cc6F)c6ccc3[nH]6)C=C5)C=C4)cc2)C1=O
REMARK SMILES IDX 22 1 21 2 20 3 19 4 18 5 16 6 17 7 15 8 10 9 11 10 12 11
REMARK SMILES IDX 14 12 13 13 8 14 9 15 7 16 6 17 1 18 2 19 3 20 96 21 4 22
REMARK SMILES IDX 97 23 5 24 23 25 24 26 25 27 26 28 27 29 28 30 29 31 30 32
REMARK SMILES IDX 31 33 95 34 32 35 94 36 33 37 34 38 35 39 88 40 36 41 93 42
REMARK SMILES IDX 87 43 89 44 37 45 92 46 86 47 85 48 38 50 72 51 51 52 71 53
REMARK SMILES IDX 52 54 55 55 70 56 90 57 53 58 54 59 69 61 91 62 56 63 39 64
REMARK SMILES IDX 40 65 49 66 41 67 42 68 48 69 50 70 43 71 44 72 45 73 46 74
REMARK SMILES IDX 47 75 73 76 74 77 83 78 75 79 76 80 82 81 84 82 77 83 78 84
REMARK SMILES IDX 79 85 80 86 81 87 57 88 58 89 67 90 59 91 60 92 66 93 68 94
REMARK SMILES IDX 61 95 62 96 63 97 64 98 65 99
REMARK H PARENT 89 49 55 60
REMARK Flexibility Score: inf
ROOT
ATOM      1  C   UNL A   1      30.094  28.498  23.030  1.00  0.00     0.188 C 
ENDROOT
BRANCH   1   2
ATOM      2  O   UNL A   1      29.183  27.522  23.534  1.00  0.00    -0.376 OA
BRANCH   2   3
ATOM      3  C   UNL A   1      29.645  26.217  23.849  1.00  0.00     0.202 C 
BRANCH   3   4
ATOM      4  C   UNL A   1      29.790  25.896  25.340  1.00  0.00     0.261 C 
BRANCH   4   5
ATOM      5  O   UNL A   1      31.085  26.188  25.906  1.00  0.00    -0.462 OA
BRANCH   5   6
ATOM      6  C   UNL A   1      31.788  25.108  26.341  1.00  0.00     0.328 C 
ATOM      7  O   UNL A   1      31.411  24.356  27.230  1.00  0.00    -0.250 OA
BRANCH   6   8
ATOM      8  C   UNL A   1      33.178  24.979  25.684  1.00  0.00     0.195 C 
ATOM      9  N   UNL A   1      33.148  23.895  24.679  1.00  0.00    -0.327 N 
ATOM     10  C   UNL A   1      32.709  24.301  23.347  1.00  0.00     0.120 C 
ATOM     11  C   UNL A   1      33.520  25.451  22.781  1.00  0.00     0.022 C 
ATOM     12  C   UNL A   1      33.839  26.264  25.144  1.00  0.00     0.037 C 
ATOM     13  C   UNL A   1      33.487  26.650  23.711  1.00  0.00     0.005 C 
BRANCH   9  14
ATOM     14  C   UNL A   1      33.193  22.519  24.921  1.00  0.00     0.243 C 
ATOM     15  O   UNL A   1      32.352  21.782  24.384  1.00  0.00    -0.273 OA
BRANCH  14  16
ATOM     16  C   UNL A   1      34.107  21.856  25.975  1.00  0.00     0.230 C 
BRANCH  16  17
ATOM     17  N   UNL A   1      35.491  21.628  25.642  1.00  0.00    -0.253 N 
ATOM     18  C   UNL A   1      38.260  19.507  24.795  1.00  0.00     0.149 C 
ATOM     19  N   UNL A   1      37.365  20.613  25.021  1.00  0.00    -0.318 N 
ATOM     20  C   UNL A   1      37.808  21.911  25.460  1.00  0.00     0.221 C 
ATOM     21  C   UNL A   1      35.989  20.481  25.096  1.00  0.00     0.327 C 
ATOM     22  C   UNL A   1      36.481  22.552  25.824  1.00  0.00     0.250 C 
ATOM     23  O   UNL A   1      35.375  19.470  24.794  1.00  0.00    -0.248 OA
ATOM     24  O   UNL A   1      36.357  23.682  26.272  1.00  0.00    -0.272 OA
ENDBRANCH  16  17
ENDBRANCH  14  16
ENDBRANCH   9  14
ENDBRANCH   6   8
ENDBRANCH   5   6
ENDBRANCH   4   5
ENDBRANCH   3   4
ENDBRANCH   2   3
ENDBRANCH   1   2
BRANCH   1  25
ATOM     25  C   UNL A   1      30.478  29.660  23.944  1.00  0.00     0.188 C 
BRANCH  25  26
ATOM     26  O   UNL A   1      31.621  29.332  24.727  1.00  0.00    -0.376 OA
BRANCH  26  27
ATOM     27  C   UNL A   1      31.698  30.022  25.965  1.00  0.00     0.202 C 
BRANCH  27  28
ATOM     28  C   UNL A   1      32.625  29.305  26.953  1.00  0.00     0.261 C 
BRANCH  28  29
ATOM     29  O   UNL A   1      34.031  29.559  26.770  1.00  0.00    -0.460 OA
BRANCH  29  30
ATOM     30  C   UNL A   1      34.561  30.570  27.496  1.00  0.00     0.338 C 
ATOM     31  O   UNL A   1      34.014  31.619  27.786  1.00  0.00    -0.246 OA
BRANCH  30  32
ATOM     32  C   UNL A   1      35.865  30.130  28.033  1.00  0.00     0.060 A 
ATOM     33  C   UNL A   1      35.906  29.544  29.301  1.00  0.00     0.016 A 
ATOM     34  C   UNL A   1      37.046  30.349  27.326  1.00  0.00     0.016 A 
ATOM     35  C   UNL A   1      37.122  29.180  29.881  1.00  0.00     0.010 A 
ATOM     36  C   UNL A   1      38.269  30.008  27.915  1.00  0.00     0.010 A 
ATOM     37  C   UNL A   1      38.319  29.444  29.205  1.00  0.00    -0.014 A 
BRANCH  37  38
ATOM     38  C   UNL A   1      39.628  29.318  29.899  1.00  0.00     0.031 A 
ATOM     39  C   UNL A   1      40.585  28.258  29.423  1.00  0.00     0.074 A 
ATOM     40  C   UNL A   1      39.974  30.118  30.925  1.00  0.00     0.049 A 
ATOM     41  N   UNL A   1      41.657  27.780  29.996  1.00  0.00    -0.248 NA
ATOM     42  C   UNL A   1      40.277  27.649  28.118  1.00  0.00     0.031 C 
ATOM     43  C   UNL A   1      39.195  31.253  31.417  1.00  0.00     0.029 A 
ATOM     44  N   UNL A   1      41.073  30.082  31.750  1.00  0.00    -0.354 N 
ATOM     45  C   UNL A   1      42.124  26.781  29.150  1.00  0.00     0.074 A 
ATOM     46  C   UNL A   1      41.220  26.724  28.021  1.00  0.00     0.031 C 
ATOM     47  C   UNL A   1      39.832  31.796  32.468  1.00  0.00     0.029 A 
ATOM     48  C   UNL A   1      41.027  31.008  32.766  1.00  0.00     0.049 A 
ATOM     49  H   UNL A   1      41.820  29.454  31.624  1.00  0.00     0.167 HD
ATOM     50  C   UNL A   1      43.204  25.978  29.307  1.00  0.00     0.037 A 
ATOM     51  C   UNL A   1      41.828  31.165  33.839  1.00  0.00     0.037 A 
ATOM     52  C   UNL A   1      44.113  26.071  30.420  1.00  0.00     0.049 A 
ATOM     53  C   UNL A   1      42.986  30.219  34.037  1.00  0.00     0.074 A 
ATOM     54  C   UNL A   1      45.226  25.296  30.691  1.00  0.00     0.029 A 
ATOM     55  N   UNL A   1      44.019  27.008  31.438  1.00  0.00    -0.354 N 
ATOM     56  N   UNL A   1      43.378  29.221  33.278  1.00  0.00    -0.248 NA
ATOM     57  C   UNL A   1      43.802  30.405  35.246  1.00  0.00     0.031 C 
ATOM     58  C   UNL A   1      45.786  25.742  31.893  1.00  0.00     0.029 A 
ATOM     59  C   UNL A   1      45.049  26.826  32.346  1.00  0.00     0.049 A 
ATOM     60  H   UNL A   1      43.324  27.702  31.506  1.00  0.00     0.167 HD
ATOM     61  C   UNL A   1      44.498  28.681  33.903  1.00  0.00     0.074 A 
ATOM     62  C   UNL A   1      44.727  29.465  35.099  1.00  0.00     0.031 C 
ATOM     63  C   UNL A   1      45.269  27.632  33.522  1.00  0.00     0.037 A 
BRANCH  50  64
ATOM     64  C   UNL A   1      43.423  24.899  28.284  1.00  0.00     0.058 A 
ATOM     65  C   UNL A   1      42.871  23.617  28.417  1.00  0.00     0.135 A 
ATOM     66  C   UNL A   1      44.202  25.160  27.144  1.00  0.00     0.135 A 
ATOM     67  F   UNL A   1      42.137  23.305  29.498  1.00  0.00    -0.206 F 
ATOM     68  C   UNL A   1      43.107  22.621  27.474  1.00  0.00     0.059 A 
ATOM     69  C   UNL A   1      44.429  24.188  26.173  1.00  0.00     0.059 A 
ATOM     70  F   UNL A   1      44.759  26.369  26.967  1.00  0.00    -0.206 F 
ATOM     71  C   UNL A   1      43.892  22.916  26.356  1.00  0.00     0.060 A 
BRANCH  71  72
ATOM     72  S   UNL A   1      44.202  21.613  25.146  1.00  0.00     0.124 S 
ATOM     73  O   UNL A   1      45.583  21.252  25.453  1.00  0.00    -0.237 OA
ATOM     74  O   UNL A   1      43.195  20.615  25.495  1.00  0.00    -0.237 OA
ATOM     75  O   UNL A   1      43.998  22.282  23.865  1.00  0.00    -0.744 OA
ENDBRANCH  71  72
ENDBRANCH  50  64
BRANCH  51  76
ATOM     76  C   UNL A   1      41.536  32.227  34.843  1.00  0.00     0.058 A 
ATOM     77  C   UNL A   1      40.604  32.020  35.871  1.00  0.00     0.135 A 
ATOM     78  C   UNL A   1      42.178  33.476  34.789  1.00  0.00     0.135 A 
ATOM     79  F   UNL A   1      39.948  30.854  35.957  1.00  0.00    -0.206 F 
ATOM     80  C   UNL A   1      40.311  33.014  36.803  1.00  0.00     0.059 A 
ATOM     81  C   UNL A   1      41.922  34.474  35.724  1.00  0.00     0.059 A 
ATOM     82  F   UNL A   1      43.079  33.728  33.826  1.00  0.00    -0.206 F 
ATOM     83  C   UNL A   1      40.978  34.238  36.722  1.00  0.00     0.060 A 
BRANCH  83  84
ATOM     84  S   UNL A   1      40.620  35.505  37.958  1.00  0.00     0.124 S 
ATOM     85  O   UNL A   1      39.909  34.736  38.972  1.00  0.00    -0.237 OA
ATOM     86  O   UNL A   1      41.956  35.964  38.326  1.00  0.00    -0.237 OA
ATOM     87  O   UNL A   1      39.814  36.476  37.222  1.00  0.00    -0.744 OA
ENDBRANCH  83  84
ENDBRANCH  51  76
BRANCH  63  88
ATOM     88  C   UNL A   1      46.463  27.299  34.372  1.00  0.00     0.058 A 
ATOM     89  C   UNL A   1      47.709  27.909  34.171  1.00  0.00     0.135 A 
ATOM     90  C   UNL A   1      46.335  26.406  35.450  1.00  0.00     0.135 A 
ATOM     91  F   UNL A   1      47.886  28.766  33.153  1.00  0.00    -0.206 F 
ATOM     92  C   UNL A   1      48.794  27.634  34.999  1.00  0.00     0.059 A 
ATOM     93  C   UNL A   1      47.399  26.135  36.304  1.00  0.00     0.059 A 
ATOM     94  F   UNL A   1      45.160  25.804  35.693  1.00  0.00    -0.206 F 
ATOM     95  C   UNL A   1      48.628  26.748  36.065  1.00  0.00     0.060 A 
BRANCH  95  96
ATOM     96  S   UNL A   1      50.029  26.436  37.160  1.00  0.00     0.124 S 
ATOM     97  O   UNL A   1      49.643  25.174  37.781  1.00  0.00    -0.237 OA
ATOM     98  O   UNL A   1      51.149  26.367  36.227  1.00  0.00    -0.237 OA
ATOM     99  O   UNL A   1      50.033  27.597  38.047  1.00  0.00    -0.744 OA
ENDBRANCH  95  96
ENDBRANCH  63  88
ENDBRANCH  37  38
ENDBRANCH  30  32
ENDBRANCH  29  30
ENDBRANCH  28  29
ENDBRANCH  27  28
ENDBRANCH  26  27
ENDBRANCH  25  26
ENDBRANCH   1  25
TORSDOF 23
ENDMDL
MODEL 2
REMARK VINA RESULT:      -9.6      5.011      6.601
REMARK SMILES CN1CC(=O)N(CC(=O)N2CCCC[C@H]2C(=O)OCCOCCOCCOC(=O)c2ccc(-c3c4nc(c(-c5c(F)cc(S(=O)(=O)[O-])cc5F)c5ccc([nH]5)c(-c5c(F)cc(S(=O)(=O)[O-])cc5F)c5nc(c(-c6c(F)cc(S(=O)(=O)[O-])cc6F)c6ccc3[nH]6)C=C5)C=C4)cc2)C1=O
REMARK SMILES IDX 22 1 21 2 20 3 19 4 18 5 16 6 17 7 15 8 10 9 11 10 12 11
REMARK SMILES IDX 14 12 13 13 8 14 9 15 7 16 6 17 1 18 2 19 3 20 96 21 4 22
REMARK SMILES IDX 97 23 5 24 23 25 24 26 25 27 26 28 27 29 28 30 29 31 30 32
REMARK SMILES IDX 31 33 95 34 32 35 94 36 33 37 34 38 35 39 88 40 36 41 93 42
REMARK SMILES IDX 87 43 89 44 37 45 92 46 86 47 85 48 38 50 72 51 51 52 71 53
REMARK SMILES IDX 52 54 55 55 70 56 90 57 53 58 54 59 69 61 91 62 56 63 39 64
REMARK SMILES IDX 40 65 49 66 41 67 42 68 48 69 50 70 43 71 44 72 45 73 46 74
REMARK SMILES IDX 47 75 73 76 74 77 83 78 75 79 76 80 82 81 84 82 77 83 78 84
REMARK SMILES IDX 79 85 80 86 81 87 57 88 58 89 67 90 59 91 60 92 66 93 68 94
REMARK SMILES IDX 61 95 62 96 63 97 64 98 65 99
REMARK H PARENT 89 49 55 60
REMARK Flexibility Score: inf
ROOT
ATOM      1  C   UNL A   1      33.861  31.154  27.591  1.00  0.00     0.188 C 
ENDROOT
BRANCH   1   2
ATOM      2  O   UNL A   1      32.550  30.625  27.396  1.00  0.00    -0.376 OA
BRANCH   2   3
ATOM      3  C   UNL A   1      32.350  29.531  26.513  1.00  0.00     0.202 C 
BRANCH   3   4
ATOM      4  C   UNL A   1      31.361  28.460  26.983  1.00  0.00     0.261 C 
BRANCH   4   5
ATOM      5  O   UNL A   1      31.958  27.214  27.399  1.00  0.00    -0.462 OA
BRANCH   5   6
ATOM      6  C   UNL A   1      31.630  26.130  26.646  1.00  0.00     0.328 C 
ATOM      7  O   UNL A   1      30.514  25.629  26.612  1.00  0.00    -0.250 OA
BRANCH   6   8
ATOM      8  C   UNL A   1      32.837  25.507  25.914  1.00  0.00     0.195 C 
ATOM      9  N   UNL A   1      32.353  24.621  24.834  1.00  0.00    -0.327 N 
ATOM     10  C   UNL A   1      32.098  25.285  23.559  1.00  0.00     0.120 C 
ATOM     11  C   UNL A   1      33.300  26.051  23.040  1.00  0.00     0.022 C 
ATOM     12  C   UNL A   1      33.957  26.455  25.439  1.00  0.00     0.037 C 
ATOM     13  C   UNL A   1      33.773  27.074  24.058  1.00  0.00     0.005 C 
BRANCH   9  14
ATOM     14  C   UNL A   1      31.835  23.329  24.971  1.00  0.00     0.243 C 
ATOM     15  O   UNL A   1      30.775  23.038  24.397  1.00  0.00    -0.273 OA
BRANCH  14  16
ATOM     16  C   UNL A   1      32.392  22.275  25.953  1.00  0.00     0.230 C 
BRANCH  16  17
ATOM     17  N   UNL A   1      33.396  21.355  25.482  1.00  0.00    -0.253 N 
ATOM     18  C   UNL A   1      34.504  18.108  24.429  1.00  0.00     0.149 C 
ATOM     19  N   UNL A   1      34.363  19.514  24.705  1.00  0.00    -0.318 N 
ATOM     20  C   UNL A   1      35.473  20.369  25.038  1.00  0.00     0.221 C 
ATOM     21  C   UNL A   1      33.145  20.132  24.934  1.00  0.00     0.327 C 
ATOM     22  C   UNL A   1      34.738  21.609  25.517  1.00  0.00     0.250 C 
ATOM     23  O   UNL A   1      32.060  19.607  24.742  1.00  0.00    -0.248 OA
ATOM     24  O   UNL A   1      35.283  22.621  25.929  1.00  0.00    -0.272 OA
ENDBRANCH  16  17
ENDBRANCH  14  16
ENDBRANCH   9  14
ENDBRANCH   6   8
ENDBRANCH   5   6
ENDBRANCH   4   5
ENDBRANCH   3   4
ENDBRANCH   2   3
ENDBRANCH   1   2
BRANCH   1  25
ATOM     25  C   UNL A   1      33.990  32.525  28.252  1.00  0.00     0.188 C 
BRANCH  25  26
ATOM     26  O   UNL A   1      35.096  32.553  29.147  1.00  0.00    -0.376 OA
BRANCH  26  27
ATOM     27  C   UNL A   1      34.765  32.939  30.472  1.00  0.00     0.202 C 
BRANCH  27  28
ATOM     28  C   UNL A   1      35.363  31.979  31.506  1.00  0.00     0.261 C 
BRANCH  28  29
ATOM     29  O   UNL A   1      36.461  31.174  31.033  1.00  0.00    -0.460 OA
BRANCH  29  30
ATOM     30  C   UNL A   1      37.496  31.005  31.887  1.00  0.00     0.338 C 
ATOM     31  O   UNL A   1      37.469  31.150  33.096  1.00  0.00    -0.246 OA
BRANCH  30  32
ATOM     32  C   UNL A   1      38.639  30.446  31.137  1.00  0.00     0.060 A 
ATOM     33  C   UNL A   1      39.748  29.984  31.850  1.00  0.00     0.016 A 
ATOM     34  C   UNL A   1      38.649  30.434  29.743  1.00  0.00     0.016 A 
ATOM     35  C   UNL A   1      40.881  29.516  31.184  1.00  0.00     0.010 A 
ATOM     36  C   UNL A   1      39.794  29.987  29.071  1.00  0.00     0.010 A 
ATOM     37  C   UNL A   1      40.926  29.549  29.785  1.00  0.00    -0.014 A 
BRANCH  37  38
ATOM     38  C   UNL A   1      42.202  29.313  29.059  1.00  0.00     0.031 A 
ATOM     39  C   UNL A   1      42.456  27.942  28.495  1.00  0.00     0.074 A 
ATOM     40  C   UNL A   1      43.121  30.284  28.894  1.00  0.00     0.049 A 
ATOM     41  N   UNL A   1      43.563  27.411  28.050  1.00  0.00    -0.248 NA
ATOM     42  C   UNL A   1      41.291  27.042  28.435  1.00  0.00     0.031 C 
ATOM     43  C   UNL A   1      42.961  31.681  29.291  1.00  0.00     0.029 A 
ATOM     44  N   UNL A   1      44.386  30.229  28.360  1.00  0.00    -0.354 N 
ATOM     45  C   UNL A   1      43.244  26.103  27.705  1.00  0.00     0.074 A 
ATOM     46  C   UNL A   1      41.837  25.920  27.989  1.00  0.00     0.031 C 
ATOM     47  C   UNL A   1      44.090  32.349  29.000  1.00  0.00     0.029 A 
ATOM     48  C   UNL A   1      45.077  31.415  28.462  1.00  0.00     0.049 A 
ATOM     49  H   UNL A   1      44.761  29.420  27.944  1.00  0.00     0.167 HD
ATOM     50  C   UNL A   1      44.055  25.139  27.207  1.00  0.00     0.037 A 
ATOM     51  C   UNL A   1      46.369  31.697  28.199  1.00  0.00     0.037 A 
ATOM     52  C   UNL A   1      45.446  25.347  26.897  1.00  0.00     0.049 A 
ATOM     53  C   UNL A   1      47.277  30.595  27.710  1.00  0.00     0.074 A 
ATOM     54  C   UNL A   1      46.367  24.437  26.409  1.00  0.00     0.029 A 
ATOM     55  N   UNL A   1      46.112  26.556  27.035  1.00  0.00    -0.354 N 
ATOM     56  N   UNL A   1      46.992  29.337  27.463  1.00  0.00    -0.248 NA
ATOM     57  C   UNL A   1      48.687  30.944  27.481  1.00  0.00     0.031 C 
ATOM     58  C   UNL A   1      47.599  25.088  26.284  1.00  0.00     0.029 A 
ATOM     59  C   UNL A   1      47.435  26.415  26.650  1.00  0.00     0.049 A 
ATOM     60  H   UNL A   1      45.705  27.392  27.358  1.00  0.00     0.167 HD
ATOM     61  C   UNL A   1      48.178  28.755  27.025  1.00  0.00     0.074 A 
ATOM     62  C   UNL A   1      49.183  29.798  27.035  1.00  0.00     0.031 C 
ATOM     63  C   UNL A   1      48.415  27.473  26.648  1.00  0.00     0.037 A 
BRANCH  50  64
ATOM     64  C   UNL A   1      43.472  23.766  27.021  1.00  0.00     0.058 A 
ATOM     65  C   UNL A   1      43.281  22.882  28.093  1.00  0.00     0.135 A 
ATOM     66  C   UNL A   1      43.094  23.331  25.740  1.00  0.00     0.135 A 
ATOM     67  F   UNL A   1      43.646  23.237  29.335  1.00  0.00    -0.206 F 
ATOM     68  C   UNL A   1      42.765  21.604  27.899  1.00  0.00     0.059 A 
ATOM     69  C   UNL A   1      42.550  22.068  25.525  1.00  0.00     0.059 A 
ATOM     70  F   UNL A   1      43.259  24.135  24.676  1.00  0.00    -0.206 F 
ATOM     71  C   UNL A   1      42.406  21.204  26.609  1.00  0.00     0.060 A 
BRANCH  71  72
ATOM     72  S   UNL A   1      41.750  19.540  26.368  1.00  0.00     0.124 S 
ATOM     73  O   UNL A   1      42.468  19.114  25.171  1.00  0.00    -0.237 OA
ATOM     74  O   UNL A   1      42.132  18.870  27.607  1.00  0.00    -0.237 OA
ATOM     75  O   UNL A   1      40.317  19.760  26.195  1.00  0.00    -0.744 OA
ENDBRANCH  71  72
ENDBRANCH  50  64
BRANCH  51  76
ATOM     76  C   UNL A   1      46.902  33.067  28.442  1.00  0.00     0.058 A 
ATOM     77  C   UNL A   1      47.404  33.440  29.698  1.00  0.00     0.135 A 
ATOM     78  C   UNL A   1      46.911  34.035  27.425  1.00  0.00     0.135 A 
ATOM     79  F   UNL A   1      47.399  32.560  30.710  1.00  0.00    -0.206 F 
ATOM     80  C   UNL A   1      47.886  34.724  29.940  1.00  0.00     0.059 A 
ATOM     81  C   UNL A   1      47.413  35.317  27.635  1.00  0.00     0.059 A 
ATOM     82  F   UNL A   1      46.442  33.732  26.204  1.00  0.00    -0.206 F 
ATOM     83  C   UNL A   1      47.888  35.655  28.900  1.00  0.00     0.060 A 
BRANCH  83  84
ATOM     84  S   UNL A   1      48.553  37.306  29.213  1.00  0.00     0.124 S 
ATOM     85  O   UNL A   1      49.526  37.440  28.136  1.00  0.00    -0.237 OA
ATOM     86  O   UNL A   1      47.363  38.144  29.105  1.00  0.00    -0.237 OA
ATOM     87  O   UNL A   1      49.112  37.194  30.557  1.00  0.00    -0.744 OA
ENDBRANCH  83  84
ENDBRANCH  51  76
BRANCH  63  88
ATOM     88  C   UNL A   1      49.797  27.133  26.164  1.00  0.00     0.058 A 
ATOM     89  C   UNL A   1      50.797  26.681  27.037  1.00  0.00     0.135 A 
ATOM     90  C   UNL A   1      50.099  27.195  24.793  1.00  0.00     0.135 A 
ATOM     91  F   UNL A   1      50.560  26.608  28.356  1.00  0.00    -0.206 F 
ATOM     92  C   UNL A   1      52.056  26.316  26.570  1.00  0.00     0.059 A 
ATOM     93  C   UNL A   1      51.344  26.812  24.302  1.00  0.00     0.059 A 
ATOM     94  F   UNL A   1      49.174  27.609  23.915  1.00  0.00    -0.206 F 
ATOM     95  C   UNL A   1      52.319  26.382  25.201  1.00  0.00     0.060 A 
BRANCH  95  96
ATOM     96  S   UNL A   1      53.941  25.861  24.602  1.00  0.00     0.124 S 
ATOM     97  O   UNL A   1      53.874  24.416  24.788  1.00  0.00    -0.237 OA
ATOM     98  O   UNL A   1      53.929  26.323  23.218  1.00  0.00    -0.237 OA
ATOM     99  O   UNL A   1      54.870  26.566  25.481  1.00  0.00    -0.744 OA
ENDBRANCH  95  96
ENDBRANCH  63  88
ENDBRANCH  37  38
ENDBRANCH  30  32
ENDBRANCH  29  30
ENDBRANCH  28  29
ENDBRANCH  27  28
ENDBRANCH  26  27
ENDBRANCH  25  26
ENDBRANCH   1  25
TORSDOF 23
ENDMDL
MODEL 3
REMARK VINA RESULT:      -9.5      2.619      3.731
REMARK SMILES CN1CC(=O)N(CC(=O)N2CCCC[C@H]2C(=O)OCCOCCOCCOC(=O)c2ccc(-c3c4nc(c(-c5c(F)cc(S(=O)(=O)[O-])cc5F)c5ccc([nH]5)c(-c5c(F)cc(S(=O)(=O)[O-])cc5F)c5nc(c(-c6c(F)cc(S(=O)(=O)[O-])cc6F)c6ccc3[nH]6)C=C5)C=C4)cc2)C1=O
REMARK SMILES IDX 22 1 21 2 20 3 19 4 18 5 16 6 17 7 15 8 10 9 11 10 12 11
REMARK SMILES IDX 14 12 13 13 8 14 9 15 7 16 6 17 1 18 2 19 3 20 96 21 4 22
REMARK SMILES IDX 97 23 5 24 23 25 24 26 25 27 26 28 27 29 28 30 29 31 30 32
REMARK SMILES IDX 31 33 95 34 32 35 94 36 33 37 34 38 35 39 88 40 36 41 93 42
REMARK SMILES IDX 87 43 89 44 37 45 92 46 86 47 85 48 38 50 72 51 51 52 71 53
REMARK SMILES IDX 52 54 55 55 70 56 90 57 53 58 54 59 69 61 91 62 56 63 39 64
REMARK SMILES IDX 40 65 49 66 41 67 42 68 48 69 50 70 43 71 44 72 45 73 46 74
REMARK SMILES IDX 47 75 73 76 74 77 83 78 75 79 76 80 82 81 84 82 77 83 78 84
REMARK SMILES IDX 79 85 80 86 81 87 57 88 58 89 67 90 59 91 60 92 66 93 68 94
REMARK SMILES IDX 61 95 62 96 63 97 64 98 65 99
REMARK H PARENT 89 49 55 60
REMARK Flexibility Score: inf
ROOT
ATOM      1  C   UNL A   1      32.279  29.299  24.670  1.00  0.00     0.188 C 
ENDROOT
BRANCH   1   2
ATOM      2  O   UNL A   1      33.651  29.056  24.363  1.00  0.00    -0.376 OA
BRANCH   2   3
ATOM      3  C   UNL A   1      33.998  28.083  23.388  1.00  0.00     0.202 C 
BRANCH   3   4
ATOM      4  C   UNL A   1      33.542  26.650  23.677  1.00  0.00     0.261 C 
BRANCH   4   5
ATOM      5  O   UNL A   1      32.577  26.115  22.746  1.00  0.00    -0.462 OA
BRANCH   5   6
ATOM      6  C   UNL A   1      32.583  24.762  22.614  1.00  0.00     0.328 C 
ATOM      7  O   UNL A   1      33.438  24.135  22.002  1.00  0.00    -0.250 OA
BRANCH   6   8
ATOM      8  C   UNL A   1      31.334  24.084  23.215  1.00  0.00     0.195 C 
ATOM      9  N   UNL A   1      31.748  23.157  24.290  1.00  0.00    -0.327 N 
ATOM     10  C   UNL A   1      31.884  23.765  25.610  1.00  0.00     0.120 C 
ATOM     11  C   UNL A   1      30.629  24.486  26.063  1.00  0.00     0.022 C 
ATOM     12  C   UNL A   1      30.160  24.990  23.639  1.00  0.00     0.037 C 
ATOM     13  C   UNL A   1      30.218  25.547  25.058  1.00  0.00     0.005 C 
BRANCH   9  14
ATOM     14  C   UNL A   1      32.302  21.883  24.138  1.00  0.00     0.243 C 
ATOM     15  O   UNL A   1      32.200  21.304  23.046  1.00  0.00    -0.273 OA
BRANCH  14  16
ATOM     16  C   UNL A   1      32.876  21.046  25.303  1.00  0.00     0.230 C 
BRANCH  16  17
ATOM     17  N   UNL A   1      33.663  19.878  24.992  1.00  0.00    -0.253 N 
ATOM     18  C   UNL A   1      34.122  16.332  24.684  1.00  0.00     0.149 C 
ATOM     19  N   UNL A   1      34.232  17.767  24.615  1.00  0.00    -0.318 N 
ATOM     20  C   UNL A   1      35.493  18.463  24.636  1.00  0.00     0.221 C 
ATOM     21  C   UNL A   1      33.161  18.627  24.784  1.00  0.00     0.327 C 
ATOM     22  C   UNL A   1      35.022  19.890  24.854  1.00  0.00     0.250 C 
ATOM     23  O   UNL A   1      31.993  18.275  24.818  1.00  0.00    -0.248 OA
ATOM     24  O   UNL A   1      35.762  20.856  24.957  1.00  0.00    -0.272 OA
ENDBRANCH  16  17
ENDBRANCH  14  16
ENDBRANCH   9  14
ENDBRANCH   6   8
ENDBRANCH   5   6
ENDBRANCH   4   5
ENDBRANCH   3   4
ENDBRANCH   2   3
ENDBRANCH   1   2
BRANCH   1  25
ATOM     25  C   UNL A   1      31.733  28.761  25.991  1.00  0.00     0.188 C 
BRANCH  25  26
ATOM     26  O   UNL A   1      32.285  29.473  27.094  1.00  0.00    -0.376 OA
BRANCH  26  27
ATOM     27  C   UNL A   1      32.348  30.879  26.908  1.00  0.00     0.202 C 
BRANCH  27  28
ATOM     28  C   UNL A   1      33.550  31.490  27.635  1.00  0.00     0.261 C 
BRANCH  28  29
ATOM     29  O   UNL A   1      33.812  32.874  27.331  1.00  0.00    -0.460 OA
BRANCH  29  30
ATOM     30  C   UNL A   1      33.664  33.754  28.347  1.00  0.00     0.338 C 
ATOM     31  O   UNL A   1      32.698  34.465  28.555  1.00  0.00    -0.246 OA
BRANCH  30  32
ATOM     32  C   UNL A   1      34.803  33.598  29.275  1.00  0.00     0.060 A 
ATOM     33  C   UNL A   1      36.060  34.060  28.878  1.00  0.00     0.016 A 
ATOM     34  C   UNL A   1      34.651  32.946  30.498  1.00  0.00     0.016 A 
ATOM     35  C   UNL A   1      37.180  33.870  29.689  1.00  0.00     0.010 A 
ATOM     36  C   UNL A   1      35.777  32.732  31.302  1.00  0.00     0.010 A 
ATOM     37  C   UNL A   1      37.052  33.169  30.894  1.00  0.00    -0.014 A 
BRANCH  37  38
ATOM     38  C   UNL A   1      38.255  32.719  31.643  1.00  0.00     0.031 A 
ATOM     39  C   UNL A   1      39.057  31.577  31.080  1.00  0.00     0.074 A 
ATOM     40  C   UNL A   1      38.639  33.301  32.795  1.00  0.00     0.049 A 
ATOM     41  N   UNL A   1      39.978  30.843  31.644  1.00  0.00    -0.248 NA
ATOM     42  C   UNL A   1      38.767  31.211  29.683  1.00  0.00     0.031 C 
ATOM     43  C   UNL A   1      38.022  34.481  33.397  1.00  0.00     0.029 A 
ATOM     44  N   UNL A   1      39.639  32.959  33.674  1.00  0.00    -0.354 N 
ATOM     45  C   UNL A   1      40.343  29.897  30.692  1.00  0.00     0.074 A 
ATOM     46  C   UNL A   1      39.545  30.153  29.513  1.00  0.00     0.031 C 
ATOM     47  C   UNL A   1      38.647  34.757  34.555  1.00  0.00     0.029 A 
ATOM     48  C   UNL A   1      39.660  33.735  34.810  1.00  0.00     0.049 A 
ATOM     49  H   UNL A   1      40.278  32.230  33.506  1.00  0.00     0.167 HD
ATOM     50  C   UNL A   1      41.253  28.900  30.800  1.00  0.00     0.037 A 
ATOM     51  C   UNL A   1      40.379  33.602  35.944  1.00  0.00     0.037 A 
ATOM     52  C   UNL A   1      42.064  28.680  31.969  1.00  0.00     0.049 A 
ATOM     53  C   UNL A   1      41.338  32.446  36.074  1.00  0.00     0.074 A 
ATOM     54  C   UNL A   1      43.002  27.688  32.195  1.00  0.00     0.029 A 
ATOM     55  N   UNL A   1      42.040  29.475  33.105  1.00  0.00    -0.354 N 
ATOM     56  N   UNL A   1      41.621  31.503  35.204  1.00  0.00    -0.248 NA
ATOM     57  C   UNL A   1      42.064  32.320  37.347  1.00  0.00     0.031 C 
ATOM     58  C   UNL A   1      43.520  27.864  33.483  1.00  0.00     0.029 A 
ATOM     59  C   UNL A   1      42.940  28.992  34.041  1.00  0.00     0.049 A 
ATOM     60  H   UNL A   1      41.468  30.267  33.229  1.00  0.00     0.167 HD
ATOM     61  C   UNL A   1      42.575  30.693  35.813  1.00  0.00     0.074 A 
ATOM     62  C   UNL A   1      42.826  31.258  37.123  1.00  0.00     0.031 C 
ATOM     63  C   UNL A   1      43.189  29.583  35.333  1.00  0.00     0.037 A 
BRANCH  50  64
ATOM     64  C   UNL A   1      41.377  27.944  29.646  1.00  0.00     0.058 A 
ATOM     65  C   UNL A   1      40.406  26.970  29.372  1.00  0.00     0.135 A 
ATOM     66  C   UNL A   1      42.493  28.011  28.795  1.00  0.00     0.135 A 
ATOM     67  F   UNL A   1      39.330  26.847  30.166  1.00  0.00    -0.206 F 
ATOM     68  C   UNL A   1      40.549  26.076  28.316  1.00  0.00     0.059 A 
ATOM     69  C   UNL A   1      42.645  27.145  27.716  1.00  0.00     0.059 A 
ATOM     70  F   UNL A   1      43.456  28.921  29.012  1.00  0.00    -0.206 F 
ATOM     71  C   UNL A   1      41.676  26.168  27.495  1.00  0.00     0.060 A 
BRANCH  71  72
ATOM     72  S   UNL A   1      41.858  24.994  26.137  1.00  0.00     0.124 S 
ATOM     73  O   UNL A   1      40.911  23.952  26.523  1.00  0.00    -0.237 OA
ATOM     74  O   UNL A   1      41.480  25.794  24.976  1.00  0.00    -0.237 OA
ATOM     75  O   UNL A   1      43.267  24.615  26.200  1.00  0.00    -0.744 OA
ENDBRANCH  71  72
ENDBRANCH  50  64
BRANCH  51  76
ATOM     76  C   UNL A   1      40.183  34.557  37.071  1.00  0.00     0.058 A 
ATOM     77  C   UNL A   1      39.229  34.316  38.071  1.00  0.00     0.135 A 
ATOM     78  C   UNL A   1      40.940  35.736  37.166  1.00  0.00     0.135 A 
ATOM     79  F   UNL A   1      38.465  33.215  38.017  1.00  0.00    -0.206 F 
ATOM     80  C   UNL A   1      39.026  35.211  39.118  1.00  0.00     0.059 A 
ATOM     81  C   UNL A   1      40.775  36.633  38.218  1.00  0.00     0.059 A 
ATOM     82  F   UNL A   1      41.867  36.016  36.236  1.00  0.00    -0.206 F 
ATOM     83  C   UNL A   1      39.806  36.367  39.184  1.00  0.00     0.060 A 
BRANCH  83  84
ATOM     84  S   UNL A   1      39.563  37.503  40.567  1.00  0.00     0.124 S 
ATOM     85  O   UNL A   1      38.275  38.100  40.235  1.00  0.00    -0.237 OA
ATOM     86  O   UNL A   1      39.571  36.600  41.714  1.00  0.00    -0.237 OA
ATOM     87  O   UNL A   1      40.715  38.396  40.476  1.00  0.00    -0.744 OA
ENDBRANCH  83  84
ENDBRANCH  51  76
BRANCH  63  88
ATOM     88  C   UNL A   1      44.229  28.931  36.200  1.00  0.00     0.058 A 
ATOM     89  C   UNL A   1      45.534  29.434  36.297  1.00  0.00     0.135 A 
ATOM     90  C   UNL A   1      43.890  27.826  37.000  1.00  0.00     0.135 A 
ATOM     91  F   UNL A   1      45.910  30.485  35.550  1.00  0.00    -0.206 F 
ATOM     92  C   UNL A   1      46.474  28.856  37.144  1.00  0.00     0.059 A 
ATOM     93  C   UNL A   1      44.807  27.247  37.872  1.00  0.00     0.059 A 
ATOM     94  F   UNL A   1      42.651  27.313  36.954  1.00  0.00    -0.206 F 
ATOM     95  C   UNL A   1      46.100  27.764  37.930  1.00  0.00     0.060 A 
BRANCH  95  96
ATOM     96  S   UNL A   1      47.314  27.052  39.061  1.00  0.00     0.124 S 
ATOM     97  O   UNL A   1      46.792  27.471  40.357  1.00  0.00    -0.237 OA
ATOM     98  O   UNL A   1      47.217  25.625  38.769  1.00  0.00    -0.237 OA
ATOM     99  O   UNL A   1      48.568  27.682  38.655  1.00  0.00    -0.744 OA
ENDBRANCH  95  96
ENDBRANCH  63  88
ENDBRANCH  37  38
ENDBRANCH  30  32
ENDBRANCH  29  30
ENDBRANCH  28  29
ENDBRANCH  27  28
ENDBRANCH  26  27
ENDBRANCH  25  26
ENDBRANCH   1  25
TORSDOF 23
ENDMDL
