MODEL 1
REMARK VINA RESULT:     -12.6      0.000      0.000
REMARK SMILES Cc1cccc(-n2c(C)cc(/C=N\c3ccc(O)c(C(=O)OCCOCCOCCOC(=O)c4ccc(-c5c6nc(c(-c7c(F)cc(S(=O)(=O)[O-])cc7F)c7ccc([nH]7)c(-c7c(F)cc(S(=O)(=O)[O-])cc7F)c7nc(c(-c8c(F)cc(S(=O)(=O)[O-])cc8F)c8ccc5[nH]8)C=C7)C=C6)cc4)c3)c2C)c1
REMARK SMILES IDX 26 1 25 2 24 3 23 4 22 5 20 6 21 7 19 8 14 9 15 10 100 11
REMARK SMILES IDX 16 12 17 13 13 14 12 15 11 16 7 17 8 18 101 19 9 20 10 21
REMARK SMILES IDX 102 22 6 23 1 24 2 25 3 26 103 27 4 28 5 29 18 30 27 32
REMARK SMILES IDX 28 33 29 34 30 35 31 36 32 37 33 38 34 39 35 40 99 41 36 42
REMARK SMILES IDX 98 43 37 44 38 45 39 46 92 47 40 48 97 49 91 50 93 51 41 52
REMARK SMILES IDX 96 53 90 54 89 55 42 57 76 58 55 59 75 60 56 61 59 62 74 63
REMARK SMILES IDX 94 64 57 65 58 66 73 68 95 69 60 70 43 71 44 72 53 73 45 74
REMARK SMILES IDX 46 75 52 76 54 77 47 78 48 79 49 80 50 81 51 82 77 83 78 84
REMARK SMILES IDX 87 85 79 86 80 87 86 88 88 89 81 90 82 91 83 92 84 93 85 94
REMARK SMILES IDX 61 95 62 96 71 97 63 98 64 99 70 100 72 101 65 102 66 103
REMARK SMILES IDX 67 104 68 105 69 106
REMARK H PARENT 18 31 93 56 59 67
REMARK Flexibility Score: inf
ROOT
ATOM      1  C   UNL A   1      32.813  26.191  22.801  1.00  0.00     0.188 C 
ENDROOT
BRANCH   1   2
ATOM      2  O   UNL A   1      33.069  25.311  23.917  1.00  0.00    -0.376 OA
BRANCH   2   3
ATOM      3  C   UNL A   1      33.301  25.764  25.260  1.00  0.00     0.202 C 
BRANCH   3   4
ATOM      4  C   UNL A   1      32.125  25.971  26.366  1.00  0.00     0.261 C 
BRANCH   4   5
ATOM      5  O   UNL A   1      30.879  25.107  26.363  1.00  0.00    -0.460 OA
BRANCH   5   6
ATOM      6  C   UNL A   1      30.709  23.758  26.443  1.00  0.00     0.342 C 
ATOM      7  O   UNL A   1      30.151  23.255  27.417  1.00  0.00    -0.246 OA
BRANCH   6   8
ATOM      8  C   UNL A   1      31.378  22.768  25.357  1.00  0.00     0.103 A 
ATOM      9  C   UNL A   1      32.852  20.875  24.411  1.00  0.00     0.064 A 
ATOM     10  C   UNL A   1      32.389  21.153  23.142  1.00  0.00     0.032 A 
ATOM     11  C   UNL A   1      32.289  21.661  25.483  1.00  0.00     0.048 A 
ATOM     12  C   UNL A   1      31.488  22.208  22.955  1.00  0.00     0.049 A 
ATOM     13  C   UNL A   1      31.025  23.006  24.024  1.00  0.00     0.130 A 
BRANCH   9  14
ATOM     14  N   UNL A   1      33.682  19.743  24.633  1.00  0.00    -0.256 NA
ATOM     15  C   UNL A   1      34.966  19.658  24.892  1.00  0.00     0.121 C 
BRANCH  15  16
ATOM     16  C   UNL A   1      35.993  20.654  25.238  1.00  0.00     0.014 A 
ATOM     17  N   UNL A   1      38.020  21.628  25.563  1.00  0.00    -0.318 N 
ATOM     18  C   UNL A   1      37.091  22.641  25.689  1.00  0.00     0.021 A 
ATOM     19  C   UNL A   1      37.358  20.454  25.265  1.00  0.00     0.029 A 
ATOM     20  C   UNL A   1      37.496  24.051  25.965  1.00  0.00     0.065 C 
ATOM     21  C   UNL A   1      35.842  22.074  25.447  1.00  0.00     0.033 A 
ATOM     22  C   UNL A   1      38.078  19.197  25.015  1.00  0.00     0.065 C 
BRANCH  17  23
ATOM     23  C   UNL A   1      39.398  21.657  25.891  1.00  0.00     0.046 A 
ATOM     24  C   UNL A   1      41.267  23.582  28.569  1.00  0.00     0.044 C 
ATOM     25  C   UNL A   1      40.888  22.518  27.585  1.00  0.00    -0.049 A 
ATOM     26  C   UNL A   1      41.543  21.277  27.610  1.00  0.00     0.003 A 
ATOM     27  C   UNL A   1      39.815  22.712  26.708  1.00  0.00     0.030 A 
ATOM     28  C   UNL A   1      41.175  20.257  26.729  1.00  0.00     0.002 A 
ATOM     29  C   UNL A   1      40.114  20.452  25.849  1.00  0.00     0.026 A 
ENDBRANCH  17  23
ENDBRANCH  15  16
ENDBRANCH   9  14
BRANCH  13  30
ATOM     30  O   UNL A   1      30.192  24.032  23.648  1.00  0.00    -0.507 OA
ATOM     31  H   UNL A   1      30.029  24.194  22.740  1.00  0.00     0.293 HD
ENDBRANCH  13  30
ENDBRANCH   6   8
ENDBRANCH   5   6
ENDBRANCH   4   5
ENDBRANCH   3   4
ENDBRANCH   2   3
ENDBRANCH   1   2
BRANCH   1  32
ATOM     32  C   UNL A   1      31.507  26.951  22.591  1.00  0.00     0.188 C 
BRANCH  32  33
ATOM     33  O   UNL A   1      31.553  28.209  23.243  1.00  0.00    -0.376 OA
BRANCH  33  34
ATOM     34  C   UNL A   1      32.732  28.967  23.034  1.00  0.00     0.202 C 
BRANCH  34  35
ATOM     35  C   UNL A   1      33.492  29.328  24.328  1.00  0.00     0.261 C 
BRANCH  35  36
ATOM     36  O   UNL A   1      32.690  29.100  25.516  1.00  0.00    -0.460 OA
BRANCH  36  37
ATOM     37  C   UNL A   1      32.453  30.176  26.361  1.00  0.00     0.338 C 
ATOM     38  O   UNL A   1      31.410  30.760  26.382  1.00  0.00    -0.246 OA
BRANCH  37  39
ATOM     39  C   UNL A   1      33.593  30.350  27.343  1.00  0.00     0.060 A 
ATOM     40  C   UNL A   1      34.062  31.540  27.921  1.00  0.00     0.016 A 
ATOM     41  C   UNL A   1      34.333  29.244  27.604  1.00  0.00     0.016 A 
ATOM     42  C   UNL A   1      35.346  31.611  28.619  1.00  0.00     0.010 A 
ATOM     43  C   UNL A   1      35.640  29.432  28.037  1.00  0.00     0.010 A 
ATOM     44  C   UNL A   1      36.241  30.538  28.649  1.00  0.00    -0.014 A 
BRANCH  44  45
ATOM     45  C   UNL A   1      37.751  30.450  29.108  1.00  0.00     0.031 A 
ATOM     46  C   UNL A   1      38.799  29.295  28.915  1.00  0.00     0.074 A 
ATOM     47  C   UNL A   1      38.361  31.586  29.494  1.00  0.00     0.049 A 
ATOM     48  N   UNL A   1      39.922  29.333  28.237  1.00  0.00    -0.248 NA
ATOM     49  C   UNL A   1      38.653  27.973  29.521  1.00  0.00     0.031 C 
ATOM     50  C   UNL A   1      39.791  31.863  29.624  1.00  0.00     0.029 A 
ATOM     51  N   UNL A   1      37.762  32.686  30.095  1.00  0.00    -0.354 N 
ATOM     52  C   UNL A   1      40.470  28.055  28.117  1.00  0.00     0.074 A 
ATOM     53  C   UNL A   1      39.557  27.216  28.885  1.00  0.00     0.031 C 
ATOM     54  C   UNL A   1      39.954  32.800  30.571  1.00  0.00     0.029 A 
ATOM     55  C   UNL A   1      38.640  33.049  31.136  1.00  0.00     0.049 A 
ATOM     56  H   UNL A   1      36.912  33.116  29.848  1.00  0.00     0.167 HD
ATOM     57  C   UNL A   1      41.816  27.824  28.224  1.00  0.00     0.037 A 
ATOM     58  C   UNL A   1      38.221  32.759  32.402  1.00  0.00     0.037 A 
ATOM     59  C   UNL A   1      42.381  28.626  29.282  1.00  0.00     0.049 A 
ATOM     60  C   UNL A   1      39.011  31.602  32.995  1.00  0.00     0.074 A 
ATOM     61  C   UNL A   1      42.987  29.861  29.376  1.00  0.00     0.029 A 
ATOM     62  N   UNL A   1      42.045  28.258  30.568  1.00  0.00    -0.354 N 
ATOM     63  N   UNL A   1      39.917  30.923  32.335  1.00  0.00    -0.248 NA
ATOM     64  C   UNL A   1      38.879  31.123  34.368  1.00  0.00     0.031 C 
ATOM     65  C   UNL A   1      42.782  30.320  30.718  1.00  0.00     0.029 A 
ATOM     66  C   UNL A   1      42.105  29.337  31.423  1.00  0.00     0.049 A 
ATOM     67  H   UNL A   1      41.794  27.346  30.839  1.00  0.00     0.167 HD
ATOM     68  C   UNL A   1      40.505  30.001  33.146  1.00  0.00     0.074 A 
ATOM     69  C   UNL A   1      39.800  30.140  34.408  1.00  0.00     0.031 C 
ATOM     70  C   UNL A   1      41.537  29.200  32.755  1.00  0.00     0.037 A 
BRANCH  57  71
ATOM     71  C   UNL A   1      42.547  26.767  27.413  1.00  0.00     0.058 A 
ATOM     72  C   UNL A   1      42.002  26.264  26.209  1.00  0.00     0.135 A 
ATOM     73  C   UNL A   1      43.747  26.143  27.824  1.00  0.00     0.135 A 
ATOM     74  F   UNL A   1      40.856  26.759  25.717  1.00  0.00    -0.206 F 
ATOM     75  C   UNL A   1      42.581  25.208  25.487  1.00  0.00     0.059 A 
ATOM     76  C   UNL A   1      44.347  25.086  27.116  1.00  0.00     0.059 A 
ATOM     77  F   UNL A   1      44.375  26.538  28.944  1.00  0.00    -0.206 F 
ATOM     78  C   UNL A   1      43.747  24.610  25.955  1.00  0.00     0.060 A 
BRANCH  78  79
ATOM     79  S   UNL A   1      44.430  23.192  25.056  1.00  0.00     0.124 S 
ATOM     80  O   UNL A   1      43.225  22.545  24.546  1.00  0.00    -0.237 OA
ATOM     81  O   UNL A   1      45.274  23.833  24.053  1.00  0.00    -0.237 OA
ATOM     82  O   UNL A   1      45.148  22.444  26.085  1.00  0.00    -0.744 OA
ENDBRANCH  78  79
ENDBRANCH  57  71
BRANCH  58  83
ATOM     83  C   UNL A   1      36.772  33.158  32.547  1.00  0.00     0.058 A 
ATOM     84  C   UNL A   1      36.535  34.548  32.736  1.00  0.00     0.135 A 
ATOM     85  C   UNL A   1      35.695  32.409  32.060  1.00  0.00     0.135 A 
ATOM     86  F   UNL A   1      37.518  35.334  33.211  1.00  0.00    -0.206 F 
ATOM     87  C   UNL A   1      35.396  35.188  32.257  1.00  0.00     0.059 A 
ATOM     88  C   UNL A   1      34.503  33.031  31.635  1.00  0.00     0.059 A 
ATOM     89  F   UNL A   1      35.829  31.091  31.846  1.00  0.00    -0.206 F 
ATOM     90  C   UNL A   1      34.407  34.425  31.653  1.00  0.00     0.060 A 
BRANCH  90  91
ATOM     91  S   UNL A   1      33.090  35.313  30.777  1.00  0.00     0.124 S 
ATOM     92  O   UNL A   1      33.695  36.625  30.565  1.00  0.00    -0.237 OA
ATOM     93  O   UNL A   1      32.929  34.495  29.575  1.00  0.00    -0.237 OA
ATOM     94  O   UNL A   1      31.982  35.281  31.723  1.00  0.00    -0.744 OA
ENDBRANCH  90  91
ENDBRANCH  58  83
BRANCH  70  95
ATOM     95  C   UNL A   1      42.113  28.199  33.692  1.00  0.00     0.058 A 
ATOM     96  C   UNL A   1      43.440  28.308  34.123  1.00  0.00     0.135 A 
ATOM     97  C   UNL A   1      41.383  27.068  34.100  1.00  0.00     0.135 A 
ATOM     98  F   UNL A   1      44.194  29.352  33.742  1.00  0.00    -0.206 F 
ATOM     99  C   UNL A   1      44.010  27.359  34.960  1.00  0.00     0.059 A 
ATOM    100  C   UNL A   1      41.945  26.083  34.901  1.00  0.00     0.059 A 
ATOM    101  F   UNL A   1      40.099  26.908  33.735  1.00  0.00    -0.206 F 
ATOM    102  C   UNL A   1      43.251  26.254  35.349  1.00  0.00     0.060 A 
BRANCH 102 103
ATOM    103  S   UNL A   1      43.975  25.032  36.457  1.00  0.00     0.124 S 
ATOM    104  O   UNL A   1      43.707  23.771  35.771  1.00  0.00    -0.237 OA
ATOM    105  O   UNL A   1      45.370  25.457  36.474  1.00  0.00    -0.237 OA
ATOM    106  O   UNL A   1      43.235  25.234  37.698  1.00  0.00    -0.744 OA
ENDBRANCH 102 103
ENDBRANCH  70  95
ENDBRANCH  44  45
ENDBRANCH  37  39
ENDBRANCH  36  37
ENDBRANCH  35  36
ENDBRANCH  34  35
ENDBRANCH  33  34
ENDBRANCH  32  33
ENDBRANCH   1  32
TORSDOF 24
ENDMDL
MODEL 2
REMARK VINA RESULT:     -10.8      3.821     10.148
REMARK SMILES Cc1cccc(-n2c(C)cc(/C=N\c3ccc(O)c(C(=O)OCCOCCOCCOC(=O)c4ccc(-c5c6nc(c(-c7c(F)cc(S(=O)(=O)[O-])cc7F)c7ccc([nH]7)c(-c7c(F)cc(S(=O)(=O)[O-])cc7F)c7nc(c(-c8c(F)cc(S(=O)(=O)[O-])cc8F)c8ccc5[nH]8)C=C7)C=C6)cc4)c3)c2C)c1
REMARK SMILES IDX 26 1 25 2 24 3 23 4 22 5 20 6 21 7 19 8 14 9 15 10 100 11
REMARK SMILES IDX 16 12 17 13 13 14 12 15 11 16 7 17 8 18 101 19 9 20 10 21
REMARK SMILES IDX 102 22 6 23 1 24 2 25 3 26 103 27 4 28 5 29 18 30 27 32
REMARK SMILES IDX 28 33 29 34 30 35 31 36 32 37 33 38 34 39 35 40 99 41 36 42
REMARK SMILES IDX 98 43 37 44 38 45 39 46 92 47 40 48 97 49 91 50 93 51 41 52
REMARK SMILES IDX 96 53 90 54 89 55 42 57 76 58 55 59 75 60 56 61 59 62 74 63
REMARK SMILES IDX 94 64 57 65 58 66 73 68 95 69 60 70 43 71 44 72 53 73 45 74
REMARK SMILES IDX 46 75 52 76 54 77 47 78 48 79 49 80 50 81 51 82 77 83 78 84
REMARK SMILES IDX 87 85 79 86 80 87 86 88 88 89 81 90 82 91 83 92 84 93 85 94
REMARK SMILES IDX 61 95 62 96 71 97 63 98 64 99 70 100 72 101 65 102 66 103
REMARK SMILES IDX 67 104 68 105 69 106
REMARK H PARENT 18 31 93 56 59 67
REMARK Flexibility Score: inf
ROOT
ATOM      1  C   UNL A   1      40.417  19.165  26.418  1.00  0.00     0.188 C 
ENDROOT
BRANCH   1   2
ATOM      2  O   UNL A   1      39.395  18.914  25.431  1.00  0.00    -0.376 OA
BRANCH   2   3
ATOM      3  C   UNL A   1      38.740  19.942  24.672  1.00  0.00     0.202 C 
BRANCH   3   4
ATOM      4  C   UNL A   1      37.309  20.603  25.082  1.00  0.00     0.261 C 
BRANCH   4   5
ATOM      5  O   UNL A   1      37.059  22.092  24.941  1.00  0.00    -0.460 OA
BRANCH   5   6
ATOM      6  C   UNL A   1      36.107  22.908  25.474  1.00  0.00     0.342 C 
ATOM      7  O   UNL A   1      36.421  23.812  26.245  1.00  0.00    -0.246 OA
BRANCH   6   8
ATOM      8  C   UNL A   1      34.536  22.611  25.251  1.00  0.00     0.103 A 
ATOM      9  C   UNL A   1      32.144  22.875  24.323  1.00  0.00     0.064 A 
ATOM     10  C   UNL A   1      31.735  21.798  25.080  1.00  0.00     0.032 A 
ATOM     11  C   UNL A   1      33.545  23.212  24.397  1.00  0.00     0.048 A 
ATOM     12  C   UNL A   1      32.655  21.158  25.919  1.00  0.00     0.049 A 
ATOM     13  C   UNL A   1      34.001  21.573  26.022  1.00  0.00     0.130 A 
BRANCH   9  14
ATOM     14  N   UNL A   1      31.252  23.468  23.389  1.00  0.00    -0.256 NA
ATOM     15  C   UNL A   1      31.005  24.728  23.118  1.00  0.00     0.121 C 
BRANCH  15  16
ATOM     16  C   UNL A   1      31.654  25.990  23.509  1.00  0.00     0.014 A 
ATOM     17  N   UNL A   1      32.477  27.679  24.786  1.00  0.00    -0.318 N 
ATOM     18  C   UNL A   1      32.947  27.909  23.510  1.00  0.00     0.021 A 
ATOM     19  C   UNL A   1      31.732  26.516  24.782  1.00  0.00     0.029 A 
ATOM     20  C   UNL A   1      33.829  29.071  23.193  1.00  0.00     0.065 C 
ATOM     21  C   UNL A   1      32.492  26.858  22.717  1.00  0.00     0.033 A 
ATOM     22  C   UNL A   1      31.137  25.968  26.009  1.00  0.00     0.065 C 
BRANCH  17  23
ATOM     23  C   UNL A   1      32.514  28.547  25.905  1.00  0.00     0.046 A 
ATOM     24  C   UNL A   1      35.444  29.866  27.918  1.00  0.00     0.044 C 
ATOM     25  C   UNL A   1      34.101  29.760  27.263  1.00  0.00    -0.049 A 
ATOM     26  C   UNL A   1      33.263  30.884  27.201  1.00  0.00     0.003 A 
ATOM     27  C   UNL A   1      33.716  28.579  26.620  1.00  0.00     0.030 A 
ATOM     28  C   UNL A   1      32.025  30.817  26.558  1.00  0.00     0.002 A 
ATOM     29  C   UNL A   1      31.636  29.639  25.926  1.00  0.00     0.026 A 
ENDBRANCH  17  23
ENDBRANCH  15  16
ENDBRANCH   9  14
BRANCH  13  30
ATOM     30  O   UNL A   1      34.744  20.869  26.937  1.00  0.00    -0.507 OA
ATOM     31  H   UNL A   1      34.882  21.216  27.796  1.00  0.00     0.293 HD
ENDBRANCH  13  30
ENDBRANCH   6   8
ENDBRANCH   5   6
ENDBRANCH   4   5
ENDBRANCH   3   4
ENDBRANCH   2   3
ENDBRANCH   1   2
BRANCH   1  32
ATOM     32  C   UNL A   1      41.757  19.828  26.115  1.00  0.00     0.188 C 
BRANCH  32  33
ATOM     33  O   UNL A   1      41.702  21.216  26.398  1.00  0.00    -0.376 OA
BRANCH  33  34
ATOM     34  C   UNL A   1      40.852  21.592  27.468  1.00  0.00     0.202 C 
BRANCH  34  35
ATOM     35  C   UNL A   1      39.817  22.677  27.106  1.00  0.00     0.261 C 
BRANCH  35  36
ATOM     36  O   UNL A   1      40.139  23.961  27.701  1.00  0.00    -0.460 OA
BRANCH  36  37
ATOM     37  C   UNL A   1      40.721  24.929  26.892  1.00  0.00     0.338 C 
ATOM     38  O   UNL A   1      41.005  24.727  25.749  1.00  0.00    -0.246 OA
BRANCH  37  39
ATOM     39  C   UNL A   1      40.748  26.271  27.594  1.00  0.00     0.060 A 
ATOM     40  C   UNL A   1      41.842  27.133  27.770  1.00  0.00     0.016 A 
ATOM     41  C   UNL A   1      39.611  26.632  28.240  1.00  0.00     0.016 A 
ATOM     42  C   UNL A   1      41.806  28.251  28.714  1.00  0.00     0.010 A 
ATOM     43  C   UNL A   1      39.728  27.530  29.294  1.00  0.00     0.010 A 
ATOM     44  C   UNL A   1      40.733  28.460  29.585  1.00  0.00    -0.014 A 
BRANCH  44  45
ATOM     45  C   UNL A   1      40.572  29.418  30.832  1.00  0.00     0.031 A 
ATOM     46  C   UNL A   1      39.764  30.758  30.977  1.00  0.00     0.074 A 
ATOM     47  C   UNL A   1      40.938  28.951  32.040  1.00  0.00     0.049 A 
ATOM     48  N   UNL A   1      38.744  31.000  31.766  1.00  0.00    -0.248 NA
ATOM     49  C   UNL A   1      40.084  31.970  30.226  1.00  0.00     0.031 C 
ATOM     50  C   UNL A   1      40.586  29.455  33.366  1.00  0.00     0.029 A 
ATOM     51  N   UNL A   1      41.937  28.021  32.301  1.00  0.00    -0.354 N 
ATOM     52  C   UNL A   1      38.160  32.229  31.455  1.00  0.00     0.074 A 
ATOM     53  C   UNL A   1      39.013  32.757  30.397  1.00  0.00     0.031 C 
ATOM     54  C   UNL A   1      41.582  29.148  34.211  1.00  0.00     0.029 A 
ATOM     55  C   UNL A   1      42.632  28.544  33.411  1.00  0.00     0.049 A 
ATOM     56  H   UNL A   1      42.120  27.183  31.818  1.00  0.00     0.167 HD
ATOM     57  C   UNL A   1      37.710  33.090  32.422  1.00  0.00     0.037 A 
ATOM     58  C   UNL A   1      43.870  29.058  33.156  1.00  0.00     0.037 A 
ATOM     59  C   UNL A   1      38.629  33.122  33.533  1.00  0.00     0.049 A 
ATOM     60  C   UNL A   1      43.867  30.577  33.244  1.00  0.00     0.074 A 
ATOM     61  C   UNL A   1      38.753  32.462  34.738  1.00  0.00     0.029 A 
ATOM     62  N   UNL A   1      39.838  33.744  33.304  1.00  0.00    -0.354 N 
ATOM     63  N   UNL A   1      42.791  31.293  33.456  1.00  0.00    -0.248 NA
ATOM     64  C   UNL A   1      45.056  31.418  33.132  1.00  0.00     0.031 C 
ATOM     65  C   UNL A   1      40.141  32.510  35.094  1.00  0.00     0.029 A 
ATOM     66  C   UNL A   1      40.819  33.241  34.129  1.00  0.00     0.049 A 
ATOM     67  H   UNL A   1      39.981  34.454  32.637  1.00  0.00     0.167 HD
ATOM     68  C   UNL A   1      43.110  32.612  33.560  1.00  0.00     0.074 A 
ATOM     69  C   UNL A   1      44.542  32.649  33.318  1.00  0.00     0.031 C 
ATOM     70  C   UNL A   1      42.204  33.588  33.855  1.00  0.00     0.037 A 
BRANCH  57  71
ATOM     71  C   UNL A   1      36.480  33.967  32.250  1.00  0.00     0.058 A 
ATOM     72  C   UNL A   1      35.982  34.743  33.321  1.00  0.00     0.135 A 
ATOM     73  C   UNL A   1      35.696  34.008  31.075  1.00  0.00     0.135 A 
ATOM     74  F   UNL A   1      36.624  34.776  34.499  1.00  0.00    -0.206 F 
ATOM     75  C   UNL A   1      34.786  35.476  33.247  1.00  0.00     0.059 A 
ATOM     76  C   UNL A   1      34.498  34.738  30.975  1.00  0.00     0.059 A 
ATOM     77  F   UNL A   1      36.068  33.327  29.979  1.00  0.00    -0.206 F 
ATOM     78  C   UNL A   1      34.038  35.457  32.074  1.00  0.00     0.060 A 
BRANCH  78  79
ATOM     79  S   UNL A   1      32.455  36.338  32.027  1.00  0.00     0.124 S 
ATOM     80  O   UNL A   1      31.548  35.370  32.637  1.00  0.00    -0.237 OA
ATOM     81  O   UNL A   1      32.735  37.529  32.823  1.00  0.00    -0.237 OA
ATOM     82  O   UNL A   1      32.237  36.582  30.603  1.00  0.00    -0.744 OA
ENDBRANCH  78  79
ENDBRANCH  57  71
BRANCH  58  83
ATOM     83  C   UNL A   1      44.622  28.112  32.251  1.00  0.00     0.058 A 
ATOM     84  C   UNL A   1      44.890  28.600  30.941  1.00  0.00     0.135 A 
ATOM     85  C   UNL A   1      45.445  27.074  32.702  1.00  0.00     0.135 A 
ATOM     86  F   UNL A   1      44.136  29.590  30.431  1.00  0.00    -0.206 F 
ATOM     87  C   UNL A   1      46.032  28.250  30.228  1.00  0.00     0.059 A 
ATOM     88  C   UNL A   1      46.568  26.654  31.961  1.00  0.00     0.059 A 
ATOM     89  F   UNL A   1      45.269  26.555  33.927  1.00  0.00    -0.206 F 
ATOM     90  C   UNL A   1      46.899  27.315  30.774  1.00  0.00     0.060 A 
BRANCH  90  91
ATOM     91  S   UNL A   1      48.513  27.108  29.972  1.00  0.00     0.124 S 
ATOM     92  O   UNL A   1      48.488  28.161  28.961  1.00  0.00    -0.237 OA
ATOM     93  O   UNL A   1      49.430  27.332  31.089  1.00  0.00    -0.237 OA
ATOM     94  O   UNL A   1      48.456  25.746  29.457  1.00  0.00    -0.744 OA
ENDBRANCH  90  91
ENDBRANCH  58  83
BRANCH  70  95
ATOM     95  C   UNL A   1      42.626  35.013  33.928  1.00  0.00     0.058 A 
ATOM     96  C   UNL A   1      42.550  35.717  35.135  1.00  0.00     0.135 A 
ATOM     97  C   UNL A   1      43.021  35.723  32.780  1.00  0.00     0.135 A 
ATOM     98  F   UNL A   1      42.151  35.098  36.258  1.00  0.00    -0.206 F 
ATOM     99  C   UNL A   1      42.894  37.059  35.213  1.00  0.00     0.059 A 
ATOM    100  C   UNL A   1      43.327  37.076  32.825  1.00  0.00     0.059 A 
ATOM    101  F   UNL A   1      43.129  35.105  31.591  1.00  0.00    -0.206 F 
ATOM    102  C   UNL A   1      43.288  37.727  34.054  1.00  0.00     0.060 A 
BRANCH 102 103
ATOM    103  S   UNL A   1      43.762  39.462  34.152  1.00  0.00     0.124 S 
ATOM    104  O   UNL A   1      43.950  39.669  35.585  1.00  0.00    -0.237 OA
ATOM    105  O   UNL A   1      44.980  39.468  33.349  1.00  0.00    -0.237 OA
ATOM    106  O   UNL A   1      42.615  40.150  33.570  1.00  0.00    -0.744 OA
ENDBRANCH 102 103
ENDBRANCH  70  95
ENDBRANCH  44  45
ENDBRANCH  37  39
ENDBRANCH  36  37
ENDBRANCH  35  36
ENDBRANCH  34  35
ENDBRANCH  33  34
ENDBRANCH  32  33
ENDBRANCH   1  32
TORSDOF 24
ENDMDL
MODEL 3
REMARK VINA RESULT:     -10.6      1.289      2.029
REMARK SMILES Cc1cccc(-n2c(C)cc(/C=N\c3ccc(O)c(C(=O)OCCOCCOCCOC(=O)c4ccc(-c5c6nc(c(-c7c(F)cc(S(=O)(=O)[O-])cc7F)c7ccc([nH]7)c(-c7c(F)cc(S(=O)(=O)[O-])cc7F)c7nc(c(-c8c(F)cc(S(=O)(=O)[O-])cc8F)c8ccc5[nH]8)C=C7)C=C6)cc4)c3)c2C)c1
REMARK SMILES IDX 26 1 25 2 24 3 23 4 22 5 20 6 21 7 19 8 14 9 15 10 100 11
REMARK SMILES IDX 16 12 17 13 13 14 12 15 11 16 7 17 8 18 101 19 9 20 10 21
REMARK SMILES IDX 102 22 6 23 1 24 2 25 3 26 103 27 4 28 5 29 18 30 27 32
REMARK SMILES IDX 28 33 29 34 30 35 31 36 32 37 33 38 34 39 35 40 99 41 36 42
REMARK SMILES IDX 98 43 37 44 38 45 39 46 92 47 40 48 97 49 91 50 93 51 41 52
REMARK SMILES IDX 96 53 90 54 89 55 42 57 76 58 55 59 75 60 56 61 59 62 74 63
REMARK SMILES IDX 94 64 57 65 58 66 73 68 95 69 60 70 43 71 44 72 53 73 45 74
REMARK SMILES IDX 46 75 52 76 54 77 47 78 48 79 49 80 50 81 51 82 77 83 78 84
REMARK SMILES IDX 87 85 79 86 80 87 86 88 88 89 81 90 82 91 83 92 84 93 85 94
REMARK SMILES IDX 61 95 62 96 71 97 63 98 64 99 70 100 72 101 65 102 66 103
REMARK SMILES IDX 67 104 68 105 69 106
REMARK H PARENT 18 31 93 56 59 67
REMARK Flexibility Score: inf
ROOT
ATOM      1  C   UNL A   1      33.267  26.314  22.907  1.00  0.00     0.188 C 
ENDROOT
BRANCH   1   2
ATOM      2  O   UNL A   1      33.305  25.655  24.190  1.00  0.00    -0.376 OA
BRANCH   2   3
ATOM      3  C   UNL A   1      34.492  25.517  24.987  1.00  0.00     0.202 C 
BRANCH   3   4
ATOM      4  C   UNL A   1      34.736  24.310  26.053  1.00  0.00     0.261 C 
BRANCH   4   5
ATOM      5  O   UNL A   1      33.599  23.755  26.889  1.00  0.00    -0.460 OA
BRANCH   5   6
ATOM      6  C   UNL A   1      33.223  22.478  27.177  1.00  0.00     0.342 C 
ATOM      7  O   UNL A   1      32.657  22.218  28.237  1.00  0.00    -0.246 OA
BRANCH   6   8
ATOM      8  C   UNL A   1      33.654  21.248  26.224  1.00  0.00     0.103 A 
ATOM      9  C   UNL A   1      35.173  19.505  25.082  1.00  0.00     0.064 A 
ATOM     10  C   UNL A   1      34.082  19.000  24.408  1.00  0.00     0.032 A 
ATOM     11  C   UNL A   1      34.911  20.581  26.008  1.00  0.00     0.048 A 
ATOM     12  C   UNL A   1      32.827  19.594  24.588  1.00  0.00     0.049 A 
ATOM     13  C   UNL A   1      32.629  20.700  25.444  1.00  0.00     0.130 A 
BRANCH   9  14
ATOM     14  N   UNL A   1      36.431  18.849  24.992  1.00  0.00    -0.256 NA
ATOM     15  C   UNL A   1      37.653  19.320  25.078  1.00  0.00     0.121 C 
BRANCH  15  16
ATOM     16  C   UNL A   1      38.206  20.624  25.479  1.00  0.00     0.014 A 
ATOM     17  N   UNL A   1      39.694  22.265  25.983  1.00  0.00    -0.318 N 
ATOM     18  C   UNL A   1      38.460  22.881  25.924  1.00  0.00     0.021 A 
ATOM     19  C   UNL A   1      39.536  20.926  25.686  1.00  0.00     0.029 A 
ATOM     20  C   UNL A   1      38.300  24.347  26.151  1.00  0.00     0.065 C 
ATOM     21  C   UNL A   1      37.537  21.900  25.571  1.00  0.00     0.033 A 
ATOM     22  C   UNL A   1      40.679  20.005  25.613  1.00  0.00     0.065 C 
BRANCH  17  23
ATOM     23  C   UNL A   1      40.914  22.791  26.473  1.00  0.00     0.046 A 
ATOM     24  C   UNL A   1      42.475  22.619  29.924  1.00  0.00     0.044 C 
ATOM     25  C   UNL A   1      42.317  22.708  28.437  1.00  0.00    -0.049 A 
ATOM     26  C   UNL A   1      43.436  22.552  27.605  1.00  0.00     0.003 A 
ATOM     27  C   UNL A   1      41.047  22.842  27.864  1.00  0.00     0.030 A 
ATOM     28  C   UNL A   1      43.304  22.588  26.215  1.00  0.00     0.002 A 
ATOM     29  C   UNL A   1      42.042  22.731  25.644  1.00  0.00     0.026 A 
ENDBRANCH  17  23
ENDBRANCH  15  16
ENDBRANCH   9  14
BRANCH  13  30
ATOM     30  O   UNL A   1      31.346  21.190  25.453  1.00  0.00    -0.507 OA
ATOM     31  H   UNL A   1      31.084  21.807  26.107  1.00  0.00     0.293 HD
ENDBRANCH  13  30
ENDBRANCH   6   8
ENDBRANCH   5   6
ENDBRANCH   4   5
ENDBRANCH   3   4
ENDBRANCH   2   3
ENDBRANCH   1   2
BRANCH   1  32
ATOM     32  C   UNL A   1      32.139  27.233  22.448  1.00  0.00     0.188 C 
BRANCH  32  33
ATOM     33  O   UNL A   1      32.361  28.558  22.897  1.00  0.00    -0.376 OA
BRANCH  33  34
ATOM     34  C   UNL A   1      33.718  28.929  23.069  1.00  0.00     0.202 C 
BRANCH  34  35
ATOM     35  C   UNL A   1      34.053  29.481  24.471  1.00  0.00     0.261 C 
BRANCH  35  36
ATOM     36  O   UNL A   1      33.192  28.924  25.499  1.00  0.00    -0.460 OA
BRANCH  36  37
ATOM     37  C   UNL A   1      32.712  29.778  26.484  1.00  0.00     0.338 C 
ATOM     38  O   UNL A   1      31.545  29.967  26.659  1.00  0.00    -0.246 OA
BRANCH  37  39
ATOM     39  C   UNL A   1      33.837  30.246  27.384  1.00  0.00     0.060 A 
ATOM     40  C   UNL A   1      34.360  31.542  27.511  1.00  0.00     0.016 A 
ATOM     41  C   UNL A   1      34.505  29.278  28.059  1.00  0.00     0.016 A 
ATOM     42  C   UNL A   1      35.630  31.804  28.190  1.00  0.00     0.010 A 
ATOM     43  C   UNL A   1      35.810  29.551  28.451  1.00  0.00     0.010 A 
ATOM     44  C   UNL A   1      36.460  30.776  28.645  1.00  0.00    -0.014 A 
BRANCH  44  45
ATOM     45  C   UNL A   1      37.951  30.793  29.170  1.00  0.00     0.031 A 
ATOM     46  C   UNL A   1      39.103  29.744  28.971  1.00  0.00     0.074 A 
ATOM     47  C   UNL A   1      38.443  31.955  29.638  1.00  0.00     0.049 A 
ATOM     48  N   UNL A   1      40.246  29.912  28.349  1.00  0.00    -0.248 NA
ATOM     49  C   UNL A   1      39.047  28.384  29.505  1.00  0.00     0.031 C 
ATOM     50  C   UNL A   1      39.837  32.346  29.848  1.00  0.00     0.029 A 
ATOM     51  N   UNL A   1      37.725  32.968  30.261  1.00  0.00    -0.354 N 
ATOM     52  C   UNL A   1      40.908  28.692  28.193  1.00  0.00     0.074 A 
ATOM     53  C   UNL A   1      40.040  27.741  28.878  1.00  0.00     0.031 C 
ATOM     54  C   UNL A   1      39.877  33.243  30.845  1.00  0.00     0.029 A 
ATOM     55  C   UNL A   1      38.523  33.350  31.359  1.00  0.00     0.049 A 
ATOM     56  H   UNL A   1      36.852  33.337  29.996  1.00  0.00     0.167 HD
ATOM     57  C   UNL A   1      42.263  28.571  28.352  1.00  0.00     0.037 A 
ATOM     58  C   UNL A   1      38.078  32.961  32.589  1.00  0.00     0.037 A 
ATOM     59  C   UNL A   1      42.711  29.363  29.472  1.00  0.00     0.049 A 
ATOM     60  C   UNL A   1      38.940  31.846  33.162  1.00  0.00     0.074 A 
ATOM     61  C   UNL A   1      43.202  30.639  29.653  1.00  0.00     0.029 A 
ATOM     62  N   UNL A   1      42.354  28.902  30.722  1.00  0.00    -0.354 N 
ATOM     63  N   UNL A   1      39.929  31.282  32.513  1.00  0.00    -0.248 NA
ATOM     64  C   UNL A   1      38.792  31.287  34.503  1.00  0.00     0.031 C 
ATOM     65  C   UNL A   1      42.901  31.009  31.004  1.00  0.00     0.029 A 
ATOM     66  C   UNL A   1      42.283  29.936  31.630  1.00  0.00     0.049 A 
ATOM     67  H   UNL A   1      42.172  27.959  30.937  1.00  0.00     0.167 HD
ATOM     68  C   UNL A   1      40.560  30.373  33.305  1.00  0.00     0.074 A 
ATOM     69  C   UNL A   1      39.793  30.386  34.539  1.00  0.00     0.031 C 
ATOM     70  C   UNL A   1      41.674  29.683  32.926  1.00  0.00     0.037 A 
BRANCH  57  71
ATOM     71  C   UNL A   1      43.118  27.623  27.526  1.00  0.00     0.058 A 
ATOM     72  C   UNL A   1      43.882  26.605  28.141  1.00  0.00     0.135 A 
ATOM     73  C   UNL A   1      43.296  27.733  26.128  1.00  0.00     0.135 A 
ATOM     74  F   UNL A   1      43.817  26.407  29.467  1.00  0.00    -0.206 F 
ATOM     75  C   UNL A   1      44.774  25.782  27.435  1.00  0.00     0.059 A 
ATOM     76  C   UNL A   1      44.180  26.918  25.399  1.00  0.00     0.059 A 
ATOM     77  F   UNL A   1      42.617  28.651  25.422  1.00  0.00    -0.206 F 
ATOM     78  C   UNL A   1      44.932  25.954  26.064  1.00  0.00     0.060 A 
BRANCH  78  79
ATOM     79  S   UNL A   1      46.152  24.942  25.186  1.00  0.00     0.124 S 
ATOM     80  O   UNL A   1      46.911  25.948  24.450  1.00  0.00    -0.237 OA
ATOM     81  O   UNL A   1      46.865  24.290  26.280  1.00  0.00    -0.237 OA
ATOM     82  O   UNL A   1      45.336  24.054  24.362  1.00  0.00    -0.744 OA
ENDBRANCH  78  79
ENDBRANCH  57  71
BRANCH  58  83
ATOM     83  C   UNL A   1      36.595  33.227  32.685  1.00  0.00     0.058 A 
ATOM     84  C   UNL A   1      36.233  34.542  33.089  1.00  0.00     0.135 A 
ATOM     85  C   UNL A   1      35.616  32.504  31.993  1.00  0.00     0.135 A 
ATOM     86  F   UNL A   1      37.115  35.298  33.768  1.00  0.00    -0.206 F 
ATOM     87  C   UNL A   1      35.080  35.177  32.638  1.00  0.00     0.059 A 
ATOM     88  C   UNL A   1      34.409  33.107  31.588  1.00  0.00     0.059 A 
ATOM     89  F   UNL A   1      35.871  31.257  31.568  1.00  0.00    -0.206 F 
ATOM     90  C   UNL A   1      34.198  34.467  31.837  1.00  0.00     0.060 A 
BRANCH  90  91
ATOM     91  S   UNL A   1      32.874  35.402  31.024  1.00  0.00     0.124 S 
ATOM     92  O   UNL A   1      31.788  35.300  31.994  1.00  0.00    -0.237 OA
ATOM     93  O   UNL A   1      33.480  36.728  30.899  1.00  0.00    -0.237 OA
ATOM     94  O   UNL A   1      32.669  34.674  29.778  1.00  0.00    -0.744 OA
ENDBRANCH  90  91
ENDBRANCH  58  83
BRANCH  70  95
ATOM     95  C   UNL A   1      42.295  28.688  33.840  1.00  0.00     0.058 A 
ATOM     96  C   UNL A   1      41.685  27.449  34.065  1.00  0.00     0.135 A 
ATOM     97  C   UNL A   1      43.455  28.990  34.576  1.00  0.00     0.135 A 
ATOM     98  F   UNL A   1      40.559  27.118  33.412  1.00  0.00    -0.206 F 
ATOM     99  C   UNL A   1      42.224  26.527  34.951  1.00  0.00     0.059 A 
ATOM    100  C   UNL A   1      43.988  28.102  35.500  1.00  0.00     0.059 A 
ATOM    101  F   UNL A   1      44.100  30.156  34.399  1.00  0.00    -0.206 F 
ATOM    102  C   UNL A   1      43.380  26.860  35.658  1.00  0.00     0.060 A 
BRANCH 102 103
ATOM    103  S   UNL A   1      44.101  25.658  36.788  1.00  0.00     0.124 S 
ATOM    104  O   UNL A   1      45.465  25.517  36.288  1.00  0.00    -0.237 OA
ATOM    105  O   UNL A   1      43.965  26.353  38.064  1.00  0.00    -0.237 OA
ATOM    106  O   UNL A   1      43.250  24.487  36.611  1.00  0.00    -0.744 OA
ENDBRANCH 102 103
ENDBRANCH  70  95
ENDBRANCH  44  45
ENDBRANCH  37  39
ENDBRANCH  36  37
ENDBRANCH  35  36
ENDBRANCH  34  35
ENDBRANCH  33  34
ENDBRANCH  32  33
ENDBRANCH   1  32
TORSDOF 24
ENDMDL
