MODEL 1
REMARK VINA RESULT:      -7.4      0.000      0.000
REMARK SMILES CC[C@@H](C)[C@H](NC(=O)[C@H](C)N1C(=O)N2CCC3=c4cc(OC)ccc4=N[C@@H]3[C@@]2(C)C1=O)C(=O)OCCOCCOCCOC(=O)c1ccc(-c2c3nc(c(-c4c(F)cc(S(=O)(=O)[O-])cc4F)c4ccc([nH]4)c(-c4c(F)cc(S(=O)(=O)[O-])cc4F)c4nc(c(-c5c(F)cc(S(=O)(=O)[O-])cc5F)c5ccc2[nH]5)C=C4)C=C3)cc1
REMARK SMILES IDX 38 1 37 2 36 3 35 4 34 5 32 6 33 7 5 8 3 9 4 10 2 11 1 12
REMARK SMILES IDX 6 13 7 14 8 16 9 17 10 18 11 19 12 20 30 21 14 22 13 23
REMARK SMILES IDX 28 24 31 25 15 26 27 27 29 28 16 29 17 30 26 31 18 32 25 33
REMARK SMILES IDX 19 34 24 35 20 36 23 37 21 38 22 39 39 40 40 41 41 42 42 43
REMARK SMILES IDX 43 44 44 45 45 46 46 47 47 48 111 49 48 50 110 51 49 52
REMARK SMILES IDX 50 53 51 54 104 55 52 56 109 57 103 58 105 59 53 60 108 61
REMARK SMILES IDX 102 62 101 63 54 65 88 66 67 67 87 68 68 69 71 70 86 71
REMARK SMILES IDX 106 72 69 73 70 74 85 76 107 77 72 78 55 79 56 80 65 81
REMARK SMILES IDX 57 82 58 83 64 84 66 85 59 86 60 87 61 88 62 89 63 90 89 91
REMARK SMILES IDX 90 92 99 93 91 94 92 95 98 96 100 97 93 98 94 99 95 100
REMARK SMILES IDX 96 101 97 102 73 103 74 104 83 105 75 106 76 107 82 108
REMARK SMILES IDX 84 109 77 110 78 111 79 112 80 113 81 114
REMARK H PARENT 6 15 105 64 71 75
REMARK Flexibility Score: inf
ROOT
ATOM      1  C   UNL A   1      46.678  24.573  25.390  1.00  0.00     0.188 C 
ENDROOT
BRANCH   1   2
ATOM      2  O   UNL A   1      46.536  25.785  24.656  1.00  0.00    -0.376 OA
BRANCH   2   3
ATOM      3  C   UNL A   1      47.631  26.702  24.589  1.00  0.00     0.202 C 
BRANCH   3   4
ATOM      4  C   UNL A   1      48.033  27.234  25.974  1.00  0.00     0.261 C 
BRANCH   4   5
ATOM      5  O   UNL A   1      48.281  28.669  26.101  1.00  0.00    -0.462 OA
BRANCH   5   6
ATOM      6  C   UNL A   1      48.796  28.941  27.346  1.00  0.00     0.328 C 
ATOM      7  O   UNL A   1      48.687  28.120  28.260  1.00  0.00    -0.250 OA
BRANCH   6   8
ATOM      8  C   UNL A   1      49.595  30.284  27.564  1.00  0.00     0.195 C 
BRANCH   8   9
ATOM      9  C   UNL A   1      51.079  30.095  27.115  1.00  0.00     0.019 C 
ATOM     10  C   UNL A   1      52.041  30.208  28.310  1.00  0.00     0.010 C 
BRANCH   9  11
ATOM     11  C   UNL A   1      51.429  31.001  25.918  1.00  0.00     0.002 C 
ATOM     12  C   UNL A   1      52.168  32.271  26.302  1.00  0.00     0.004 C 
ENDBRANCH   9  11
ENDBRANCH   8   9
BRANCH   8  13
ATOM     13  N   UNL A   1      49.499  31.059  28.814  1.00  0.00    -0.341 N 
ATOM     14  C   UNL A   1      49.207  32.406  28.853  1.00  0.00     0.243 C 
ATOM     15  H   UNL A   1      49.651  30.590  29.667  1.00  0.00     0.164 HD
ATOM     16  O   UNL A   1      50.158  33.099  29.263  1.00  0.00    -0.273 OA
BRANCH  14  17
ATOM     17  C   UNL A   1      47.765  33.075  28.864  1.00  0.00     0.181 C 
ATOM     18  C   UNL A   1      48.148  34.523  29.303  1.00  0.00     0.042 C 
BRANCH  17  19
ATOM     19  N   UNL A   1      46.499  32.620  29.516  1.00  0.00    -0.250 N 
ATOM     20  C   UNL A   1      46.243  32.263  30.864  1.00  0.00     0.328 C 
ATOM     21  C   UNL A   1      45.392  32.287  28.792  1.00  0.00     0.259 C 
ATOM     22  N   UNL A   1      44.825  31.854  30.958  1.00  0.00    -0.307 N 
ATOM     23  O   UNL A   1      47.005  32.373  31.798  1.00  0.00    -0.248 OA
ATOM     24  C   UNL A   1      44.257  32.318  29.733  1.00  0.00     0.147 C 
ATOM     25  O   UNL A   1      45.267  32.035  27.602  1.00  0.00    -0.271 OA
ATOM     26  C   UNL A   1      43.834  32.052  32.137  1.00  0.00     0.127 C 
ATOM     27  C   UNL A   1      44.043  33.756  30.192  1.00  0.00     0.168 C 
ATOM     28  C   UNL A   1      43.102  31.429  29.245  1.00  0.00     0.048 C 
ATOM     29  C   UNL A   1      42.514  33.156  31.809  1.00  0.00     0.055 C 
ATOM     30  C   UNL A   1      42.641  33.990  30.486  1.00  0.00    -0.032 C 
ATOM     31  N   UNL A   1      44.737  34.962  29.780  1.00  0.00    -0.274 NA
ATOM     32  C   UNL A   1      42.406  35.224  29.965  1.00  0.00     0.005 A 
ATOM     33  C   UNL A   1      43.795  35.795  30.171  1.00  0.00     0.066 A 
ATOM     34  C   UNL A   1      42.392  35.424  28.433  1.00  0.00     0.056 A 
ATOM     35  C   UNL A   1      43.881  37.247  30.054  1.00  0.00     0.032 A 
ATOM     36  C   UNL A   1      43.078  36.491  27.917  1.00  0.00     0.119 A 
ATOM     37  C   UNL A   1      43.518  37.565  28.806  1.00  0.00     0.048 A 
BRANCH  36  38
ATOM     38  O   UNL A   1      43.653  36.513  26.669  1.00  0.00    -0.497 OA
ATOM     39  C   UNL A   1      44.357  35.289  26.351  1.00  0.00     0.278 C 
ENDBRANCH  36  38
ENDBRANCH  17  19
ENDBRANCH  14  17
ENDBRANCH   8  13
ENDBRANCH   6   8
ENDBRANCH   5   6
ENDBRANCH   4   5
ENDBRANCH   3   4
ENDBRANCH   2   3
ENDBRANCH   1   2
BRANCH   1  40
ATOM     40  C   UNL A   1      45.964  23.328  24.869  1.00  0.00     0.188 C 
BRANCH  40  41
ATOM     41  O   UNL A   1      45.621  22.326  25.828  1.00  0.00    -0.376 OA
BRANCH  41  42
ATOM     42  C   UNL A   1      44.256  22.259  26.216  1.00  0.00     0.202 C 
BRANCH  42  43
ATOM     43  C   UNL A   1      43.271  23.026  25.327  1.00  0.00     0.261 C 
BRANCH  43  44
ATOM     44  O   UNL A   1      42.357  23.855  26.060  1.00  0.00    -0.460 OA
BRANCH  44  45
ATOM     45  C   UNL A   1      42.392  25.176  25.728  1.00  0.00     0.338 C 
ATOM     46  O   UNL A   1      42.643  25.629  24.623  1.00  0.00    -0.246 OA
BRANCH  45  47
ATOM     47  C   UNL A   1      42.000  26.032  26.883  1.00  0.00     0.060 A 
ATOM     48  C   UNL A   1      41.104  25.610  27.873  1.00  0.00     0.016 A 
ATOM     49  C   UNL A   1      42.534  27.327  26.947  1.00  0.00     0.016 A 
ATOM     50  C   UNL A   1      40.759  26.471  28.926  1.00  0.00     0.010 A 
ATOM     51  C   UNL A   1      42.145  28.203  27.967  1.00  0.00     0.010 A 
ATOM     52  C   UNL A   1      41.274  27.775  28.984  1.00  0.00    -0.014 A 
BRANCH  52  53
ATOM     53  C   UNL A   1      41.069  28.619  30.192  1.00  0.00     0.031 A 
ATOM     54  C   UNL A   1      41.945  28.546  31.412  1.00  0.00     0.074 A 
ATOM     55  C   UNL A   1      40.051  29.498  30.161  1.00  0.00     0.049 A 
ATOM     56  N   UNL A   1      41.795  29.122  32.579  1.00  0.00    -0.248 NA
ATOM     57  C   UNL A   1      43.124  27.683  31.333  1.00  0.00     0.031 C 
ATOM     58  C   UNL A   1      39.152  29.706  29.022  1.00  0.00     0.029 A 
ATOM     59  N   UNL A   1      39.610  30.389  31.101  1.00  0.00    -0.354 N 
ATOM     60  C   UNL A   1      42.820  28.638  33.386  1.00  0.00     0.074 A 
ATOM     61  C   UNL A   1      43.559  27.686  32.588  1.00  0.00     0.031 C 
ATOM     62  C   UNL A   1      38.266  30.662  29.332  1.00  0.00     0.029 A 
ATOM     63  C   UNL A   1      38.541  31.140  30.681  1.00  0.00     0.049 A 
ATOM     64  H   UNL A   1      40.019  30.483  31.992  1.00  0.00     0.167 HD
ATOM     65  C   UNL A   1      43.139  28.985  34.658  1.00  0.00     0.037 A 
ATOM     66  C   UNL A   1      37.872  32.127  31.302  1.00  0.00     0.037 A 
ATOM     67  C   UNL A   1      42.507  30.063  35.378  1.00  0.00     0.049 A 
ATOM     68  C   UNL A   1      38.321  32.581  32.656  1.00  0.00     0.074 A 
ATOM     69  C   UNL A   1      42.841  30.581  36.620  1.00  0.00     0.029 A 
ATOM     70  N   UNL A   1      41.456  30.830  34.898  1.00  0.00    -0.354 N 
ATOM     71  N   UNL A   1      39.280  32.099  33.410  1.00  0.00    -0.248 NA
ATOM     72  C   UNL A   1      37.616  33.731  33.234  1.00  0.00     0.031 C 
ATOM     73  C   UNL A   1      41.991  31.659  36.890  1.00  0.00     0.029 A 
ATOM     74  C   UNL A   1      41.143  31.824  35.809  1.00  0.00     0.049 A 
ATOM     75  H   UNL A   1      41.001  30.689  34.037  1.00  0.00     0.167 HD
ATOM     76  C   UNL A   1      39.313  32.908  34.537  1.00  0.00     0.074 A 
ATOM     77  C   UNL A   1      38.284  33.913  34.365  1.00  0.00     0.031 C 
ATOM     78  C   UNL A   1      40.126  32.825  35.618  1.00  0.00     0.037 A 
BRANCH  65  79
ATOM     79  C   UNL A   1      44.265  28.263  35.352  1.00  0.00     0.058 A 
ATOM     80  C   UNL A   1      44.060  27.046  36.019  1.00  0.00     0.135 A 
ATOM     81  C   UNL A   1      45.588  28.725  35.234  1.00  0.00     0.135 A 
ATOM     82  F   UNL A   1      42.819  26.559  36.171  1.00  0.00    -0.206 F 
ATOM     83  C   UNL A   1      45.121  26.315  36.547  1.00  0.00     0.059 A 
ATOM     84  C   UNL A   1      46.668  27.998  35.729  1.00  0.00     0.059 A 
ATOM     85  F   UNL A   1      45.847  29.884  34.606  1.00  0.00    -0.206 F 
ATOM     86  C   UNL A   1      46.422  26.794  36.388  1.00  0.00     0.060 A 
BRANCH  86  87
ATOM     87  S   UNL A   1      47.791  25.801  37.023  1.00  0.00     0.124 S 
ATOM     88  O   UNL A   1      47.804  26.195  38.429  1.00  0.00    -0.237 OA
ATOM     89  O   UNL A   1      47.343  24.439  36.750  1.00  0.00    -0.237 OA
ATOM     90  O   UNL A   1      48.933  26.253  36.234  1.00  0.00    -0.744 OA
ENDBRANCH  86  87
ENDBRANCH  65  79
BRANCH  66  91
ATOM     91  C   UNL A   1      36.770  32.809  30.587  1.00  0.00     0.058 A 
ATOM     92  C   UNL A   1      35.436  32.516  30.899  1.00  0.00     0.135 A 
ATOM     93  C   UNL A   1      37.025  33.797  29.627  1.00  0.00     0.135 A 
ATOM     94  F   UNL A   1      35.151  31.586  31.823  1.00  0.00    -0.206 F 
ATOM     95  C   UNL A   1      34.385  33.167  30.266  1.00  0.00     0.059 A 
ATOM     96  C   UNL A   1      35.991  34.475  28.992  1.00  0.00     0.059 A 
ATOM     97  F   UNL A   1      38.290  34.129  29.322  1.00  0.00    -0.206 F 
ATOM     98  C   UNL A   1      34.674  34.144  29.311  1.00  0.00     0.060 A 
BRANCH  98  99
ATOM     99  S   UNL A   1      33.301  35.010  28.524  1.00  0.00     0.124 S 
ATOM    100  O   UNL A   1      32.718  33.950  27.708  1.00  0.00    -0.237 OA
ATOM    101  O   UNL A   1      32.509  35.439  29.673  1.00  0.00    -0.237 OA
ATOM    102  O   UNL A   1      33.960  36.085  27.790  1.00  0.00    -0.744 OA
ENDBRANCH  98  99
ENDBRANCH  66  91
BRANCH  78 103
ATOM    103  C   UNL A   1      39.954  33.864  36.686  1.00  0.00     0.058 A 
ATOM    104  C   UNL A   1      39.072  33.667  37.759  1.00  0.00     0.135 A 
ATOM    105  C   UNL A   1      40.707  35.048  36.658  1.00  0.00     0.135 A 
ATOM    106  F   UNL A   1      38.326  32.553  37.824  1.00  0.00    -0.206 F 
ATOM    107  C   UNL A   1      38.926  34.619  38.760  1.00  0.00     0.059 A 
ATOM    108  C   UNL A   1      40.592  36.006  37.661  1.00  0.00     0.059 A 
ATOM    109  F   UNL A   1      41.570  35.278  35.657  1.00  0.00    -0.206 F 
ATOM    110  C   UNL A   1      39.691  35.786  38.703  1.00  0.00     0.060 A 
BRANCH 110 111
ATOM    111  S   UNL A   1      39.513  37.001  40.026  1.00  0.00     0.124 S 
ATOM    112  O   UNL A   1      40.897  37.419  40.230  1.00  0.00    -0.237 OA
ATOM    113  O   UNL A   1      38.635  37.997  39.420  1.00  0.00    -0.237 OA
ATOM    114  O   UNL A   1      38.921  36.231  41.116  1.00  0.00    -0.744 OA
ENDBRANCH 110 111
ENDBRANCH  78 103
ENDBRANCH  52  53
ENDBRANCH  45  47
ENDBRANCH  44  45
ENDBRANCH  43  44
ENDBRANCH  42  43
ENDBRANCH  41  42
ENDBRANCH  40  41
ENDBRANCH   1  40
TORSDOF 26
ENDMDL
MODEL 2
REMARK VINA RESULT:      -7.4      5.617     11.426
REMARK SMILES CC[C@@H](C)[C@H](NC(=O)[C@H](C)N1C(=O)N2CCC3=c4cc(OC)ccc4=N[C@@H]3[C@@]2(C)C1=O)C(=O)OCCOCCOCCOC(=O)c1ccc(-c2c3nc(c(-c4c(F)cc(S(=O)(=O)[O-])cc4F)c4ccc([nH]4)c(-c4c(F)cc(S(=O)(=O)[O-])cc4F)c4nc(c(-c5c(F)cc(S(=O)(=O)[O-])cc5F)c5ccc2[nH]5)C=C4)C=C3)cc1
REMARK SMILES IDX 38 1 37 2 36 3 35 4 34 5 32 6 33 7 5 8 3 9 4 10 2 11 1 12
REMARK SMILES IDX 6 13 7 14 8 16 9 17 10 18 11 19 12 20 30 21 14 22 13 23
REMARK SMILES IDX 28 24 31 25 15 26 27 27 29 28 16 29 17 30 26 31 18 32 25 33
REMARK SMILES IDX 19 34 24 35 20 36 23 37 21 38 22 39 39 40 40 41 41 42 42 43
REMARK SMILES IDX 43 44 44 45 45 46 46 47 47 48 111 49 48 50 110 51 49 52
REMARK SMILES IDX 50 53 51 54 104 55 52 56 109 57 103 58 105 59 53 60 108 61
REMARK SMILES IDX 102 62 101 63 54 65 88 66 67 67 87 68 68 69 71 70 86 71
REMARK SMILES IDX 106 72 69 73 70 74 85 76 107 77 72 78 55 79 56 80 65 81
REMARK SMILES IDX 57 82 58 83 64 84 66 85 59 86 60 87 61 88 62 89 63 90 89 91
REMARK SMILES IDX 90 92 99 93 91 94 92 95 98 96 100 97 93 98 94 99 95 100
REMARK SMILES IDX 96 101 97 102 73 103 74 104 83 105 75 106 76 107 82 108
REMARK SMILES IDX 84 109 77 110 78 111 79 112 80 113 81 114
REMARK H PARENT 6 15 105 64 71 75
REMARK Flexibility Score: inf
ROOT
ATOM      1  C   UNL A   1      40.676  26.557  29.067  1.00  0.00     0.188 C 
ENDROOT
BRANCH   1   2
ATOM      2  O   UNL A   1      40.247  27.312  27.938  1.00  0.00    -0.376 OA
BRANCH   2   3
ATOM      3  C   UNL A   1      40.000  28.714  28.079  1.00  0.00     0.202 C 
BRANCH   3   4
ATOM      4  C   UNL A   1      38.646  29.004  28.745  1.00  0.00     0.261 C 
BRANCH   4   5
ATOM      5  O   UNL A   1      37.710  29.868  28.025  1.00  0.00    -0.462 OA
BRANCH   5   6
ATOM      6  C   UNL A   1      36.654  30.189  28.845  1.00  0.00     0.328 C 
ATOM      7  O   UNL A   1      36.614  29.771  30.005  1.00  0.00    -0.250 OA
BRANCH   6   8
ATOM      8  C   UNL A   1      35.538  31.164  28.302  1.00  0.00     0.195 C 
BRANCH   8   9
ATOM      9  C   UNL A   1      35.820  32.617  28.798  1.00  0.00     0.019 C 
ATOM     10  C   UNL A   1      37.327  32.859  28.989  1.00  0.00     0.010 C 
BRANCH   9  11
ATOM     11  C   UNL A   1      34.950  32.979  30.018  1.00  0.00     0.002 C 
ATOM     12  C   UNL A   1      34.357  34.376  29.961  1.00  0.00     0.004 C 
ENDBRANCH   9  11
ENDBRANCH   8   9
BRANCH   8  13
ATOM     13  N   UNL A   1      34.104  30.831  28.377  1.00  0.00    -0.341 N 
ATOM     14  C   UNL A   1      33.375  30.364  27.304  1.00  0.00     0.243 C 
ATOM     15  H   UNL A   1      33.642  30.947  29.239  1.00  0.00     0.164 HD
ATOM     16  O   UNL A   1      32.501  31.167  26.923  1.00  0.00    -0.273 OA
BRANCH  14  17
ATOM     17  C   UNL A   1      33.232  28.855  26.825  1.00  0.00     0.181 C 
ATOM     18  C   UNL A   1      34.723  28.543  26.484  1.00  0.00     0.042 C 
BRANCH  17  19
ATOM     19  N   UNL A   1      32.301  28.248  25.825  1.00  0.00    -0.250 N 
ATOM     20  C   UNL A   1      31.995  28.649  24.500  1.00  0.00     0.328 C 
ATOM     21  C   UNL A   1      31.422  27.261  26.162  1.00  0.00     0.259 C 
ATOM     22  N   UNL A   1      30.980  27.713  23.972  1.00  0.00    -0.307 N 
ATOM     23  O   UNL A   1      32.536  29.528  23.868  1.00  0.00    -0.248 OA
ATOM     24  C   UNL A   1      31.006  26.626  24.898  1.00  0.00     0.147 C 
ATOM     25  O   UNL A   1      31.030  26.886  27.258  1.00  0.00    -0.271 OA
ATOM     26  C   UNL A   1      30.801  27.195  22.518  1.00  0.00     0.127 C 
ATOM     27  C   UNL A   1      32.212  25.924  24.284  1.00  0.00     0.168 C 
ATOM     28  C   UNL A   1      29.639  25.940  25.040  1.00  0.00     0.048 C 
ATOM     29  C   UNL A   1      31.122  25.487  22.302  1.00  0.00     0.055 C 
ATOM     30  C   UNL A   1      31.790  24.763  23.523  1.00  0.00    -0.032 C 
ATOM     31  N   UNL A   1      33.558  25.789  24.810  1.00  0.00    -0.274 NA
ATOM     32  C   UNL A   1      32.715  23.818  23.840  1.00  0.00     0.005 A 
ATOM     33  C   UNL A   1      33.886  24.753  24.065  1.00  0.00     0.066 A 
ATOM     34  C   UNL A   1      32.740  23.208  25.259  1.00  0.00     0.056 A 
ATOM     35  C   UNL A   1      35.191  24.101  24.093  1.00  0.00     0.032 A 
ATOM     36  C   UNL A   1      33.949  23.098  25.892  1.00  0.00     0.119 A 
ATOM     37  C   UNL A   1      35.183  23.243  25.120  1.00  0.00     0.048 A 
BRANCH  36  38
ATOM     38  O   UNL A   1      34.120  23.148  27.254  1.00  0.00    -0.497 OA
ATOM     39  C   UNL A   1      33.268  22.219  27.964  1.00  0.00     0.278 C 
ENDBRANCH  36  38
ENDBRANCH  17  19
ENDBRANCH  14  17
ENDBRANCH   8  13
ENDBRANCH   6   8
ENDBRANCH   5   6
ENDBRANCH   4   5
ENDBRANCH   3   4
ENDBRANCH   2   3
ENDBRANCH   1   2
BRANCH   1  40
ATOM     40  C   UNL A   1      41.892  25.649  28.905  1.00  0.00     0.188 C 
BRANCH  40  41
ATOM     41  O   UNL A   1      41.648  24.300  28.504  1.00  0.00    -0.376 OA
BRANCH  41  42
ATOM     42  C   UNL A   1      42.609  23.710  27.639  1.00  0.00     0.202 C 
BRANCH  42  43
ATOM     43  C   UNL A   1      42.791  24.393  26.279  1.00  0.00     0.261 C 
BRANCH  43  44
ATOM     44  O   UNL A   1      43.720  25.485  26.302  1.00  0.00    -0.460 OA
BRANCH  44  45
ATOM     45  C   UNL A   1      43.302  26.606  25.649  1.00  0.00     0.338 C 
ATOM     46  O   UNL A   1      42.719  26.633  24.577  1.00  0.00    -0.246 OA
BRANCH  45  47
ATOM     47  C   UNL A   1      43.577  27.831  26.452  1.00  0.00     0.060 A 
ATOM     48  C   UNL A   1      44.448  27.843  27.549  1.00  0.00     0.016 A 
ATOM     49  C   UNL A   1      42.895  29.006  26.104  1.00  0.00     0.016 A 
ATOM     50  C   UNL A   1      44.649  29.024  28.278  1.00  0.00     0.010 A 
ATOM     51  C   UNL A   1      43.055  30.169  26.867  1.00  0.00     0.010 A 
ATOM     52  C   UNL A   1      43.956  30.198  27.946  1.00  0.00    -0.014 A 
BRANCH  52  53
ATOM     53  C   UNL A   1      44.307  31.494  28.587  1.00  0.00     0.031 A 
ATOM     54  C   UNL A   1      45.446  32.363  28.126  1.00  0.00     0.074 A 
ATOM     55  C   UNL A   1      43.543  31.897  29.618  1.00  0.00     0.049 A 
ATOM     56  N   UNL A   1      45.944  33.442  28.678  1.00  0.00    -0.248 NA
ATOM     57  C   UNL A   1      46.146  31.952  26.909  1.00  0.00     0.031 C 
ATOM     58  C   UNL A   1      42.379  31.173  30.137  1.00  0.00     0.029 A 
ATOM     59  N   UNL A   1      43.618  33.015  30.403  1.00  0.00    -0.354 N 
ATOM     60  C   UNL A   1      47.052  33.793  27.913  1.00  0.00     0.074 A 
ATOM     61  C   UNL A   1      47.179  32.786  26.884  1.00  0.00     0.031 C 
ATOM     62  C   UNL A   1      41.850  31.865  31.155  1.00  0.00     0.029 A 
ATOM     63  C   UNL A   1      42.629  33.082  31.351  1.00  0.00     0.049 A 
ATOM     64  H   UNL A   1      44.313  33.704  30.298  1.00  0.00     0.167 HD
ATOM     65  C   UNL A   1      47.861  34.874  28.034  1.00  0.00     0.037 A 
ATOM     66  C   UNL A   1      42.359  34.033  32.263  1.00  0.00     0.037 A 
ATOM     67  C   UNL A   1      47.616  35.963  28.948  1.00  0.00     0.049 A 
ATOM     68  C   UNL A   1      43.189  35.278  32.294  1.00  0.00     0.074 A 
ATOM     69  C   UNL A   1      48.299  37.164  29.059  1.00  0.00     0.029 A 
ATOM     70  N   UNL A   1      46.575  36.012  29.862  1.00  0.00    -0.354 N 
ATOM     71  N   UNL A   1      44.242  35.584  31.576  1.00  0.00    -0.248 NA
ATOM     72  C   UNL A   1      42.777  36.322  33.241  1.00  0.00     0.031 C 
ATOM     73  C   UNL A   1      47.672  37.937  30.042  1.00  0.00     0.029 A 
ATOM     74  C   UNL A   1      46.588  37.227  30.527  1.00  0.00     0.049 A 
ATOM     75  H   UNL A   1      45.923  35.291  30.016  1.00  0.00     0.167 HD
ATOM     76  C   UNL A   1      44.600  36.868  31.963  1.00  0.00     0.074 A 
ATOM     77  C   UNL A   1      43.648  37.285  32.973  1.00  0.00     0.031 C 
ATOM     78  C   UNL A   1      45.627  37.633  31.518  1.00  0.00     0.037 A 
BRANCH  65  79
ATOM     79  C   UNL A   1      49.051  35.003  27.118  1.00  0.00     0.058 A 
ATOM     80  C   UNL A   1      50.347  34.672  27.542  1.00  0.00     0.135 A 
ATOM     81  C   UNL A   1      48.875  35.331  25.761  1.00  0.00     0.135 A 
ATOM     82  F   UNL A   1      50.578  34.359  28.827  1.00  0.00    -0.206 F 
ATOM     83  C   UNL A   1      51.424  34.665  26.661  1.00  0.00     0.059 A 
ATOM     84  C   UNL A   1      49.932  35.302  24.855  1.00  0.00     0.059 A 
ATOM     85  F   UNL A   1      47.658  35.656  25.296  1.00  0.00    -0.206 F 
ATOM     86  C   UNL A   1      51.206  34.972  25.317  1.00  0.00     0.060 A 
BRANCH  86  87
ATOM     87  S   UNL A   1      52.604  34.895  24.176  1.00  0.00     0.124 S 
ATOM     88  O   UNL A   1      52.133  33.907  23.210  1.00  0.00    -0.237 OA
ATOM     89  O   UNL A   1      52.687  36.268  23.689  1.00  0.00    -0.237 OA
ATOM     90  O   UNL A   1      53.711  34.464  25.024  1.00  0.00    -0.744 OA
ENDBRANCH  86  87
ENDBRANCH  65  79
BRANCH  66  91
ATOM     91  C   UNL A   1      41.183  33.868  33.146  1.00  0.00     0.058 A 
ATOM     92  C   UNL A   1      41.345  33.430  34.467  1.00  0.00     0.135 A 
ATOM     93  C   UNL A   1      39.892  34.196  32.710  1.00  0.00     0.135 A 
ATOM     94  F   UNL A   1      42.567  33.119  34.925  1.00  0.00    -0.206 F 
ATOM     95  C   UNL A   1      40.260  33.299  35.324  1.00  0.00     0.059 A 
ATOM     96  C   UNL A   1      38.793  34.091  33.554  1.00  0.00     0.059 A 
ATOM     97  F   UNL A   1      39.698  34.650  31.461  1.00  0.00    -0.206 F 
ATOM     98  C   UNL A   1      38.987  33.631  34.857  1.00  0.00     0.060 A 
BRANCH  98  99
ATOM     99  S   UNL A   1      37.592  33.496  35.993  1.00  0.00     0.124 S 
ATOM    100  O   UNL A   1      36.619  34.384  35.367  1.00  0.00    -0.237 OA
ATOM    101  O   UNL A   1      37.284  32.070  35.933  1.00  0.00    -0.237 OA
ATOM    102  O   UNL A   1      38.147  33.957  37.261  1.00  0.00    -0.744 OA
ENDBRANCH  98  99
ENDBRANCH  66  91
BRANCH  78 103
ATOM    103  C   UNL A   1      45.757  39.009  32.101  1.00  0.00     0.058 A 
ATOM    104  C   UNL A   1      45.087  40.105  31.539  1.00  0.00     0.135 A 
ATOM    105  C   UNL A   1      46.526  39.224  33.256  1.00  0.00     0.135 A 
ATOM    106  F   UNL A   1      44.346  39.948  30.431  1.00  0.00    -0.206 F 
ATOM    107  C   UNL A   1      45.191  41.377  32.090  1.00  0.00     0.059 A 
ATOM    108  C   UNL A   1      46.627  40.485  33.837  1.00  0.00     0.059 A 
ATOM    109  F   UNL A   1      47.179  38.205  33.834  1.00  0.00    -0.206 F 
ATOM    110  C   UNL A   1      45.963  41.557  33.240  1.00  0.00     0.060 A 
BRANCH 110 111
ATOM    111  S   UNL A   1      46.065  43.208  33.962  1.00  0.00     0.124 S 
ATOM    112  O   UNL A   1      47.462  43.552  33.712  1.00  0.00    -0.237 OA
ATOM    113  O   UNL A   1      45.081  43.952  33.181  1.00  0.00    -0.237 OA
ATOM    114  O   UNL A   1      45.711  42.990  35.361  1.00  0.00    -0.744 OA
ENDBRANCH 110 111
ENDBRANCH  78 103
ENDBRANCH  52  53
ENDBRANCH  45  47
ENDBRANCH  44  45
ENDBRANCH  43  44
ENDBRANCH  42  43
ENDBRANCH  41  42
ENDBRANCH  40  41
ENDBRANCH   1  40
TORSDOF 26
ENDMDL
MODEL 3
REMARK VINA RESULT:      -7.3      5.812     14.060
REMARK SMILES CC[C@@H](C)[C@H](NC(=O)[C@H](C)N1C(=O)N2CCC3=c4cc(OC)ccc4=N[C@@H]3[C@@]2(C)C1=O)C(=O)OCCOCCOCCOC(=O)c1ccc(-c2c3nc(c(-c4c(F)cc(S(=O)(=O)[O-])cc4F)c4ccc([nH]4)c(-c4c(F)cc(S(=O)(=O)[O-])cc4F)c4nc(c(-c5c(F)cc(S(=O)(=O)[O-])cc5F)c5ccc2[nH]5)C=C4)C=C3)cc1
REMARK SMILES IDX 38 1 37 2 36 3 35 4 34 5 32 6 33 7 5 8 3 9 4 10 2 11 1 12
REMARK SMILES IDX 6 13 7 14 8 16 9 17 10 18 11 19 12 20 30 21 14 22 13 23
REMARK SMILES IDX 28 24 31 25 15 26 27 27 29 28 16 29 17 30 26 31 18 32 25 33
REMARK SMILES IDX 19 34 24 35 20 36 23 37 21 38 22 39 39 40 40 41 41 42 42 43
REMARK SMILES IDX 43 44 44 45 45 46 46 47 47 48 111 49 48 50 110 51 49 52
REMARK SMILES IDX 50 53 51 54 104 55 52 56 109 57 103 58 105 59 53 60 108 61
REMARK SMILES IDX 102 62 101 63 54 65 88 66 67 67 87 68 68 69 71 70 86 71
REMARK SMILES IDX 106 72 69 73 70 74 85 76 107 77 72 78 55 79 56 80 65 81
REMARK SMILES IDX 57 82 58 83 64 84 66 85 59 86 60 87 61 88 62 89 63 90 89 91
REMARK SMILES IDX 90 92 99 93 91 94 92 95 98 96 100 97 93 98 94 99 95 100
REMARK SMILES IDX 96 101 97 102 73 103 74 104 83 105 75 106 76 107 82 108
REMARK SMILES IDX 84 109 77 110 78 111 79 112 80 113 81 114
REMARK H PARENT 6 15 105 64 71 75
REMARK Flexibility Score: inf
ROOT
ATOM      1  C   UNL A   1      35.451  34.324  31.082  1.00  0.00     0.188 C 
ENDROOT
BRANCH   1   2
ATOM      2  O   UNL A   1      35.652  33.891  29.741  1.00  0.00    -0.376 OA
BRANCH   2   3
ATOM      3  C   UNL A   1      34.963  34.551  28.674  1.00  0.00     0.202 C 
BRANCH   3   4
ATOM      4  C   UNL A   1      33.961  33.625  27.967  1.00  0.00     0.261 C 
BRANCH   4   5
ATOM      5  O   UNL A   1      33.598  32.380  28.643  1.00  0.00    -0.462 OA
BRANCH   5   6
ATOM      6  C   UNL A   1      33.466  31.373  27.715  1.00  0.00     0.328 C 
ATOM      7  O   UNL A   1      32.598  31.439  26.841  1.00  0.00    -0.250 OA
BRANCH   6   8
ATOM      8  C   UNL A   1      34.492  30.174  27.741  1.00  0.00     0.195 C 
BRANCH   8   9
ATOM      9  C   UNL A   1      35.843  30.649  28.364  1.00  0.00     0.019 C 
ATOM     10  C   UNL A   1      37.043  30.135  27.550  1.00  0.00     0.010 C 
BRANCH   9  11
ATOM     11  C   UNL A   1      35.910  30.343  29.873  1.00  0.00     0.002 C 
ATOM     12  C   UNL A   1      36.975  29.327  30.250  1.00  0.00     0.004 C 
ENDBRANCH   9  11
ENDBRANCH   8   9
BRANCH   8  13
ATOM     13  N   UNL A   1      34.708  29.303  26.572  1.00  0.00    -0.341 N 
ATOM     14  C   UNL A   1      34.034  28.117  26.373  1.00  0.00     0.243 C 
ATOM     15  H   UNL A   1      35.368  29.583  25.896  1.00  0.00     0.164 HD
ATOM     16  O   UNL A   1      34.777  27.118  26.436  1.00  0.00    -0.273 OA
BRANCH  14  17
ATOM     17  C   UNL A   1      32.615  27.923  25.682  1.00  0.00     0.181 C 
ATOM     18  C   UNL A   1      31.752  27.585  26.938  1.00  0.00     0.042 C 
BRANCH  17  19
ATOM     19  N   UNL A   1      32.225  27.088  24.505  1.00  0.00    -0.250 N 
ATOM     20  C   UNL A   1      32.326  27.361  23.118  1.00  0.00     0.328 C 
ATOM     21  C   UNL A   1      31.491  25.946  24.641  1.00  0.00     0.259 C 
ATOM     22  N   UNL A   1      31.759  26.205  22.392  1.00  0.00    -0.307 N 
ATOM     23  O   UNL A   1      32.873  28.312  22.606  1.00  0.00    -0.248 OA
ATOM     24  C   UNL A   1      31.672  25.187  23.389  1.00  0.00     0.147 C 
ATOM     25  O   UNL A   1      30.824  25.537  25.580  1.00  0.00    -0.271 OA
ATOM     26  C   UNL A   1      32.199  25.604  21.028  1.00  0.00     0.127 C 
ATOM     27  C   UNL A   1      33.127  24.744  23.292  1.00  0.00     0.168 C 
ATOM     28  C   UNL A   1      30.500  24.223  23.147  1.00  0.00     0.048 C 
ATOM     29  C   UNL A   1      32.898  24.001  21.123  1.00  0.00     0.055 C 
ATOM     30  C   UNL A   1      33.228  23.490  22.569  1.00  0.00    -0.032 C 
ATOM     31  N   UNL A   1      34.206  24.928  24.245  1.00  0.00    -0.274 NA
ATOM     32  C   UNL A   1      34.149  22.784  23.277  1.00  0.00     0.005 A 
ATOM     33  C   UNL A   1      34.965  23.961  23.772  1.00  0.00     0.066 A 
ATOM     34  C   UNL A   1      33.797  22.250  24.684  1.00  0.00     0.056 A 
ATOM     35  C   UNL A   1      36.279  23.613  24.302  1.00  0.00     0.032 A 
ATOM     36  C   UNL A   1      34.709  22.432  25.689  1.00  0.00     0.119 A 
ATOM     37  C   UNL A   1      36.081  22.815  25.357  1.00  0.00     0.048 A 
BRANCH  36  38
ATOM     38  O   UNL A   1      34.383  22.572  27.017  1.00  0.00    -0.497 OA
ATOM     39  C   UNL A   1      33.235  23.426  27.229  1.00  0.00     0.278 C 
ENDBRANCH  36  38
ENDBRANCH  17  19
ENDBRANCH  14  17
ENDBRANCH   8  13
ENDBRANCH   6   8
ENDBRANCH   5   6
ENDBRANCH   4   5
ENDBRANCH   3   4
ENDBRANCH   2   3
ENDBRANCH   1   2
BRANCH   1  40
ATOM     40  C   UNL A   1      34.044  34.743  31.499  1.00  0.00     0.188 C 
BRANCH  40  41
ATOM     41  O   UNL A   1      33.565  34.254  32.753  1.00  0.00    -0.376 OA
BRANCH  41  42
ATOM     42  C   UNL A   1      34.460  33.444  33.503  1.00  0.00     0.202 C 
BRANCH  42  43
ATOM     43  C   UNL A   1      35.124  34.122  34.706  1.00  0.00     0.261 C 
BRANCH  43  44
ATOM     44  O   UNL A   1      36.455  34.589  34.443  1.00  0.00    -0.460 OA
BRANCH  44  45
ATOM     45  C   UNL A   1      37.448  33.771  34.893  1.00  0.00     0.338 C 
ATOM     46  O   UNL A   1      37.407  33.087  35.904  1.00  0.00    -0.246 OA
BRANCH  45  47
ATOM     47  C   UNL A   1      38.597  33.746  33.945  1.00  0.00     0.060 A 
ATOM     48  C   UNL A   1      38.509  34.219  32.630  1.00  0.00     0.016 A 
ATOM     49  C   UNL A   1      39.802  33.186  34.394  1.00  0.00     0.016 A 
ATOM     50  C   UNL A   1      39.621  34.149  31.778  1.00  0.00     0.010 A 
ATOM     51  C   UNL A   1      40.893  33.066  33.526  1.00  0.00     0.010 A 
ATOM     52  C   UNL A   1      40.823  33.573  32.216  1.00  0.00    -0.014 A 
BRANCH  52  53
ATOM     53  C   UNL A   1      42.057  33.671  31.390  1.00  0.00     0.031 A 
ATOM     54  C   UNL A   1      42.980  34.858  31.418  1.00  0.00     0.074 A 
ATOM     55  C   UNL A   1      42.351  32.624  30.597  1.00  0.00     0.049 A 
ATOM     56  N   UNL A   1      44.007  35.131  30.652  1.00  0.00    -0.248 NA
ATOM     57  C   UNL A   1      42.694  35.898  32.406  1.00  0.00     0.031 C 
ATOM     58  C   UNL A   1      41.567  31.388  30.509  1.00  0.00     0.029 A 
ATOM     59  N   UNL A   1      43.390  32.423  29.731  1.00  0.00    -0.354 N 
ATOM     60  C   UNL A   1      44.443  36.400  31.023  1.00  0.00     0.074 A 
ATOM     61  C   UNL A   1      43.539  36.860  32.054  1.00  0.00     0.031 C 
ATOM     62  C   UNL A   1      42.153  30.559  29.634  1.00  0.00     0.029 A 
ATOM     63  C   UNL A   1      43.355  31.198  29.112  1.00  0.00     0.049 A 
ATOM     64  H   UNL A   1      44.095  33.091  29.566  1.00  0.00     0.167 HD
ATOM     65  C   UNL A   1      45.517  37.095  30.577  1.00  0.00     0.037 A 
ATOM     66  C   UNL A   1      44.211  30.637  28.242  1.00  0.00     0.037 A 
ATOM     67  C   UNL A   1      46.511  36.551  29.684  1.00  0.00     0.049 A 
ATOM     68  C   UNL A   1      45.458  31.372  27.859  1.00  0.00     0.074 A 
ATOM     69  C   UNL A   1      47.704  37.125  29.272  1.00  0.00     0.029 A 
ATOM     70  N   UNL A   1      46.461  35.288  29.115  1.00  0.00    -0.354 N 
ATOM     71  N   UNL A   1      45.843  32.576  28.206  1.00  0.00    -0.248 NA
ATOM     72  C   UNL A   1      46.402  30.661  26.988  1.00  0.00     0.031 C 
ATOM     73  C   UNL A   1      48.373  36.208  28.454  1.00  0.00     0.029 A 
ATOM     74  C   UNL A   1      47.607  35.059  28.373  1.00  0.00     0.049 A 
ATOM     75  H   UNL A   1      45.720  34.649  29.223  1.00  0.00     0.167 HD
ATOM     76  C   UNL A   1      47.089  32.755  27.621  1.00  0.00     0.074 A 
ATOM     77  C   UNL A   1      47.397  31.534  26.904  1.00  0.00     0.031 C 
ATOM     78  C   UNL A   1      47.906  33.835  27.676  1.00  0.00     0.037 A 
BRANCH  65  79
ATOM     79  C   UNL A   1      45.747  38.494  31.088  1.00  0.00     0.058 A 
ATOM     80  C   UNL A   1      46.596  38.752  32.175  1.00  0.00     0.135 A 
ATOM     81  C   UNL A   1      45.219  39.601  30.399  1.00  0.00     0.135 A 
ATOM     82  F   UNL A   1      47.122  37.737  32.877  1.00  0.00    -0.206 F 
ATOM     83  C   UNL A   1      46.910  40.051  32.564  1.00  0.00     0.059 A 
ATOM     84  C   UNL A   1      45.543  40.909  30.751  1.00  0.00     0.059 A 
ATOM     85  F   UNL A   1      44.401  39.417  29.349  1.00  0.00    -0.206 F 
ATOM     86  C   UNL A   1      46.387  41.123  31.840  1.00  0.00     0.060 A 
BRANCH  86  87
ATOM     87  S   UNL A   1      46.858  42.800  32.319  1.00  0.00     0.124 S 
ATOM     88  O   UNL A   1      47.489  42.563  33.614  1.00  0.00    -0.237 OA
ATOM     89  O   UNL A   1      47.756  43.195  31.239  1.00  0.00    -0.237 OA
ATOM     90  O   UNL A   1      45.583  43.510  32.364  1.00  0.00    -0.744 OA
ENDBRANCH  86  87
ENDBRANCH  65  79
BRANCH  66  91
ATOM     91  C   UNL A   1      43.950  29.262  27.761  1.00  0.00     0.058 A 
ATOM     92  C   UNL A   1      43.126  29.046  26.648  1.00  0.00     0.135 A 
ATOM     93  C   UNL A   1      44.556  28.151  28.363  1.00  0.00     0.135 A 
ATOM     94  F   UNL A   1      42.538  30.085  26.037  1.00  0.00    -0.206 F 
ATOM     95  C   UNL A   1      42.892  27.767  26.159  1.00  0.00     0.059 A 
ATOM     96  C   UNL A   1      44.352  26.863  27.881  1.00  0.00     0.059 A 
ATOM     97  F   UNL A   1      45.377  28.319  29.412  1.00  0.00    -0.206 F 
ATOM     98  C   UNL A   1      43.509  26.682  26.784  1.00  0.00     0.060 A 
BRANCH  98  99
ATOM     99  S   UNL A   1      43.229  25.030  26.114  1.00  0.00     0.124 S 
ATOM    100  O   UNL A   1      42.288  24.479  27.083  1.00  0.00    -0.237 OA
ATOM    101  O   UNL A   1      42.684  25.323  24.791  1.00  0.00    -0.237 OA
ATOM    102  O   UNL A   1      44.562  24.437  26.117  1.00  0.00    -0.744 OA
ENDBRANCH  98  99
ENDBRANCH  66  91
BRANCH  78 103
ATOM    103  C   UNL A   1      49.221  33.736  26.963  1.00  0.00     0.058 A 
ATOM    104  C   UNL A   1      49.389  34.249  25.668  1.00  0.00     0.135 A 
ATOM    105  C   UNL A   1      50.334  33.160  27.595  1.00  0.00     0.135 A 
ATOM    106  F   UNL A   1      48.351  34.803  25.022  1.00  0.00    -0.206 F 
ATOM    107  C   UNL A   1      50.612  34.176  25.014  1.00  0.00     0.059 A 
ATOM    108  C   UNL A   1      51.574  33.095  26.967  1.00  0.00     0.059 A 
ATOM    109  F   UNL A   1      50.225  32.662  28.836  1.00  0.00    -0.206 F 
ATOM    110  C   UNL A   1      51.700  33.598  25.672  1.00  0.00     0.060 A 
BRANCH 110 111
ATOM    111  S   UNL A   1      53.291  33.537  24.820  1.00  0.00     0.124 S 
ATOM    112  O   UNL A   1      54.091  32.745  25.750  1.00  0.00    -0.237 OA
ATOM    113  O   UNL A   1      52.947  32.880  23.563  1.00  0.00    -0.237 OA
ATOM    114  O   UNL A   1      53.668  34.942  24.705  1.00  0.00    -0.744 OA
ENDBRANCH 110 111
ENDBRANCH  78 103
ENDBRANCH  52  53
ENDBRANCH  45  47
ENDBRANCH  44  45
ENDBRANCH  43  44
ENDBRANCH  42  43
ENDBRANCH  41  42
ENDBRANCH  40  41
ENDBRANCH   1  40
TORSDOF 26
ENDMDL
