MODEL 1
REMARK VINA RESULT:      -9.7      0.000      0.000
REMARK SMILES CCC[NH2+][C@]1(C(=O)OCCOCCOCCOC(=O)c2ccc(-c3c4nc(c(-c5c(F)cc(S(=O)(=O)[O-])cc5F)c5ccc([nH]5)c(-c5c(F)cc(S(=O)(=O)[O-])cc5F)c5nc(c(-c6c(F)cc(S(=O)(=O)[O-])cc6F)c6ccc3[nH]6)C=C5)C=C4)cc2)CCC[C@H](Sc2nnc(C)o2)C1
REMARK SMILES IDX 12 1 11 2 10 3 9 4 8 5 6 6 7 7 5 8 86 9 97 10 87 11 89 12
REMARK SMILES IDX 88 13 4 14 3 17 2 18 1 19 90 20 91 21 92 22 96 23 93 24
REMARK SMILES IDX 94 25 95 26 13 27 14 28 15 29 16 30 17 31 18 32 19 33 20 34
REMARK SMILES IDX 21 35 85 36 22 37 84 38 23 39 24 40 25 41 78 42 26 43 83 44
REMARK SMILES IDX 77 45 79 46 27 47 82 48 76 49 75 50 28 52 62 53 41 54 61 55
REMARK SMILES IDX 42 56 45 57 60 58 80 59 43 60 44 61 59 63 81 64 46 65 29 66
REMARK SMILES IDX 30 67 39 68 31 69 32 70 38 71 40 72 33 73 34 74 35 75 36 76
REMARK SMILES IDX 37 77 63 78 64 79 73 80 65 81 66 82 72 83 74 84 67 85 68 86
REMARK SMILES IDX 69 87 70 88 71 89 47 90 48 91 57 92 49 93 50 94 56 95 58 96
REMARK SMILES IDX 51 97 52 98 53 99 54 100 55 101
REMARK H PARENT 4 15 4 16 79 51 45 62
REMARK Flexibility Score: inf
ROOT
ATOM      1  C   UNL A   1      37.419  20.798  24.911  1.00  0.00     0.188 C 
ENDROOT
BRANCH   1   2
ATOM      2  O   UNL A   1      36.166  20.884  25.536  1.00  0.00    -0.376 OA
BRANCH   2   3
ATOM      3  C   UNL A   1      35.888  21.916  26.460  1.00  0.00     0.202 C 
BRANCH   3   4
ATOM      4  C   UNL A   1      34.538  22.634  26.661  1.00  0.00     0.261 C 
BRANCH   4   5
ATOM      5  O   UNL A   1      33.879  23.248  25.549  1.00  0.00    -0.459 OA
BRANCH   5   6
ATOM      6  C   UNL A   1      34.319  24.495  25.229  1.00  0.00     0.368 C 
ATOM      7  O   UNL A   1      35.500  24.745  24.986  1.00  0.00    -0.245 OA
BRANCH   6   8
ATOM      8  C   UNL A   1      33.184  25.594  25.147  1.00  0.00     0.195 C 
ATOM      9  C   UNL A   1      32.006  25.061  25.997  1.00  0.00     0.081 C 
ATOM     10  C   UNL A   1      33.622  26.991  25.668  1.00  0.00     0.096 C 
ATOM     11  C   UNL A   1      30.826  26.017  26.087  1.00  0.00     0.008 C 
ATOM     12  C   UNL A   1      32.515  27.992  26.116  1.00  0.00     0.063 C 
ATOM     13  C   UNL A   1      31.231  27.361  26.676  1.00  0.00     0.015 C 
BRANCH   8  14
ATOM     14  N   UNL A   1      32.829  25.539  23.717  1.00  0.00    -0.332 N 
ATOM     15  H   UNL A   1      32.363  26.421  23.505  1.00  0.00     0.347 HD
ATOM     16  H   UNL A   1      33.729  25.332  23.285  1.00  0.00     0.347 HD
BRANCH  14  17
ATOM     17  C   UNL A   1      31.994  24.506  23.172  1.00  0.00     0.261 C 
BRANCH  17  18
ATOM     18  C   UNL A   1      32.832  23.490  22.395  1.00  0.00     0.058 C 
ATOM     19  C   UNL A   1      32.306  22.065  22.514  1.00  0.00     0.010 C 
ENDBRANCH  17  18
ENDBRANCH  14  17
ENDBRANCH   8  14
BRANCH  12  20
ATOM     20  S   UNL A   1      32.447  29.447  24.998  1.00  0.00    -0.062 SA
BRANCH  20  21
ATOM     21  C   UNL A   1      31.285  29.127  23.758  1.00  0.00     0.276 A 
ATOM     22  N   UNL A   1      31.446  28.304  22.743  1.00  0.00    -0.101 NA
ATOM     23  O   UNL A   1      29.986  29.569  23.858  1.00  0.00    -0.416 OA
ATOM     24  N   UNL A   1      30.220  28.191  22.116  1.00  0.00    -0.112 NA
ATOM     25  C   UNL A   1      29.386  28.936  22.806  1.00  0.00     0.214 A 
ATOM     26  C   UNL A   1      27.932  29.121  22.644  1.00  0.00     0.113 C 
ENDBRANCH  20  21
ENDBRANCH  12  20
ENDBRANCH   6   8
ENDBRANCH   5   6
ENDBRANCH   4   5
ENDBRANCH   3   4
ENDBRANCH   2   3
ENDBRANCH   1   2
BRANCH   1  27
ATOM     27  C   UNL A   1      38.321  19.626  25.341  1.00  0.00     0.188 C 
BRANCH  27  28
ATOM     28  O   UNL A   1      39.728  19.731  25.256  1.00  0.00    -0.376 OA
BRANCH  28  29
ATOM     29  C   UNL A   1      40.458  20.137  26.402  1.00  0.00     0.202 C 
BRANCH  29  30
ATOM     30  C   UNL A   1      40.294  21.537  27.020  1.00  0.00     0.261 C 
BRANCH  30  31
ATOM     31  O   UNL A   1      40.316  22.646  26.111  1.00  0.00    -0.460 OA
BRANCH  31  32
ATOM     32  C   UNL A   1      41.460  23.383  26.113  1.00  0.00     0.338 C 
ATOM     33  O   UNL A   1      42.470  23.173  25.469  1.00  0.00    -0.246 OA
BRANCH  32  34
ATOM     34  C   UNL A   1      41.236  24.622  26.887  1.00  0.00     0.060 A 
ATOM     35  C   UNL A   1      41.978  25.775  26.575  1.00  0.00     0.016 A 
ATOM     36  C   UNL A   1      40.331  24.627  27.944  1.00  0.00     0.016 A 
ATOM     37  C   UNL A   1      41.826  26.934  27.337  1.00  0.00     0.010 A 
ATOM     38  C   UNL A   1      40.204  25.777  28.724  1.00  0.00     0.010 A 
ATOM     39  C   UNL A   1      40.970  26.925  28.444  1.00  0.00    -0.014 A 
BRANCH  39  40
ATOM     40  C   UNL A   1      41.006  28.012  29.450  1.00  0.00     0.031 A 
ATOM     41  C   UNL A   1      42.006  27.903  30.567  1.00  0.00     0.074 A 
ATOM     42  C   UNL A   1      40.130  29.032  29.420  1.00  0.00     0.049 A 
ATOM     43  N   UNL A   1      42.095  28.588  31.676  1.00  0.00    -0.248 NA
ATOM     44  C   UNL A   1      43.037  26.864  30.412  1.00  0.00     0.031 C 
ATOM     45  C   UNL A   1      39.153  29.279  28.363  1.00  0.00     0.029 A 
ATOM     46  N   UNL A   1      39.901  30.032  30.334  1.00  0.00    -0.354 N 
ATOM     47  C   UNL A   1      43.169  28.041  32.368  1.00  0.00     0.074 A 
ATOM     48  C   UNL A   1      43.691  26.961  31.559  1.00  0.00     0.031 C 
ATOM     49  C   UNL A   1      38.402  30.342  28.705  1.00  0.00     0.029 A 
ATOM     50  C   UNL A   1      38.812  30.815  30.028  1.00  0.00     0.049 A 
ATOM     51  H   UNL A   1      40.461  30.174  31.131  1.00  0.00     0.167 HD
ATOM     52  C   UNL A   1      43.668  28.403  33.573  1.00  0.00     0.037 A 
ATOM     53  C   UNL A   1      38.192  31.768  30.754  1.00  0.00     0.037 A 
ATOM     54  C   UNL A   1      43.132  29.475  34.371  1.00  0.00     0.049 A 
ATOM     55  C   UNL A   1      38.716  32.112  32.126  1.00  0.00     0.074 A 
ATOM     56  C   UNL A   1      43.569  29.933  35.600  1.00  0.00     0.029 A 
ATOM     57  N   UNL A   1      42.032  30.247  34.024  1.00  0.00    -0.354 N 
ATOM     58  N   UNL A   1      39.731  31.594  32.776  1.00  0.00    -0.248 NA
ATOM     59  C   UNL A   1      38.010  33.167  32.867  1.00  0.00     0.031 C 
ATOM     60  C   UNL A   1      42.698  30.941  36.025  1.00  0.00     0.029 A 
ATOM     61  C   UNL A   1      41.762  31.163  35.026  1.00  0.00     0.049 A 
ATOM     62  H   UNL A   1      41.520  30.157  33.188  1.00  0.00     0.167 HD
ATOM     63  C   UNL A   1      39.811  32.287  33.980  1.00  0.00     0.074 A 
ATOM     64  C   UNL A   1      38.737  33.257  33.972  1.00  0.00     0.031 C 
ATOM     65  C   UNL A   1      40.700  32.141  34.995  1.00  0.00     0.037 A 
BRANCH  52  66
ATOM     66  C   UNL A   1      44.816  27.600  34.120  1.00  0.00     0.058 A 
ATOM     67  C   UNL A   1      44.617  26.447  34.897  1.00  0.00     0.135 A 
ATOM     68  C   UNL A   1      46.140  27.989  33.857  1.00  0.00     0.135 A 
ATOM     69  F   UNL A   1      43.374  26.039  35.196  1.00  0.00    -0.206 F 
ATOM     70  C   UNL A   1      45.688  25.732  35.426  1.00  0.00     0.059 A 
ATOM     71  C   UNL A   1      47.226  27.269  34.347  1.00  0.00     0.059 A 
ATOM     72  F   UNL A   1      46.390  29.084  33.122  1.00  0.00    -0.206 F 
ATOM     73  C   UNL A   1      46.989  26.154  35.147  1.00  0.00     0.060 A 
BRANCH  73  74
ATOM     74  S   UNL A   1      48.367  25.225  35.853  1.00  0.00     0.124 S 
ATOM     75  O   UNL A   1      49.503  25.803  35.140  1.00  0.00    -0.237 OA
ATOM     76  O   UNL A   1      48.273  25.559  37.270  1.00  0.00    -0.237 OA
ATOM     77  O   UNL A   1      48.053  23.841  35.515  1.00  0.00    -0.744 OA
ENDBRANCH  73  74
ENDBRANCH  52  66
BRANCH  53  78
ATOM     78  C   UNL A   1      36.992  32.453  30.201  1.00  0.00     0.058 A 
ATOM     79  C   UNL A   1      35.701  32.099  30.619  1.00  0.00     0.135 A 
ATOM     80  C   UNL A   1      37.111  33.489  29.261  1.00  0.00     0.135 A 
ATOM     81  F   UNL A   1      35.532  31.103  31.502  1.00  0.00    -0.206 F 
ATOM     82  C   UNL A   1      34.571  32.745  30.125  1.00  0.00     0.059 A 
ATOM     83  C   UNL A   1      35.999  34.170  28.774  1.00  0.00     0.059 A 
ATOM     84  F   UNL A   1      38.324  33.871  28.830  1.00  0.00    -0.206 F 
ATOM     85  C   UNL A   1      34.731  33.787  29.210  1.00  0.00     0.060 A 
BRANCH  85  86
ATOM     86  S   UNL A   1      33.261  34.666  28.638  1.00  0.00     0.124 S 
ATOM     87  O   UNL A   1      33.848  35.840  28.002  1.00  0.00    -0.237 OA
ATOM     88  O   UNL A   1      32.653  33.690  27.739  1.00  0.00    -0.237 OA
ATOM     89  O   UNL A   1      32.520  34.921  29.869  1.00  0.00    -0.744 OA
ENDBRANCH  85  86
ENDBRANCH  53  78
BRANCH  65  90
ATOM     90  C   UNL A   1      40.611  33.091  36.161  1.00  0.00     0.058 A 
ATOM     91  C   UNL A   1      41.396  34.251  36.241  1.00  0.00     0.135 A 
ATOM     92  C   UNL A   1      39.650  32.879  37.164  1.00  0.00     0.135 A 
ATOM     93  F   UNL A   1      42.333  34.501  35.314  1.00  0.00    -0.206 F 
ATOM     94  C   UNL A   1      41.235  35.165  37.280  1.00  0.00     0.059 A 
ATOM     95  C   UNL A   1      39.451  33.793  38.194  1.00  0.00     0.059 A 
ATOM     96  F   UNL A   1      38.866  31.790  37.129  1.00  0.00    -0.206 F 
ATOM     97  C   UNL A   1      40.253  34.931  38.247  1.00  0.00     0.060 A 
BRANCH  97  98
ATOM     98  S   UNL A   1      40.011  36.157  39.551  1.00  0.00     0.124 S 
ATOM     99  O   UNL A   1      41.388  36.440  39.948  1.00  0.00    -0.237 OA
ATOM    100  O   UNL A   1      39.321  37.231  38.845  1.00  0.00    -0.237 OA
ATOM    101  O   UNL A   1      39.207  35.447  40.542  1.00  0.00    -0.744 OA
ENDBRANCH  97  98
ENDBRANCH  65  90
ENDBRANCH  39  40
ENDBRANCH  32  34
ENDBRANCH  31  32
ENDBRANCH  30  31
ENDBRANCH  29  30
ENDBRANCH  28  29
ENDBRANCH  27  28
ENDBRANCH   1  27
TORSDOF 25
ENDMDL
MODEL 2
REMARK VINA RESULT:      -9.5      1.555      2.411
REMARK SMILES CCC[NH2+][C@]1(C(=O)OCCOCCOCCOC(=O)c2ccc(-c3c4nc(c(-c5c(F)cc(S(=O)(=O)[O-])cc5F)c5ccc([nH]5)c(-c5c(F)cc(S(=O)(=O)[O-])cc5F)c5nc(c(-c6c(F)cc(S(=O)(=O)[O-])cc6F)c6ccc3[nH]6)C=C5)C=C4)cc2)CCC[C@H](Sc2nnc(C)o2)C1
REMARK SMILES IDX 12 1 11 2 10 3 9 4 8 5 6 6 7 7 5 8 86 9 97 10 87 11 89 12
REMARK SMILES IDX 88 13 4 14 3 17 2 18 1 19 90 20 91 21 92 22 96 23 93 24
REMARK SMILES IDX 94 25 95 26 13 27 14 28 15 29 16 30 17 31 18 32 19 33 20 34
REMARK SMILES IDX 21 35 85 36 22 37 84 38 23 39 24 40 25 41 78 42 26 43 83 44
REMARK SMILES IDX 77 45 79 46 27 47 82 48 76 49 75 50 28 52 62 53 41 54 61 55
REMARK SMILES IDX 42 56 45 57 60 58 80 59 43 60 44 61 59 63 81 64 46 65 29 66
REMARK SMILES IDX 30 67 39 68 31 69 32 70 38 71 40 72 33 73 34 74 35 75 36 76
REMARK SMILES IDX 37 77 63 78 64 79 73 80 65 81 66 82 72 83 74 84 67 85 68 86
REMARK SMILES IDX 69 87 70 88 71 89 47 90 48 91 57 92 49 93 50 94 56 95 58 96
REMARK SMILES IDX 51 97 52 98 53 99 54 100 55 101
REMARK H PARENT 4 15 4 16 79 51 45 62
REMARK Flexibility Score: inf
ROOT
ATOM      1  C   UNL A   1      37.597  20.900  24.731  1.00  0.00     0.188 C 
ENDROOT
BRANCH   1   2
ATOM      2  O   UNL A   1      36.676  21.291  25.715  1.00  0.00    -0.376 OA
BRANCH   2   3
ATOM      3  C   UNL A   1      35.291  21.330  25.436  1.00  0.00     0.202 C 
BRANCH   3   4
ATOM      4  C   UNL A   1      34.142  21.209  26.456  1.00  0.00     0.261 C 
BRANCH   4   5
ATOM      5  O   UNL A   1      33.262  22.315  26.682  1.00  0.00    -0.459 OA
BRANCH   5   6
ATOM      6  C   UNL A   1      32.193  22.386  25.845  1.00  0.00     0.368 C 
ATOM      7  O   UNL A   1      31.562  21.393  25.480  1.00  0.00    -0.245 OA
BRANCH   6   8
ATOM      8  C   UNL A   1      31.789  23.854  25.412  1.00  0.00     0.195 C 
ATOM      9  C   UNL A   1      30.325  24.051  25.874  1.00  0.00     0.081 C 
ATOM     10  C   UNL A   1      32.690  24.961  26.024  1.00  0.00     0.096 C 
ATOM     11  C   UNL A   1      29.770  25.439  25.593  1.00  0.00     0.008 C 
ATOM     12  C   UNL A   1      32.125  26.411  26.106  1.00  0.00     0.063 C 
ATOM     13  C   UNL A   1      30.601  26.526  26.261  1.00  0.00     0.015 C 
BRANCH   8  14
ATOM     14  N   UNL A   1      31.834  23.745  23.942  1.00  0.00    -0.332 N 
ATOM     15  H   UNL A   1      31.523  22.800  23.717  1.00  0.00     0.347 HD
ATOM     16  H   UNL A   1      31.265  24.541  23.655  1.00  0.00     0.347 HD
BRANCH  14  17
ATOM     17  C   UNL A   1      33.040  23.958  23.193  1.00  0.00     0.261 C 
BRANCH  17  18
ATOM     18  C   UNL A   1      32.780  24.887  22.006  1.00  0.00     0.058 C 
ATOM     19  C   UNL A   1      31.511  25.715  22.162  1.00  0.00     0.010 C 
ENDBRANCH  17  18
ENDBRANCH  14  17
ENDBRANCH   8  14
BRANCH  12  20
ATOM     20  S   UNL A   1      33.054  27.547  25.002  1.00  0.00    -0.062 SA
BRANCH  20  21
ATOM     21  C   UNL A   1      33.730  28.813  25.967  1.00  0.00     0.276 A 
ATOM     22  N   UNL A   1      33.295  30.055  26.025  1.00  0.00    -0.101 NA
ATOM     23  O   UNL A   1      34.675  28.556  26.932  1.00  0.00    -0.416 OA
ATOM     24  N   UNL A   1      33.978  30.674  27.054  1.00  0.00    -0.112 NA
ATOM     25  C   UNL A   1      34.768  29.760  27.571  1.00  0.00     0.214 A 
ATOM     26  C   UNL A   1      35.659  29.838  28.743  1.00  0.00     0.113 C 
ENDBRANCH  20  21
ENDBRANCH  12  20
ENDBRANCH   6   8
ENDBRANCH   5   6
ENDBRANCH   4   5
ENDBRANCH   3   4
ENDBRANCH   2   3
ENDBRANCH   1   2
BRANCH   1  27
ATOM     27  C   UNL A   1      38.456  19.663  25.050  1.00  0.00     0.188 C 
BRANCH  27  28
ATOM     28  O   UNL A   1      39.744  19.808  25.616  1.00  0.00    -0.376 OA
BRANCH  28  29
ATOM     29  C   UNL A   1      39.994  20.898  26.487  1.00  0.00     0.202 C 
BRANCH  29  30
ATOM     30  C   UNL A   1      41.099  21.931  26.204  1.00  0.00     0.261 C 
BRANCH  30  31
ATOM     31  O   UNL A   1      41.122  23.094  27.044  1.00  0.00    -0.460 OA
BRANCH  31  32
ATOM     32  C   UNL A   1      41.931  24.104  26.626  1.00  0.00     0.338 C 
ATOM     33  O   UNL A   1      42.666  24.102  25.657  1.00  0.00    -0.246 OA
BRANCH  32  34
ATOM     34  C   UNL A   1      41.647  25.315  27.424  1.00  0.00     0.060 A 
ATOM     35  C   UNL A   1      42.486  26.435  27.301  1.00  0.00     0.016 A 
ATOM     36  C   UNL A   1      40.582  25.321  28.321  1.00  0.00     0.016 A 
ATOM     37  C   UNL A   1      42.271  27.563  28.095  1.00  0.00     0.010 A 
ATOM     38  C   UNL A   1      40.388  26.437  29.136  1.00  0.00     0.010 A 
ATOM     39  C   UNL A   1      41.246  27.551  29.048  1.00  0.00    -0.014 A 
BRANCH  39  40
ATOM     40  C   UNL A   1      41.172  28.584  30.108  1.00  0.00     0.031 A 
ATOM     41  C   UNL A   1      42.079  28.436  31.298  1.00  0.00     0.074 A 
ATOM     42  C   UNL A   1      40.277  29.586  30.057  1.00  0.00     0.049 A 
ATOM     43  N   UNL A   1      42.059  29.062  32.444  1.00  0.00    -0.248 NA
ATOM     44  C   UNL A   1      43.145  27.427  31.177  1.00  0.00     0.031 C 
ATOM     45  C   UNL A   1      39.385  29.868  28.936  1.00  0.00     0.029 A 
ATOM     46  N   UNL A   1      39.949  30.531  30.999  1.00  0.00    -0.354 N 
ATOM     47  C   UNL A   1      43.086  28.502  33.195  1.00  0.00     0.074 A 
ATOM     48  C   UNL A   1      43.699  27.476  32.378  1.00  0.00     0.031 C 
ATOM     49  C   UNL A   1      38.583  30.896  29.268  1.00  0.00     0.029 A 
ATOM     50  C   UNL A   1      38.871  31.307  30.643  1.00  0.00     0.049 A 
ATOM     51  H   UNL A   1      40.438  30.642  31.846  1.00  0.00     0.167 HD
ATOM     52  C   UNL A   1      43.475  28.809  34.454  1.00  0.00     0.037 A 
ATOM     53  C   UNL A   1      38.170  32.208  31.362  1.00  0.00     0.037 A 
ATOM     54  C   UNL A   1      42.849  29.826  35.258  1.00  0.00     0.049 A 
ATOM     55  C   UNL A   1      38.570  32.488  32.789  1.00  0.00     0.074 A 
ATOM     56  C   UNL A   1      43.172  30.227  36.541  1.00  0.00     0.029 A 
ATOM     57  N   UNL A   1      41.763  30.593  34.860  1.00  0.00    -0.354 N 
ATOM     58  N   UNL A   1      39.541  31.957  33.495  1.00  0.00    -0.248 NA
ATOM     59  C   UNL A   1      37.780  33.489  33.521  1.00  0.00     0.031 C 
ATOM     60  C   UNL A   1      42.244  31.193  36.942  1.00  0.00     0.029 A 
ATOM     61  C   UNL A   1      41.388  31.449  35.882  1.00  0.00     0.049 A 
ATOM     62  H   UNL A   1      41.323  30.537  33.981  1.00  0.00     0.167 HD
ATOM     63  C   UNL A   1      39.504  32.588  34.735  1.00  0.00     0.074 A 
ATOM     64  C   UNL A   1      38.410  33.535  34.687  1.00  0.00     0.031 C 
ATOM     65  C   UNL A   1      40.309  32.406  35.812  1.00  0.00     0.037 A 
BRANCH  52  66
ATOM     66  C   UNL A   1      44.593  28.001  35.054  1.00  0.00     0.058 A 
ATOM     67  C   UNL A   1      45.942  28.362  34.897  1.00  0.00     0.135 A 
ATOM     68  C   UNL A   1      44.309  26.848  35.804  1.00  0.00     0.135 A 
ATOM     69  F   UNL A   1      46.273  29.443  34.175  1.00  0.00    -0.206 F 
ATOM     70  C   UNL A   1      46.968  27.587  35.428  1.00  0.00     0.059 A 
ATOM     71  C   UNL A   1      45.318  26.077  36.373  1.00  0.00     0.059 A 
ATOM     72  F   UNL A   1      43.038  26.454  35.984  1.00  0.00    -0.206 F 
ATOM     73  C   UNL A   1      46.645  26.444  36.162  1.00  0.00     0.060 A 
BRANCH  73  74
ATOM     74  S   UNL A   1      47.989  25.440  36.832  1.00  0.00     0.124 S 
ATOM     75  O   UNL A   1      49.084  26.406  36.864  1.00  0.00    -0.237 OA
ATOM     76  O   UNL A   1      47.460  25.039  38.131  1.00  0.00    -0.237 OA
ATOM     77  O   UNL A   1      48.129  24.365  35.855  1.00  0.00    -0.744 OA
ENDBRANCH  73  74
ENDBRANCH  52  66
BRANCH  53  78
ATOM     78  C   UNL A   1      37.003  32.896  30.746  1.00  0.00     0.058 A 
ATOM     79  C   UNL A   1      37.181  33.903  29.786  1.00  0.00     0.135 A 
ATOM     80  C   UNL A   1      35.686  32.547  31.087  1.00  0.00     0.135 A 
ATOM     81  F   UNL A   1      38.419  34.286  29.439  1.00  0.00    -0.206 F 
ATOM     82  C   UNL A   1      36.098  34.541  29.187  1.00  0.00     0.059 A 
ATOM     83  C   UNL A   1      34.587  33.149  30.482  1.00  0.00     0.059 A 
ATOM     84  F   UNL A   1      35.459  31.586  31.996  1.00  0.00    -0.206 F 
ATOM     85  C   UNL A   1      34.804  34.149  29.535  1.00  0.00     0.060 A 
BRANCH  85  86
ATOM     86  S   UNL A   1      33.410  34.932  28.693  1.00  0.00     0.124 S 
ATOM     87  O   UNL A   1      34.079  35.973  27.922  1.00  0.00    -0.237 OA
ATOM     88  O   UNL A   1      32.858  33.823  27.924  1.00  0.00    -0.237 OA
ATOM     89  O   UNL A   1      32.574  35.401  29.793  1.00  0.00    -0.744 OA
ENDBRANCH  85  86
ENDBRANCH  53  78
BRANCH  65  90
ATOM     90  C   UNL A   1      40.101  33.291  37.013  1.00  0.00     0.058 A 
ATOM     91  C   UNL A   1      40.803  34.493  37.187  1.00  0.00     0.135 A 
ATOM     92  C   UNL A   1      39.108  32.970  37.954  1.00  0.00     0.135 A 
ATOM     93  F   UNL A   1      41.767  34.846  36.322  1.00  0.00    -0.206 F 
ATOM     94  C   UNL A   1      40.532  35.344  38.256  1.00  0.00     0.059 A 
ATOM     95  C   UNL A   1      38.799  33.819  39.013  1.00  0.00     0.059 A 
ATOM     96  F   UNL A   1      38.399  31.837  37.829  1.00  0.00    -0.206 F 
ATOM     97  C   UNL A   1      39.521  35.002  39.158  1.00  0.00     0.060 A 
BRANCH  97  98
ATOM     98  S   UNL A   1      39.136  36.145  40.503  1.00  0.00     0.124 S 
ATOM     99  O   UNL A   1      38.711  37.333  39.768  1.00  0.00    -0.237 OA
ATOM    100  O   UNL A   1      38.084  35.435  41.223  1.00  0.00    -0.237 OA
ATOM    101  O   UNL A   1      40.403  36.269  41.218  1.00  0.00    -0.744 OA
ENDBRANCH  97  98
ENDBRANCH  65  90
ENDBRANCH  39  40
ENDBRANCH  32  34
ENDBRANCH  31  32
ENDBRANCH  30  31
ENDBRANCH  29  30
ENDBRANCH  28  29
ENDBRANCH  27  28
ENDBRANCH   1  27
TORSDOF 25
ENDMDL
MODEL 3
REMARK VINA RESULT:      -8.8      1.769      8.387
REMARK SMILES CCC[NH2+][C@]1(C(=O)OCCOCCOCCOC(=O)c2ccc(-c3c4nc(c(-c5c(F)cc(S(=O)(=O)[O-])cc5F)c5ccc([nH]5)c(-c5c(F)cc(S(=O)(=O)[O-])cc5F)c5nc(c(-c6c(F)cc(S(=O)(=O)[O-])cc6F)c6ccc3[nH]6)C=C5)C=C4)cc2)CCC[C@H](Sc2nnc(C)o2)C1
REMARK SMILES IDX 12 1 11 2 10 3 9 4 8 5 6 6 7 7 5 8 86 9 97 10 87 11 89 12
REMARK SMILES IDX 88 13 4 14 3 17 2 18 1 19 90 20 91 21 92 22 96 23 93 24
REMARK SMILES IDX 94 25 95 26 13 27 14 28 15 29 16 30 17 31 18 32 19 33 20 34
REMARK SMILES IDX 21 35 85 36 22 37 84 38 23 39 24 40 25 41 78 42 26 43 83 44
REMARK SMILES IDX 77 45 79 46 27 47 82 48 76 49 75 50 28 52 62 53 41 54 61 55
REMARK SMILES IDX 42 56 45 57 60 58 80 59 43 60 44 61 59 63 81 64 46 65 29 66
REMARK SMILES IDX 30 67 39 68 31 69 32 70 38 71 40 72 33 73 34 74 35 75 36 76
REMARK SMILES IDX 37 77 63 78 64 79 73 80 65 81 66 82 72 83 74 84 67 85 68 86
REMARK SMILES IDX 69 87 70 88 71 89 47 90 48 91 57 92 49 93 50 94 56 95 58 96
REMARK SMILES IDX 51 97 52 98 53 99 54 100 55 101
REMARK H PARENT 4 15 4 16 79 51 45 62
REMARK Flexibility Score: inf
ROOT
ATOM      1  C   UNL A   1      38.156  21.783  25.358  1.00  0.00     0.188 C 
ENDROOT
BRANCH   1   2
ATOM      2  O   UNL A   1      36.800  21.617  25.677  1.00  0.00    -0.376 OA
BRANCH   2   3
ATOM      3  C   UNL A   1      35.828  21.484  24.660  1.00  0.00     0.202 C 
BRANCH   3   4
ATOM      4  C   UNL A   1      34.618  20.527  24.661  1.00  0.00     0.261 C 
BRANCH   4   5
ATOM      5  O   UNL A   1      33.292  21.047  24.803  1.00  0.00    -0.459 OA
BRANCH   5   6
ATOM      6  C   UNL A   1      32.789  21.663  23.700  1.00  0.00     0.368 C 
ATOM      7  O   UNL A   1      32.525  21.059  22.659  1.00  0.00    -0.245 OA
BRANCH   6   8
ATOM      8  C   UNL A   1      32.521  23.213  23.873  1.00  0.00     0.195 C 
ATOM      9  C   UNL A   1      33.573  23.931  22.993  1.00  0.00     0.081 C 
ATOM     10  C   UNL A   1      31.092  23.656  23.457  1.00  0.00     0.096 C 
ATOM     11  C   UNL A   1      33.439  25.446  22.984  1.00  0.00     0.008 C 
ATOM     12  C   UNL A   1      30.859  25.153  23.094  1.00  0.00     0.063 C 
ATOM     13  C   UNL A   1      32.067  25.890  22.496  1.00  0.00     0.015 C 
BRANCH   8  14
ATOM     14  N   UNL A   1      32.851  23.407  25.297  1.00  0.00    -0.332 N 
ATOM     15  H   UNL A   1      33.486  22.648  25.548  1.00  0.00     0.347 HD
ATOM     16  H   UNL A   1      33.193  24.368  25.305  1.00  0.00     0.347 HD
BRANCH  14  17
ATOM     17  C   UNL A   1      31.846  23.441  26.322  1.00  0.00     0.261 C 
BRANCH  17  18
ATOM     18  C   UNL A   1      32.481  23.292  27.705  1.00  0.00     0.058 C 
ATOM     19  C   UNL A   1      33.371  22.061  27.824  1.00  0.00     0.010 C 
ENDBRANCH  17  18
ENDBRANCH  14  17
ENDBRANCH   8  14
BRANCH  12  20
ATOM     20  S   UNL A   1      29.762  25.968  24.320  1.00  0.00    -0.062 SA
BRANCH  20  21
ATOM     21  C   UNL A   1      30.729  27.005  25.311  1.00  0.00     0.276 A 
ATOM     22  N   UNL A   1      31.078  26.773  26.559  1.00  0.00    -0.101 NA
ATOM     23  O   UNL A   1      31.396  28.086  24.785  1.00  0.00    -0.416 OA
ATOM     24  N   UNL A   1      32.004  27.738  26.906  1.00  0.00    -0.112 NA
ATOM     25  C   UNL A   1      32.175  28.481  25.836  1.00  0.00     0.214 A 
ATOM     26  C   UNL A   1      33.106  29.601  25.606  1.00  0.00     0.113 C 
ENDBRANCH  20  21
ENDBRANCH  12  20
ENDBRANCH   6   8
ENDBRANCH   5   6
ENDBRANCH   4   5
ENDBRANCH   3   4
ENDBRANCH   2   3
ENDBRANCH   1   2
BRANCH   1  27
ATOM     27  C   UNL A   1      39.103  20.641  25.773  1.00  0.00     0.188 C 
BRANCH  27  28
ATOM     28  O   UNL A   1      40.438  20.915  26.148  1.00  0.00    -0.376 OA
BRANCH  28  29
ATOM     29  C   UNL A   1      40.716  22.084  26.900  1.00  0.00     0.202 C 
BRANCH  29  30
ATOM     30  C   UNL A   1      41.326  23.342  26.256  1.00  0.00     0.261 C 
BRANCH  30  31
ATOM     31  O   UNL A   1      42.448  23.928  26.931  1.00  0.00    -0.460 OA
BRANCH  31  32
ATOM     32  C   UNL A   1      42.749  25.204  26.568  1.00  0.00     0.338 C 
ATOM     33  O   UNL A   1      43.196  25.577  25.500  1.00  0.00    -0.246 OA
BRANCH  32  34
ATOM     34  C   UNL A   1      42.269  26.132  27.613  1.00  0.00     0.060 A 
ATOM     35  C   UNL A   1      42.982  27.318  27.864  1.00  0.00     0.016 A 
ATOM     36  C   UNL A   1      41.147  25.806  28.369  1.00  0.00     0.016 A 
ATOM     37  C   UNL A   1      42.579  28.174  28.890  1.00  0.00     0.010 A 
ATOM     38  C   UNL A   1      40.766  26.647  29.415  1.00  0.00     0.010 A 
ATOM     39  C   UNL A   1      41.495  27.818  29.700  1.00  0.00    -0.014 A 
BRANCH  39  40
ATOM     40  C   UNL A   1      41.223  28.526  30.973  1.00  0.00     0.031 A 
ATOM     41  C   UNL A   1      40.119  29.546  30.987  1.00  0.00     0.074 A 
ATOM     42  C   UNL A   1      41.978  28.328  32.068  1.00  0.00     0.049 A 
ATOM     43  N   UNL A   1      39.827  30.446  31.888  1.00  0.00    -0.248 NA
ATOM     44  C   UNL A   1      39.233  29.558  29.811  1.00  0.00     0.031 C 
ATOM     45  C   UNL A   1      43.038  27.331  32.196  1.00  0.00     0.029 A 
ATOM     46  N   UNL A   1      41.988  28.992  33.271  1.00  0.00    -0.354 N 
ATOM     47  C   UNL A   1      38.747  31.154  31.374  1.00  0.00     0.074 A 
ATOM     48  C   UNL A   1      38.445  30.587  30.077  1.00  0.00     0.031 C 
ATOM     49  C   UNL A   1      43.622  27.472  33.400  1.00  0.00     0.029 A 
ATOM     50  C   UNL A   1      43.012  28.601  34.102  1.00  0.00     0.049 A 
ATOM     51  H   UNL A   1      41.328  29.679  33.514  1.00  0.00     0.167 HD
ATOM     52  C   UNL A   1      38.075  32.189  31.930  1.00  0.00     0.037 A 
ATOM     53  C   UNL A   1      43.435  29.128  35.270  1.00  0.00     0.037 A 
ATOM     54  C   UNL A   1      38.394  32.749  33.217  1.00  0.00     0.049 A 
ATOM     55  C   UNL A   1      42.721  30.327  35.843  1.00  0.00     0.074 A 
ATOM     56  C   UNL A   1      37.770  33.790  33.880  1.00  0.00     0.029 A 
ATOM     57  N   UNL A   1      39.435  32.323  34.031  1.00  0.00    -0.354 N 
ATOM     58  N   UNL A   1      41.701  30.992  35.355  1.00  0.00    -0.248 NA
ATOM     59  C   UNL A   1      43.216  30.850  37.125  1.00  0.00     0.031 C 
ATOM     60  C   UNL A   1      38.469  34.034  35.066  1.00  0.00     0.029 A 
ATOM     61  C   UNL A   1      39.484  33.096  35.179  1.00  0.00     0.049 A 
ATOM     62  H   UNL A   1      40.047  31.581  33.823  1.00  0.00     0.167 HD
ATOM     63  C   UNL A   1      41.406  31.983  36.288  1.00  0.00     0.074 A 
ATOM     64  C   UNL A   1      42.361  31.835  37.366  1.00  0.00     0.031 C 
ATOM     65  C   UNL A   1      40.428  32.923  36.258  1.00  0.00     0.037 A 
BRANCH  52  66
ATOM     66  C   UNL A   1      36.967  32.812  31.125  1.00  0.00     0.058 A 
ATOM     67  C   UNL A   1      37.221  33.721  30.084  1.00  0.00     0.135 A 
ATOM     68  C   UNL A   1      35.627  32.489  31.398  1.00  0.00     0.135 A 
ATOM     69  F   UNL A   1      38.480  34.080  29.792  1.00  0.00    -0.206 F 
ATOM     70  C   UNL A   1      36.185  34.316  29.370  1.00  0.00     0.059 A 
ATOM     71  C   UNL A   1      34.578  33.046  30.674  1.00  0.00     0.059 A 
ATOM     72  F   UNL A   1      35.326  31.629  32.384  1.00  0.00    -0.206 F 
ATOM     73  C   UNL A   1      34.866  33.974  29.675  1.00  0.00     0.060 A 
BRANCH  73  74
ATOM     74  S   UNL A   1      33.534  34.766  28.750  1.00  0.00     0.124 S 
ATOM     75  O   UNL A   1      32.581  35.068  29.815  1.00  0.00    -0.237 OA
ATOM     76  O   UNL A   1      34.207  35.917  28.158  1.00  0.00    -0.237 OA
ATOM     77  O   UNL A   1      33.114  33.735  27.807  1.00  0.00    -0.744 OA
ENDBRANCH  73  74
ENDBRANCH  52  66
BRANCH  53  78
ATOM     78  C   UNL A   1      44.608  28.532  35.966  1.00  0.00     0.058 A 
ATOM     79  C   UNL A   1      44.457  27.444  36.838  1.00  0.00     0.135 A 
ATOM     80  C   UNL A   1      45.907  29.023  35.757  1.00  0.00     0.135 A 
ATOM     81  F   UNL A   1      43.234  26.950  37.086  1.00  0.00    -0.206 F 
ATOM     82  C   UNL A   1      45.547  26.865  37.479  1.00  0.00     0.059 A 
ATOM     83  C   UNL A   1      47.017  28.443  36.363  1.00  0.00     0.059 A 
ATOM     84  F   UNL A   1      46.109  30.059  34.928  1.00  0.00    -0.206 F 
ATOM     85  C   UNL A   1      46.826  27.366  37.227  1.00  0.00     0.060 A 
BRANCH  85  86
ATOM     86  S   UNL A   1      48.240  26.554  38.007  1.00  0.00     0.124 S 
ATOM     87  O   UNL A   1      49.320  26.898  37.090  1.00  0.00    -0.237 OA
ATOM     88  O   UNL A   1      48.279  27.202  39.313  1.00  0.00    -0.237 OA
ATOM     89  O   UNL A   1      47.852  25.147  38.024  1.00  0.00    -0.744 OA
ENDBRANCH  85  86
ENDBRANCH  53  78
BRANCH  65  90
ATOM     90  C   UNL A   1      40.276  33.829  37.452  1.00  0.00     0.058 A 
ATOM     91  C   UNL A   1      39.435  33.512  38.529  1.00  0.00     0.135 A 
ATOM     92  C   UNL A   1      41.066  34.987  37.555  1.00  0.00     0.135 A 
ATOM     93  F   UNL A   1      38.654  32.422  38.480  1.00  0.00    -0.206 F 
ATOM     94  C   UNL A   1      39.377  34.317  39.664  1.00  0.00     0.059 A 
ATOM     95  C   UNL A   1      41.046  35.789  38.692  1.00  0.00     0.059 A 
ATOM     96  F   UNL A   1      41.895  35.331  36.557  1.00  0.00    -0.206 F 
ATOM     97  C   UNL A   1      40.194  35.448  39.740  1.00  0.00     0.060 A 
BRANCH  97  98
ATOM     98  S   UNL A   1      40.156  36.446  41.245  1.00  0.00     0.124 S 
ATOM     99  O   UNL A   1      40.646  37.732  40.759  1.00  0.00    -0.237 OA
ATOM    100  O   UNL A   1      38.744  36.403  41.611  1.00  0.00    -0.237 OA
ATOM    101  O   UNL A   1      41.053  35.733  42.150  1.00  0.00    -0.744 OA
ENDBRANCH  97  98
ENDBRANCH  65  90
ENDBRANCH  39  40
ENDBRANCH  32  34
ENDBRANCH  31  32
ENDBRANCH  30  31
ENDBRANCH  29  30
ENDBRANCH  28  29
ENDBRANCH  27  28
ENDBRANCH   1  27
TORSDOF 25
ENDMDL
