MODEL 1
REMARK VINA RESULT:     -11.5      0.000      0.000
REMARK SMILES C[C@]1(C(=O)OCCOCCOCCOC(=O)c2ccc(-c3c4nc(c(-c5c(F)cc(S(=O)(=O)[O-])cc5F)c5ccc([nH]5)c(-c5c(F)cc(S(=O)(=O)[O-])cc5F)c5nc(c(-c6c(F)cc(S(=O)(=O)[O-])cc6F)c6ccc3[nH]6)C=C5)C=C4)cc2)[NH2+]C2(C(=O)c3ccccc3C2=O)[C@@H]2C(=O)N(c3ccccc3)C(=O)[C@H]21
REMARK SMILES IDX 10 1 9 2 8 3 7 4 6 5 5 6 3 7 4 8 2 9 1 10 83 11 107 12 84 13
REMARK SMILES IDX 95 16 105 17 85 18 93 19 96 20 98 21 106 22 86 23 87 24
REMARK SMILES IDX 92 25 94 26 97 27 88 28 91 29 89 30 90 31 99 32 100 33
REMARK SMILES IDX 104 34 101 35 103 36 102 37 11 38 12 39 13 40 14 41 15 42
REMARK SMILES IDX 16 43 17 44 18 45 82 46 19 47 81 48 20 49 21 50 22 51 75 52
REMARK SMILES IDX 23 53 80 54 74 55 76 56 24 57 79 58 73 59 72 60 25 62 59 63
REMARK SMILES IDX 38 64 58 65 39 66 42 67 57 68 77 69 40 70 41 71 56 73 78 74
REMARK SMILES IDX 43 75 26 76 27 77 36 78 28 79 29 80 35 81 37 82 30 83 31 84
REMARK SMILES IDX 32 85 33 86 34 87 60 88 61 89 70 90 62 91 63 92 69 93 71 94
REMARK SMILES IDX 64 95 65 96 66 97 67 98 68 99 44 100 45 101 54 102 46 103
REMARK SMILES IDX 47 104 53 105 55 106 48 107 49 108 50 109 51 110 52 111
REMARK H PARENT 83 14 83 15 76 61 42 72
REMARK Flexibility Score: inf
ROOT
ATOM      1  C   UNL A   1      35.575  33.832  28.607  1.00  0.00     0.188 C 
ENDROOT
BRANCH   1   2
ATOM      2  C   UNL A   1      34.873  32.478  28.790  1.00  0.00     0.188 C 
BRANCH   2   3
ATOM      3  O   UNL A   1      34.401  31.775  27.656  1.00  0.00    -0.376 OA
BRANCH   3   4
ATOM      4  C   UNL A   1      33.036  31.869  27.283  1.00  0.00     0.202 C 
BRANCH   4   5
ATOM      5  C   UNL A   1      32.148  30.619  27.195  1.00  0.00     0.261 C 
BRANCH   5   6
ATOM      6  O   UNL A   1      32.743  29.376  27.616  1.00  0.00    -0.459 OA
BRANCH   6   7
ATOM      7  C   UNL A   1      32.144  28.240  27.162  1.00  0.00     0.368 C 
ATOM      8  O   UNL A   1      31.014  27.902  27.495  1.00  0.00    -0.245 OA
BRANCH   7   9
ATOM      9  C   UNL A   1      33.047  27.360  26.236  1.00  0.00     0.205 C 
ATOM     10  C   UNL A   1      34.480  27.878  26.398  1.00  0.00     0.093 C 
ATOM     11  N   UNL A   1      33.056  25.851  26.502  1.00  0.00    -0.313 N 
ATOM     12  C   UNL A   1      32.522  27.402  24.830  1.00  0.00     0.172 C 
ATOM     13  C   UNL A   1      32.278  25.157  25.394  1.00  0.00     0.237 C 
ATOM     14  H   UNL A   1      32.616  25.660  27.402  1.00  0.00     0.348 HD
ATOM     15  H   UNL A   1      34.015  25.507  26.523  1.00  0.00     0.348 HD
ATOM     16  C   UNL A   1      31.477  26.297  24.880  1.00  0.00     0.177 C 
ATOM     17  C   UNL A   1      31.720  28.515  24.260  1.00  0.00     0.244 C 
ATOM     18  C   UNL A   1      33.226  24.464  24.410  1.00  0.00     0.232 C 
ATOM     19  C   UNL A   1      31.460  23.986  25.949  1.00  0.00     0.232 C 
ATOM     20  C   UNL A   1      30.769  26.518  23.598  1.00  0.00     0.245 C 
ATOM     21  N   UNL A   1      30.741  27.907  23.479  1.00  0.00    -0.250 N 
ATOM     22  O   UNL A   1      31.956  29.695  24.447  1.00  0.00    -0.273 OA
ATOM     23  O   UNL A   1      34.078  24.980  23.709  1.00  0.00    -0.286 OA
ATOM     24  C   UNL A   1      33.019  23.020  24.497  1.00  0.00     0.036 A 
ATOM     25  C   UNL A   1      32.011  22.739  25.409  1.00  0.00     0.036 A 
ATOM     26  O   UNL A   1      30.479  24.017  26.670  1.00  0.00    -0.286 OA
ATOM     27  O   UNL A   1      30.236  25.648  22.935  1.00  0.00    -0.273 OA
ATOM     28  C   UNL A   1      33.697  22.016  23.825  1.00  0.00     0.013 A 
ATOM     29  C   UNL A   1      31.641  21.436  25.692  1.00  0.00     0.013 A 
ATOM     30  C   UNL A   1      33.331  20.694  24.095  1.00  0.00     0.001 A 
ATOM     31  C   UNL A   1      32.315  20.406  25.024  1.00  0.00     0.001 A 
BRANCH  21  32
ATOM     32  C   UNL A   1      29.729  28.657  22.846  1.00  0.00     0.052 A 
ATOM     33  C   UNL A   1      30.059  29.690  21.961  1.00  0.00     0.027 A 
ATOM     34  C   UNL A   1      28.391  28.492  23.230  1.00  0.00     0.027 A 
ATOM     35  C   UNL A   1      29.081  30.560  21.483  1.00  0.00     0.002 A 
ATOM     36  C   UNL A   1      27.418  29.390  22.781  1.00  0.00     0.002 A 
ATOM     37  C   UNL A   1      27.764  30.421  21.909  1.00  0.00     0.000 A 
ENDBRANCH  21  32
ENDBRANCH   7   9
ENDBRANCH   6   7
ENDBRANCH   5   6
ENDBRANCH   4   5
ENDBRANCH   3   4
ENDBRANCH   2   3
ENDBRANCH   1   2
BRANCH   1  38
ATOM     38  O   UNL A   1      34.936  34.975  29.103  1.00  0.00    -0.376 OA
BRANCH  38  39
ATOM     39  C   UNL A   1      33.597  35.260  28.760  1.00  0.00     0.202 C 
BRANCH  39  40
ATOM     40  C   UNL A   1      32.606  36.083  29.608  1.00  0.00     0.261 C 
BRANCH  40  41
ATOM     41  O   UNL A   1      33.015  36.531  30.902  1.00  0.00    -0.460 OA
BRANCH  41  42
ATOM     42  C   UNL A   1      32.661  35.750  31.962  1.00  0.00     0.338 C 
ATOM     43  O   UNL A   1      31.547  35.568  32.399  1.00  0.00    -0.246 OA
BRANCH  42  44
ATOM     44  C   UNL A   1      33.860  34.953  32.331  1.00  0.00     0.060 A 
ATOM     45  C   UNL A   1      35.128  35.532  32.288  1.00  0.00     0.016 A 
ATOM     46  C   UNL A   1      33.712  33.591  32.637  1.00  0.00     0.016 A 
ATOM     47  C   UNL A   1      36.249  34.747  32.563  1.00  0.00     0.010 A 
ATOM     48  C   UNL A   1      34.841  32.802  32.891  1.00  0.00     0.010 A 
ATOM     49  C   UNL A   1      36.117  33.380  32.876  1.00  0.00    -0.014 A 
BRANCH  49  50
ATOM     50  C   UNL A   1      37.299  32.634  33.381  1.00  0.00     0.031 A 
ATOM     51  C   UNL A   1      37.978  31.555  32.590  1.00  0.00     0.074 A 
ATOM     52  C   UNL A   1      37.779  32.989  34.589  1.00  0.00     0.049 A 
ATOM     53  N   UNL A   1      39.100  30.933  32.857  1.00  0.00    -0.248 NA
ATOM     54  C   UNL A   1      37.321  31.111  31.355  1.00  0.00     0.031 C 
ATOM     55  C   UNL A   1      37.179  34.005  35.457  1.00  0.00     0.029 A 
ATOM     56  N   UNL A   1      38.881  32.563  35.284  1.00  0.00    -0.354 N 
ATOM     57  C   UNL A   1      39.307  30.046  31.808  1.00  0.00     0.074 A 
ATOM     58  C   UNL A   1      38.161  30.174  30.927  1.00  0.00     0.031 C 
ATOM     59  C   UNL A   1      37.943  34.154  36.549  1.00  0.00     0.029 A 
ATOM     60  C   UNL A   1      39.070  33.229  36.471  1.00  0.00     0.049 A 
ATOM     61  H   UNL A   1      39.479  31.850  34.963  1.00  0.00     0.167 HD
ATOM     62  C   UNL A   1      40.364  29.222  31.596  1.00  0.00     0.037 A 
ATOM     63  C   UNL A   1      40.048  33.123  37.391  1.00  0.00     0.037 A 
ATOM     64  C   UNL A   1      41.487  29.088  32.496  1.00  0.00     0.049 A 
ATOM     65  C   UNL A   1      41.184  32.171  37.151  1.00  0.00     0.074 A 
ATOM     66  C   UNL A   1      42.618  28.301  32.347  1.00  0.00     0.029 A 
ATOM     67  N   UNL A   1      41.621  29.742  33.714  1.00  0.00    -0.354 N 
ATOM     68  N   UNL A   1      41.403  31.394  36.117  1.00  0.00    -0.248 NA
ATOM     69  C   UNL A   1      42.213  32.087  38.196  1.00  0.00     0.031 C 
ATOM     70  C   UNL A   1      43.404  28.435  33.497  1.00  0.00     0.029 A 
ATOM     71  C   UNL A   1      42.798  29.352  34.338  1.00  0.00     0.049 A 
ATOM     72  H   UNL A   1      40.975  30.387  34.082  1.00  0.00     0.167 HD
ATOM     73  C   UNL A   1      42.607  30.748  36.375  1.00  0.00     0.074 A 
ATOM     74  C   UNL A   1      43.075  31.236  37.657  1.00  0.00     0.031 C 
ATOM     75  C   UNL A   1      43.261  29.836  35.616  1.00  0.00     0.037 A 
BRANCH  62  76
ATOM     76  C   UNL A   1      40.381  28.398  30.333  1.00  0.00     0.058 A 
ATOM     77  C   UNL A   1      41.269  28.687  29.285  1.00  0.00     0.135 A 
ATOM     78  C   UNL A   1      39.580  27.250  30.209  1.00  0.00     0.135 A 
ATOM     79  F   UNL A   1      42.059  29.772  29.347  1.00  0.00    -0.206 F 
ATOM     80  C   UNL A   1      41.353  27.879  28.155  1.00  0.00     0.059 A 
ATOM     81  C   UNL A   1      39.667  26.411  29.100  1.00  0.00     0.059 A 
ATOM     82  F   UNL A   1      38.720  26.917  31.184  1.00  0.00    -0.206 F 
ATOM     83  C   UNL A   1      40.552  26.738  28.074  1.00  0.00     0.060 A 
BRANCH  83  84
ATOM     84  S   UNL A   1      40.698  25.686  26.613  1.00  0.00     0.124 S 
ATOM     85  O   UNL A   1      41.060  26.657  25.586  1.00  0.00    -0.237 OA
ATOM     86  O   UNL A   1      41.754  24.756  27.004  1.00  0.00    -0.237 OA
ATOM     87  O   UNL A   1      39.369  25.099  26.479  1.00  0.00    -0.744 OA
ENDBRANCH  83  84
ENDBRANCH  62  76
BRANCH  63  88
ATOM     88  C   UNL A   1      40.004  33.980  38.605  1.00  0.00     0.058 A 
ATOM     89  C   UNL A   1      39.358  33.548  39.771  1.00  0.00     0.135 A 
ATOM     90  C   UNL A   1      40.645  35.229  38.635  1.00  0.00     0.135 A 
ATOM     91  F   UNL A   1      38.729  32.362  39.790  1.00  0.00    -0.206 F 
ATOM     92  C   UNL A   1      39.338  34.326  40.923  1.00  0.00     0.059 A 
ATOM     93  C   UNL A   1      40.664  36.013  39.783  1.00  0.00     0.059 A 
ATOM     94  F   UNL A   1      41.293  35.678  37.549  1.00  0.00    -0.206 F 
ATOM     95  C   UNL A   1      40.001  35.556  40.920  1.00  0.00     0.060 A 
BRANCH  95  96
ATOM     96  S   UNL A   1      40.015  36.531  42.439  1.00  0.00     0.124 S 
ATOM     97  O   UNL A   1      39.580  37.835  41.954  1.00  0.00    -0.237 OA
ATOM     98  O   UNL A   1      39.059  35.808  43.273  1.00  0.00    -0.237 OA
ATOM     99  O   UNL A   1      41.405  36.452  42.877  1.00  0.00    -0.744 OA
ENDBRANCH  95  96
ENDBRANCH  63  88
BRANCH  75 100
ATOM    100  C   UNL A   1      44.573  29.306  36.137  1.00  0.00     0.058 A 
ATOM    101  C   UNL A   1      45.787  29.970  35.895  1.00  0.00     0.135 A 
ATOM    102  C   UNL A   1      44.610  28.150  36.935  1.00  0.00     0.135 A 
ATOM    103  F   UNL A   1      45.813  31.073  35.132  1.00  0.00    -0.206 F 
ATOM    104  C   UNL A   1      46.990  29.499  36.413  1.00  0.00     0.059 A 
ATOM    105  C   UNL A   1      45.798  27.679  37.488  1.00  0.00     0.059 A 
ATOM    106  F   UNL A   1      43.480  27.477  37.204  1.00  0.00    -0.206 F 
ATOM    107  C   UNL A   1      46.985  28.356  37.213  1.00  0.00     0.060 A 
BRANCH 107 108
ATOM    108  S   UNL A   1      48.549  27.783  37.909  1.00  0.00     0.124 S 
ATOM    109  O   UNL A   1      49.508  28.659  37.243  1.00  0.00    -0.237 OA
ATOM    110  O   UNL A   1      48.360  28.021  39.337  1.00  0.00    -0.237 OA
ATOM    111  O   UNL A   1      48.606  26.378  37.515  1.00  0.00    -0.744 OA
ENDBRANCH 107 108
ENDBRANCH  75 100
ENDBRANCH  49  50
ENDBRANCH  42  44
ENDBRANCH  41  42
ENDBRANCH  40  41
ENDBRANCH  39  40
ENDBRANCH  38  39
ENDBRANCH   1  38
TORSDOF 21
ENDMDL
MODEL 2
REMARK VINA RESULT:     -10.8      2.496      9.453
REMARK SMILES C[C@]1(C(=O)OCCOCCOCCOC(=O)c2ccc(-c3c4nc(c(-c5c(F)cc(S(=O)(=O)[O-])cc5F)c5ccc([nH]5)c(-c5c(F)cc(S(=O)(=O)[O-])cc5F)c5nc(c(-c6c(F)cc(S(=O)(=O)[O-])cc6F)c6ccc3[nH]6)C=C5)C=C4)cc2)[NH2+]C2(C(=O)c3ccccc3C2=O)[C@@H]2C(=O)N(c3ccccc3)C(=O)[C@H]21
REMARK SMILES IDX 10 1 9 2 8 3 7 4 6 5 5 6 3 7 4 8 2 9 1 10 83 11 107 12 84 13
REMARK SMILES IDX 95 16 105 17 85 18 93 19 96 20 98 21 106 22 86 23 87 24
REMARK SMILES IDX 92 25 94 26 97 27 88 28 91 29 89 30 90 31 99 32 100 33
REMARK SMILES IDX 104 34 101 35 103 36 102 37 11 38 12 39 13 40 14 41 15 42
REMARK SMILES IDX 16 43 17 44 18 45 82 46 19 47 81 48 20 49 21 50 22 51 75 52
REMARK SMILES IDX 23 53 80 54 74 55 76 56 24 57 79 58 73 59 72 60 25 62 59 63
REMARK SMILES IDX 38 64 58 65 39 66 42 67 57 68 77 69 40 70 41 71 56 73 78 74
REMARK SMILES IDX 43 75 26 76 27 77 36 78 28 79 29 80 35 81 37 82 30 83 31 84
REMARK SMILES IDX 32 85 33 86 34 87 60 88 61 89 70 90 62 91 63 92 69 93 71 94
REMARK SMILES IDX 64 95 65 96 66 97 67 98 68 99 44 100 45 101 54 102 46 103
REMARK SMILES IDX 47 104 53 105 55 106 48 107 49 108 50 109 51 110 52 111
REMARK H PARENT 83 14 83 15 76 61 42 72
REMARK Flexibility Score: inf
ROOT
ATOM      1  C   UNL A   1      38.223  21.792  24.979  1.00  0.00     0.188 C 
ENDROOT
BRANCH   1   2
ATOM      2  C   UNL A   1      36.710  21.644  24.764  1.00  0.00     0.188 C 
BRANCH   2   3
ATOM      3  O   UNL A   1      35.810  22.240  25.681  1.00  0.00    -0.376 OA
BRANCH   3   4
ATOM      4  C   UNL A   1      34.956  21.424  26.464  1.00  0.00     0.202 C 
BRANCH   4   5
ATOM      5  C   UNL A   1      34.260  21.974  27.718  1.00  0.00     0.261 C 
BRANCH   5   6
ATOM      6  O   UNL A   1      33.421  23.131  27.533  1.00  0.00    -0.459 OA
BRANCH   6   7
ATOM      7  C   UNL A   1      32.078  22.916  27.607  1.00  0.00     0.368 C 
ATOM      8  O   UNL A   1      31.573  22.108  28.377  1.00  0.00    -0.245 OA
BRANCH   7   9
ATOM      9  C   UNL A   1      31.236  23.735  26.573  1.00  0.00     0.205 C 
ATOM     10  C   UNL A   1      29.842  23.912  27.185  1.00  0.00     0.093 C 
ATOM     11  N   UNL A   1      31.763  25.121  26.188  1.00  0.00    -0.313 N 
ATOM     12  C   UNL A   1      31.252  23.040  25.243  1.00  0.00     0.172 C 
ATOM     13  C   UNL A   1      32.321  25.054  24.774  1.00  0.00     0.237 C 
ATOM     14  H   UNL A   1      32.501  25.399  26.835  1.00  0.00     0.348 HD
ATOM     15  H   UNL A   1      31.009  25.805  26.232  1.00  0.00     0.348 HD
ATOM     16  C   UNL A   1      32.539  23.590  24.646  1.00  0.00     0.177 C 
ATOM     17  C   UNL A   1      31.461  21.581  25.055  1.00  0.00     0.244 C 
ATOM     18  C   UNL A   1      31.364  25.711  23.775  1.00  0.00     0.232 C 
ATOM     19  C   UNL A   1      33.584  25.912  24.641  1.00  0.00     0.232 C 
ATOM     20  C   UNL A   1      32.705  22.707  23.469  1.00  0.00     0.245 C 
ATOM     21  N   UNL A   1      32.277  21.464  23.933  1.00  0.00    -0.250 N 
ATOM     22  O   UNL A   1      30.954  20.721  25.752  1.00  0.00    -0.273 OA
ATOM     23  O   UNL A   1      30.221  25.381  23.512  1.00  0.00    -0.286 OA
ATOM     24  C   UNL A   1      32.010  26.897  23.218  1.00  0.00     0.036 A 
ATOM     25  C   UNL A   1      33.290  27.031  23.739  1.00  0.00     0.036 A 
ATOM     26  O   UNL A   1      34.686  25.725  25.125  1.00  0.00    -0.286 OA
ATOM     27  O   UNL A   1      33.236  23.030  22.423  1.00  0.00    -0.273 OA
ATOM     28  C   UNL A   1      31.488  27.815  22.321  1.00  0.00     0.013 A 
ATOM     29  C   UNL A   1      34.103  28.094  23.386  1.00  0.00     0.013 A 
ATOM     30  C   UNL A   1      32.298  28.892  21.950  1.00  0.00     0.001 A 
ATOM     31  C   UNL A   1      33.593  29.033  22.482  1.00  0.00     0.001 A 
BRANCH  21  32
ATOM     32  C   UNL A   1      32.764  20.214  23.501  1.00  0.00     0.052 A 
ATOM     33  C   UNL A   1      32.224  19.596  22.366  1.00  0.00     0.027 A 
ATOM     34  C   UNL A   1      33.667  19.499  24.299  1.00  0.00     0.027 A 
ATOM     35  C   UNL A   1      32.557  18.281  22.042  1.00  0.00     0.002 A 
ATOM     36  C   UNL A   1      33.970  18.168  23.995  1.00  0.00     0.002 A 
ATOM     37  C   UNL A   1      33.415  17.562  22.869  1.00  0.00     0.000 A 
ENDBRANCH  21  32
ENDBRANCH   7   9
ENDBRANCH   6   7
ENDBRANCH   5   6
ENDBRANCH   4   5
ENDBRANCH   3   4
ENDBRANCH   2   3
ENDBRANCH   1   2
BRANCH   1  38
ATOM     38  O   UNL A   1      38.727  21.577  26.268  1.00  0.00    -0.376 OA
BRANCH  38  39
ATOM     39  C   UNL A   1      40.114  21.435  26.487  1.00  0.00     0.202 C 
BRANCH  39  40
ATOM     40  C   UNL A   1      41.147  22.581  26.490  1.00  0.00     0.261 C 
BRANCH  40  41
ATOM     41  O   UNL A   1      40.680  23.928  26.576  1.00  0.00    -0.460 OA
BRANCH  41  42
ATOM     42  C   UNL A   1      41.622  24.910  26.499  1.00  0.00     0.338 C 
ATOM     43  O   UNL A   1      42.404  25.106  25.597  1.00  0.00    -0.246 OA
BRANCH  42  44
ATOM     44  C   UNL A   1      41.349  25.860  27.609  1.00  0.00     0.060 A 
ATOM     45  C   UNL A   1      40.176  25.751  28.354  1.00  0.00     0.016 A 
ATOM     46  C   UNL A   1      42.241  26.919  27.842  1.00  0.00     0.016 A 
ATOM     47  C   UNL A   1      39.900  26.699  29.342  1.00  0.00     0.010 A 
ATOM     48  C   UNL A   1      41.951  27.880  28.818  1.00  0.00     0.010 A 
ATOM     49  C   UNL A   1      40.786  27.765  29.590  1.00  0.00    -0.014 A 
BRANCH  49  50
ATOM     50  C   UNL A   1      40.578  28.617  30.789  1.00  0.00     0.031 A 
ATOM     51  C   UNL A   1      41.423  28.503  32.023  1.00  0.00     0.074 A 
ATOM     52  C   UNL A   1      39.604  29.545  30.721  1.00  0.00     0.049 A 
ATOM     53  N   UNL A   1      41.436  29.282  33.076  1.00  0.00    -0.248 NA
ATOM     54  C   UNL A   1      42.362  27.377  32.095  1.00  0.00     0.031 C 
ATOM     55  C   UNL A   1      38.703  29.725  29.581  1.00  0.00     0.029 A 
ATOM     56  N   UNL A   1      39.223  30.522  31.605  1.00  0.00    -0.354 N 
ATOM     57  C   UNL A   1      42.407  28.766  33.925  1.00  0.00     0.074 A 
ATOM     58  C   UNL A   1      42.922  27.571  33.285  1.00  0.00     0.031 C 
ATOM     59  C   UNL A   1      37.902  30.774  29.817  1.00  0.00     0.029 A 
ATOM     60  C   UNL A   1      38.215  31.326  31.132  1.00  0.00     0.049 A 
ATOM     61  H   UNL A   1      39.633  30.635  32.493  1.00  0.00     0.167 HD
ATOM     62  C   UNL A   1      42.837  29.259  35.114  1.00  0.00     0.037 A 
ATOM     63  C   UNL A   1      37.615  32.399  31.682  1.00  0.00     0.037 A 
ATOM     64  C   UNL A   1      42.296  30.438  35.752  1.00  0.00     0.049 A 
ATOM     65  C   UNL A   1      38.082  32.897  33.020  1.00  0.00     0.074 A 
ATOM     66  C   UNL A   1      42.691  31.029  36.942  1.00  0.00     0.029 A 
ATOM     67  N   UNL A   1      41.241  31.199  35.267  1.00  0.00    -0.354 N 
ATOM     68  N   UNL A   1      39.054  32.442  33.775  1.00  0.00    -0.248 NA
ATOM     69  C   UNL A   1      37.381  34.061  33.578  1.00  0.00     0.031 C 
ATOM     70  C   UNL A   1      41.841  32.109  37.203  1.00  0.00     0.029 A 
ATOM     71  C   UNL A   1      40.953  32.233  36.148  1.00  0.00     0.049 A 
ATOM     72  H   UNL A   1      40.765  31.030  34.421  1.00  0.00     0.167 HD
ATOM     73  C   UNL A   1      39.097  33.279  34.884  1.00  0.00     0.074 A 
ATOM     74  C   UNL A   1      38.063  34.276  34.695  1.00  0.00     0.031 C 
ATOM     75  C   UNL A   1      39.920  33.223  35.959  1.00  0.00     0.037 A 
BRANCH  62  76
ATOM     76  C   UNL A   1      43.962  28.541  35.816  1.00  0.00     0.058 A 
ATOM     77  C   UNL A   1      43.712  27.468  36.687  1.00  0.00     0.135 A 
ATOM     78  C   UNL A   1      45.303  28.855  35.540  1.00  0.00     0.135 A 
ATOM     79  F   UNL A   1      42.450  27.122  36.989  1.00  0.00    -0.206 F 
ATOM     80  C   UNL A   1      44.748  26.743  37.269  1.00  0.00     0.059 A 
ATOM     81  C   UNL A   1      46.356  28.126  36.089  1.00  0.00     0.059 A 
ATOM     82  F   UNL A   1      45.604  29.864  34.707  1.00  0.00    -0.206 F 
ATOM     83  C   UNL A   1      46.068  27.075  36.958  1.00  0.00     0.060 A 
BRANCH  83  84
ATOM     84  S   UNL A   1      47.397  26.102  37.701  1.00  0.00     0.124 S 
ATOM     85  O   UNL A   1      47.261  24.832  36.997  1.00  0.00    -0.237 OA
ATOM     86  O   UNL A   1      48.581  26.888  37.364  1.00  0.00    -0.237 OA
ATOM     87  O   UNL A   1      47.051  26.074  39.118  1.00  0.00    -0.744 OA
ENDBRANCH  83  84
ENDBRANCH  62  76
BRANCH  63  88
ATOM     88  C   UNL A   1      36.532  33.092  30.937  1.00  0.00     0.058 A 
ATOM     89  C   UNL A   1      35.197  32.998  31.351  1.00  0.00     0.135 A 
ATOM     90  C   UNL A   1      36.818  33.897  29.823  1.00  0.00     0.135 A 
ATOM     91  F   UNL A   1      34.873  32.237  32.409  1.00  0.00    -0.206 F 
ATOM     92  C   UNL A   1      34.179  33.668  30.681  1.00  0.00     0.059 A 
ATOM     93  C   UNL A   1      35.822  34.600  29.155  1.00  0.00     0.059 A 
ATOM     94  F   UNL A   1      38.085  34.035  29.400  1.00  0.00    -0.206 F 
ATOM     95  C   UNL A   1      34.504  34.473  29.587  1.00  0.00     0.060 A 
BRANCH  95  96
ATOM     96  S   UNL A   1      33.180  35.382  28.761  1.00  0.00     0.124 S 
ATOM     97  O   UNL A   1      32.447  35.927  29.896  1.00  0.00    -0.237 OA
ATOM     98  O   UNL A   1      33.929  36.346  27.960  1.00  0.00    -0.237 OA
ATOM     99  O   UNL A   1      32.487  34.348  27.999  1.00  0.00    -0.744 OA
ENDBRANCH  95  96
ENDBRANCH  63  88
BRANCH  75 100
ATOM    100  C   UNL A   1      39.757  34.281  37.020  1.00  0.00     0.058 A 
ATOM    101  C   UNL A   1      39.018  34.047  38.191  1.00  0.00     0.135 A 
ATOM    102  C   UNL A   1      40.395  35.526  36.891  1.00  0.00     0.135 A 
ATOM    103  F   UNL A   1      38.379  32.879  38.364  1.00  0.00    -0.206 F 
ATOM    104  C   UNL A   1      38.905  35.013  39.187  1.00  0.00     0.059 A 
ATOM    105  C   UNL A   1      40.321  36.495  37.888  1.00  0.00     0.059 A 
ATOM    106  F   UNL A   1      41.120  35.805  35.796  1.00  0.00    -0.206 F 
ATOM    107  C   UNL A   1      39.565  36.232  39.029  1.00  0.00     0.060 A 
BRANCH 107 108
ATOM    108  S   UNL A   1      39.440  37.458  40.349  1.00  0.00     0.124 S 
ATOM    109  O   UNL A   1      38.583  38.467  39.735  1.00  0.00    -0.237 OA
ATOM    110  O   UNL A   1      38.835  36.687  41.432  1.00  0.00    -0.237 OA
ATOM    111  O   UNL A   1      40.824  37.864  40.573  1.00  0.00    -0.744 OA
ENDBRANCH 107 108
ENDBRANCH  75 100
ENDBRANCH  49  50
ENDBRANCH  42  44
ENDBRANCH  41  42
ENDBRANCH  40  41
ENDBRANCH  39  40
ENDBRANCH  38  39
ENDBRANCH   1  38
TORSDOF 21
ENDMDL
MODEL 3
REMARK VINA RESULT:     -10.6      5.388      9.223
REMARK SMILES C[C@]1(C(=O)OCCOCCOCCOC(=O)c2ccc(-c3c4nc(c(-c5c(F)cc(S(=O)(=O)[O-])cc5F)c5ccc([nH]5)c(-c5c(F)cc(S(=O)(=O)[O-])cc5F)c5nc(c(-c6c(F)cc(S(=O)(=O)[O-])cc6F)c6ccc3[nH]6)C=C5)C=C4)cc2)[NH2+]C2(C(=O)c3ccccc3C2=O)[C@@H]2C(=O)N(c3ccccc3)C(=O)[C@H]21
REMARK SMILES IDX 10 1 9 2 8 3 7 4 6 5 5 6 3 7 4 8 2 9 1 10 83 11 107 12 84 13
REMARK SMILES IDX 95 16 105 17 85 18 93 19 96 20 98 21 106 22 86 23 87 24
REMARK SMILES IDX 92 25 94 26 97 27 88 28 91 29 89 30 90 31 99 32 100 33
REMARK SMILES IDX 104 34 101 35 103 36 102 37 11 38 12 39 13 40 14 41 15 42
REMARK SMILES IDX 16 43 17 44 18 45 82 46 19 47 81 48 20 49 21 50 22 51 75 52
REMARK SMILES IDX 23 53 80 54 74 55 76 56 24 57 79 58 73 59 72 60 25 62 59 63
REMARK SMILES IDX 38 64 58 65 39 66 42 67 57 68 77 69 40 70 41 71 56 73 78 74
REMARK SMILES IDX 43 75 26 76 27 77 36 78 28 79 29 80 35 81 37 82 30 83 31 84
REMARK SMILES IDX 32 85 33 86 34 87 60 88 61 89 70 90 62 91 63 92 69 93 71 94
REMARK SMILES IDX 64 95 65 96 66 97 67 98 68 99 44 100 45 101 54 102 46 103
REMARK SMILES IDX 47 104 53 105 55 106 48 107 49 108 50 109 51 110 52 111
REMARK H PARENT 83 14 83 15 76 61 42 72
REMARK Flexibility Score: inf
ROOT
ATOM      1  C   UNL A   1      33.751  21.589  24.175  1.00  0.00     0.188 C 
ENDROOT
BRANCH   1   2
ATOM      2  C   UNL A   1      34.055  23.064  23.871  1.00  0.00     0.188 C 
BRANCH   2   3
ATOM      3  O   UNL A   1      34.246  23.478  22.531  1.00  0.00    -0.376 OA
BRANCH   3   4
ATOM      4  C   UNL A   1      33.259  24.265  21.886  1.00  0.00     0.202 C 
BRANCH   4   5
ATOM      5  C   UNL A   1      33.258  25.796  22.009  1.00  0.00     0.261 C 
BRANCH   5   6
ATOM      6  O   UNL A   1      32.010  26.411  22.387  1.00  0.00    -0.459 OA
BRANCH   6   7
ATOM      7  C   UNL A   1      31.213  25.689  23.223  1.00  0.00     0.368 C 
ATOM      8  O   UNL A   1      30.439  24.825  22.826  1.00  0.00    -0.245 OA
BRANCH   7   9
ATOM      9  C   UNL A   1      31.313  26.103  24.728  1.00  0.00     0.205 C 
ATOM     10  C   UNL A   1      30.760  24.930  25.544  1.00  0.00     0.093 C 
ATOM     11  N   UNL A   1      32.708  26.439  25.266  1.00  0.00    -0.313 N 
ATOM     12  C   UNL A   1      30.600  27.407  24.942  1.00  0.00     0.172 C 
ATOM     13  C   UNL A   1      32.803  27.944  25.467  1.00  0.00     0.237 C 
ATOM     14  H   UNL A   1      33.415  26.137  24.597  1.00  0.00     0.348 HD
ATOM     15  H   UNL A   1      32.864  25.959  26.152  1.00  0.00     0.348 HD
ATOM     16  C   UNL A   1      31.697  28.398  24.585  1.00  0.00     0.177 C 
ATOM     17  C   UNL A   1      29.487  27.909  24.096  1.00  0.00     0.244 C 
ATOM     18  C   UNL A   1      32.709  28.306  26.952  1.00  0.00     0.232 C 
ATOM     19  C   UNL A   1      34.193  28.462  25.084  1.00  0.00     0.232 C 
ATOM     20  C   UNL A   1      30.928  29.662  24.523  1.00  0.00     0.245 C 
ATOM     21  N   UNL A   1      29.715  29.275  23.954  1.00  0.00    -0.250 N 
ATOM     22  O   UNL A   1      28.573  27.218  23.684  1.00  0.00    -0.273 OA
ATOM     23  O   UNL A   1      31.779  28.102  27.711  1.00  0.00    -0.286 OA
ATOM     24  C   UNL A   1      33.985  28.879  27.376  1.00  0.00     0.036 A 
ATOM     25  C   UNL A   1      34.857  28.947  26.299  1.00  0.00     0.036 A 
ATOM     26  O   UNL A   1      34.699  28.540  23.979  1.00  0.00    -0.286 OA
ATOM     27  O   UNL A   1      31.372  30.764  24.787  1.00  0.00    -0.273 OA
ATOM     28  C   UNL A   1      34.358  29.294  28.645  1.00  0.00     0.013 A 
ATOM     29  C   UNL A   1      36.145  29.431  26.446  1.00  0.00     0.013 A 
ATOM     30  C   UNL A   1      35.654  29.790  28.809  1.00  0.00     0.001 A 
ATOM     31  C   UNL A   1      36.542  29.854  27.720  1.00  0.00     0.001 A 
BRANCH  21  32
ATOM     32  C   UNL A   1      28.901  30.079  23.131  1.00  0.00     0.052 A 
ATOM     33  C   UNL A   1      28.889  29.891  21.743  1.00  0.00     0.027 A 
ATOM     34  C   UNL A   1      28.232  31.185  23.672  1.00  0.00     0.027 A 
ATOM     35  C   UNL A   1      28.244  30.799  20.905  1.00  0.00     0.002 A 
ATOM     36  C   UNL A   1      27.619  32.116  22.828  1.00  0.00     0.002 A 
ATOM     37  C   UNL A   1      27.626  31.922  21.447  1.00  0.00     0.000 A 
ENDBRANCH  21  32
ENDBRANCH   7   9
ENDBRANCH   6   7
ENDBRANCH   5   6
ENDBRANCH   4   5
ENDBRANCH   3   4
ENDBRANCH   2   3
ENDBRANCH   1   2
BRANCH   1  38
ATOM     38  O   UNL A   1      34.783  20.801  24.698  1.00  0.00    -0.376 OA
BRANCH  38  39
ATOM     39  C   UNL A   1      35.744  21.355  25.571  1.00  0.00     0.202 C 
BRANCH  39  40
ATOM     40  C   UNL A   1      37.270  21.345  25.352  1.00  0.00     0.261 C 
BRANCH  40  41
ATOM     41  O   UNL A   1      38.051  22.410  25.897  1.00  0.00    -0.460 OA
BRANCH  41  42
ATOM     42  C   UNL A   1      39.236  22.068  26.477  1.00  0.00     0.338 C 
ATOM     43  O   UNL A   1      39.779  20.987  26.452  1.00  0.00    -0.246 OA
BRANCH  42  44
ATOM     44  C   UNL A   1      39.875  23.330  26.934  1.00  0.00     0.060 A 
ATOM     45  C   UNL A   1      40.838  23.305  27.942  1.00  0.00     0.016 A 
ATOM     46  C   UNL A   1      39.435  24.553  26.404  1.00  0.00     0.016 A 
ATOM     47  C   UNL A   1      41.370  24.508  28.411  1.00  0.00     0.010 A 
ATOM     48  C   UNL A   1      39.956  25.758  26.892  1.00  0.00     0.010 A 
ATOM     49  C   UNL A   1      40.943  25.743  27.886  1.00  0.00    -0.014 A 
BRANCH  49  50
ATOM     50  C   UNL A   1      41.686  26.978  28.243  1.00  0.00     0.031 A 
ATOM     51  C   UNL A   1      43.131  27.186  27.896  1.00  0.00     0.074 A 
ATOM     52  C   UNL A   1      40.997  27.950  28.873  1.00  0.00     0.049 A 
ATOM     53  N   UNL A   1      43.851  28.273  28.023  1.00  0.00    -0.248 NA
ATOM     54  C   UNL A   1      43.864  26.037  27.349  1.00  0.00     0.031 C 
ATOM     55  C   UNL A   1      39.596  27.844  29.284  1.00  0.00     0.029 A 
ATOM     56  N   UNL A   1      41.363  29.215  29.254  1.00  0.00    -0.354 N 
ATOM     57  C   UNL A   1      45.115  27.956  27.540  1.00  0.00     0.074 A 
ATOM     58  C   UNL A   1      45.076  26.554  27.170  1.00  0.00     0.031 C 
ATOM     59  C   UNL A   1      39.208  29.009  29.823  1.00  0.00     0.029 A 
ATOM     60  C   UNL A   1      40.337  29.935  29.817  1.00  0.00     0.049 A 
ATOM     61  H   UNL A   1      42.273  29.573  29.135  1.00  0.00     0.167 HD
ATOM     62  C   UNL A   1      46.194  28.767  27.402  1.00  0.00     0.037 A 
ATOM     63  C   UNL A   1      40.298  31.204  30.267  1.00  0.00     0.037 A 
ATOM     64  C   UNL A   1      46.225  30.157  27.799  1.00  0.00     0.049 A 
ATOM     65  C   UNL A   1      41.521  32.067  30.142  1.00  0.00     0.074 A 
ATOM     66  C   UNL A   1      47.265  31.064  27.669  1.00  0.00     0.029 A 
ATOM     67  N   UNL A   1      45.183  30.839  28.413  1.00  0.00    -0.354 N 
ATOM     68  N   UNL A   1      42.685  31.773  29.613  1.00  0.00    -0.248 NA
ATOM     69  C   UNL A   1      41.424  33.436  30.663  1.00  0.00     0.031 C 
ATOM     70  C   UNL A   1      46.872  32.273  28.253  1.00  0.00     0.029 A 
ATOM     71  C   UNL A   1      45.566  32.143  28.693  1.00  0.00     0.049 A 
ATOM     72  H   UNL A   1      44.301  30.454  28.619  1.00  0.00     0.167 HD
ATOM     73  C   UNL A   1      43.451  32.930  29.716  1.00  0.00     0.074 A 
ATOM     74  C   UNL A   1      42.613  33.931  30.344  1.00  0.00     0.031 C 
ATOM     75  C   UNL A   1      44.731  33.138  29.323  1.00  0.00     0.037 A 
BRANCH  62  76
ATOM     76  C   UNL A   1      47.443  28.191  26.784  1.00  0.00     0.058 A 
ATOM     77  C   UNL A   1      47.599  28.117  25.390  1.00  0.00     0.135 A 
ATOM     78  C   UNL A   1      48.533  27.807  27.583  1.00  0.00     0.135 A 
ATOM     79  F   UNL A   1      46.591  28.470  24.577  1.00  0.00    -0.206 F 
ATOM     80  C   UNL A   1      48.783  27.669  24.811  1.00  0.00     0.059 A 
ATOM     81  C   UNL A   1      49.738  27.382  27.024  1.00  0.00     0.059 A 
ATOM     82  F   UNL A   1      48.446  27.866  28.920  1.00  0.00    -0.206 F 
ATOM     83  C   UNL A   1      49.851  27.310  25.637  1.00  0.00     0.060 A 
BRANCH  83  84
ATOM     84  S   UNL A   1      51.389  26.761  24.865  1.00  0.00     0.124 S 
ATOM     85  O   UNL A   1      51.025  26.759  23.452  1.00  0.00    -0.237 OA
ATOM     86  O   UNL A   1      52.329  27.800  25.275  1.00  0.00    -0.237 OA
ATOM     87  O   UNL A   1      51.617  25.445  25.454  1.00  0.00    -0.744 OA
ENDBRANCH  83  84
ENDBRANCH  62  76
BRANCH  63  88
ATOM     88  C   UNL A   1      39.034  31.736  30.839  1.00  0.00     0.058 A 
ATOM     89  C   UNL A   1      38.110  32.420  30.038  1.00  0.00     0.135 A 
ATOM     90  C   UNL A   1      38.707  31.533  32.189  1.00  0.00     0.135 A 
ATOM     91  F   UNL A   1      38.380  32.641  28.742  1.00  0.00    -0.206 F 
ATOM     92  C   UNL A   1      36.910  32.895  30.555  1.00  0.00     0.059 A 
ATOM     93  C   UNL A   1      37.500  31.972  32.723  1.00  0.00     0.059 A 
ATOM     94  F   UNL A   1      39.551  30.866  32.993  1.00  0.00    -0.206 F 
ATOM     95  C   UNL A   1      36.611  32.659  31.899  1.00  0.00     0.060 A 
BRANCH  95  96
ATOM     96  S   UNL A   1      35.025  33.232  32.543  1.00  0.00     0.124 S 
ATOM     97  O   UNL A   1      35.003  34.614  32.082  1.00  0.00    -0.237 OA
ATOM     98  O   UNL A   1      34.087  32.324  31.890  1.00  0.00    -0.237 OA
ATOM     99  O   UNL A   1      35.163  33.050  33.985  1.00  0.00    -0.744 OA
ENDBRANCH  95  96
ENDBRANCH  63  88
BRANCH  75 100
ATOM    100  C   UNL A   1      45.314  34.511  29.541  1.00  0.00     0.058 A 
ATOM    101  C   UNL A   1      46.034  34.832  30.703  1.00  0.00     0.135 A 
ATOM    102  C   UNL A   1      45.200  35.501  28.551  1.00  0.00     0.135 A 
ATOM    103  F   UNL A   1      46.167  33.929  31.687  1.00  0.00    -0.206 F 
ATOM    104  C   UNL A   1      46.607  36.089  30.882  1.00  0.00     0.059 A 
ATOM    105  C   UNL A   1      45.790  36.754  28.695  1.00  0.00     0.059 A 
ATOM    106  F   UNL A   1      44.528  35.249  27.417  1.00  0.00    -0.206 F 
ATOM    107  C   UNL A   1      46.484  37.041  29.870  1.00  0.00     0.060 A 
BRANCH 107 108
ATOM    108  S   UNL A   1      47.267  38.652  30.102  1.00  0.00     0.124 S 
ATOM    109  O   UNL A   1      46.749  39.399  28.960  1.00  0.00    -0.237 OA
ATOM    110  O   UNL A   1      46.758  39.059  31.408  1.00  0.00    -0.237 OA
ATOM    111  O   UNL A   1      48.695  38.349  30.057  1.00  0.00    -0.744 OA
ENDBRANCH 107 108
ENDBRANCH  75 100
ENDBRANCH  49  50
ENDBRANCH  42  44
ENDBRANCH  41  42
ENDBRANCH  40  41
ENDBRANCH  39  40
ENDBRANCH  38  39
ENDBRANCH   1  38
TORSDOF 21
ENDMDL
