MODEL 1
REMARK VINA RESULT:     -10.2      0.000      0.000
REMARK SMILES Cc1cc(C[N@@H+]2C[C@@H](C(=O)OCCOCCOCCOC(=O)c3ccc(-c4c5nc(c(-c6c(F)cc(S(=O)(=O)[O-])cc6F)c6ccc([nH]6)c(-c6c(F)cc(S(=O)(=O)[O-])cc6F)c6nc(c(-c7c(F)cc(S(=O)(=O)[O-])cc7F)c7ccc4[nH]7)C=C6)C=C5)cc3)[C@H](C3CC3)C2)on1
REMARK SMILES IDX 16 1 15 2 14 3 13 4 12 5 11 6 9 7 10 8 8 9 6 10 7 11 93 12
REMARK SMILES IDX 89 14 5 15 4 16 1 17 2 18 3 19 95 20 94 21 90 22 91 23 92 24
REMARK SMILES IDX 17 25 18 26 19 27 20 28 21 29 22 30 23 31 24 32 88 33 25 34
REMARK SMILES IDX 87 35 26 36 27 37 28 38 81 39 29 40 86 41 80 42 82 43 30 44
REMARK SMILES IDX 85 45 79 46 78 47 31 49 65 50 44 51 64 52 45 53 48 54 63 55
REMARK SMILES IDX 83 56 46 57 47 58 62 60 84 61 49 62 32 63 33 64 42 65 34 66
REMARK SMILES IDX 35 67 41 68 43 69 36 70 37 71 38 72 39 73 40 74 66 75 67 76
REMARK SMILES IDX 76 77 68 78 69 79 75 80 77 81 70 82 71 83 72 84 73 85 74 86
REMARK SMILES IDX 50 87 51 88 60 89 52 90 53 91 59 92 61 93 54 94 55 95 56 96
REMARK SMILES IDX 57 97 58 98
REMARK H PARENT 6 13 82 48 48 59
REMARK Flexibility Score: inf
ROOT
ATOM      1  C   UNL A   1      34.418  34.299  28.422  1.00  0.00     0.188 C 
ENDROOT
BRANCH   1   2
ATOM      2  C   UNL A   1      33.843  32.929  28.000  1.00  0.00     0.188 C 
BRANCH   2   3
ATOM      3  O   UNL A   1      34.691  31.925  27.474  1.00  0.00    -0.376 OA
BRANCH   3   4
ATOM      4  C   UNL A   1      34.450  30.574  27.819  1.00  0.00     0.202 C 
BRANCH   4   5
ATOM      5  C   UNL A   1      33.732  29.668  26.816  1.00  0.00     0.261 C 
BRANCH   5   6
ATOM      6  O   UNL A   1      33.688  28.284  27.209  1.00  0.00    -0.463 OA
BRANCH   6   7
ATOM      7  C   UNL A   1      32.463  27.697  27.158  1.00  0.00     0.315 C 
ATOM      8  O   UNL A   1      31.627  27.795  28.048  1.00  0.00    -0.252 OA
BRANCH   7   9
ATOM      9  C   UNL A   1      32.200  26.926  25.878  1.00  0.00     0.163 C 
ATOM     10  N   UNL A   1      30.695  25.676  24.514  1.00  0.00    -0.328 N 
ATOM     11  C   UNL A   1      30.729  26.742  25.526  1.00  0.00     0.278 C 
ATOM     12  C   UNL A   1      31.803  24.767  24.842  1.00  0.00     0.267 C 
ATOM     13  H   UNL A   1      29.802  25.183  24.551  1.00  0.00     0.348 HD
ATOM     14  C   UNL A   1      32.749  25.498  25.825  1.00  0.00     0.067 C 
BRANCH  10  15
ATOM     15  C   UNL A   1      30.714  26.160  23.117  1.00  0.00     0.341 C 
BRANCH  15  16
ATOM     16  C   UNL A   1      30.053  27.468  22.868  1.00  0.00     0.191 A 
ATOM     17  C   UNL A   1      27.654  30.173  22.357  1.00  0.00     0.070 C 
ATOM     18  C   UNL A   1      28.789  29.230  22.481  1.00  0.00     0.081 A 
ATOM     19  C   UNL A   1      28.841  28.020  23.210  1.00  0.00     0.078 A 
ATOM     20  N   UNL A   1      29.931  29.445  21.816  1.00  0.00    -0.085 NA
ATOM     21  O   UNL A   1      30.726  28.342  22.070  1.00  0.00    -0.355 OA
ENDBRANCH  15  16
ENDBRANCH  10  15
BRANCH  14  22
ATOM     22  C   UNL A   1      34.198  25.317  25.438  1.00  0.00    -0.001 C 
ATOM     23  C   UNL A   1      35.041  24.106  25.756  1.00  0.00     0.004 C 
ATOM     24  C   UNL A   1      34.543  24.319  24.360  1.00  0.00     0.004 C 
ENDBRANCH  14  22
ENDBRANCH   7   9
ENDBRANCH   6   7
ENDBRANCH   5   6
ENDBRANCH   4   5
ENDBRANCH   3   4
ENDBRANCH   2   3
ENDBRANCH   1   2
BRANCH   1  25
ATOM     25  O   UNL A   1      35.555  34.407  29.254  1.00  0.00    -0.376 OA
BRANCH  25  26
ATOM     26  C   UNL A   1      35.442  34.214  30.650  1.00  0.00     0.202 C 
BRANCH  26  27
ATOM     27  C   UNL A   1      35.869  32.892  31.297  1.00  0.00     0.261 C 
BRANCH  27  28
ATOM     28  O   UNL A   1      36.442  31.921  30.409  1.00  0.00    -0.460 OA
BRANCH  28  29
ATOM     29  C   UNL A   1      36.638  30.695  30.938  1.00  0.00     0.338 C 
ATOM     30  O   UNL A   1      35.897  30.111  31.738  1.00  0.00    -0.246 OA
BRANCH  29  31
ATOM     31  C   UNL A   1      37.800  30.032  30.326  1.00  0.00     0.060 A 
ATOM     32  C   UNL A   1      38.644  29.268  31.145  1.00  0.00     0.016 A 
ATOM     33  C   UNL A   1      38.119  30.234  28.981  1.00  0.00     0.016 A 
ATOM     34  C   UNL A   1      39.830  28.743  30.631  1.00  0.00     0.010 A 
ATOM     35  C   UNL A   1      39.318  29.716  28.471  1.00  0.00     0.010 A 
ATOM     36  C   UNL A   1      40.197  28.998  29.302  1.00  0.00    -0.014 A 
BRANCH  36  37
ATOM     37  C   UNL A   1      41.559  28.629  28.831  1.00  0.00     0.031 A 
ATOM     38  C   UNL A   1      42.650  29.667  28.843  1.00  0.00     0.074 A 
ATOM     39  C   UNL A   1      41.838  27.375  28.433  1.00  0.00     0.049 A 
ATOM     40  N   UNL A   1      43.902  29.556  28.483  1.00  0.00    -0.248 NA
ATOM     41  C   UNL A   1      42.274  31.009  29.316  1.00  0.00     0.031 C 
ATOM     42  C   UNL A   1      40.874  26.281  28.372  1.00  0.00     0.029 A 
ATOM     43  N   UNL A   1      43.016  26.808  28.012  1.00  0.00    -0.354 N 
ATOM     44  C   UNL A   1      44.464  30.814  28.670  1.00  0.00     0.074 A 
ATOM     45  C   UNL A   1      43.408  31.677  29.159  1.00  0.00     0.031 C 
ATOM     46  C   UNL A   1      41.503  25.163  27.973  1.00  0.00     0.029 A 
ATOM     47  C   UNL A   1      42.904  25.475  27.694  1.00  0.00     0.049 A 
ATOM     48  H   UNL A   1      43.860  27.308  27.942  1.00  0.00     0.167 HD
ATOM     49  C   UNL A   1      45.741  31.213  28.456  1.00  0.00     0.037 A 
ATOM     50  C   UNL A   1      43.821  24.609  27.213  1.00  0.00     0.037 A 
ATOM     51  C   UNL A   1      46.790  30.358  27.963  1.00  0.00     0.049 A 
ATOM     52  C   UNL A   1      45.226  25.088  26.952  1.00  0.00     0.074 A 
ATOM     53  C   UNL A   1      48.117  30.674  27.723  1.00  0.00     0.029 A 
ATOM     54  N   UNL A   1      46.635  29.022  27.626  1.00  0.00    -0.354 N 
ATOM     55  N   UNL A   1      45.746  26.277  27.150  1.00  0.00    -0.248 NA
ATOM     56  C   UNL A   1      46.168  24.107  26.394  1.00  0.00     0.031 C 
ATOM     57  C   UNL A   1      48.752  29.543  27.198  1.00  0.00     0.029 A 
ATOM     58  C   UNL A   1      47.835  28.504  27.161  1.00  0.00     0.049 A 
ATOM     59  H   UNL A   1      45.795  28.514  27.704  1.00  0.00     0.167 HD
ATOM     60  C   UNL A   1      47.077  26.181  26.754  1.00  0.00     0.074 A 
ATOM     61  C   UNL A   1      47.288  24.812  26.333  1.00  0.00     0.031 C 
ATOM     62  C   UNL A   1      48.036  27.142  26.736  1.00  0.00     0.037 A 
BRANCH  49  63
ATOM     63  C   UNL A   1      46.068  32.657  28.726  1.00  0.00     0.058 A 
ATOM     64  C   UNL A   1      46.043  33.624  27.709  1.00  0.00     0.135 A 
ATOM     65  C   UNL A   1      46.381  33.083  30.027  1.00  0.00     0.135 A 
ATOM     66  F   UNL A   1      45.768  33.269  26.444  1.00  0.00    -0.206 F 
ATOM     67  C   UNL A   1      46.346  34.957  27.966  1.00  0.00     0.059 A 
ATOM     68  C   UNL A   1      46.661  34.416  30.313  1.00  0.00     0.059 A 
ATOM     69  F   UNL A   1      46.421  32.199  31.036  1.00  0.00    -0.206 F 
ATOM     70  C   UNL A   1      46.655  35.344  29.272  1.00  0.00     0.060 A 
BRANCH  70  71
ATOM     71  S   UNL A   1      47.045  37.077  29.590  1.00  0.00     0.124 S 
ATOM     72  O   UNL A   1      46.096  37.397  30.652  1.00  0.00    -0.237 OA
ATOM     73  O   UNL A   1      48.446  37.015  29.990  1.00  0.00    -0.237 OA
ATOM     74  O   UNL A   1      46.790  37.725  28.305  1.00  0.00    -0.744 OA
ENDBRANCH  70  71
ENDBRANCH  49  63
BRANCH  50  75
ATOM     75  C   UNL A   1      43.439  23.199  26.925  1.00  0.00     0.058 A 
ATOM     76  C   UNL A   1      43.210  22.283  27.964  1.00  0.00     0.135 A 
ATOM     77  C   UNL A   1      43.315  22.734  25.607  1.00  0.00     0.135 A 
ATOM     78  F   UNL A   1      43.332  22.674  29.242  1.00  0.00    -0.206 F 
ATOM     79  C   UNL A   1      42.888  20.954  27.706  1.00  0.00     0.059 A 
ATOM     80  C   UNL A   1      42.963  21.418  25.324  1.00  0.00     0.059 A 
ATOM     81  F   UNL A   1      43.518  23.571  24.576  1.00  0.00    -0.206 F 
ATOM     82  C   UNL A   1      42.763  20.532  26.381  1.00  0.00     0.060 A 
BRANCH  82  83
ATOM     83  S   UNL A   1      42.296  18.818  26.057  1.00  0.00     0.124 S 
ATOM     84  O   UNL A   1      43.189  18.475  24.957  1.00  0.00    -0.237 OA
ATOM     85  O   UNL A   1      42.583  18.176  27.336  1.00  0.00    -0.237 OA
ATOM     86  O   UNL A   1      40.881  18.916  25.717  1.00  0.00    -0.744 OA
ENDBRANCH  82  83
ENDBRANCH  50  75
BRANCH  62  87
ATOM     87  C   UNL A   1      49.410  26.735  26.270  1.00  0.00     0.058 A 
ATOM     88  C   UNL A   1      50.357  26.183  27.147  1.00  0.00     0.135 A 
ATOM     89  C   UNL A   1      49.782  26.894  24.925  1.00  0.00     0.135 A 
ATOM     90  F   UNL A   1      50.056  26.010  28.444  1.00  0.00    -0.206 F 
ATOM     91  C   UNL A   1      51.638  25.846  26.719  1.00  0.00     0.059 A 
ATOM     92  C   UNL A   1      51.046  26.537  24.467  1.00  0.00     0.059 A 
ATOM     93  F   UNL A   1      48.912  27.403  24.037  1.00  0.00    -0.206 F 
ATOM     94  C   UNL A   1      51.975  26.034  25.377  1.00  0.00     0.060 A 
BRANCH  94  95
ATOM     95  S   UNL A   1      53.644  25.607  24.834  1.00  0.00     0.124 S 
ATOM     96  O   UNL A   1      53.759  24.228  25.297  1.00  0.00    -0.237 OA
ATOM     97  O   UNL A   1      53.560  25.785  23.388  1.00  0.00    -0.237 OA
ATOM     98  O   UNL A   1      54.485  26.576  25.530  1.00  0.00    -0.744 OA
ENDBRANCH  94  95
ENDBRANCH  62  87
ENDBRANCH  36  37
ENDBRANCH  29  31
ENDBRANCH  28  29
ENDBRANCH  27  28
ENDBRANCH  26  27
ENDBRANCH  25  26
ENDBRANCH   1  25
TORSDOF 23
ENDMDL
MODEL 2
REMARK VINA RESULT:     -10.1      6.466     12.134
REMARK SMILES Cc1cc(C[N@@H+]2C[C@@H](C(=O)OCCOCCOCCOC(=O)c3ccc(-c4c5nc(c(-c6c(F)cc(S(=O)(=O)[O-])cc6F)c6ccc([nH]6)c(-c6c(F)cc(S(=O)(=O)[O-])cc6F)c6nc(c(-c7c(F)cc(S(=O)(=O)[O-])cc7F)c7ccc4[nH]7)C=C6)C=C5)cc3)[C@H](C3CC3)C2)on1
REMARK SMILES IDX 16 1 15 2 14 3 13 4 12 5 11 6 9 7 10 8 8 9 6 10 7 11 93 12
REMARK SMILES IDX 89 14 5 15 4 16 1 17 2 18 3 19 95 20 94 21 90 22 91 23 92 24
REMARK SMILES IDX 17 25 18 26 19 27 20 28 21 29 22 30 23 31 24 32 88 33 25 34
REMARK SMILES IDX 87 35 26 36 27 37 28 38 81 39 29 40 86 41 80 42 82 43 30 44
REMARK SMILES IDX 85 45 79 46 78 47 31 49 65 50 44 51 64 52 45 53 48 54 63 55
REMARK SMILES IDX 83 56 46 57 47 58 62 60 84 61 49 62 32 63 33 64 42 65 34 66
REMARK SMILES IDX 35 67 41 68 43 69 36 70 37 71 38 72 39 73 40 74 66 75 67 76
REMARK SMILES IDX 76 77 68 78 69 79 75 80 77 81 70 82 71 83 72 84 73 85 74 86
REMARK SMILES IDX 50 87 51 88 60 89 52 90 53 91 59 92 61 93 54 94 55 95 56 96
REMARK SMILES IDX 57 97 58 98
REMARK H PARENT 6 13 82 48 48 59
REMARK Flexibility Score: inf
ROOT
ATOM      1  C   UNL A   1      37.014  21.508  25.521  1.00  0.00     0.188 C 
ENDROOT
BRANCH   1   2
ATOM      2  C   UNL A   1      35.891  20.601  24.971  1.00  0.00     0.188 C 
BRANCH   2   3
ATOM      3  O   UNL A   1      34.806  21.157  24.252  1.00  0.00    -0.376 OA
BRANCH   3   4
ATOM      4  C   UNL A   1      33.485  20.832  24.645  1.00  0.00     0.202 C 
BRANCH   4   5
ATOM      5  C   UNL A   1      32.337  21.083  23.665  1.00  0.00     0.261 C 
BRANCH   5   6
ATOM      6  O   UNL A   1      31.905  22.456  23.616  1.00  0.00    -0.463 OA
BRANCH   6   7
ATOM      7  C   UNL A   1      32.578  23.253  22.744  1.00  0.00     0.315 C 
ATOM      8  O   UNL A   1      33.273  22.824  21.831  1.00  0.00    -0.252 OA
BRANCH   7   9
ATOM      9  C   UNL A   1      32.370  24.737  22.978  1.00  0.00     0.163 C 
ATOM     10  N   UNL A   1      32.019  26.921  22.084  1.00  0.00    -0.328 N 
ATOM     11  C   UNL A   1      31.775  25.499  21.800  1.00  0.00     0.278 C 
ATOM     12  C   UNL A   1      33.293  26.977  22.816  1.00  0.00     0.267 C 
ATOM     13  H   UNL A   1      32.081  27.449  21.212  1.00  0.00     0.348 HD
ATOM     14  C   UNL A   1      33.623  25.550  23.315  1.00  0.00     0.067 C 
BRANCH  10  15
ATOM     15  C   UNL A   1      30.905  27.606  22.773  1.00  0.00     0.341 C 
BRANCH  15  16
ATOM     16  C   UNL A   1      30.987  27.662  24.256  1.00  0.00     0.191 A 
ATOM     17  C   UNL A   1      31.951  28.303  27.719  1.00  0.00     0.070 C 
ATOM     18  C   UNL A   1      31.409  27.883  26.406  1.00  0.00     0.081 A 
ATOM     19  C   UNL A   1      31.530  28.542  25.162  1.00  0.00     0.078 A 
ATOM     20  N   UNL A   1      30.751  26.724  26.279  1.00  0.00    -0.085 NA
ATOM     21  O   UNL A   1      30.477  26.594  24.930  1.00  0.00    -0.355 OA
ENDBRANCH  15  16
ENDBRANCH  10  15
BRANCH  14  22
ATOM     22  C   UNL A   1      34.086  25.560  24.753  1.00  0.00    -0.001 C 
ATOM     23  C   UNL A   1      33.785  24.488  25.774  1.00  0.00     0.004 C 
ATOM     24  C   UNL A   1      35.155  24.584  25.180  1.00  0.00     0.004 C 
ENDBRANCH  14  22
ENDBRANCH   7   9
ENDBRANCH   6   7
ENDBRANCH   5   6
ENDBRANCH   4   5
ENDBRANCH   3   4
ENDBRANCH   2   3
ENDBRANCH   1   2
BRANCH   1  25
ATOM     25  O   UNL A   1      38.380  21.194  25.345  1.00  0.00    -0.376 OA
BRANCH  25  26
ATOM     26  C   UNL A   1      39.363  21.786  26.172  1.00  0.00     0.202 C 
BRANCH  26  27
ATOM     27  C   UNL A   1      39.414  23.305  26.367  1.00  0.00     0.261 C 
BRANCH  27  28
ATOM     28  O   UNL A   1      40.698  23.846  26.710  1.00  0.00    -0.460 OA
BRANCH  28  29
ATOM     29  C   UNL A   1      40.856  25.164  26.469  1.00  0.00     0.338 C 
ATOM     30  O   UNL A   1      40.850  25.716  25.361  1.00  0.00    -0.246 OA
BRANCH  29  31
ATOM     31  C   UNL A   1      40.894  25.934  27.722  1.00  0.00     0.060 A 
ATOM     32  C   UNL A   1      39.765  25.915  28.553  1.00  0.00     0.016 A 
ATOM     33  C   UNL A   1      41.987  26.745  28.038  1.00  0.00     0.016 A 
ATOM     34  C   UNL A   1      39.709  26.742  29.676  1.00  0.00     0.010 A 
ATOM     35  C   UNL A   1      41.922  27.584  29.158  1.00  0.00     0.010 A 
ATOM     36  C   UNL A   1      40.769  27.613  29.964  1.00  0.00    -0.014 A 
BRANCH  36  37
ATOM     37  C   UNL A   1      40.607  28.645  31.023  1.00  0.00     0.031 A 
ATOM     38  C   UNL A   1      41.514  28.617  32.225  1.00  0.00     0.074 A 
ATOM     39  C   UNL A   1      39.691  29.623  30.904  1.00  0.00     0.049 A 
ATOM     40  N   UNL A   1      41.547  29.421  33.255  1.00  0.00    -0.248 NA
ATOM     41  C   UNL A   1      42.508  27.534  32.272  1.00  0.00     0.031 C 
ATOM     42  C   UNL A   1      38.753  29.760  29.794  1.00  0.00     0.029 A 
ATOM     43  N   UNL A   1      39.403  30.689  31.720  1.00  0.00    -0.354 N 
ATOM     44  C   UNL A   1      42.553  28.936  34.083  1.00  0.00     0.074 A 
ATOM     45  C   UNL A   1      43.093  27.755  33.441  1.00  0.00     0.031 C 
ATOM     46  C   UNL A   1      38.016  30.868  29.977  1.00  0.00     0.029 A 
ATOM     47  C   UNL A   1      38.389  31.488  31.248  1.00  0.00     0.049 A 
ATOM     48  H   UNL A   1      39.877  30.863  32.565  1.00  0.00     0.167 HD
ATOM     49  C   UNL A   1      42.989  29.429  35.269  1.00  0.00     0.037 A 
ATOM     50  C   UNL A   1      37.813  32.582  31.788  1.00  0.00     0.037 A 
ATOM     51  C   UNL A   1      42.448  30.598  35.912  1.00  0.00     0.049 A 
ATOM     52  C   UNL A   1      38.293  33.089  33.123  1.00  0.00     0.074 A 
ATOM     53  C   UNL A   1      42.832  31.176  37.111  1.00  0.00     0.029 A 
ATOM     54  N   UNL A   1      41.404  31.367  35.420  1.00  0.00    -0.354 N 
ATOM     55  N   UNL A   1      39.257  32.628  33.886  1.00  0.00    -0.248 NA
ATOM     56  C   UNL A   1      37.601  34.263  33.675  1.00  0.00     0.031 C 
ATOM     57  C   UNL A   1      41.990  32.265  37.365  1.00  0.00     0.029 A 
ATOM     58  C   UNL A   1      41.116  32.400  36.299  1.00  0.00     0.049 A 
ATOM     59  H   UNL A   1      40.935  31.202  34.570  1.00  0.00     0.167 HD
ATOM     60  C   UNL A   1      39.294  33.464  35.000  1.00  0.00     0.074 A 
ATOM     61  C   UNL A   1      38.276  34.473  34.796  1.00  0.00     0.031 C 
ATOM     62  C   UNL A   1      40.096  33.398  36.093  1.00  0.00     0.037 A 
BRANCH  49  63
ATOM     63  C   UNL A   1      44.091  28.678  35.965  1.00  0.00     0.058 A 
ATOM     64  C   UNL A   1      45.438  29.051  35.833  1.00  0.00     0.135 A 
ATOM     65  C   UNL A   1      43.792  27.589  36.799  1.00  0.00     0.135 A 
ATOM     66  F   UNL A   1      45.782  30.074  35.034  1.00  0.00    -0.206 F 
ATOM     67  C   UNL A   1      46.452  28.353  36.480  1.00  0.00     0.059 A 
ATOM     68  C   UNL A   1      44.788  26.892  37.477  1.00  0.00     0.059 A 
ATOM     69  F   UNL A   1      42.521  27.189  36.958  1.00  0.00    -0.206 F 
ATOM     70  C   UNL A   1      46.117  27.273  37.300  1.00  0.00     0.060 A 
BRANCH  70  71
ATOM     71  S   UNL A   1      47.444  26.378  38.134  1.00  0.00     0.124 S 
ATOM     72  O   UNL A   1      48.108  25.728  37.008  1.00  0.00    -0.237 OA
ATOM     73  O   UNL A   1      48.193  27.454  38.774  1.00  0.00    -0.237 OA
ATOM     74  O   UNL A   1      46.733  25.484  39.044  1.00  0.00    -0.744 OA
ENDBRANCH  70  71
ENDBRANCH  49  63
BRANCH  50  75
ATOM     75  C   UNL A   1      36.698  33.268  31.078  1.00  0.00     0.058 A 
ATOM     76  C   UNL A   1      35.366  33.101  31.486  1.00  0.00     0.135 A 
ATOM     77  C   UNL A   1      36.941  34.090  29.966  1.00  0.00     0.135 A 
ATOM     78  F   UNL A   1      35.080  32.313  32.534  1.00  0.00    -0.206 F 
ATOM     79  C   UNL A   1      34.314  33.709  30.809  1.00  0.00     0.059 A 
ATOM     80  C   UNL A   1      35.909  34.734  29.291  1.00  0.00     0.059 A 
ATOM     81  F   UNL A   1      38.198  34.288  29.537  1.00  0.00    -0.206 F 
ATOM     82  C   UNL A   1      34.596  34.527  29.713  1.00  0.00     0.060 A 
BRANCH  82  83
ATOM     83  S   UNL A   1      33.229  35.352  28.871  1.00  0.00     0.124 S 
ATOM     84  O   UNL A   1      33.932  36.368  28.097  1.00  0.00    -0.237 OA
ATOM     85  O   UNL A   1      32.639  34.259  28.103  1.00  0.00    -0.237 OA
ATOM     86  O   UNL A   1      32.410  35.850  29.971  1.00  0.00    -0.744 OA
ENDBRANCH  82  83
ENDBRANCH  50  75
BRANCH  62  87
ATOM     87  C   UNL A   1      39.920  34.465  37.141  1.00  0.00     0.058 A 
ATOM     88  C   UNL A   1      39.080  34.282  38.252  1.00  0.00     0.135 A 
ATOM     89  C   UNL A   1      40.607  35.686  37.037  1.00  0.00     0.135 A 
ATOM     90  F   UNL A   1      38.397  33.136  38.401  1.00  0.00    -0.206 F 
ATOM     91  C   UNL A   1      38.891  35.288  39.196  1.00  0.00     0.059 A 
ATOM     92  C   UNL A   1      40.457  36.694  37.985  1.00  0.00     0.059 A 
ATOM     93  F   UNL A   1      41.435  35.911  36.005  1.00  0.00    -0.206 F 
ATOM     94  C   UNL A   1      39.579  36.493  39.049  1.00  0.00     0.060 A 
BRANCH  94  95
ATOM     95  S   UNL A   1      39.316  37.797  40.272  1.00  0.00     0.124 S 
ATOM     96  O   UNL A   1      38.932  37.022  41.448  1.00  0.00    -0.237 OA
ATOM     97  O   UNL A   1      40.626  38.438  40.335  1.00  0.00    -0.237 OA
ATOM     98  O   UNL A   1      38.256  38.608  39.680  1.00  0.00    -0.744 OA
ENDBRANCH  94  95
ENDBRANCH  62  87
ENDBRANCH  36  37
ENDBRANCH  29  31
ENDBRANCH  28  29
ENDBRANCH  27  28
ENDBRANCH  26  27
ENDBRANCH  25  26
ENDBRANCH   1  25
TORSDOF 23
ENDMDL
MODEL 3
REMARK VINA RESULT:     -10.1      1.406      3.058
REMARK SMILES Cc1cc(C[N@@H+]2C[C@@H](C(=O)OCCOCCOCCOC(=O)c3ccc(-c4c5nc(c(-c6c(F)cc(S(=O)(=O)[O-])cc6F)c6ccc([nH]6)c(-c6c(F)cc(S(=O)(=O)[O-])cc6F)c6nc(c(-c7c(F)cc(S(=O)(=O)[O-])cc7F)c7ccc4[nH]7)C=C6)C=C5)cc3)[C@H](C3CC3)C2)on1
REMARK SMILES IDX 16 1 15 2 14 3 13 4 12 5 11 6 9 7 10 8 8 9 6 10 7 11 93 12
REMARK SMILES IDX 89 14 5 15 4 16 1 17 2 18 3 19 95 20 94 21 90 22 91 23 92 24
REMARK SMILES IDX 17 25 18 26 19 27 20 28 21 29 22 30 23 31 24 32 88 33 25 34
REMARK SMILES IDX 87 35 26 36 27 37 28 38 81 39 29 40 86 41 80 42 82 43 30 44
REMARK SMILES IDX 85 45 79 46 78 47 31 49 65 50 44 51 64 52 45 53 48 54 63 55
REMARK SMILES IDX 83 56 46 57 47 58 62 60 84 61 49 62 32 63 33 64 42 65 34 66
REMARK SMILES IDX 35 67 41 68 43 69 36 70 37 71 38 72 39 73 40 74 66 75 67 76
REMARK SMILES IDX 76 77 68 78 69 79 75 80 77 81 70 82 71 83 72 84 73 85 74 86
REMARK SMILES IDX 50 87 51 88 60 89 52 90 53 91 59 92 61 93 54 94 55 95 56 96
REMARK SMILES IDX 57 97 58 98
REMARK H PARENT 6 13 82 48 48 59
REMARK Flexibility Score: inf
ROOT
ATOM      1  C   UNL A   1      33.716  34.424  29.255  1.00  0.00     0.188 C 
ENDROOT
BRANCH   1   2
ATOM      2  C   UNL A   1      33.509  33.498  28.037  1.00  0.00     0.188 C 
BRANCH   2   3
ATOM      3  O   UNL A   1      34.304  32.339  27.871  1.00  0.00    -0.376 OA
BRANCH   3   4
ATOM      4  C   UNL A   1      33.670  31.075  27.807  1.00  0.00     0.202 C 
BRANCH   4   5
ATOM      5  C   UNL A   1      34.394  29.916  27.121  1.00  0.00     0.261 C 
BRANCH   5   6
ATOM      6  O   UNL A   1      33.901  28.617  27.499  1.00  0.00    -0.463 OA
BRANCH   6   7
ATOM      7  C   UNL A   1      32.671  28.292  27.018  1.00  0.00     0.315 C 
ATOM      8  O   UNL A   1      31.626  28.746  27.468  1.00  0.00    -0.252 OA
BRANCH   7   9
ATOM      9  C   UNL A   1      32.700  27.334  25.843  1.00  0.00     0.163 C 
ATOM     10  N   UNL A   1      33.965  26.038  24.289  1.00  0.00    -0.328 N 
ATOM     11  C   UNL A   1      34.014  26.585  25.653  1.00  0.00     0.278 C 
ATOM     12  C   UNL A   1      33.200  27.006  23.490  1.00  0.00     0.267 C 
ATOM     13  H   UNL A   1      34.910  25.930  23.918  1.00  0.00     0.348 HD
ATOM     14  C   UNL A   1      32.453  27.950  24.463  1.00  0.00     0.067 C 
BRANCH  10  15
ATOM     15  C   UNL A   1      33.449  24.655  24.205  1.00  0.00     0.341 C 
BRANCH  15  16
ATOM     16  C   UNL A   1      34.469  23.578  24.116  1.00  0.00     0.191 A 
ATOM     17  C   UNL A   1      36.753  20.810  24.793  1.00  0.00     0.070 C 
ATOM     18  C   UNL A   1      35.949  21.959  24.316  1.00  0.00     0.081 A 
ATOM     19  C   UNL A   1      34.689  22.397  24.784  1.00  0.00     0.078 A 
ATOM     20  N   UNL A   1      36.419  22.769  23.359  1.00  0.00    -0.085 NA
ATOM     21  O   UNL A   1      35.482  23.778  23.228  1.00  0.00    -0.355 OA
ENDBRANCH  15  16
ENDBRANCH  10  15
BRANCH  14  22
ATOM     22  C   UNL A   1      31.019  28.162  24.037  1.00  0.00    -0.001 C 
ATOM     23  C   UNL A   1      30.327  29.501  23.939  1.00  0.00     0.004 C 
ATOM     24  C   UNL A   1      30.745  28.787  22.692  1.00  0.00     0.004 C 
ENDBRANCH  14  22
ENDBRANCH   7   9
ENDBRANCH   6   7
ENDBRANCH   5   6
ENDBRANCH   4   5
ENDBRANCH   3   4
ENDBRANCH   2   3
ENDBRANCH   1   2
BRANCH   1  25
ATOM     25  O   UNL A   1      34.841  34.305  30.101  1.00  0.00    -0.376 OA
BRANCH  25  26
ATOM     26  C   UNL A   1      34.717  33.706  31.377  1.00  0.00     0.202 C 
BRANCH  26  27
ATOM     27  C   UNL A   1      35.227  32.283  31.629  1.00  0.00     0.261 C 
BRANCH  27  28
ATOM     28  O   UNL A   1      36.028  31.715  30.583  1.00  0.00    -0.460 OA
BRANCH  28  29
ATOM     29  C   UNL A   1      36.550  30.498  30.847  1.00  0.00     0.338 C 
ATOM     30  O   UNL A   1      35.946  29.522  31.310  1.00  0.00    -0.246 OA
BRANCH  29  31
ATOM     31  C   UNL A   1      37.938  30.401  30.371  1.00  0.00     0.060 A 
ATOM     32  C   UNL A   1      38.166  30.266  28.994  1.00  0.00     0.016 A 
ATOM     33  C   UNL A   1      39.006  30.345  31.270  1.00  0.00     0.016 A 
ATOM     34  C   UNL A   1      39.457  30.029  28.519  1.00  0.00     0.010 A 
ATOM     35  C   UNL A   1      40.299  30.093  30.791  1.00  0.00     0.010 A 
ATOM     36  C   UNL A   1      40.527  29.899  29.416  1.00  0.00    -0.014 A 
BRANCH  36  37
ATOM     37  C   UNL A   1      41.848  29.425  28.923  1.00  0.00     0.031 A 
ATOM     38  C   UNL A   1      43.010  30.382  28.893  1.00  0.00     0.074 A 
ATOM     39  C   UNL A   1      42.028  28.148  28.543  1.00  0.00     0.049 A 
ATOM     40  N   UNL A   1      44.243  30.175  28.508  1.00  0.00    -0.248 NA
ATOM     41  C   UNL A   1      42.743  31.755  29.349  1.00  0.00     0.031 C 
ATOM     42  C   UNL A   1      40.986  27.126  28.522  1.00  0.00     0.029 A 
ATOM     43  N   UNL A   1      43.152  27.490  28.106  1.00  0.00    -0.354 N 
ATOM     44  C   UNL A   1      44.897  31.392  28.660  1.00  0.00     0.074 A 
ATOM     45  C   UNL A   1      43.918  32.337  29.156  1.00  0.00     0.031 C 
ATOM     46  C   UNL A   1      41.525  25.958  28.131  1.00  0.00     0.029 A 
ATOM     47  C   UNL A   1      42.938  26.164  27.816  1.00  0.00     0.049 A 
ATOM     48  H   UNL A   1      44.028  27.928  28.010  1.00  0.00     0.167 HD
ATOM     49  C   UNL A   1      46.195  31.695  28.412  1.00  0.00     0.037 A 
ATOM     50  C   UNL A   1      43.779  25.227  27.332  1.00  0.00     0.037 A 
ATOM     51  C   UNL A   1      47.168  30.758  27.912  1.00  0.00     0.049 A 
ATOM     52  C   UNL A   1      45.208  25.598  27.031  1.00  0.00     0.074 A 
ATOM     53  C   UNL A   1      48.508  30.974  27.638  1.00  0.00     0.029 A 
ATOM     54  N   UNL A   1      46.911  29.431  27.603  1.00  0.00    -0.354 N 
ATOM     55  N   UNL A   1      45.816  26.750  27.196  1.00  0.00    -0.248 NA
ATOM     56  C   UNL A   1      46.065  24.543  26.471  1.00  0.00     0.031 C 
ATOM     57  C   UNL A   1      49.049  29.791  27.120  1.00  0.00     0.029 A 
ATOM     58  C   UNL A   1      48.059  28.821  27.121  1.00  0.00     0.049 A 
ATOM     59  H   UNL A   1      46.038  28.987  27.709  1.00  0.00     0.167 HD
ATOM     60  C   UNL A   1      47.128  26.552  26.773  1.00  0.00     0.074 A 
ATOM     61  C   UNL A   1      47.231  25.165  26.373  1.00  0.00     0.031 C 
ATOM     62  C   UNL A   1      48.153  27.441  26.718  1.00  0.00     0.037 A 
BRANCH  49  63
ATOM     63  C   UNL A   1      46.630  33.116  28.649  1.00  0.00     0.058 A 
ATOM     64  C   UNL A   1      47.170  33.529  29.877  1.00  0.00     0.135 A 
ATOM     65  C   UNL A   1      46.531  34.069  27.623  1.00  0.00     0.135 A 
ATOM     66  F   UNL A   1      47.269  32.664  30.898  1.00  0.00    -0.206 F 
ATOM     67  C   UNL A   1      47.570  34.844  30.089  1.00  0.00     0.059 A 
ATOM     68  C   UNL A   1      46.950  35.384  27.803  1.00  0.00     0.059 A 
ATOM     69  F   UNL A   1      46.020  33.728  26.429  1.00  0.00    -0.206 F 
ATOM     70  C   UNL A   1      47.455  35.766  29.046  1.00  0.00     0.060 A 
BRANCH  70  71
ATOM     71  S   UNL A   1      47.980  37.468  29.336  1.00  0.00     0.124 S 
ATOM     72  O   UNL A   1      46.699  38.168  29.353  1.00  0.00    -0.237 OA
ATOM     73  O   UNL A   1      48.665  37.370  30.620  1.00  0.00    -0.237 OA
ATOM     74  O   UNL A   1      48.839  37.760  28.191  1.00  0.00    -0.744 OA
ENDBRANCH  70  71
ENDBRANCH  49  63
BRANCH  50  75
ATOM     75  C   UNL A   1      43.291  23.842  27.077  1.00  0.00     0.058 A 
ATOM     76  C   UNL A   1      42.928  23.427  25.787  1.00  0.00     0.135 A 
ATOM     77  C   UNL A   1      43.162  22.914  28.122  1.00  0.00     0.135 A 
ATOM     78  F   UNL A   1      43.018  24.283  24.757  1.00  0.00    -0.206 F 
ATOM     79  C   UNL A   1      42.438  22.148  25.544  1.00  0.00     0.059 A 
ATOM     80  C   UNL A   1      42.704  21.619  27.899  1.00  0.00     0.059 A 
ATOM     81  F   UNL A   1      43.501  23.258  29.375  1.00  0.00    -0.206 F 
ATOM     82  C   UNL A   1      42.332  21.250  26.607  1.00  0.00     0.060 A 
BRANCH  82  83
ATOM     83  S   UNL A   1      41.743  19.576  26.273  1.00  0.00     0.124 S 
ATOM     84  O   UNL A   1      42.461  19.252  25.046  1.00  0.00    -0.237 OA
ATOM     85  O   UNL A   1      42.170  18.857  27.470  1.00  0.00    -0.237 OA
ATOM     86  O   UNL A   1      40.301  19.750  26.135  1.00  0.00    -0.744 OA
ENDBRANCH  82  83
ENDBRANCH  50  75
BRANCH  62  87
ATOM     87  C   UNL A   1      49.483  26.929  26.230  1.00  0.00     0.058 A 
ATOM     88  C   UNL A   1      50.396  26.298  27.091  1.00  0.00     0.135 A 
ATOM     89  C   UNL A   1      49.847  27.064  24.880  1.00  0.00     0.135 A 
ATOM     90  F   UNL A   1      50.101  26.143  28.392  1.00  0.00    -0.206 F 
ATOM     91  C   UNL A   1      51.640  25.863  26.642  1.00  0.00     0.059 A 
ATOM     92  C   UNL A   1      51.072  26.610  24.402  1.00  0.00     0.059 A 
ATOM     93  F   UNL A   1      49.008  27.645  24.007  1.00  0.00    -0.206 F 
ATOM     94  C   UNL A   1      51.972  26.031  25.297  1.00  0.00     0.060 A 
BRANCH  94  95
ATOM     95  S   UNL A   1      53.593  25.475  24.727  1.00  0.00     0.124 S 
ATOM     96  O   UNL A   1      53.621  24.102  25.218  1.00  0.00    -0.237 OA
ATOM     97  O   UNL A   1      53.488  25.629  23.279  1.00  0.00    -0.237 OA
ATOM     98  O   UNL A   1      54.516  26.396  25.383  1.00  0.00    -0.744 OA
ENDBRANCH  94  95
ENDBRANCH  62  87
ENDBRANCH  36  37
ENDBRANCH  29  31
ENDBRANCH  28  29
ENDBRANCH  27  28
ENDBRANCH  26  27
ENDBRANCH  25  26
ENDBRANCH   1  25
TORSDOF 23
ENDMDL
