MODEL 1
REMARK VINA RESULT:     -10.6      0.000      0.000
REMARK SMILES O=C(OCCOCCOCCOC(=O)[C@@]1([C@@H]2CCO[C@@]3(CCOC3)C2)CCOC1)c1ccc(-c2c3nc(c(-c4c(F)cc(S(=O)(=O)[O-])cc4F)c4ccc([nH]4)c(-c4c(F)cc(S(=O)(=O)[O-])cc4F)c4nc(c(-c5c(F)cc(S(=O)(=O)[O-])cc5F)c5ccc2[nH]5)C=C4)C=C3)cc1
REMARK SMILES IDX 7 1 6 2 5 3 4 4 3 5 2 6 1 7 30 8 31 9 95 10 32 11 94 12
REMARK SMILES IDX 33 13 34 14 35 15 88 16 36 17 93 18 87 19 89 20 37 21 92 22
REMARK SMILES IDX 86 23 85 24 38 26 72 27 51 28 71 29 52 30 55 31 70 32 90 33
REMARK SMILES IDX 53 34 54 35 69 37 91 38 56 39 39 40 40 41 49 42 41 43 42 44
REMARK SMILES IDX 48 45 50 46 43 47 44 48 45 49 46 50 47 51 73 52 74 53 83 54
REMARK SMILES IDX 75 55 76 56 82 57 84 58 77 59 78 60 79 61 80 62 81 63 57 64
REMARK SMILES IDX 58 65 67 66 59 67 60 68 66 69 68 70 61 71 62 72 63 73 64 74
REMARK SMILES IDX 65 75 8 76 9 77 10 78 11 79 12 80 13 81 14 82 15 83 26 84
REMARK SMILES IDX 29 85 27 86 28 87 16 88 17 89 25 90 18 91 20 92 19 93 21 94
REMARK SMILES IDX 24 95 22 96 23 97
REMARK H PARENT 89 25 55 36
REMARK Flexibility Score: inf
ROOT
ATOM      1  C   UNL A   1      41.195  21.224  26.376  1.00  0.00     0.188 C 
ENDROOT
BRANCH   1   2
ATOM      2  O   UNL A   1      42.120  21.649  25.369  1.00  0.00    -0.376 OA
BRANCH   2   3
ATOM      3  C   UNL A   1      43.112  22.568  25.843  1.00  0.00     0.202 C 
BRANCH   3   4
ATOM      4  C   UNL A   1      43.038  23.994  25.268  1.00  0.00     0.261 C 
BRANCH   4   5
ATOM      5  O   UNL A   1      41.905  24.748  25.727  1.00  0.00    -0.460 OA
BRANCH   5   6
ATOM      6  C   UNL A   1      41.801  26.086  25.929  1.00  0.00     0.338 C 
ATOM      7  O   UNL A   1      41.867  26.825  24.946  1.00  0.00    -0.246 OA
BRANCH   6   8
ATOM      8  C   UNL A   1      41.646  26.727  27.275  1.00  0.00     0.060 A 
ATOM      9  C   UNL A   1      40.686  26.387  28.228  1.00  0.00     0.016 A 
ATOM     10  C   UNL A   1      42.583  27.716  27.623  1.00  0.00     0.016 A 
ATOM     11  C   UNL A   1      40.583  27.052  29.442  1.00  0.00     0.010 A 
ATOM     12  C   UNL A   1      42.516  28.364  28.862  1.00  0.00     0.010 A 
ATOM     13  C   UNL A   1      41.486  28.054  29.762  1.00  0.00    -0.014 A 
BRANCH  13  14
ATOM     14  C   UNL A   1      41.233  28.886  30.954  1.00  0.00     0.031 A 
ATOM     15  C   UNL A   1      40.138  29.885  30.870  1.00  0.00     0.074 A 
ATOM     16  C   UNL A   1      41.886  28.687  32.110  1.00  0.00     0.049 A 
ATOM     17  N   UNL A   1      39.804  30.801  31.730  1.00  0.00    -0.248 NA
ATOM     18  C   UNL A   1      39.275  29.811  29.681  1.00  0.00     0.031 C 
ATOM     19  C   UNL A   1      42.785  27.576  32.345  1.00  0.00     0.029 A 
ATOM     20  N   UNL A   1      41.940  29.393  33.281  1.00  0.00    -0.354 N 
ATOM     21  C   UNL A   1      38.690  31.415  31.190  1.00  0.00     0.074 A 
ATOM     22  C   UNL A   1      38.426  30.798  29.910  1.00  0.00     0.031 C 
ATOM     23  C   UNL A   1      43.419  27.733  33.513  1.00  0.00     0.029 A 
ATOM     24  C   UNL A   1      42.960  28.969  34.109  1.00  0.00     0.049 A 
ATOM     25  H   UNL A   1      41.319  30.123  33.508  1.00  0.00     0.167 HD
ATOM     26  C   UNL A   1      37.956  32.404  31.742  1.00  0.00     0.037 A 
ATOM     27  C   UNL A   1      43.501  29.550  35.195  1.00  0.00     0.037 A 
ATOM     28  C   UNL A   1      38.290  32.997  33.007  1.00  0.00     0.049 A 
ATOM     29  C   UNL A   1      42.813  30.777  35.700  1.00  0.00     0.074 A 
ATOM     30  C   UNL A   1      37.669  34.039  33.661  1.00  0.00     0.029 A 
ATOM     31  N   UNL A   1      39.366  32.602  33.801  1.00  0.00    -0.354 N 
ATOM     32  N   UNL A   1      41.780  31.393  35.172  1.00  0.00    -0.248 NA
ATOM     33  C   UNL A   1      43.302  31.364  36.947  1.00  0.00     0.031 C 
ATOM     34  C   UNL A   1      38.410  34.322  34.815  1.00  0.00     0.029 A 
ATOM     35  C   UNL A   1      39.451  33.409  34.920  1.00  0.00     0.049 A 
ATOM     36  H   UNL A   1      39.976  31.859  33.593  1.00  0.00     0.167 HD
ATOM     37  C   UNL A   1      41.455  32.411  36.049  1.00  0.00     0.074 A 
ATOM     38  C   UNL A   1      42.423  32.342  37.132  1.00  0.00     0.031 C 
ATOM     39  C   UNL A   1      40.435  33.300  35.975  1.00  0.00     0.037 A 
BRANCH  26  40
ATOM     40  C   UNL A   1      36.823  32.930  30.914  1.00  0.00     0.058 A 
ATOM     41  C   UNL A   1      37.027  33.802  29.831  1.00  0.00     0.135 A 
ATOM     42  C   UNL A   1      35.500  32.646  31.287  1.00  0.00     0.135 A 
ATOM     43  F   UNL A   1      38.272  34.143  29.460  1.00  0.00    -0.206 F 
ATOM     44  C   UNL A   1      35.960  34.417  29.184  1.00  0.00     0.059 A 
ATOM     45  C   UNL A   1      34.418  33.224  30.634  1.00  0.00     0.059 A 
ATOM     46  F   UNL A   1      35.252  31.836  32.328  1.00  0.00    -0.206 F 
ATOM     47  C   UNL A   1      34.659  34.129  29.602  1.00  0.00     0.060 A 
BRANCH  47  48
ATOM     48  S   UNL A   1      33.285  34.980  28.800  1.00  0.00     0.124 S 
ATOM     49  O   UNL A   1      32.787  33.943  27.900  1.00  0.00    -0.237 OA
ATOM     50  O   UNL A   1      32.418  35.302  29.932  1.00  0.00    -0.237 OA
ATOM     51  O   UNL A   1      33.920  36.121  28.155  1.00  0.00    -0.744 OA
ENDBRANCH  47  48
ENDBRANCH  26  40
BRANCH  27  52
ATOM     52  C   UNL A   1      44.732  28.986  35.813  1.00  0.00     0.058 A 
ATOM     53  C   UNL A   1      44.683  27.962  36.765  1.00  0.00     0.135 A 
ATOM     54  C   UNL A   1      46.005  29.425  35.399  1.00  0.00     0.135 A 
ATOM     55  F   UNL A   1      43.499  27.500  37.193  1.00  0.00    -0.206 F 
ATOM     56  C   UNL A   1      45.845  27.395  37.293  1.00  0.00     0.059 A 
ATOM     57  C   UNL A   1      47.178  28.862  35.895  1.00  0.00     0.059 A 
ATOM     58  F   UNL A   1      46.114  30.397  34.479  1.00  0.00    -0.206 F 
ATOM     59  C   UNL A   1      47.088  27.850  36.847  1.00  0.00     0.060 A 
BRANCH  59  60
ATOM     60  S   UNL A   1      48.583  27.076  37.507  1.00  0.00     0.124 S 
ATOM     61  O   UNL A   1      48.665  27.676  38.835  1.00  0.00    -0.237 OA
ATOM     62  O   UNL A   1      48.232  25.659  37.470  1.00  0.00    -0.237 OA
ATOM     63  O   UNL A   1      49.620  27.487  36.567  1.00  0.00    -0.744 OA
ENDBRANCH  59  60
ENDBRANCH  27  52
BRANCH  39  64
ATOM     64  C   UNL A   1      40.284  34.245  37.125  1.00  0.00     0.058 A 
ATOM     65  C   UNL A   1      40.915  35.495  37.137  1.00  0.00     0.135 A 
ATOM     66  C   UNL A   1      39.400  33.930  38.169  1.00  0.00     0.135 A 
ATOM     67  F   UNL A   1      41.781  35.826  36.167  1.00  0.00    -0.206 F 
ATOM     68  C   UNL A   1      40.663  36.414  38.145  1.00  0.00     0.059 A 
ATOM     69  C   UNL A   1      39.109  34.845  39.169  1.00  0.00     0.059 A 
ATOM     70  F   UNL A   1      38.775  32.741  38.193  1.00  0.00    -0.206 F 
ATOM     71  C   UNL A   1      39.744  36.086  39.145  1.00  0.00     0.060 A 
BRANCH  71  72
ATOM     72  S   UNL A   1      39.344  37.333  40.384  1.00  0.00     0.124 S 
ATOM     73  O   UNL A   1      38.483  38.233  39.626  1.00  0.00    -0.237 OA
ATOM     74  O   UNL A   1      38.684  36.541  41.417  1.00  0.00    -0.237 OA
ATOM     75  O   UNL A   1      40.648  37.874  40.755  1.00  0.00    -0.744 OA
ENDBRANCH  71  72
ENDBRANCH  39  64
ENDBRANCH  13  14
ENDBRANCH   6   8
ENDBRANCH   5   6
ENDBRANCH   4   5
ENDBRANCH   3   4
ENDBRANCH   2   3
ENDBRANCH   1   2
BRANCH   1  76
ATOM     76  C   UNL A   1      39.848  21.948  26.324  1.00  0.00     0.188 C 
BRANCH  76  77
ATOM     77  O   UNL A   1      38.760  21.265  25.712  1.00  0.00    -0.376 OA
BRANCH  77  78
ATOM     78  C   UNL A   1      37.776  22.062  25.066  1.00  0.00     0.202 C 
BRANCH  78  79
ATOM     79  C   UNL A   1      36.897  23.004  25.908  1.00  0.00     0.261 C 
BRANCH  79  80
ATOM     80  O   UNL A   1      35.575  23.278  25.412  1.00  0.00    -0.463 OA
BRANCH  80  81
ATOM     81  C   UNL A   1      34.721  22.216  25.463  1.00  0.00     0.314 C 
ATOM     82  O   UNL A   1      34.956  21.212  26.131  1.00  0.00    -0.252 OA
BRANCH  81  83
ATOM     83  C   UNL A   1      33.478  22.369  24.567  1.00  0.00     0.096 C 
ATOM     84  C   UNL A   1      33.740  22.869  23.149  1.00  0.00     0.050 C 
ATOM     85  C   UNL A   1      32.975  20.966  24.268  1.00  0.00     0.179 C 
ATOM     86  C   UNL A   1      32.689  22.180  22.301  1.00  0.00     0.161 C 
ATOM     87  O   UNL A   1      32.193  21.091  23.077  1.00  0.00    -0.380 OA
BRANCH  83  88
ATOM     88  C   UNL A   1      32.346  23.091  25.355  1.00  0.00     0.014 C 
ATOM     89  C   UNL A   1      31.108  22.296  25.803  1.00  0.00     0.033 C 
ATOM     90  C   UNL A   1      31.739  24.346  24.716  1.00  0.00     0.043 C 
ATOM     91  C   UNL A   1      30.350  23.086  26.868  1.00  0.00     0.161 C 
ATOM     92  C   UNL A   1      31.142  25.188  25.870  1.00  0.00     0.094 C 
ATOM     93  O   UNL A   1      30.803  24.425  27.031  1.00  0.00    -0.372 OA
ATOM     94  C   UNL A   1      32.156  26.229  26.331  1.00  0.00     0.066 C 
ATOM     95  C   UNL A   1      29.984  26.078  25.433  1.00  0.00     0.195 C 
ATOM     96  C   UNL A   1      31.911  27.385  25.398  1.00  0.00     0.163 C 
ATOM     97  O   UNL A   1      30.518  27.361  25.056  1.00  0.00    -0.378 OA
ENDBRANCH  83  88
ENDBRANCH  81  83
ENDBRANCH  80  81
ENDBRANCH  79  80
ENDBRANCH  78  79
ENDBRANCH  77  78
ENDBRANCH  76  77
ENDBRANCH   1  76
TORSDOF 21
ENDMDL
MODEL 2
REMARK VINA RESULT:     -10.6      1.077      2.284
REMARK SMILES O=C(OCCOCCOCCOC(=O)[C@@]1([C@@H]2CCO[C@@]3(CCOC3)C2)CCOC1)c1ccc(-c2c3nc(c(-c4c(F)cc(S(=O)(=O)[O-])cc4F)c4ccc([nH]4)c(-c4c(F)cc(S(=O)(=O)[O-])cc4F)c4nc(c(-c5c(F)cc(S(=O)(=O)[O-])cc5F)c5ccc2[nH]5)C=C4)C=C3)cc1
REMARK SMILES IDX 7 1 6 2 5 3 4 4 3 5 2 6 1 7 30 8 31 9 95 10 32 11 94 12
REMARK SMILES IDX 33 13 34 14 35 15 88 16 36 17 93 18 87 19 89 20 37 21 92 22
REMARK SMILES IDX 86 23 85 24 38 26 72 27 51 28 71 29 52 30 55 31 70 32 90 33
REMARK SMILES IDX 53 34 54 35 69 37 91 38 56 39 39 40 40 41 49 42 41 43 42 44
REMARK SMILES IDX 48 45 50 46 43 47 44 48 45 49 46 50 47 51 73 52 74 53 83 54
REMARK SMILES IDX 75 55 76 56 82 57 84 58 77 59 78 60 79 61 80 62 81 63 57 64
REMARK SMILES IDX 58 65 67 66 59 67 60 68 66 69 68 70 61 71 62 72 63 73 64 74
REMARK SMILES IDX 65 75 8 76 9 77 10 78 11 79 12 80 13 81 14 82 15 83 26 84
REMARK SMILES IDX 29 85 27 86 28 87 16 88 17 89 25 90 18 91 20 92 19 93 21 94
REMARK SMILES IDX 24 95 22 96 23 97
REMARK H PARENT 89 25 55 36
REMARK Flexibility Score: inf
ROOT
ATOM      1  C   UNL A   1      39.144  22.404  26.377  1.00  0.00     0.188 C 
ENDROOT
BRANCH   1   2
ATOM      2  O   UNL A   1      40.307  21.602  26.148  1.00  0.00    -0.376 OA
BRANCH   2   3
ATOM      3  C   UNL A   1      41.486  22.092  26.801  1.00  0.00     0.202 C 
BRANCH   3   4
ATOM      4  C   UNL A   1      42.410  22.977  25.944  1.00  0.00     0.261 C 
BRANCH   4   5
ATOM      5  O   UNL A   1      42.712  24.249  26.539  1.00  0.00    -0.460 OA
BRANCH   5   6
ATOM      6  C   UNL A   1      42.107  25.447  26.333  1.00  0.00     0.338 C 
ATOM      7  O   UNL A   1      41.852  25.772  25.173  1.00  0.00    -0.246 OA
BRANCH   6   8
ATOM      8  C   UNL A   1      41.761  26.416  27.421  1.00  0.00     0.060 A 
ATOM      9  C   UNL A   1      42.404  27.632  27.659  1.00  0.00     0.016 A 
ATOM     10  C   UNL A   1      40.661  26.096  28.236  1.00  0.00     0.016 A 
ATOM     11  C   UNL A   1      42.049  28.462  28.712  1.00  0.00     0.010 A 
ATOM     12  C   UNL A   1      40.265  26.946  29.276  1.00  0.00     0.010 A 
ATOM     13  C   UNL A   1      40.987  28.119  29.536  1.00  0.00    -0.014 A 
BRANCH  13  14
ATOM     14  C   UNL A   1      40.762  28.901  30.768  1.00  0.00     0.031 A 
ATOM     15  C   UNL A   1      39.716  29.953  30.728  1.00  0.00     0.074 A 
ATOM     16  C   UNL A   1      41.394  28.613  31.917  1.00  0.00     0.049 A 
ATOM     17  N   UNL A   1      39.417  30.839  31.632  1.00  0.00    -0.248 NA
ATOM     18  C   UNL A   1      38.861  29.981  29.530  1.00  0.00     0.031 C 
ATOM     19  C   UNL A   1      42.238  27.450  32.101  1.00  0.00     0.029 A 
ATOM     20  N   UNL A   1      41.470  29.255  33.123  1.00  0.00    -0.354 N 
ATOM     21  C   UNL A   1      38.337  31.531  31.116  1.00  0.00     0.074 A 
ATOM     22  C   UNL A   1      38.057  30.994  29.804  1.00  0.00     0.031 C 
ATOM     23  C   UNL A   1      42.868  27.517  33.279  1.00  0.00     0.029 A 
ATOM     24  C   UNL A   1      42.461  28.741  33.935  1.00  0.00     0.049 A 
ATOM     25  H   UNL A   1      40.882  30.000  33.383  1.00  0.00     0.167 HD
ATOM     26  C   UNL A   1      37.646  32.524  31.713  1.00  0.00     0.037 A 
ATOM     27  C   UNL A   1      43.019  29.240  35.054  1.00  0.00     0.037 A 
ATOM     28  C   UNL A   1      37.995  33.035  33.010  1.00  0.00     0.049 A 
ATOM     29  C   UNL A   1      42.384  30.470  35.616  1.00  0.00     0.074 A 
ATOM     30  C   UNL A   1      37.417  34.071  33.712  1.00  0.00     0.029 A 
ATOM     31  N   UNL A   1      39.044  32.551  33.789  1.00  0.00    -0.354 N 
ATOM     32  N   UNL A   1      41.386  31.161  35.113  1.00  0.00    -0.248 NA
ATOM     33  C   UNL A   1      42.888  30.969  36.895  1.00  0.00     0.031 C 
ATOM     34  C   UNL A   1      38.160  34.259  34.884  1.00  0.00     0.029 A 
ATOM     35  C   UNL A   1      39.156  33.294  34.949  1.00  0.00     0.049 A 
ATOM     36  H   UNL A   1      39.621  31.791  33.548  1.00  0.00     0.167 HD
ATOM     37  C   UNL A   1      41.101  32.147  36.039  1.00  0.00     0.074 A 
ATOM     38  C   UNL A   1      42.054  31.976  37.124  1.00  0.00     0.031 C 
ATOM     39  C   UNL A   1      40.124  33.085  36.004  1.00  0.00     0.037 A 
BRANCH  26  40
ATOM     40  C   UNL A   1      36.546  33.144  30.906  1.00  0.00     0.058 A 
ATOM     41  C   UNL A   1      36.802  34.029  29.843  1.00  0.00     0.135 A 
ATOM     42  C   UNL A   1      35.209  32.939  31.280  1.00  0.00     0.135 A 
ATOM     43  F   UNL A   1      38.065  34.297  29.474  1.00  0.00    -0.206 F 
ATOM     44  C   UNL A   1      35.775  34.729  29.219  1.00  0.00     0.059 A 
ATOM     45  C   UNL A   1      34.164  33.603  30.647  1.00  0.00     0.059 A 
ATOM     46  F   UNL A   1      34.912  32.121  32.301  1.00  0.00    -0.206 F 
ATOM     47  C   UNL A   1      34.460  34.516  29.637  1.00  0.00     0.060 A 
BRANCH  47  48
ATOM     48  S   UNL A   1      33.141  35.476  28.865  1.00  0.00     0.124 S 
ATOM     49  O   UNL A   1      33.906  36.440  28.080  1.00  0.00    -0.237 OA
ATOM     50  O   UNL A   1      32.428  34.458  28.096  1.00  0.00    -0.237 OA
ATOM     51  O   UNL A   1      32.411  36.026  30.000  1.00  0.00    -0.744 OA
ENDBRANCH  47  48
ENDBRANCH  26  40
BRANCH  27  52
ATOM     52  C   UNL A   1      44.217  28.588  35.649  1.00  0.00     0.058 A 
ATOM     53  C   UNL A   1      45.519  28.985  35.321  1.00  0.00     0.135 A 
ATOM     54  C   UNL A   1      44.073  27.587  36.629  1.00  0.00     0.135 A 
ATOM     55  F   UNL A   1      45.716  29.939  34.398  1.00  0.00    -0.206 F 
ATOM     56  C   UNL A   1      46.635  28.412  35.931  1.00  0.00     0.059 A 
ATOM     57  C   UNL A   1      45.171  27.014  37.267  1.00  0.00     0.059 A 
ATOM     58  F   UNL A   1      42.849  27.174  36.993  1.00  0.00    -0.206 F 
ATOM     59  C   UNL A   1      46.450  27.430  36.907  1.00  0.00     0.060 A 
BRANCH  59  60
ATOM     60  S   UNL A   1      47.905  26.729  37.720  1.00  0.00     0.124 S 
ATOM     61  O   UNL A   1      48.882  26.738  36.636  1.00  0.00    -0.237 OA
ATOM     62  O   UNL A   1      48.141  27.687  38.797  1.00  0.00    -0.237 OA
ATOM     63  O   UNL A   1      47.452  25.410  38.146  1.00  0.00    -0.744 OA
ENDBRANCH  59  60
ENDBRANCH  27  52
BRANCH  39  64
ATOM     64  C   UNL A   1      40.006  33.976  37.200  1.00  0.00     0.058 A 
ATOM     65  C   UNL A   1      40.694  35.193  37.280  1.00  0.00     0.135 A 
ATOM     66  C   UNL A   1      39.099  33.650  38.221  1.00  0.00     0.135 A 
ATOM     67  F   UNL A   1      41.584  35.532  36.334  1.00  0.00    -0.206 F 
ATOM     68  C   UNL A   1      40.476  36.070  38.332  1.00  0.00     0.059 A 
ATOM     69  C   UNL A   1      38.842  34.525  39.264  1.00  0.00     0.059 A 
ATOM     70  F   UNL A   1      38.419  32.492  38.179  1.00  0.00    -0.206 F 
ATOM     71  C   UNL A   1      39.534  35.735  39.309  1.00  0.00     0.060 A 
BRANCH  71  72
ATOM     72  S   UNL A   1      39.180  36.934  40.608  1.00  0.00     0.124 S 
ATOM     73  O   UNL A   1      38.603  36.084  41.642  1.00  0.00    -0.237 OA
ATOM     74  O   UNL A   1      40.504  37.477  40.895  1.00  0.00    -0.237 OA
ATOM     75  O   UNL A   1      38.254  37.864  39.968  1.00  0.00    -0.744 OA
ENDBRANCH  71  72
ENDBRANCH  39  64
ENDBRANCH  13  14
ENDBRANCH   6   8
ENDBRANCH   5   6
ENDBRANCH   4   5
ENDBRANCH   3   4
ENDBRANCH   2   3
ENDBRANCH   1   2
BRANCH   1  76
ATOM     76  C   UNL A   1      38.002  22.131  25.396  1.00  0.00     0.188 C 
BRANCH  76  77
ATOM     77  O   UNL A   1      36.725  21.822  25.945  1.00  0.00    -0.376 OA
BRANCH  77  78
ATOM     78  C   UNL A   1      35.804  21.145  25.101  1.00  0.00     0.202 C 
BRANCH  78  79
ATOM     79  C   UNL A   1      34.789  21.963  24.283  1.00  0.00     0.261 C 
BRANCH  79  80
ATOM     80  O   UNL A   1      34.620  23.343  24.649  1.00  0.00    -0.463 OA
BRANCH  80  81
ATOM     81  C   UNL A   1      33.582  23.972  24.026  1.00  0.00     0.314 C 
ATOM     82  O   UNL A   1      33.505  24.061  22.803  1.00  0.00    -0.252 OA
BRANCH  81  83
ATOM     83  C   UNL A   1      32.563  24.604  24.990  1.00  0.00     0.096 C 
ATOM     84  C   UNL A   1      31.132  24.086  24.877  1.00  0.00     0.050 C 
ATOM     85  C   UNL A   1      32.916  24.117  26.386  1.00  0.00     0.179 C 
ATOM     86  C   UNL A   1      30.589  24.153  26.292  1.00  0.00     0.161 C 
ATOM     87  O   UNL A   1      31.719  24.271  27.154  1.00  0.00    -0.380 OA
BRANCH  83  88
ATOM     88  C   UNL A   1      32.736  26.152  25.001  1.00  0.00     0.014 C 
ATOM     89  C   UNL A   1      33.445  26.828  26.186  1.00  0.00     0.033 C 
ATOM     90  C   UNL A   1      31.471  26.999  24.824  1.00  0.00     0.043 C 
ATOM     91  C   UNL A   1      33.843  28.252  25.802  1.00  0.00     0.161 C 
ATOM     92  C   UNL A   1      31.928  28.370  24.266  1.00  0.00     0.094 C 
ATOM     93  O   UNL A   1      33.286  28.698  24.571  1.00  0.00    -0.372 OA
ATOM     94  C   UNL A   1      31.827  28.369  22.744  1.00  0.00     0.066 C 
ATOM     95  C   UNL A   1      30.986  29.514  24.623  1.00  0.00     0.195 C 
ATOM     96  C   UNL A   1      30.398  28.775  22.494  1.00  0.00     0.163 C 
ATOM     97  O   UNL A   1      30.015  29.645  23.568  1.00  0.00    -0.378 OA
ENDBRANCH  83  88
ENDBRANCH  81  83
ENDBRANCH  80  81
ENDBRANCH  79  80
ENDBRANCH  78  79
ENDBRANCH  77  78
ENDBRANCH  76  77
ENDBRANCH   1  76
TORSDOF 21
ENDMDL
MODEL 3
REMARK VINA RESULT:     -10.4      6.085     11.884
REMARK SMILES O=C(OCCOCCOCCOC(=O)[C@@]1([C@@H]2CCO[C@@]3(CCOC3)C2)CCOC1)c1ccc(-c2c3nc(c(-c4c(F)cc(S(=O)(=O)[O-])cc4F)c4ccc([nH]4)c(-c4c(F)cc(S(=O)(=O)[O-])cc4F)c4nc(c(-c5c(F)cc(S(=O)(=O)[O-])cc5F)c5ccc2[nH]5)C=C4)C=C3)cc1
REMARK SMILES IDX 7 1 6 2 5 3 4 4 3 5 2 6 1 7 30 8 31 9 95 10 32 11 94 12
REMARK SMILES IDX 33 13 34 14 35 15 88 16 36 17 93 18 87 19 89 20 37 21 92 22
REMARK SMILES IDX 86 23 85 24 38 26 72 27 51 28 71 29 52 30 55 31 70 32 90 33
REMARK SMILES IDX 53 34 54 35 69 37 91 38 56 39 39 40 40 41 49 42 41 43 42 44
REMARK SMILES IDX 48 45 50 46 43 47 44 48 45 49 46 50 47 51 73 52 74 53 83 54
REMARK SMILES IDX 75 55 76 56 82 57 84 58 77 59 78 60 79 61 80 62 81 63 57 64
REMARK SMILES IDX 58 65 67 66 59 67 60 68 66 69 68 70 61 71 62 72 63 73 64 74
REMARK SMILES IDX 65 75 8 76 9 77 10 78 11 79 12 80 13 81 14 82 15 83 26 84
REMARK SMILES IDX 29 85 27 86 28 87 16 88 17 89 25 90 18 91 20 92 19 93 21 94
REMARK SMILES IDX 24 95 22 96 23 97
REMARK H PARENT 89 25 55 36
REMARK Flexibility Score: inf
ROOT
ATOM      1  C   UNL A   1      35.346  33.837  29.324  1.00  0.00     0.188 C 
ENDROOT
BRANCH   1   2
ATOM      2  O   UNL A   1      35.101  33.814  30.734  1.00  0.00    -0.376 OA
BRANCH   2   3
ATOM      3  C   UNL A   1      34.710  32.528  31.233  1.00  0.00     0.202 C 
BRANCH   3   4
ATOM      4  C   UNL A   1      35.753  31.796  32.098  1.00  0.00     0.261 C 
BRANCH   4   5
ATOM      5  O   UNL A   1      36.052  30.466  31.646  1.00  0.00    -0.460 OA
BRANCH   5   6
ATOM      6  C   UNL A   1      37.096  29.668  31.989  1.00  0.00     0.338 C 
ATOM      7  O   UNL A   1      36.966  28.937  32.970  1.00  0.00    -0.246 OA
BRANCH   6   8
ATOM      8  C   UNL A   1      38.411  29.645  31.270  1.00  0.00     0.060 A 
ATOM      9  C   UNL A   1      38.622  30.056  29.954  1.00  0.00     0.016 A 
ATOM     10  C   UNL A   1      39.533  29.222  32.004  1.00  0.00     0.016 A 
ATOM     11  C   UNL A   1      39.866  29.971  29.344  1.00  0.00     0.010 A 
ATOM     12  C   UNL A   1      40.801  29.172  31.414  1.00  0.00     0.010 A 
ATOM     13  C   UNL A   1      40.960  29.516  30.063  1.00  0.00    -0.014 A 
BRANCH  13  14
ATOM     14  C   UNL A   1      42.217  29.234  29.344  1.00  0.00     0.031 A 
ATOM     15  C   UNL A   1      42.415  27.856  28.827  1.00  0.00     0.074 A 
ATOM     16  C   UNL A   1      43.108  30.199  29.066  1.00  0.00     0.049 A 
ATOM     17  N   UNL A   1      43.471  27.338  28.273  1.00  0.00    -0.248 NA
ATOM     18  C   UNL A   1      41.252  26.956  28.901  1.00  0.00     0.031 C 
ATOM     19  C   UNL A   1      42.872  31.606  29.315  1.00  0.00     0.029 A 
ATOM     20  N   UNL A   1      44.378  30.175  28.557  1.00  0.00    -0.354 N 
ATOM     21  C   UNL A   1      43.103  26.051  27.929  1.00  0.00     0.074 A 
ATOM     22  C   UNL A   1      41.742  25.849  28.371  1.00  0.00     0.031 C 
ATOM     23  C   UNL A   1      43.993  32.308  29.104  1.00  0.00     0.029 A 
ATOM     24  C   UNL A   1      45.030  31.383  28.699  1.00  0.00     0.049 A 
ATOM     25  H   UNL A   1      44.781  29.382  28.135  1.00  0.00     0.167 HD
ATOM     26  C   UNL A   1      43.856  25.133  27.286  1.00  0.00     0.037 A 
ATOM     27  C   UNL A   1      46.333  31.692  28.575  1.00  0.00     0.037 A 
ATOM     28  C   UNL A   1      45.216  25.386  26.899  1.00  0.00     0.049 A 
ATOM     29  C   UNL A   1      47.221  30.608  28.054  1.00  0.00     0.074 A 
ATOM     30  C   UNL A   1      46.112  24.533  26.290  1.00  0.00     0.029 A 
ATOM     31  N   UNL A   1      45.883  26.591  27.113  1.00  0.00    -0.354 N 
ATOM     32  N   UNL A   1      46.893  29.370  27.764  1.00  0.00    -0.248 NA
ATOM     33  C   UNL A   1      48.621  30.946  27.793  1.00  0.00     0.031 C 
ATOM     34  C   UNL A   1      47.340  25.197  26.199  1.00  0.00     0.029 A 
ATOM     35  C   UNL A   1      47.193  26.491  26.684  1.00  0.00     0.049 A 
ATOM     36  H   UNL A   1      45.480  27.395  27.512  1.00  0.00     0.167 HD
ATOM     37  C   UNL A   1      48.029  28.790  27.232  1.00  0.00     0.074 A 
ATOM     38  C   UNL A   1      49.064  29.811  27.266  1.00  0.00     0.031 C 
ATOM     39  C   UNL A   1      48.189  27.538  26.737  1.00  0.00     0.037 A 
BRANCH  26  40
ATOM     40  C   UNL A   1      43.229  23.786  27.084  1.00  0.00     0.058 A 
ATOM     41  C   UNL A   1      43.117  22.847  28.124  1.00  0.00     0.135 A 
ATOM     42  C   UNL A   1      42.841  23.388  25.796  1.00  0.00     0.135 A 
ATOM     43  F   UNL A   1      43.516  23.162  29.367  1.00  0.00    -0.206 F 
ATOM     44  C   UNL A   1      42.695  21.544  27.882  1.00  0.00     0.059 A 
ATOM     45  C   UNL A   1      42.385  22.100  25.537  1.00  0.00     0.059 A 
ATOM     46  F   UNL A   1      42.949  24.239  24.764  1.00  0.00    -0.206 F 
ATOM     47  C   UNL A   1      42.342  21.178  26.582  1.00  0.00     0.060 A 
BRANCH  47  48
ATOM     48  S   UNL A   1      41.857  19.469  26.266  1.00  0.00     0.124 S 
ATOM     49  O   UNL A   1      42.230  18.825  27.522  1.00  0.00    -0.237 OA
ATOM     50  O   UNL A   1      40.422  19.595  26.022  1.00  0.00    -0.237 OA
ATOM     51  O   UNL A   1      42.657  19.097  25.106  1.00  0.00    -0.744 OA
ENDBRANCH  47  48
ENDBRANCH  26  40
BRANCH  27  52
ATOM     52  C   UNL A   1      46.826  33.039  28.972  1.00  0.00     0.058 A 
ATOM     53  C   UNL A   1      46.871  34.108  28.069  1.00  0.00     0.135 A 
ATOM     54  C   UNL A   1      47.202  33.300  30.303  1.00  0.00     0.135 A 
ATOM     55  F   UNL A   1      46.520  33.920  26.788  1.00  0.00    -0.206 F 
ATOM     56  C   UNL A   1      47.275  35.384  28.464  1.00  0.00     0.059 A 
ATOM     57  C   UNL A   1      47.590  34.568  30.727  1.00  0.00     0.059 A 
ATOM     58  F   UNL A   1      47.168  32.316  31.216  1.00  0.00    -0.206 F 
ATOM     59  C   UNL A   1      47.629  35.605  29.798  1.00  0.00     0.060 A 
BRANCH  59  60
ATOM     60  S   UNL A   1      48.107  37.274  30.305  1.00  0.00     0.124 S 
ATOM     61  O   UNL A   1      48.053  37.167  31.759  1.00  0.00    -0.237 OA
ATOM     62  O   UNL A   1      49.442  37.394  29.725  1.00  0.00    -0.237 OA
ATOM     63  O   UNL A   1      47.084  38.117  29.698  1.00  0.00    -0.744 OA
ENDBRANCH  59  60
ENDBRANCH  27  52
BRANCH  39  64
ATOM     64  C   UNL A   1      49.526  27.216  26.148  1.00  0.00     0.058 A 
ATOM     65  C   UNL A   1      49.786  27.382  24.782  1.00  0.00     0.135 A 
ATOM     66  C   UNL A   1      50.585  26.848  26.993  1.00  0.00     0.135 A 
ATOM     67  F   UNL A   1      48.796  27.715  23.939  1.00  0.00    -0.206 F 
ATOM     68  C   UNL A   1      51.063  27.206  24.270  1.00  0.00     0.059 A 
ATOM     69  C   UNL A   1      51.875  26.699  26.508  1.00  0.00     0.059 A 
ATOM     70  F   UNL A   1      50.376  26.680  28.309  1.00  0.00    -0.206 F 
ATOM     71  C   UNL A   1      52.104  26.883  25.145  1.00  0.00     0.060 A 
BRANCH  71  72
ATOM     72  S   UNL A   1      53.777  26.768  24.483  1.00  0.00     0.124 S 
ATOM     73  O   UNL A   1      53.754  27.798  23.450  1.00  0.00    -0.237 OA
ATOM     74  O   UNL A   1      54.594  27.061  25.656  1.00  0.00    -0.237 OA
ATOM     75  O   UNL A   1      53.857  25.393  23.998  1.00  0.00    -0.744 OA
ENDBRANCH  71  72
ENDBRANCH  39  64
ENDBRANCH  13  14
ENDBRANCH   6   8
ENDBRANCH   5   6
ENDBRANCH   4   5
ENDBRANCH   3   4
ENDBRANCH   2   3
ENDBRANCH   1   2
BRANCH   1  76
ATOM     76  C   UNL A   1      34.335  33.030  28.507  1.00  0.00     0.188 C 
BRANCH  76  77
ATOM     77  O   UNL A   1      34.848  32.138  27.523  1.00  0.00    -0.376 OA
BRANCH  77  78
ATOM     78  C   UNL A   1      35.273  30.858  27.968  1.00  0.00     0.202 C 
BRANCH  78  79
ATOM     79  C   UNL A   1      34.479  29.610  27.541  1.00  0.00     0.261 C 
BRANCH  79  80
ATOM     80  O   UNL A   1      33.772  29.685  26.291  1.00  0.00    -0.463 OA
BRANCH  80  81
ATOM     81  C   UNL A   1      32.520  29.145  26.315  1.00  0.00     0.314 C 
ATOM     82  O   UNL A   1      31.817  29.157  27.322  1.00  0.00    -0.252 OA
BRANCH  81  83
ATOM     83  C   UNL A   1      32.102  28.474  24.994  1.00  0.00     0.096 C 
ATOM     84  C   UNL A   1      30.963  29.151  24.237  1.00  0.00     0.050 C 
ATOM     85  C   UNL A   1      33.242  28.688  24.011  1.00  0.00     0.179 C 
ATOM     86  C   UNL A   1      31.281  28.911  22.774  1.00  0.00     0.161 C 
ATOM     87  O   UNL A   1      32.656  28.537  22.715  1.00  0.00    -0.380 OA
BRANCH  83  88
ATOM     88  C   UNL A   1      31.974  26.936  25.201  1.00  0.00     0.014 C 
ATOM     89  C   UNL A   1      30.754  26.370  25.947  1.00  0.00     0.033 C 
ATOM     90  C   UNL A   1      33.152  26.220  25.871  1.00  0.00     0.043 C 
ATOM     91  C   UNL A   1      30.644  24.869  25.685  1.00  0.00     0.161 C 
ATOM     92  C   UNL A   1      33.084  24.738  25.423  1.00  0.00     0.094 C 
ATOM     93  O   UNL A   1      31.778  24.309  25.033  1.00  0.00    -0.372 OA
ATOM     94  C   UNL A   1      33.980  24.522  24.208  1.00  0.00     0.066 C 
ATOM     95  C   UNL A   1      33.709  23.774  26.425  1.00  0.00     0.195 C 
ATOM     96  C   UNL A   1      35.328  24.247  24.819  1.00  0.00     0.163 C 
ATOM     97  O   UNL A   1      35.095  23.596  26.076  1.00  0.00    -0.378 OA
ENDBRANCH  83  88
ENDBRANCH  81  83
ENDBRANCH  80  81
ENDBRANCH  79  80
ENDBRANCH  78  79
ENDBRANCH  77  78
ENDBRANCH  76  77
ENDBRANCH   1  76
TORSDOF 21
ENDMDL
