MODEL 1
REMARK VINA RESULT:     -10.3      0.000      0.000
REMARK SMILES Cc1cc(=O)cc(C)n1C[C@H]1CCCC[C@@H]1C(=O)OCCOCCOCCOC(=O)c1ccc(-c2c3nc(c(-c4c(F)cc(S(=O)(=O)[O-])cc4F)c4ccc([nH]4)c(-c4c(F)cc(S(=O)(=O)[O-])cc4F)c4nc(c(-c5c(F)cc(S(=O)(=O)[O-])cc5F)c5ccc2[nH]5)C=C4)C=C3)cc1
REMARK SMILES IDX 24 1 23 2 22 3 21 4 20 5 19 6 17 7 18 8 16 9 11 10 12 11
REMARK SMILES IDX 13 12 15 13 14 14 10 15 9 16 1 17 2 18 3 19 4 20 7 21 5 22
REMARK SMILES IDX 6 23 8 24 25 25 26 26 27 27 28 28 29 29 30 30 31 31 32 32
REMARK SMILES IDX 96 33 33 34 95 35 34 36 35 37 36 38 89 39 37 40 94 41 88 42
REMARK SMILES IDX 90 43 38 44 93 45 87 46 86 47 39 49 73 50 52 51 72 52 53 53
REMARK SMILES IDX 56 54 71 55 91 56 54 57 55 58 70 60 92 61 57 62 40 63 41 64
REMARK SMILES IDX 50 65 42 66 43 67 49 68 51 69 44 70 45 71 46 72 47 73 48 74
REMARK SMILES IDX 74 75 75 76 84 77 76 78 77 79 83 80 85 81 78 82 79 83 80 84
REMARK SMILES IDX 81 85 82 86 58 87 59 88 68 89 60 90 61 91 67 92 69 93 62 94
REMARK SMILES IDX 63 95 64 96 65 97 66 98
REMARK H PARENT 90 48 56 59
REMARK Flexibility Score: inf
ROOT
ATOM      1  C   UNL A   1      32.957  36.211  30.470  1.00  0.00     0.188 C 
ENDROOT
BRANCH   1   2
ATOM      2  C   UNL A   1      33.265  35.603  29.083  1.00  0.00     0.188 C 
BRANCH   2   3
ATOM      3  O   UNL A   1      33.014  34.211  29.001  1.00  0.00    -0.376 OA
BRANCH   3   4
ATOM      4  C   UNL A   1      33.599  33.521  27.911  1.00  0.00     0.202 C 
BRANCH   4   5
ATOM      5  C   UNL A   1      34.124  32.115  28.223  1.00  0.00     0.261 C 
BRANCH   5   6
ATOM      6  O   UNL A   1      33.511  31.034  27.498  1.00  0.00    -0.463 OA
BRANCH   6   7
ATOM      7  C   UNL A   1      34.205  29.869  27.398  1.00  0.00     0.309 C 
ATOM      8  O   UNL A   1      35.418  29.793  27.518  1.00  0.00    -0.252 OA
BRANCH   7   9
ATOM      9  C   UNL A   1      33.246  28.676  27.219  1.00  0.00     0.104 C 
ATOM     10  C   UNL A   1      33.667  27.773  26.021  1.00  0.00     0.023 C 
ATOM     11  C   UNL A   1      33.585  28.655  24.763  1.00  0.00     0.006 C 
ATOM     12  C   UNL A   1      32.201  29.274  24.544  1.00  0.00     0.000 C 
ATOM     13  C   UNL A   1      31.805  29.186  27.049  1.00  0.00     0.016 C 
ATOM     14  C   UNL A   1      31.663  30.008  25.770  1.00  0.00     0.001 C 
BRANCH  10  15
ATOM     15  C   UNL A   1      32.797  26.470  25.966  1.00  0.00     0.126 C 
BRANCH  15  16
ATOM     16  N   UNL A   1      32.857  25.700  24.682  1.00  0.00    -0.349 N 
ATOM     17  C   UNL A   1      34.877  24.363  25.503  1.00  0.00     0.064 C 
ATOM     18  C   UNL A   1      33.940  24.811  24.406  1.00  0.00     0.018 A 
ATOM     19  C   UNL A   1      34.124  24.246  23.196  1.00  0.00     0.073 A 
ATOM     20  C   UNL A   1      33.168  24.508  22.110  1.00  0.00     0.182 A 
ATOM     21  C   UNL A   1      31.820  25.759  23.710  1.00  0.00     0.018 A 
ATOM     22  O   UNL A   1      33.304  24.021  20.997  1.00  0.00    -0.290 OA
ATOM     23  C   UNL A   1      31.960  25.263  22.467  1.00  0.00     0.073 A 
ATOM     24  C   UNL A   1      30.427  26.224  24.049  1.00  0.00     0.064 C 
ENDBRANCH  15  16
ENDBRANCH  10  15
ENDBRANCH   7   9
ENDBRANCH   6   7
ENDBRANCH   5   6
ENDBRANCH   4   5
ENDBRANCH   3   4
ENDBRANCH   2   3
ENDBRANCH   1   2
BRANCH   1  25
ATOM     25  O   UNL A   1      33.172  35.440  31.645  1.00  0.00    -0.376 OA
BRANCH  25  26
ATOM     26  C   UNL A   1      34.209  35.833  32.530  1.00  0.00     0.202 C 
BRANCH  26  27
ATOM     27  C   UNL A   1      35.385  34.872  32.779  1.00  0.00     0.261 C 
BRANCH  27  28
ATOM     28  O   UNL A   1      35.875  34.158  31.626  1.00  0.00    -0.460 OA
BRANCH  28  29
ATOM     29  C   UNL A   1      35.580  32.833  31.557  1.00  0.00     0.338 C 
ATOM     30  O   UNL A   1      34.480  32.323  31.717  1.00  0.00    -0.246 OA
BRANCH  29  31
ATOM     31  C   UNL A   1      36.747  32.073  31.044  1.00  0.00     0.060 A 
ATOM     32  C   UNL A   1      37.546  31.365  31.958  1.00  0.00     0.016 A 
ATOM     33  C   UNL A   1      37.078  32.073  29.688  1.00  0.00     0.016 A 
ATOM     34  C   UNL A   1      38.672  30.663  31.523  1.00  0.00     0.010 A 
ATOM     35  C   UNL A   1      38.234  31.400  29.258  1.00  0.00     0.010 A 
ATOM     36  C   UNL A   1      39.051  30.711  30.176  1.00  0.00    -0.014 A 
BRANCH  36  37
ATOM     37  C   UNL A   1      40.407  30.238  29.784  1.00  0.00     0.031 A 
ATOM     38  C   UNL A   1      41.554  31.210  29.890  1.00  0.00     0.074 A 
ATOM     39  C   UNL A   1      40.640  28.970  29.393  1.00  0.00     0.049 A 
ATOM     40  N   UNL A   1      42.820  31.037  29.614  1.00  0.00    -0.248 NA
ATOM     41  C   UNL A   1      41.226  32.559  30.382  1.00  0.00     0.031 C 
ATOM     42  C   UNL A   1      39.635  27.915  29.299  1.00  0.00     0.029 A 
ATOM     43  N   UNL A   1      41.807  28.357  29.002  1.00  0.00    -0.354 N 
ATOM     44  C   UNL A   1      43.440  32.246  29.906  1.00  0.00     0.074 A 
ATOM     45  C   UNL A   1      42.406  33.159  30.340  1.00  0.00     0.031 C 
ATOM     46  C   UNL A   1      40.228  26.784  28.873  1.00  0.00     0.029 A 
ATOM     47  C   UNL A   1      41.650  27.040  28.638  1.00  0.00     0.049 A 
ATOM     48  H   UNL A   1      42.677  28.818  28.985  1.00  0.00     0.167 HD
ATOM     49  C   UNL A   1      44.754  32.565  29.837  1.00  0.00     0.037 A 
ATOM     50  C   UNL A   1      42.544  26.148  28.159  1.00  0.00     0.037 A 
ATOM     51  C   UNL A   1      45.783  31.664  29.395  1.00  0.00     0.049 A 
ATOM     52  C   UNL A   1      43.987  26.562  27.983  1.00  0.00     0.074 A 
ATOM     53  C   UNL A   1      47.143  31.899  29.296  1.00  0.00     0.029 A 
ATOM     54  N   UNL A   1      45.570  30.362  28.970  1.00  0.00    -0.354 N 
ATOM     55  N   UNL A   1      44.562  27.702  28.284  1.00  0.00    -0.248 NA
ATOM     56  C   UNL A   1      44.903  25.570  27.396  1.00  0.00     0.031 C 
ATOM     57  C   UNL A   1      47.744  30.758  28.759  1.00  0.00     0.029 A 
ATOM     58  C   UNL A   1      46.769  29.793  28.574  1.00  0.00     0.049 A 
ATOM     59  H   UNL A   1      44.695  29.909  28.951  1.00  0.00     0.167 HD
ATOM     60  C   UNL A   1      45.906  27.556  27.947  1.00  0.00     0.074 A 
ATOM     61  C   UNL A   1      46.063  26.215  27.426  1.00  0.00     0.031 C 
ATOM     62  C   UNL A   1      46.917  28.454  28.058  1.00  0.00     0.037 A 
BRANCH  49  63
ATOM     63  C   UNL A   1      45.153  33.956  30.241  1.00  0.00     0.058 A 
ATOM     64  C   UNL A   1      45.512  34.260  31.563  1.00  0.00     0.135 A 
ATOM     65  C   UNL A   1      45.223  34.987  29.289  1.00  0.00     0.135 A 
ATOM     66  F   UNL A   1      45.443  33.318  32.517  1.00  0.00    -0.206 F 
ATOM     67  C   UNL A   1      45.907  35.541  31.933  1.00  0.00     0.059 A 
ATOM     68  C   UNL A   1      45.642  36.268  29.630  1.00  0.00     0.059 A 
ATOM     69  F   UNL A   1      44.887  34.751  28.011  1.00  0.00    -0.206 F 
ATOM     70  C   UNL A   1      45.972  36.538  30.957  1.00  0.00     0.060 A 
BRANCH  70  71
ATOM     71  S   UNL A   1      46.498  38.190  31.457  1.00  0.00     0.124 S 
ATOM     72  O   UNL A   1      47.456  37.885  32.515  1.00  0.00    -0.237 OA
ATOM     73  O   UNL A   1      47.066  38.721  30.222  1.00  0.00    -0.237 OA
ATOM     74  O   UNL A   1      45.260  38.825  31.898  1.00  0.00    -0.744 OA
ENDBRANCH  70  71
ENDBRANCH  49  63
BRANCH  50  75
ATOM     75  C   UNL A   1      42.108  24.768  27.802  1.00  0.00     0.058 A 
ATOM     76  C   UNL A   1      41.413  24.511  26.611  1.00  0.00     0.135 A 
ATOM     77  C   UNL A   1      42.370  23.678  28.648  1.00  0.00     0.135 A 
ATOM     78  F   UNL A   1      41.110  25.523  25.784  1.00  0.00    -0.206 F 
ATOM     79  C   UNL A   1      40.995  23.229  26.268  1.00  0.00     0.059 A 
ATOM     80  C   UNL A   1      41.982  22.381  28.317  1.00  0.00     0.059 A 
ATOM     81  F   UNL A   1      43.026  23.864  29.804  1.00  0.00    -0.206 F 
ATOM     82  C   UNL A   1      41.290  22.167  27.125  1.00  0.00     0.060 A 
BRANCH  82  83
ATOM     83  S   UNL A   1      40.786  20.499  26.647  1.00  0.00     0.124 S 
ATOM     84  O   UNL A   1      39.478  20.743  26.049  1.00  0.00    -0.237 OA
ATOM     85  O   UNL A   1      41.848  20.110  25.725  1.00  0.00    -0.237 OA
ATOM     86  O   UNL A   1      40.771  19.774  27.914  1.00  0.00    -0.744 OA
ENDBRANCH  82  83
ENDBRANCH  50  75
BRANCH  62  87
ATOM     87  C   UNL A   1      48.295  28.039  27.616  1.00  0.00     0.058 A 
ATOM     88  C   UNL A   1      49.219  27.495  28.520  1.00  0.00     0.135 A 
ATOM     89  C   UNL A   1      48.647  28.064  26.255  1.00  0.00     0.135 A 
ATOM     90  F   UNL A   1      48.936  27.451  29.831  1.00  0.00    -0.206 F 
ATOM     91  C   UNL A   1      50.442  26.987  28.091  1.00  0.00     0.059 A 
ATOM     92  C   UNL A   1      49.854  27.537  25.802  1.00  0.00     0.059 A 
ATOM     93  F   UNL A   1      47.794  28.561  25.345  1.00  0.00    -0.206 F 
ATOM     94  C   UNL A   1      50.745  26.998  26.728  1.00  0.00     0.060 A 
BRANCH  94  95
ATOM     95  S   UNL A   1      52.298  26.257  26.184  1.00  0.00     0.124 S 
ATOM     96  O   UNL A   1      52.394  26.738  24.810  1.00  0.00    -0.237 OA
ATOM     97  O   UNL A   1      53.259  26.827  27.123  1.00  0.00    -0.237 OA
ATOM     98  O   UNL A   1      52.063  24.823  26.331  1.00  0.00    -0.744 OA
ENDBRANCH  94  95
ENDBRANCH  62  87
ENDBRANCH  36  37
ENDBRANCH  29  31
ENDBRANCH  28  29
ENDBRANCH  27  28
ENDBRANCH  26  27
ENDBRANCH  25  26
ENDBRANCH   1  25
TORSDOF 22
ENDMDL
MODEL 2
REMARK VINA RESULT:     -10.1      2.029      3.636
REMARK SMILES Cc1cc(=O)cc(C)n1C[C@H]1CCCC[C@@H]1C(=O)OCCOCCOCCOC(=O)c1ccc(-c2c3nc(c(-c4c(F)cc(S(=O)(=O)[O-])cc4F)c4ccc([nH]4)c(-c4c(F)cc(S(=O)(=O)[O-])cc4F)c4nc(c(-c5c(F)cc(S(=O)(=O)[O-])cc5F)c5ccc2[nH]5)C=C4)C=C3)cc1
REMARK SMILES IDX 24 1 23 2 22 3 21 4 20 5 19 6 17 7 18 8 16 9 11 10 12 11
REMARK SMILES IDX 13 12 15 13 14 14 10 15 9 16 1 17 2 18 3 19 4 20 7 21 5 22
REMARK SMILES IDX 6 23 8 24 25 25 26 26 27 27 28 28 29 29 30 30 31 31 32 32
REMARK SMILES IDX 96 33 33 34 95 35 34 36 35 37 36 38 89 39 37 40 94 41 88 42
REMARK SMILES IDX 90 43 38 44 93 45 87 46 86 47 39 49 73 50 52 51 72 52 53 53
REMARK SMILES IDX 56 54 71 55 91 56 54 57 55 58 70 60 92 61 57 62 40 63 41 64
REMARK SMILES IDX 50 65 42 66 43 67 49 68 51 69 44 70 45 71 46 72 47 73 48 74
REMARK SMILES IDX 74 75 75 76 84 77 76 78 77 79 83 80 85 81 78 82 79 83 80 84
REMARK SMILES IDX 81 85 82 86 58 87 59 88 68 89 60 90 61 91 67 92 69 93 62 94
REMARK SMILES IDX 63 95 64 96 65 97 66 98
REMARK H PARENT 90 48 56 59
REMARK Flexibility Score: inf
ROOT
ATOM      1  C   UNL A   1      34.361  30.467  27.318  1.00  0.00     0.188 C 
ENDROOT
BRANCH   1   2
ATOM      2  C   UNL A   1      32.857  30.738  27.088  1.00  0.00     0.188 C 
BRANCH   2   3
ATOM      3  O   UNL A   1      32.391  30.328  25.814  1.00  0.00    -0.376 OA
BRANCH   3   4
ATOM      4  C   UNL A   1      33.221  29.439  25.089  1.00  0.00     0.202 C 
BRANCH   4   5
ATOM      5  C   UNL A   1      32.583  28.799  23.850  1.00  0.00     0.261 C 
BRANCH   5   6
ATOM      6  O   UNL A   1      31.762  27.641  24.086  1.00  0.00    -0.463 OA
BRANCH   6   7
ATOM      7  C   UNL A   1      32.254  26.432  23.705  1.00  0.00     0.309 C 
ATOM      8  O   UNL A   1      32.357  26.081  22.540  1.00  0.00    -0.252 OA
BRANCH   7   9
ATOM      9  C   UNL A   1      32.746  25.634  24.928  1.00  0.00     0.104 C 
ATOM     10  C   UNL A   1      32.504  24.104  24.753  1.00  0.00     0.023 C 
ATOM     11  C   UNL A   1      30.982  23.916  24.631  1.00  0.00     0.006 C 
ATOM     12  C   UNL A   1      30.203  24.477  25.824  1.00  0.00     0.000 C 
ATOM     13  C   UNL A   1      32.065  26.160  26.203  1.00  0.00     0.016 C 
ATOM     14  C   UNL A   1      30.557  25.926  26.154  1.00  0.00     0.001 C 
BRANCH  10  15
ATOM     15  C   UNL A   1      33.174  23.293  25.915  1.00  0.00     0.126 C 
BRANCH  15  16
ATOM     16  N   UNL A   1      34.269  22.355  25.508  1.00  0.00    -0.349 N 
ATOM     17  C   UNL A   1      32.574  20.652  24.630  1.00  0.00     0.064 C 
ATOM     18  C   UNL A   1      33.976  21.037  25.042  1.00  0.00     0.018 A 
ATOM     19  C   UNL A   1      34.933  20.108  24.844  1.00  0.00     0.073 A 
ATOM     20  C   UNL A   1      36.345  20.448  25.076  1.00  0.00     0.182 A 
ATOM     21  C   UNL A   1      35.638  22.742  25.501  1.00  0.00     0.018 A 
ATOM     22  O   UNL A   1      37.241  19.631  24.916  1.00  0.00    -0.290 OA
ATOM     23  C   UNL A   1      36.642  21.857  25.364  1.00  0.00     0.073 A 
ATOM     24  C   UNL A   1      36.064  24.187  25.473  1.00  0.00     0.064 C 
ENDBRANCH  15  16
ENDBRANCH  10  15
ENDBRANCH   7   9
ENDBRANCH   6   7
ENDBRANCH   5   6
ENDBRANCH   4   5
ENDBRANCH   3   4
ENDBRANCH   2   3
ENDBRANCH   1   2
BRANCH   1  25
ATOM     25  O   UNL A   1      35.166  31.444  27.962  1.00  0.00    -0.376 OA
BRANCH  25  26
ATOM     26  C   UNL A   1      34.560  32.289  28.928  1.00  0.00     0.202 C 
BRANCH  26  27
ATOM     27  C   UNL A   1      34.954  32.136  30.409  1.00  0.00     0.261 C 
BRANCH  27  28
ATOM     28  O   UNL A   1      36.357  31.930  30.673  1.00  0.00    -0.460 OA
BRANCH  28  29
ATOM     29  C   UNL A   1      36.757  30.648  30.880  1.00  0.00     0.338 C 
ATOM     30  O   UNL A   1      36.055  29.716  31.245  1.00  0.00    -0.246 OA
BRANCH  29  31
ATOM     31  C   UNL A   1      38.148  30.460  30.397  1.00  0.00     0.060 A 
ATOM     32  C   UNL A   1      38.376  30.373  29.014  1.00  0.00     0.016 A 
ATOM     33  C   UNL A   1      39.219  30.340  31.285  1.00  0.00     0.016 A 
ATOM     34  C   UNL A   1      39.665  30.164  28.517  1.00  0.00     0.010 A 
ATOM     35  C   UNL A   1      40.507  30.089  30.786  1.00  0.00     0.010 A 
ATOM     36  C   UNL A   1      40.735  29.976  29.401  1.00  0.00    -0.014 A 
BRANCH  36  37
ATOM     37  C   UNL A   1      42.023  29.441  28.881  1.00  0.00     0.031 A 
ATOM     38  C   UNL A   1      43.195  30.383  28.789  1.00  0.00     0.074 A 
ATOM     39  C   UNL A   1      42.179  28.146  28.546  1.00  0.00     0.049 A 
ATOM     40  N   UNL A   1      44.415  30.157  28.375  1.00  0.00    -0.248 NA
ATOM     41  C   UNL A   1      42.958  31.768  29.230  1.00  0.00     0.031 C 
ATOM     42  C   UNL A   1      41.147  27.116  28.639  1.00  0.00     0.029 A 
ATOM     43  N   UNL A   1      43.277  27.476  28.059  1.00  0.00    -0.354 N 
ATOM     44  C   UNL A   1      45.092  31.363  28.514  1.00  0.00     0.074 A 
ATOM     45  C   UNL A   1      44.137  32.330  29.010  1.00  0.00     0.031 C 
ATOM     46  C   UNL A   1      41.660  25.945  28.218  1.00  0.00     0.029 A 
ATOM     47  C   UNL A   1      43.048  26.144  27.800  1.00  0.00     0.049 A 
ATOM     48  H   UNL A   1      44.148  27.909  27.909  1.00  0.00     0.167 HD
ATOM     49  C   UNL A   1      46.394  31.639  28.269  1.00  0.00     0.037 A 
ATOM     50  C   UNL A   1      43.859  25.200  27.275  1.00  0.00     0.037 A 
ATOM     51  C   UNL A   1      47.343  30.683  27.766  1.00  0.00     0.049 A 
ATOM     52  C   UNL A   1      45.278  25.560  26.903  1.00  0.00     0.074 A 
ATOM     53  C   UNL A   1      48.685  30.872  27.491  1.00  0.00     0.029 A 
ATOM     54  N   UNL A   1      47.051  29.364  27.452  1.00  0.00    -0.354 N 
ATOM     55  N   UNL A   1      45.910  26.699  27.061  1.00  0.00    -0.248 NA
ATOM     56  C   UNL A   1      46.095  24.508  26.275  1.00  0.00     0.031 C 
ATOM     57  C   UNL A   1      49.193  29.683  26.960  1.00  0.00     0.029 A 
ATOM     58  C   UNL A   1      48.181  28.738  26.953  1.00  0.00     0.049 A 
ATOM     59  H   UNL A   1      46.171  28.937  27.566  1.00  0.00     0.167 HD
ATOM     60  C   UNL A   1      47.200  26.493  26.576  1.00  0.00     0.074 A 
ATOM     61  C   UNL A   1      47.264  25.119  26.127  1.00  0.00     0.031 C 
ATOM     62  C   UNL A   1      48.237  27.367  26.510  1.00  0.00     0.037 A 
BRANCH  49  63
ATOM     63  C   UNL A   1      46.869  33.040  28.534  1.00  0.00     0.058 A 
ATOM     64  C   UNL A   1      46.812  34.032  27.543  1.00  0.00     0.135 A 
ATOM     65  C   UNL A   1      47.344  33.407  29.804  1.00  0.00     0.135 A 
ATOM     66  F   UNL A   1      46.387  33.730  26.306  1.00  0.00    -0.206 F 
ATOM     67  C   UNL A   1      47.227  35.335  27.794  1.00  0.00     0.059 A 
ATOM     68  C   UNL A   1      47.738  34.711  30.087  1.00  0.00     0.059 A 
ATOM     69  F   UNL A   1      47.422  32.496  30.786  1.00  0.00    -0.206 F 
ATOM     70  C   UNL A   1      47.686  35.665  29.072  1.00  0.00     0.060 A 
BRANCH  70  71
ATOM     71  S   UNL A   1      48.209  37.364  29.380  1.00  0.00     0.124 S 
ATOM     72  O   UNL A   1      49.655  37.206  29.511  1.00  0.00    -0.237 OA
ATOM     73  O   UNL A   1      47.754  38.052  28.175  1.00  0.00    -0.237 OA
ATOM     74  O   UNL A   1      47.505  37.722  30.607  1.00  0.00    -0.744 OA
ENDBRANCH  70  71
ENDBRANCH  49  63
BRANCH  50  75
ATOM     75  C   UNL A   1      43.353  23.814  27.062  1.00  0.00     0.058 A 
ATOM     76  C   UNL A   1      42.951  23.376  25.791  1.00  0.00     0.135 A 
ATOM     77  C   UNL A   1      43.253  22.900  28.123  1.00  0.00     0.135 A 
ATOM     78  F   UNL A   1      42.996  24.220  24.749  1.00  0.00    -0.206 F 
ATOM     79  C   UNL A   1      42.471  22.087  25.577  1.00  0.00     0.059 A 
ATOM     80  C   UNL A   1      42.798  21.598  27.932  1.00  0.00     0.059 A 
ATOM     81  F   UNL A   1      43.618  23.265  29.363  1.00  0.00    -0.206 F 
ATOM     82  C   UNL A   1      42.405  21.201  26.654  1.00  0.00     0.060 A 
BRANCH  82  83
ATOM     83  S   UNL A   1      41.827  19.515  26.356  1.00  0.00     0.124 S 
ATOM     84  O   UNL A   1      42.533  19.170  25.128  1.00  0.00    -0.237 OA
ATOM     85  O   UNL A   1      42.268  18.822  27.563  1.00  0.00    -0.237 OA
ATOM     86  O   UNL A   1      40.381  19.671  26.227  1.00  0.00    -0.744 OA
ENDBRANCH  82  83
ENDBRANCH  50  75
BRANCH  62  87
ATOM     87  C   UNL A   1      49.542  26.885  25.934  1.00  0.00     0.058 A 
ATOM     88  C   UNL A   1      49.850  27.060  24.577  1.00  0.00     0.135 A 
ATOM     89  C   UNL A   1      50.544  26.362  26.770  1.00  0.00     0.135 A 
ATOM     90  F   UNL A   1      48.929  27.551  23.733  1.00  0.00    -0.206 F 
ATOM     91  C   UNL A   1      51.106  26.739  24.069  1.00  0.00     0.059 A 
ATOM     92  C   UNL A   1      51.814  26.059  26.289  1.00  0.00     0.059 A 
ATOM     93  F   UNL A   1      50.306  26.186  28.080  1.00  0.00    -0.206 F 
ATOM     94  C   UNL A   1      52.087  26.253  24.936  1.00  0.00     0.060 A 
BRANCH  94  95
ATOM     95  S   UNL A   1      53.734  25.924  24.275  1.00  0.00     0.124 S 
ATOM     96  O   UNL A   1      54.003  24.587  24.794  1.00  0.00    -0.237 OA
ATOM     97  O   UNL A   1      53.513  26.012  22.835  1.00  0.00    -0.237 OA
ATOM     98  O   UNL A   1      54.552  26.992  24.843  1.00  0.00    -0.744 OA
ENDBRANCH  94  95
ENDBRANCH  62  87
ENDBRANCH  36  37
ENDBRANCH  29  31
ENDBRANCH  28  29
ENDBRANCH  27  28
ENDBRANCH  26  27
ENDBRANCH  25  26
ENDBRANCH   1  25
TORSDOF 22
ENDMDL
MODEL 3
REMARK VINA RESULT:      -9.5      2.537      8.990
REMARK SMILES Cc1cc(=O)cc(C)n1C[C@H]1CCCC[C@@H]1C(=O)OCCOCCOCCOC(=O)c1ccc(-c2c3nc(c(-c4c(F)cc(S(=O)(=O)[O-])cc4F)c4ccc([nH]4)c(-c4c(F)cc(S(=O)(=O)[O-])cc4F)c4nc(c(-c5c(F)cc(S(=O)(=O)[O-])cc5F)c5ccc2[nH]5)C=C4)C=C3)cc1
REMARK SMILES IDX 24 1 23 2 22 3 21 4 20 5 19 6 17 7 18 8 16 9 11 10 12 11
REMARK SMILES IDX 13 12 15 13 14 14 10 15 9 16 1 17 2 18 3 19 4 20 7 21 5 22
REMARK SMILES IDX 6 23 8 24 25 25 26 26 27 27 28 28 29 29 30 30 31 31 32 32
REMARK SMILES IDX 96 33 33 34 95 35 34 36 35 37 36 38 89 39 37 40 94 41 88 42
REMARK SMILES IDX 90 43 38 44 93 45 87 46 86 47 39 49 73 50 52 51 72 52 53 53
REMARK SMILES IDX 56 54 71 55 91 56 54 57 55 58 70 60 92 61 57 62 40 63 41 64
REMARK SMILES IDX 50 65 42 66 43 67 49 68 51 69 44 70 45 71 46 72 47 73 48 74
REMARK SMILES IDX 74 75 75 76 84 77 76 78 77 79 83 80 85 81 78 82 79 83 80 84
REMARK SMILES IDX 81 85 82 86 58 87 59 88 68 89 60 90 61 91 67 92 69 93 62 94
REMARK SMILES IDX 63 95 64 96 65 97 66 98
REMARK H PARENT 90 48 56 59
REMARK Flexibility Score: inf
ROOT
ATOM      1  C   UNL A   1      31.482  29.715  24.995  1.00  0.00     0.188 C 
ENDROOT
BRANCH   1   2
ATOM      2  C   UNL A   1      30.604  29.525  23.737  1.00  0.00     0.188 C 
BRANCH   2   3
ATOM      3  O   UNL A   1      30.641  28.212  23.208  1.00  0.00    -0.376 OA
BRANCH   3   4
ATOM      4  C   UNL A   1      29.435  27.471  23.258  1.00  0.00     0.202 C 
BRANCH   4   5
ATOM      5  C   UNL A   1      29.364  26.396  24.349  1.00  0.00     0.261 C 
BRANCH   5   6
ATOM      6  O   UNL A   1      30.580  26.151  25.079  1.00  0.00    -0.463 OA
BRANCH   6   7
ATOM      7  C   UNL A   1      30.940  24.856  25.286  1.00  0.00     0.309 C 
ATOM      8  O   UNL A   1      30.397  24.126  26.101  1.00  0.00    -0.252 OA
BRANCH   7   9
ATOM      9  C   UNL A   1      32.037  24.429  24.292  1.00  0.00     0.104 C 
ATOM     10  C   UNL A   1      32.932  23.294  24.873  1.00  0.00     0.023 C 
ATOM     11  C   UNL A   1      33.612  23.875  26.125  1.00  0.00     0.006 C 
ATOM     12  C   UNL A   1      34.422  25.142  25.843  1.00  0.00     0.000 C 
ATOM     13  C   UNL A   1      32.882  25.650  23.891  1.00  0.00     0.016 C 
ATOM     14  C   UNL A   1      33.633  26.215  25.095  1.00  0.00     0.001 C 
BRANCH  10  15
ATOM     15  C   UNL A   1      33.919  22.744  23.787  1.00  0.00     0.126 C 
BRANCH  15  16
ATOM     16  N   UNL A   1      34.937  21.757  24.271  1.00  0.00    -0.349 N 
ATOM     17  C   UNL A   1      36.784  23.525  24.194  1.00  0.00     0.064 C 
ATOM     18  C   UNL A   1      36.325  22.090  24.314  1.00  0.00     0.018 A 
ATOM     19  C   UNL A   1      37.284  21.175  24.564  1.00  0.00     0.073 A 
ATOM     20  C   UNL A   1      36.911  19.780  24.844  1.00  0.00     0.182 A 
ATOM     21  C   UNL A   1      34.576  20.474  24.769  1.00  0.00     0.018 A 
ATOM     22  O   UNL A   1      37.751  18.920  25.068  1.00  0.00    -0.290 OA
ATOM     23  C   UNL A   1      35.478  19.500  24.989  1.00  0.00     0.073 A 
ATOM     24  C   UNL A   1      33.184  20.164  25.254  1.00  0.00     0.064 C 
ENDBRANCH  15  16
ENDBRANCH  10  15
ENDBRANCH   7   9
ENDBRANCH   6   7
ENDBRANCH   5   6
ENDBRANCH   4   5
ENDBRANCH   3   4
ENDBRANCH   2   3
ENDBRANCH   1   2
BRANCH   1  25
ATOM     25  O   UNL A   1      31.412  28.772  26.056  1.00  0.00    -0.376 OA
BRANCH  25  26
ATOM     26  C   UNL A   1      32.030  29.096  27.290  1.00  0.00     0.202 C 
BRANCH  26  27
ATOM     27  C   UNL A   1      33.144  30.159  27.313  1.00  0.00     0.261 C 
BRANCH  27  28
ATOM     28  O   UNL A   1      34.463  29.688  27.656  1.00  0.00    -0.460 OA
BRANCH  28  29
ATOM     29  C   UNL A   1      35.245  30.535  28.377  1.00  0.00     0.338 C 
ATOM     30  O   UNL A   1      34.872  31.515  29.005  1.00  0.00    -0.246 OA
BRANCH  29  31
ATOM     31  C   UNL A   1      36.623  29.994  28.484  1.00  0.00     0.060 A 
ATOM     32  C   UNL A   1      37.106  29.625  29.751  1.00  0.00     0.016 A 
ATOM     33  C   UNL A   1      37.449  29.872  27.365  1.00  0.00     0.016 A 
ATOM     34  C   UNL A   1      38.408  29.142  29.903  1.00  0.00     0.010 A 
ATOM     35  C   UNL A   1      38.770  29.425  27.525  1.00  0.00     0.010 A 
ATOM     36  C   UNL A   1      39.266  29.079  28.798  1.00  0.00    -0.014 A 
BRANCH  36  37
ATOM     37  C   UNL A   1      40.724  28.874  29.019  1.00  0.00     0.031 A 
ATOM     38  C   UNL A   1      41.307  27.526  28.685  1.00  0.00     0.074 A 
ATOM     39  C   UNL A   1      41.530  29.862  29.452  1.00  0.00     0.049 A 
ATOM     40  N   UNL A   1      42.541  27.105  28.785  1.00  0.00    -0.248 NA
ATOM     41  C   UNL A   1      40.371  26.518  28.160  1.00  0.00     0.031 C 
ATOM     42  C   UNL A   1      41.107  31.227  29.759  1.00  0.00     0.029 A 
ATOM     43  N   UNL A   1      42.881  29.864  29.708  1.00  0.00    -0.354 N 
ATOM     44  C   UNL A   1      42.532  25.792  28.329  1.00  0.00     0.074 A 
ATOM     45  C   UNL A   1      41.163  25.470  27.992  1.00  0.00     0.031 C 
ATOM     46  C   UNL A   1      42.178  31.934  30.166  1.00  0.00     0.029 A 
ATOM     47  C   UNL A   1      43.358  31.067  30.175  1.00  0.00     0.049 A 
ATOM     48  H   UNL A   1      43.456  29.077  29.570  1.00  0.00     0.167 HD
ATOM     49  C   UNL A   1      43.570  24.935  28.187  1.00  0.00     0.037 A 
ATOM     50  C   UNL A   1      44.597  31.424  30.576  1.00  0.00     0.037 A 
ATOM     51  C   UNL A   1      44.931  25.248  28.531  1.00  0.00     0.049 A 
ATOM     52  C   UNL A   1      45.720  30.415  30.514  1.00  0.00     0.074 A 
ATOM     53  C   UNL A   1      46.050  24.443  28.416  1.00  0.00     0.029 A 
ATOM     54  N   UNL A   1      45.357  26.454  29.066  1.00  0.00    -0.354 N 
ATOM     55  N   UNL A   1      45.699  29.184  30.059  1.00  0.00    -0.248 NA
ATOM     56  C   UNL A   1      47.034  30.839  31.024  1.00  0.00     0.031 C 
ATOM     57  C   UNL A   1      47.144  25.142  28.933  1.00  0.00     0.029 A 
ATOM     58  C   UNL A   1      46.717  26.401  29.319  1.00  0.00     0.049 A 
ATOM     59  H   UNL A   1      44.778  27.231  29.240  1.00  0.00     0.167 HD
ATOM     60  C   UNL A   1      46.997  28.698  30.207  1.00  0.00     0.074 A 
ATOM     61  C   UNL A   1      47.782  29.769  30.784  1.00  0.00     0.031 C 
ATOM     62  C   UNL A   1      47.492  27.475  29.893  1.00  0.00     0.037 A 
BRANCH  49  63
ATOM     63  C   UNL A   1      43.272  23.567  27.641  1.00  0.00     0.058 A 
ATOM     64  C   UNL A   1      42.713  22.563  28.446  1.00  0.00     0.135 A 
ATOM     65  C   UNL A   1      43.504  23.270  26.287  1.00  0.00     0.135 A 
ATOM     66  F   UNL A   1      42.489  22.787  29.751  1.00  0.00    -0.206 F 
ATOM     67  C   UNL A   1      42.412  21.305  27.935  1.00  0.00     0.059 A 
ATOM     68  C   UNL A   1      43.186  22.028  25.748  1.00  0.00     0.059 A 
ATOM     69  F   UNL A   1      44.041  24.193  25.475  1.00  0.00    -0.206 F 
ATOM     70  C   UNL A   1      42.650  21.048  26.583  1.00  0.00     0.060 A 
BRANCH  70  71
ATOM     71  S   UNL A   1      42.242  19.413  25.938  1.00  0.00     0.124 S 
ATOM     72  O   UNL A   1      42.744  18.546  27.001  1.00  0.00    -0.237 OA
ATOM     73  O   UNL A   1      40.790  19.483  25.811  1.00  0.00    -0.237 OA
ATOM     74  O   UNL A   1      42.977  19.349  24.679  1.00  0.00    -0.744 OA
ENDBRANCH  70  71
ENDBRANCH  49  63
BRANCH  50  75
ATOM     75  C   UNL A   1      44.853  32.804  31.079  1.00  0.00     0.058 A 
ATOM     76  C   UNL A   1      45.231  33.836  30.207  1.00  0.00     0.135 A 
ATOM     77  C   UNL A   1      44.733  33.119  32.442  1.00  0.00     0.135 A 
ATOM     78  F   UNL A   1      45.391  33.581  28.900  1.00  0.00    -0.206 F 
ATOM     79  C   UNL A   1      45.479  35.128  30.664  1.00  0.00     0.059 A 
ATOM     80  C   UNL A   1      44.954  34.408  32.921  1.00  0.00     0.059 A 
ATOM     81  F   UNL A   1      44.380  32.170  33.324  1.00  0.00    -0.206 F 
ATOM     82  C   UNL A   1      45.330  35.406  32.024  1.00  0.00     0.060 A 
BRANCH  82  83
ATOM     83  S   UNL A   1      45.607  37.097  32.598  1.00  0.00     0.124 S 
ATOM     84  O   UNL A   1      46.514  37.614  31.580  1.00  0.00    -0.237 OA
ATOM     85  O   UNL A   1      44.255  37.649  32.589  1.00  0.00    -0.237 OA
ATOM     86  O   UNL A   1      46.190  36.913  33.924  1.00  0.00    -0.744 OA
ENDBRANCH  82  83
ENDBRANCH  50  75
BRANCH  62  87
ATOM     87  C   UNL A   1      48.950  27.203  30.156  1.00  0.00     0.058 A 
ATOM     88  C   UNL A   1      49.937  27.543  29.220  1.00  0.00     0.135 A 
ATOM     89  C   UNL A   1      49.372  26.718  31.407  1.00  0.00     0.135 A 
ATOM     90  F   UNL A   1      49.589  28.006  28.010  1.00  0.00    -0.206 F 
ATOM     91  C   UNL A   1      51.292  27.418  29.515  1.00  0.00     0.059 A 
ATOM     92  C   UNL A   1      50.722  26.609  31.731  1.00  0.00     0.059 A 
ATOM     93  F   UNL A   1      48.469  26.389  32.344  1.00  0.00    -0.206 F 
ATOM     94  C   UNL A   1      51.675  26.964  30.779  1.00  0.00     0.060 A 
BRANCH  94  95
ATOM     95  S   UNL A   1      53.436  26.890  31.170  1.00  0.00     0.124 S 
ATOM     96  O   UNL A   1      53.664  28.202  31.766  1.00  0.00    -0.237 OA
ATOM     97  O   UNL A   1      53.502  25.757  32.088  1.00  0.00    -0.237 OA
ATOM     98  O   UNL A   1      54.067  26.674  29.871  1.00  0.00    -0.744 OA
ENDBRANCH  94  95
ENDBRANCH  62  87
ENDBRANCH  36  37
ENDBRANCH  29  31
ENDBRANCH  28  29
ENDBRANCH  27  28
ENDBRANCH  26  27
ENDBRANCH  25  26
ENDBRANCH   1  25
TORSDOF 22
ENDMDL
