MODEL 1
REMARK VINA RESULT:     -10.3      0.000      0.000
REMARK SMILES CCOc1cc(F)ccc1NC(=O)CC1(C(=O)OCCOCCOCCOC(=O)c2ccc(-c3c4nc(c(-c5c(F)cc(S(=O)(=O)[O-])cc5F)c5ccc([nH]5)c(-c5c(F)cc(S(=O)(=O)[O-])cc5F)c5nc(c(-c6c(F)cc(S(=O)(=O)[O-])cc6F)c6ccc3[nH]6)C=C5)C=C4)cc2)CCCCC1
REMARK SMILES IDX 22 1 21 2 20 3 19 4 18 5 16 6 17 7 15 8 96 9 100 10 97 11
REMARK SMILES IDX 99 12 98 13 14 14 12 15 11 16 13 18 10 19 4 20 5 21 6 22
REMARK SMILES IDX 9 23 7 24 8 25 3 26 2 27 1 28 23 29 24 30 25 31 26 32 27 33
REMARK SMILES IDX 28 34 29 35 30 36 31 37 95 38 32 39 94 40 33 41 34 42 35 43
REMARK SMILES IDX 88 44 36 45 93 46 87 47 89 48 37 49 92 50 86 51 85 52 38 54
REMARK SMILES IDX 72 55 51 56 71 57 52 58 55 59 70 60 90 61 53 62 54 63 69 65
REMARK SMILES IDX 91 66 56 67 39 68 40 69 49 70 41 71 42 72 48 73 50 74 43 75
REMARK SMILES IDX 44 76 45 77 46 78 47 79 73 80 74 81 83 82 75 83 76 84 82 85
REMARK SMILES IDX 84 86 77 87 78 88 79 89 80 90 81 91 57 92 58 93 67 94 59 95
REMARK SMILES IDX 60 96 66 97 68 98 61 99 62 100 63 101 64 102 65 103
REMARK H PARENT 11 17 89 53 55 64
REMARK Flexibility Score: inf
ROOT
ATOM      1  C   UNL A   1      41.572  21.813  27.322  1.00  0.00     0.188 C 
ENDROOT
BRANCH   1   2
ATOM      2  O   UNL A   1      40.391  21.027  27.227  1.00  0.00    -0.376 OA
BRANCH   2   3
ATOM      3  C   UNL A   1      39.527  21.203  26.111  1.00  0.00     0.202 C 
BRANCH   3   4
ATOM      4  C   UNL A   1      38.703  22.492  26.087  1.00  0.00     0.261 C 
BRANCH   4   5
ATOM      5  O   UNL A   1      37.446  22.365  25.381  1.00  0.00    -0.463 OA
BRANCH   5   6
ATOM      6  C   UNL A   1      36.558  23.383  25.542  1.00  0.00     0.312 C 
ATOM      7  O   UNL A   1      36.823  24.419  26.140  1.00  0.00    -0.252 OA
BRANCH   6   8
ATOM      8  C   UNL A   1      35.153  23.108  24.946  1.00  0.00     0.077 C 
ATOM      9  C   UNL A   1      34.146  23.455  26.071  1.00  0.00     0.019 C 
ATOM     10  C   UNL A   1      34.910  21.662  24.453  1.00  0.00     0.019 C 
ATOM     11  C   UNL A   1      34.059  22.372  27.150  1.00  0.00     0.001 C 
ATOM     12  C   UNL A   1      34.699  20.594  25.520  1.00  0.00     0.001 C 
ATOM     13  C   UNL A   1      33.671  21.030  26.546  1.00  0.00     0.000 C 
BRANCH   8  14
ATOM     14  C   UNL A   1      35.025  24.128  23.760  1.00  0.00     0.119 C 
BRANCH  14  15
ATOM     15  C   UNL A   1      33.647  24.325  23.139  1.00  0.00     0.225 C 
ATOM     16  N   UNL A   1      32.820  25.387  23.356  1.00  0.00    -0.323 N 
ATOM     17  H   UNL A   1      31.968  25.289  22.873  1.00  0.00     0.170 HD
ATOM     18  O   UNL A   1      33.231  23.468  22.346  1.00  0.00    -0.275 OA
BRANCH  16  19
ATOM     19  C   UNL A   1      32.868  26.589  24.089  1.00  0.00     0.084 A 
ATOM     20  C   UNL A   1      31.898  27.578  23.820  1.00  0.00     0.145 A 
ATOM     21  C   UNL A   1      31.878  28.793  24.514  1.00  0.00     0.087 A 
ATOM     22  C   UNL A   1      32.889  29.080  25.405  1.00  0.00     0.127 A 
ATOM     23  C   UNL A   1      33.826  26.886  25.045  1.00  0.00     0.033 A 
ATOM     24  F   UNL A   1      32.936  30.272  26.009  1.00  0.00    -0.207 F 
ATOM     25  C   UNL A   1      33.858  28.136  25.670  1.00  0.00     0.041 A 
BRANCH  20  26
ATOM     26  O   UNL A   1      30.910  27.341  22.894  1.00  0.00    -0.492 OA
BRANCH  26  27
ATOM     27  C   UNL A   1      29.613  27.752  23.359  1.00  0.00     0.226 C 
ATOM     28  C   UNL A   1      28.729  26.594  23.810  1.00  0.00     0.049 C 
ENDBRANCH  26  27
ENDBRANCH  20  26
ENDBRANCH  16  19
ENDBRANCH  14  15
ENDBRANCH   8  14
ENDBRANCH   6   8
ENDBRANCH   5   6
ENDBRANCH   4   5
ENDBRANCH   3   4
ENDBRANCH   2   3
ENDBRANCH   1   2
BRANCH   1  29
ATOM     29  C   UNL A   1      42.660  21.588  26.271  1.00  0.00     0.188 C 
BRANCH  29  30
ATOM     30  O   UNL A   1      42.572  22.494  25.181  1.00  0.00    -0.376 OA
BRANCH  30  31
ATOM     31  C   UNL A   1      43.650  23.410  25.060  1.00  0.00     0.202 C 
BRANCH  31  32
ATOM     32  C   UNL A   1      43.686  24.377  26.244  1.00  0.00     0.261 C 
BRANCH  32  33
ATOM     33  O   UNL A   1      43.450  25.748  25.863  1.00  0.00    -0.460 OA
BRANCH  33  34
ATOM     34  C   UNL A   1      42.164  26.155  25.851  1.00  0.00     0.338 C 
ATOM     35  O   UNL A   1      41.316  25.878  25.008  1.00  0.00    -0.246 OA
BRANCH  34  36
ATOM     36  C   UNL A   1      41.883  26.854  27.115  1.00  0.00     0.060 A 
ATOM     37  C   UNL A   1      40.963  26.299  28.009  1.00  0.00     0.016 A 
ATOM     38  C   UNL A   1      42.510  28.058  27.422  1.00  0.00     0.016 A 
ATOM     39  C   UNL A   1      40.661  26.926  29.214  1.00  0.00     0.010 A 
ATOM     40  C   UNL A   1      42.213  28.690  28.633  1.00  0.00     0.010 A 
ATOM     41  C   UNL A   1      41.289  28.130  29.536  1.00  0.00    -0.014 A 
BRANCH  41  42
ATOM     42  C   UNL A   1      40.945  28.838  30.789  1.00  0.00     0.031 A 
ATOM     43  C   UNL A   1      39.809  29.816  30.783  1.00  0.00     0.074 A 
ATOM     44  C   UNL A   1      41.650  28.618  31.915  1.00  0.00     0.049 A 
ATOM     45  N   UNL A   1      39.499  30.723  31.668  1.00  0.00    -0.248 NA
ATOM     46  C   UNL A   1      38.900  29.763  29.625  1.00  0.00     0.031 C 
ATOM     47  C   UNL A   1      42.708  27.617  32.071  1.00  0.00     0.029 A 
ATOM     48  N   UNL A   1      41.600  29.242  33.138  1.00  0.00    -0.354 N 
ATOM     49  C   UNL A   1      38.388  31.381  31.158  1.00  0.00     0.074 A 
ATOM     50  C   UNL A   1      38.065  30.760  29.892  1.00  0.00     0.031 C 
ATOM     51  C   UNL A   1      43.226  27.716  33.306  1.00  0.00     0.029 A 
ATOM     52  C   UNL A   1      42.593  28.834  34.000  1.00  0.00     0.049 A 
ATOM     53  H   UNL A   1      40.921  29.914  33.374  1.00  0.00     0.167 HD
ATOM     54  C   UNL A   1      37.713  32.419  31.702  1.00  0.00     0.037 A 
ATOM     55  C   UNL A   1      42.993  29.351  35.180  1.00  0.00     0.037 A 
ATOM     56  C   UNL A   1      38.030  32.998  32.980  1.00  0.00     0.049 A 
ATOM     57  C   UNL A   1      42.292  30.570  35.717  1.00  0.00     0.074 A 
ATOM     58  C   UNL A   1      37.394  34.040  33.629  1.00  0.00     0.029 A 
ATOM     59  N   UNL A   1      39.068  32.585  33.800  1.00  0.00    -0.354 N 
ATOM     60  N   UNL A   1      41.267  31.218  35.213  1.00  0.00    -0.248 NA
ATOM     61  C   UNL A   1      42.813  31.150  36.963  1.00  0.00     0.031 C 
ATOM     62  C   UNL A   1      38.077  34.290  34.822  1.00  0.00     0.029 A 
ATOM     63  C   UNL A   1      39.113  33.375  34.936  1.00  0.00     0.049 A 
ATOM     64  H   UNL A   1      39.683  31.842  33.605  1.00  0.00     0.167 HD
ATOM     65  C   UNL A   1      41.022  32.277  36.081  1.00  0.00     0.074 A 
ATOM     66  C   UNL A   1      41.990  32.174  37.152  1.00  0.00     0.031 C 
ATOM     67  C   UNL A   1      40.084  33.251  35.993  1.00  0.00     0.037 A 
BRANCH  54  68
ATOM     68  C   UNL A   1      36.587  33.028  30.921  1.00  0.00     0.058 A 
ATOM     69  C   UNL A   1      36.867  33.896  29.853  1.00  0.00     0.135 A 
ATOM     70  C   UNL A   1      35.247  32.849  31.290  1.00  0.00     0.135 A 
ATOM     71  F   UNL A   1      38.133  34.089  29.452  1.00  0.00    -0.206 F 
ATOM     72  C   UNL A   1      35.858  34.596  29.203  1.00  0.00     0.059 A 
ATOM     73  C   UNL A   1      34.218  33.525  30.640  1.00  0.00     0.059 A 
ATOM     74  F   UNL A   1      34.926  32.007  32.286  1.00  0.00    -0.206 F 
ATOM     75  C   UNL A   1      34.536  34.413  29.612  1.00  0.00     0.060 A 
BRANCH  75  76
ATOM     76  S   UNL A   1      33.241  35.351  28.773  1.00  0.00     0.124 S 
ATOM     77  O   UNL A   1      32.509  35.924  29.897  1.00  0.00    -0.237 OA
ATOM     78  O   UNL A   1      34.017  36.293  27.971  1.00  0.00    -0.237 OA
ATOM     79  O   UNL A   1      32.527  34.331  28.010  1.00  0.00    -0.744 OA
ENDBRANCH  75  76
ENDBRANCH  54  68
BRANCH  55  80
ATOM     80  C   UNL A   1      44.173  28.777  35.882  1.00  0.00     0.058 A 
ATOM     81  C   UNL A   1      45.465  29.281  35.659  1.00  0.00     0.135 A 
ATOM     82  C   UNL A   1      44.038  27.715  36.789  1.00  0.00     0.135 A 
ATOM     83  F   UNL A   1      45.652  30.299  34.804  1.00  0.00    -0.206 F 
ATOM     84  C   UNL A   1      46.580  28.740  36.287  1.00  0.00     0.059 A 
ATOM     85  C   UNL A   1      45.137  27.174  37.452  1.00  0.00     0.059 A 
ATOM     86  F   UNL A   1      42.822  27.213  37.054  1.00  0.00    -0.206 F 
ATOM     87  C   UNL A   1      46.406  27.685  37.181  1.00  0.00     0.060 A 
BRANCH  87  88
ATOM     88  S   UNL A   1      47.866  27.010  38.004  1.00  0.00     0.124 S 
ATOM     89  O   UNL A   1      48.945  27.642  37.252  1.00  0.00    -0.237 OA
ATOM     90  O   UNL A   1      47.690  27.477  39.376  1.00  0.00    -0.237 OA
ATOM     91  O   UNL A   1      47.725  25.570  37.813  1.00  0.00    -0.744 OA
ENDBRANCH  87  88
ENDBRANCH  55  80
BRANCH  67  92
ATOM     92  C   UNL A   1      40.043  34.291  37.075  1.00  0.00     0.058 A 
ATOM     93  C   UNL A   1      39.119  34.190  38.128  1.00  0.00     0.135 A 
ATOM     94  C   UNL A   1      40.828  35.451  36.995  1.00  0.00     0.135 A 
ATOM     95  F   UNL A   1      38.342  33.101  38.243  1.00  0.00    -0.206 F 
ATOM     96  C   UNL A   1      38.947  35.223  39.042  1.00  0.00     0.059 A 
ATOM     97  C   UNL A   1      40.688  36.487  37.913  1.00  0.00     0.059 A 
ATOM     98  F   UNL A   1      41.734  35.586  36.014  1.00  0.00    -0.206 F 
ATOM     99  C   UNL A   1      39.727  36.374  38.917  1.00  0.00     0.060 A 
BRANCH  99 100
ATOM    100  S   UNL A   1      39.459  37.722  40.088  1.00  0.00     0.124 S 
ATOM    101  O   UNL A   1      38.223  38.313  39.586  1.00  0.00    -0.237 OA
ATOM    102  O   UNL A   1      39.353  37.011  41.357  1.00  0.00    -0.237 OA
ATOM    103  O   UNL A   1      40.655  38.546  39.936  1.00  0.00    -0.744 OA
ENDBRANCH  99 100
ENDBRANCH  67  92
ENDBRANCH  41  42
ENDBRANCH  34  36
ENDBRANCH  33  34
ENDBRANCH  32  33
ENDBRANCH  31  32
ENDBRANCH  30  31
ENDBRANCH  29  30
ENDBRANCH   1  29
TORSDOF 25
ENDMDL
MODEL 2
REMARK VINA RESULT:      -9.6      6.394     11.889
REMARK SMILES CCOc1cc(F)ccc1NC(=O)CC1(C(=O)OCCOCCOCCOC(=O)c2ccc(-c3c4nc(c(-c5c(F)cc(S(=O)(=O)[O-])cc5F)c5ccc([nH]5)c(-c5c(F)cc(S(=O)(=O)[O-])cc5F)c5nc(c(-c6c(F)cc(S(=O)(=O)[O-])cc6F)c6ccc3[nH]6)C=C5)C=C4)cc2)CCCCC1
REMARK SMILES IDX 22 1 21 2 20 3 19 4 18 5 16 6 17 7 15 8 96 9 100 10 97 11
REMARK SMILES IDX 99 12 98 13 14 14 12 15 11 16 13 18 10 19 4 20 5 21 6 22
REMARK SMILES IDX 9 23 7 24 8 25 3 26 2 27 1 28 23 29 24 30 25 31 26 32 27 33
REMARK SMILES IDX 28 34 29 35 30 36 31 37 95 38 32 39 94 40 33 41 34 42 35 43
REMARK SMILES IDX 88 44 36 45 93 46 87 47 89 48 37 49 92 50 86 51 85 52 38 54
REMARK SMILES IDX 72 55 51 56 71 57 52 58 55 59 70 60 90 61 53 62 54 63 69 65
REMARK SMILES IDX 91 66 56 67 39 68 40 69 49 70 41 71 42 72 48 73 50 74 43 75
REMARK SMILES IDX 44 76 45 77 46 78 47 79 73 80 74 81 83 82 75 83 76 84 82 85
REMARK SMILES IDX 84 86 77 87 78 88 79 89 80 90 81 91 57 92 58 93 67 94 59 95
REMARK SMILES IDX 60 96 66 97 68 98 61 99 62 100 63 101 64 102 65 103
REMARK H PARENT 11 17 89 53 55 64
REMARK Flexibility Score: inf
ROOT
ATOM      1  C   UNL A   1      32.611  33.445  27.565  1.00  0.00     0.188 C 
ENDROOT
BRANCH   1   2
ATOM      2  O   UNL A   1      31.848  32.459  26.882  1.00  0.00    -0.376 OA
BRANCH   2   3
ATOM      3  C   UNL A   1      32.301  31.110  26.879  1.00  0.00     0.202 C 
BRANCH   3   4
ATOM      4  C   UNL A   1      31.705  30.196  25.806  1.00  0.00     0.261 C 
BRANCH   4   5
ATOM      5  O   UNL A   1      31.756  28.790  26.147  1.00  0.00    -0.463 OA
BRANCH   5   6
ATOM      6  C   UNL A   1      32.749  28.064  25.568  1.00  0.00     0.312 C 
ATOM      7  O   UNL A   1      33.935  28.212  25.839  1.00  0.00    -0.252 OA
BRANCH   6   8
ATOM      8  C   UNL A   1      32.265  27.057  24.494  1.00  0.00     0.077 C 
ATOM      9  C   UNL A   1      32.860  27.557  23.154  1.00  0.00     0.019 C 
ATOM     10  C   UNL A   1      30.731  26.909  24.363  1.00  0.00     0.019 C 
ATOM     11  C   UNL A   1      32.106  28.758  22.576  1.00  0.00     0.001 C 
ATOM     12  C   UNL A   1      29.983  28.046  23.677  1.00  0.00     0.001 C 
ATOM     13  C   UNL A   1      30.636  28.427  22.362  1.00  0.00     0.000 C 
BRANCH   8  14
ATOM     14  C   UNL A   1      32.921  25.694  24.911  1.00  0.00     0.119 C 
BRANCH  14  15
ATOM     15  C   UNL A   1      32.194  24.409  24.528  1.00  0.00     0.225 C 
ATOM     16  N   UNL A   1      32.785  23.211  24.256  1.00  0.00    -0.323 N 
ATOM     17  H   UNL A   1      32.122  22.529  24.003  1.00  0.00     0.170 HD
ATOM     18  O   UNL A   1      30.956  24.427  24.476  1.00  0.00    -0.275 OA
BRANCH  16  19
ATOM     19  C   UNL A   1      34.095  22.695  24.244  1.00  0.00     0.084 A 
ATOM     20  C   UNL A   1      34.382  21.575  25.054  1.00  0.00     0.145 A 
ATOM     21  C   UNL A   1      35.659  21.003  25.088  1.00  0.00     0.087 A 
ATOM     22  C   UNL A   1      36.689  21.606  24.400  1.00  0.00     0.127 A 
ATOM     23  C   UNL A   1      35.141  23.228  23.509  1.00  0.00     0.033 A 
ATOM     24  F   UNL A   1      37.933  21.125  24.493  1.00  0.00    -0.207 F 
ATOM     25  C   UNL A   1      36.435  22.711  23.616  1.00  0.00     0.041 A 
BRANCH  20  26
ATOM     26  O   UNL A   1      33.386  20.987  25.797  1.00  0.00    -0.492 OA
BRANCH  26  27
ATOM     27  C   UNL A   1      32.460  20.247  24.983  1.00  0.00     0.226 C 
ATOM     28  C   UNL A   1      33.104  19.107  24.202  1.00  0.00     0.049 C 
ENDBRANCH  26  27
ENDBRANCH  20  26
ENDBRANCH  16  19
ENDBRANCH  14  15
ENDBRANCH   8  14
ENDBRANCH   6   8
ENDBRANCH   5   6
ENDBRANCH   4   5
ENDBRANCH   3   4
ENDBRANCH   2   3
ENDBRANCH   1   2
BRANCH   1  29
ATOM     29  C   UNL A   1      33.904  32.996  28.247  1.00  0.00     0.188 C 
BRANCH  29  30
ATOM     30  O   UNL A   1      34.233  33.785  29.381  1.00  0.00    -0.376 OA
BRANCH  30  31
ATOM     31  C   UNL A   1      34.812  33.079  30.469  1.00  0.00     0.202 C 
BRANCH  31  32
ATOM     32  C   UNL A   1      36.067  32.324  30.029  1.00  0.00     0.261 C 
BRANCH  32  33
ATOM     33  O   UNL A   1      35.985  30.904  30.265  1.00  0.00    -0.460 OA
BRANCH  33  34
ATOM     34  C   UNL A   1      36.130  30.106  29.188  1.00  0.00     0.338 C 
ATOM     35  O   UNL A   1      35.271  29.839  28.353  1.00  0.00    -0.246 OA
BRANCH  34  36
ATOM     36  C   UNL A   1      37.549  29.735  29.070  1.00  0.00     0.060 A 
ATOM     37  C   UNL A   1      38.143  29.709  27.804  1.00  0.00     0.016 A 
ATOM     38  C   UNL A   1      38.297  29.399  30.194  1.00  0.00     0.016 A 
ATOM     39  C   UNL A   1      39.479  29.358  27.643  1.00  0.00     0.010 A 
ATOM     40  C   UNL A   1      39.642  29.050  30.038  1.00  0.00     0.010 A 
ATOM     41  C   UNL A   1      40.242  29.027  28.764  1.00  0.00    -0.014 A 
BRANCH  41  42
ATOM     42  C   UNL A   1      41.651  28.604  28.609  1.00  0.00     0.031 A 
ATOM     43  C   UNL A   1      42.732  29.641  28.660  1.00  0.00     0.074 A 
ATOM     44  C   UNL A   1      41.959  27.307  28.411  1.00  0.00     0.049 A 
ATOM     45  N   UNL A   1      43.981  29.547  28.298  1.00  0.00    -0.248 NA
ATOM     46  C   UNL A   1      42.353  30.962  29.191  1.00  0.00     0.031 C 
ATOM     47  C   UNL A   1      41.005  26.196  28.446  1.00  0.00     0.029 A 
ATOM     48  N   UNL A   1      43.159  26.708  28.117  1.00  0.00    -0.354 N 
ATOM     49  C   UNL A   1      44.531  30.803  28.514  1.00  0.00     0.074 A 
ATOM     50  C   UNL A   1      43.484  31.642  29.054  1.00  0.00     0.031 C 
ATOM     51  C   UNL A   1      41.652  25.056  28.153  1.00  0.00     0.029 A 
ATOM     52  C   UNL A   1      43.043  25.365  27.835  1.00  0.00     0.049 A 
ATOM     53  H   UNL A   1      44.016  27.191  28.108  1.00  0.00     0.167 HD
ATOM     54  C   UNL A   1      45.797  31.211  28.267  1.00  0.00     0.037 A 
ATOM     55  C   UNL A   1      43.937  24.502  27.311  1.00  0.00     0.037 A 
ATOM     56  C   UNL A   1      46.832  30.350  27.763  1.00  0.00     0.049 A 
ATOM     57  C   UNL A   1      45.310  25.004  26.948  1.00  0.00     0.074 A 
ATOM     58  C   UNL A   1      48.153  30.662  27.499  1.00  0.00     0.029 A 
ATOM     59  N   UNL A   1      46.663  29.010  27.450  1.00  0.00    -0.354 N 
ATOM     60  N   UNL A   1      45.816  26.205  27.113  1.00  0.00    -0.248 NA
ATOM     61  C   UNL A   1      46.225  24.052  26.303  1.00  0.00     0.031 C 
ATOM     62  C   UNL A   1      48.772  29.523  26.979  1.00  0.00     0.029 A 
ATOM     63  C   UNL A   1      47.849  28.489  26.961  1.00  0.00     0.049 A 
ATOM     64  H   UNL A   1      45.826  28.504  27.559  1.00  0.00     0.167 HD
ATOM     65  C   UNL A   1      47.105  26.148  26.595  1.00  0.00     0.074 A 
ATOM     66  C   UNL A   1      47.312  24.794  26.130  1.00  0.00     0.031 C 
ATOM     67  C   UNL A   1      48.032  27.134  26.507  1.00  0.00     0.037 A 
BRANCH  54  68
ATOM     68  C   UNL A   1      46.141  32.652  28.500  1.00  0.00     0.058 A 
ATOM     69  C   UNL A   1      46.043  33.574  27.444  1.00  0.00     0.135 A 
ATOM     70  C   UNL A   1      46.670  33.100  29.718  1.00  0.00     0.135 A 
ATOM     71  F   UNL A   1      45.529  33.197  26.264  1.00  0.00    -0.206 F 
ATOM     72  C   UNL A   1      46.494  34.881  27.578  1.00  0.00     0.059 A 
ATOM     73  C   UNL A   1      47.112  34.411  29.880  1.00  0.00     0.059 A 
ATOM     74  F   UNL A   1      46.759  32.264  30.765  1.00  0.00    -0.206 F 
ATOM     75  C   UNL A   1      47.039  35.287  28.797  1.00  0.00     0.060 A 
BRANCH  75  76
ATOM     76  S   UNL A   1      47.644  36.982  28.943  1.00  0.00     0.124 S 
ATOM     77  O   UNL A   1      49.052  36.772  29.265  1.00  0.00    -0.237 OA
ATOM     78  O   UNL A   1      47.368  37.521  27.615  1.00  0.00    -0.237 OA
ATOM     79  O   UNL A   1      46.829  37.540  30.019  1.00  0.00    -0.744 OA
ENDBRANCH  75  76
ENDBRANCH  54  68
BRANCH  55  80
ATOM     80  C   UNL A   1      43.531  23.103  27.007  1.00  0.00     0.058 A 
ATOM     81  C   UNL A   1      43.332  22.168  28.036  1.00  0.00     0.135 A 
ATOM     82  C   UNL A   1      43.333  22.670  25.687  1.00  0.00     0.135 A 
ATOM     83  F   UNL A   1      43.505  22.528  29.317  1.00  0.00    -0.206 F 
ATOM     84  C   UNL A   1      42.977  20.851  27.768  1.00  0.00     0.059 A 
ATOM     85  C   UNL A   1      42.950  21.363  25.396  1.00  0.00     0.059 A 
ATOM     86  F   UNL A   1      43.487  23.532  24.671  1.00  0.00    -0.206 F 
ATOM     87  C   UNL A   1      42.790  20.457  26.444  1.00  0.00     0.060 A 
BRANCH  87  88
ATOM     88  S   UNL A   1      42.308  18.747  26.119  1.00  0.00     0.124 S 
ATOM     89  O   UNL A   1      40.912  18.905  25.726  1.00  0.00    -0.237 OA
ATOM     90  O   UNL A   1      43.228  18.365  25.051  1.00  0.00    -0.237 OA
ATOM     91  O   UNL A   1      42.531  18.083  27.399  1.00  0.00    -0.744 OA
ENDBRANCH  87  88
ENDBRANCH  55  80
BRANCH  67  92
ATOM     92  C   UNL A   1      49.358  26.801  25.888  1.00  0.00     0.058 A 
ATOM     93  C   UNL A   1      50.436  26.388  26.687  1.00  0.00     0.135 A 
ATOM     94  C   UNL A   1      49.596  27.019  24.521  1.00  0.00     0.135 A 
ATOM     95  F   UNL A   1      50.260  26.172  28.000  1.00  0.00    -0.206 F 
ATOM     96  C   UNL A   1      51.714  26.242  26.161  1.00  0.00     0.059 A 
ATOM     97  C   UNL A   1      50.862  26.856  23.969  1.00  0.00     0.059 A 
ATOM     98  F   UNL A   1      48.593  27.401  23.716  1.00  0.00    -0.206 F 
ATOM     99  C   UNL A   1      51.920  26.492  24.802  1.00  0.00     0.060 A 
BRANCH  99 100
ATOM    100  S   UNL A   1      53.594  26.338  24.146  1.00  0.00     0.124 S 
ATOM    101  O   UNL A   1      54.325  27.304  24.960  1.00  0.00    -0.237 OA
ATOM    102  O   UNL A   1      53.897  24.934  24.401  1.00  0.00    -0.237 OA
ATOM    103  O   UNL A   1      53.440  26.694  22.738  1.00  0.00    -0.744 OA
ENDBRANCH  99 100
ENDBRANCH  67  92
ENDBRANCH  41  42
ENDBRANCH  34  36
ENDBRANCH  33  34
ENDBRANCH  32  33
ENDBRANCH  31  32
ENDBRANCH  30  31
ENDBRANCH  29  30
ENDBRANCH   1  29
TORSDOF 25
ENDMDL
MODEL 3
REMARK VINA RESULT:      -9.1      6.735      8.553
REMARK SMILES CCOc1cc(F)ccc1NC(=O)CC1(C(=O)OCCOCCOCCOC(=O)c2ccc(-c3c4nc(c(-c5c(F)cc(S(=O)(=O)[O-])cc5F)c5ccc([nH]5)c(-c5c(F)cc(S(=O)(=O)[O-])cc5F)c5nc(c(-c6c(F)cc(S(=O)(=O)[O-])cc6F)c6ccc3[nH]6)C=C5)C=C4)cc2)CCCCC1
REMARK SMILES IDX 22 1 21 2 20 3 19 4 18 5 16 6 17 7 15 8 96 9 100 10 97 11
REMARK SMILES IDX 99 12 98 13 14 14 12 15 11 16 13 18 10 19 4 20 5 21 6 22
REMARK SMILES IDX 9 23 7 24 8 25 3 26 2 27 1 28 23 29 24 30 25 31 26 32 27 33
REMARK SMILES IDX 28 34 29 35 30 36 31 37 95 38 32 39 94 40 33 41 34 42 35 43
REMARK SMILES IDX 88 44 36 45 93 46 87 47 89 48 37 49 92 50 86 51 85 52 38 54
REMARK SMILES IDX 72 55 51 56 71 57 52 58 55 59 70 60 90 61 53 62 54 63 69 65
REMARK SMILES IDX 91 66 56 67 39 68 40 69 49 70 41 71 42 72 48 73 50 74 43 75
REMARK SMILES IDX 44 76 45 77 46 78 47 79 73 80 74 81 83 82 75 83 76 84 82 85
REMARK SMILES IDX 84 86 77 87 78 88 79 89 80 90 81 91 57 92 58 93 67 94 59 95
REMARK SMILES IDX 60 96 66 97 68 98 61 99 62 100 63 101 64 102 65 103
REMARK H PARENT 11 17 89 53 55 64
REMARK Flexibility Score: inf
ROOT
ATOM      1  C   UNL A   1      41.542  21.448  26.937  1.00  0.00     0.188 C 
ENDROOT
BRANCH   1   2
ATOM      2  O   UNL A   1      40.780  20.331  26.497  1.00  0.00    -0.376 OA
BRANCH   2   3
ATOM      3  C   UNL A   1      39.539  20.553  25.837  1.00  0.00     0.202 C 
BRANCH   3   4
ATOM      4  C   UNL A   1      38.892  21.923  26.052  1.00  0.00     0.261 C 
BRANCH   4   5
ATOM      5  O   UNL A   1      37.589  22.053  25.435  1.00  0.00    -0.463 OA
BRANCH   5   6
ATOM      6  C   UNL A   1      36.811  23.076  25.877  1.00  0.00     0.312 C 
ATOM      7  O   UNL A   1      37.258  24.063  26.450  1.00  0.00    -0.252 OA
BRANCH   6   8
ATOM      8  C   UNL A   1      35.292  22.875  25.643  1.00  0.00     0.077 C 
ATOM      9  C   UNL A   1      35.167  22.223  24.243  1.00  0.00     0.019 C 
ATOM     10  C   UNL A   1      34.432  24.161  25.700  1.00  0.00     0.019 C 
ATOM     11  C   UNL A   1      35.358  23.221  23.098  1.00  0.00     0.001 C 
ATOM     12  C   UNL A   1      34.522  25.105  24.506  1.00  0.00     0.001 C 
ATOM     13  C   UNL A   1      34.354  24.361  23.195  1.00  0.00     0.000 C 
BRANCH   8  14
ATOM     14  C   UNL A   1      34.854  21.865  26.761  1.00  0.00     0.119 C 
BRANCH  14  15
ATOM     15  C   UNL A   1      33.371  21.788  27.106  1.00  0.00     0.225 C 
ATOM     16  N   UNL A   1      32.381  21.357  26.273  1.00  0.00    -0.323 N 
ATOM     17  H   UNL A   1      31.495  21.421  26.698  1.00  0.00     0.170 HD
ATOM     18  O   UNL A   1      33.015  22.117  28.247  1.00  0.00    -0.275 OA
BRANCH  16  19
ATOM     19  C   UNL A   1      32.295  20.844  24.964  1.00  0.00     0.084 A 
ATOM     20  C   UNL A   1      32.606  19.483  24.755  1.00  0.00     0.145 A 
ATOM     21  C   UNL A   1      32.534  18.903  23.484  1.00  0.00     0.087 A 
ATOM     22  C   UNL A   1      32.259  19.697  22.392  1.00  0.00     0.127 A 
ATOM     23  C   UNL A   1      31.950  21.593  23.851  1.00  0.00     0.033 A 
ATOM     24  F   UNL A   1      32.275  19.176  21.160  1.00  0.00    -0.207 F 
ATOM     25  C   UNL A   1      31.969  21.032  22.571  1.00  0.00     0.041 A 
BRANCH  20  26
ATOM     26  O   UNL A   1      32.941  18.681  25.819  1.00  0.00    -0.492 OA
BRANCH  26  27
ATOM     27  C   UNL A   1      32.440  17.341  25.674  1.00  0.00     0.226 C 
ATOM     28  C   UNL A   1      33.531  16.275  25.669  1.00  0.00     0.049 C 
ENDBRANCH  26  27
ENDBRANCH  20  26
ENDBRANCH  16  19
ENDBRANCH  14  15
ENDBRANCH   8  14
ENDBRANCH   6   8
ENDBRANCH   5   6
ENDBRANCH   4   5
ENDBRANCH   3   4
ENDBRANCH   2   3
ENDBRANCH   1   2
BRANCH   1  29
ATOM     29  C   UNL A   1      42.991  21.550  26.459  1.00  0.00     0.188 C 
BRANCH  29  30
ATOM     30  O   UNL A   1      43.096  21.841  25.073  1.00  0.00    -0.376 OA
BRANCH  30  31
ATOM     31  C   UNL A   1      43.733  23.070  24.753  1.00  0.00     0.202 C 
BRANCH  31  32
ATOM     32  C   UNL A   1      44.435  23.659  25.978  1.00  0.00     0.261 C 
BRANCH  32  33
ATOM     33  O   UNL A   1      45.872  23.557  25.910  1.00  0.00    -0.460 OA
BRANCH  33  34
ATOM     34  C   UNL A   1      46.501  24.451  25.120  1.00  0.00     0.338 C 
ATOM     35  O   UNL A   1      46.933  24.252  23.988  1.00  0.00    -0.246 OA
BRANCH  34  36
ATOM     36  C   UNL A   1      46.438  25.771  25.767  1.00  0.00     0.060 A 
ATOM     37  C   UNL A   1      47.011  25.937  27.031  1.00  0.00     0.016 A 
ATOM     38  C   UNL A   1      45.808  26.844  25.144  1.00  0.00     0.016 A 
ATOM     39  C   UNL A   1      46.970  27.165  27.684  1.00  0.00     0.010 A 
ATOM     40  C   UNL A   1      45.768  28.081  25.794  1.00  0.00     0.010 A 
ATOM     41  C   UNL A   1      46.348  28.250  27.066  1.00  0.00    -0.014 A 
BRANCH  41  42
ATOM     42  C   UNL A   1      46.251  29.551  27.765  1.00  0.00     0.031 A 
ATOM     43  C   UNL A   1      45.061  29.821  28.636  1.00  0.00     0.074 A 
ATOM     44  C   UNL A   1      47.210  30.484  27.611  1.00  0.00     0.049 A 
ATOM     45  N   UNL A   1      44.641  30.954  29.126  1.00  0.00    -0.248 NA
ATOM     46  C   UNL A   1      44.237  28.657  29.005  1.00  0.00     0.031 C 
ATOM     47  C   UNL A   1      48.462  30.298  26.874  1.00  0.00     0.029 A 
ATOM     48  N   UNL A   1      47.269  31.786  28.045  1.00  0.00    -0.354 N 
ATOM     49  C   UNL A   1      43.478  30.653  29.825  1.00  0.00     0.074 A 
ATOM     50  C   UNL A   1      43.267  29.227  29.710  1.00  0.00     0.031 C 
ATOM     51  C   UNL A   1      49.150  31.453  26.882  1.00  0.00     0.029 A 
ATOM     52  C   UNL A   1      48.354  32.476  27.556  1.00  0.00     0.049 A 
ATOM     53  H   UNL A   1      46.600  32.185  28.648  1.00  0.00     0.167 HD
ATOM     54  C   UNL A   1      42.663  31.503  30.489  1.00  0.00     0.037 A 
ATOM     55  C   UNL A   1      48.637  33.795  27.583  1.00  0.00     0.037 A 
ATOM     56  C   UNL A   1      42.912  32.913  30.620  1.00  0.00     0.049 A 
ATOM     57  C   UNL A   1      47.662  34.736  28.239  1.00  0.00     0.074 A 
ATOM     58  C   UNL A   1      42.157  33.858  31.290  1.00  0.00     0.029 A 
ATOM     59  N   UNL A   1      43.998  33.579  30.073  1.00  0.00    -0.354 N 
ATOM     60  N   UNL A   1      46.541  34.455  28.863  1.00  0.00    -0.248 NA
ATOM     61  C   UNL A   1      47.967  36.173  28.173  1.00  0.00     0.031 C 
ATOM     62  C   UNL A   1      42.760  35.105  31.108  1.00  0.00     0.029 A 
ATOM     63  C   UNL A   1      43.915  34.931  30.362  1.00  0.00     0.049 A 
ATOM     64  H   UNL A   1      44.721  33.156  29.556  1.00  0.00     0.167 HD
ATOM     65  C   UNL A   1      46.012  35.677  29.264  1.00  0.00     0.074 A 
ATOM     66  C   UNL A   1      46.942  36.699  28.832  1.00  0.00     0.031 C 
ATOM     67  C   UNL A   1      44.856  35.930  29.924  1.00  0.00     0.037 A 
BRANCH  54  68
ATOM     68  C   UNL A   1      41.407  30.958  31.099  1.00  0.00     0.058 A 
ATOM     69  C   UNL A   1      41.457  30.323  32.352  1.00  0.00     0.135 A 
ATOM     70  C   UNL A   1      40.187  30.958  30.410  1.00  0.00     0.135 A 
ATOM     71  F   UNL A   1      42.597  30.309  33.058  1.00  0.00    -0.206 F 
ATOM     72  C   UNL A   1      40.348  29.675  32.882  1.00  0.00     0.059 A 
ATOM     73  C   UNL A   1      39.057  30.330  30.930  1.00  0.00     0.059 A 
ATOM     74  F   UNL A   1      40.082  31.575  29.222  1.00  0.00    -0.206 F 
ATOM     75  C   UNL A   1      39.155  29.673  32.157  1.00  0.00     0.060 A 
BRANCH  75  76
ATOM     76  S   UNL A   1      37.732  28.803  32.849  1.00  0.00     0.124 S 
ATOM     77  O   UNL A   1      36.684  29.130  31.887  1.00  0.00    -0.237 OA
ATOM     78  O   UNL A   1      38.190  27.416  32.845  1.00  0.00    -0.237 OA
ATOM     79  O   UNL A   1      37.581  29.401  34.172  1.00  0.00    -0.744 OA
ENDBRANCH  75  76
ENDBRANCH  54  68
BRANCH  55  80
ATOM     80  C   UNL A   1      49.846  34.311  26.885  1.00  0.00     0.058 A 
ATOM     81  C   UNL A   1      51.093  34.350  27.531  1.00  0.00     0.135 A 
ATOM     82  C   UNL A   1      49.784  34.776  25.563  1.00  0.00     0.135 A 
ATOM     83  F   UNL A   1      51.210  33.915  28.795  1.00  0.00    -0.206 F 
ATOM     84  C   UNL A   1      52.226  34.853  26.903  1.00  0.00     0.059 A 
ATOM     85  C   UNL A   1      50.912  35.258  24.903  1.00  0.00     0.059 A 
ATOM     86  F   UNL A   1      48.621  34.738  24.895  1.00  0.00    -0.206 F 
ATOM     87  C   UNL A   1      52.126  35.306  25.588  1.00  0.00     0.060 A 
BRANCH  87  88
ATOM     88  S   UNL A   1      53.615  35.936  24.782  1.00  0.00     0.124 S 
ATOM     89  O   UNL A   1      54.503  36.134  25.922  1.00  0.00    -0.237 OA
ATOM     90  O   UNL A   1      53.968  34.837  23.887  1.00  0.00    -0.237 OA
ATOM     91  O   UNL A   1      53.153  37.153  24.123  1.00  0.00    -0.744 OA
ENDBRANCH  87  88
ENDBRANCH  55  80
BRANCH  67  92
ATOM     92  C   UNL A   1      44.516  37.360  30.229  1.00  0.00     0.058 A 
ATOM     93  C   UNL A   1      43.796  38.135  29.307  1.00  0.00     0.135 A 
ATOM     94  C   UNL A   1      45.020  37.996  31.375  1.00  0.00     0.135 A 
ATOM     95  F   UNL A   1      43.298  37.573  28.193  1.00  0.00    -0.206 F 
ATOM     96  C   UNL A   1      43.620  39.502  29.490  1.00  0.00     0.059 A 
ATOM     97  C   UNL A   1      44.836  39.358  31.589  1.00  0.00     0.059 A 
ATOM     98  F   UNL A   1      45.703  37.292  32.290  1.00  0.00    -0.206 F 
ATOM     99  C   UNL A   1      44.157  40.107  30.629  1.00  0.00     0.060 A 
BRANCH  99 100
ATOM    100  S   UNL A   1      43.956  41.890  30.828  1.00  0.00     0.124 S 
ATOM    101  O   UNL A   1      45.094  42.227  31.676  1.00  0.00    -0.237 OA
ATOM    102  O   UNL A   1      44.028  42.363  29.450  1.00  0.00    -0.237 OA
ATOM    103  O   UNL A   1      42.644  42.014  31.458  1.00  0.00    -0.744 OA
ENDBRANCH  99 100
ENDBRANCH  67  92
ENDBRANCH  41  42
ENDBRANCH  34  36
ENDBRANCH  33  34
ENDBRANCH  32  33
ENDBRANCH  31  32
ENDBRANCH  30  31
ENDBRANCH  29  30
ENDBRANCH   1  29
TORSDOF 25
ENDMDL
