MODEL 1
REMARK VINA RESULT:     -10.1      0.000      0.000
REMARK SMILES Cc1cc(C)c2c(OCCCC(=O)OCCOCCOCCOC(=O)c3ccc(-c4c5nc(c(-c6c(F)cc(S(=O)(=O)[O-])cc6F)c6ccc([nH]6)c(-c6c(F)cc(S(=O)(=O)[O-])cc6F)c6nc(c(-c7c(F)cc(S(=O)(=O)[O-])cc7F)c7ccc4[nH]7)C=C6)C=C5)cc3)nsc2n1
REMARK SMILES IDX 18 1 17 2 16 3 15 4 14 5 12 6 13 7 11 8 10 9 9 10 8 11 7 12
REMARK SMILES IDX 1 13 2 14 3 15 95 16 4 17 94 18 5 19 6 20 93 21 92 22 19 23
REMARK SMILES IDX 20 24 21 25 22 26 23 27 24 28 25 29 26 30 27 31 91 32 28 33
REMARK SMILES IDX 90 34 29 35 30 36 31 37 84 38 32 39 89 40 83 41 85 42 33 43
REMARK SMILES IDX 88 44 82 45 81 46 34 48 68 49 47 50 67 51 48 52 51 53 66 54
REMARK SMILES IDX 86 55 49 56 50 57 65 59 87 60 52 61 35 62 36 63 45 64 37 65
REMARK SMILES IDX 38 66 44 67 46 68 39 69 40 70 41 71 42 72 43 73 69 74 70 75
REMARK SMILES IDX 79 76 71 77 72 78 78 79 80 80 73 81 74 82 75 83 76 84 77 85
REMARK SMILES IDX 53 86 54 87 63 88 55 89 56 90 62 91 64 92 57 93 58 94 59 95
REMARK SMILES IDX 60 96 61 97
REMARK H PARENT 85 47 51 58
REMARK Flexibility Score: inf
ROOT
ATOM      1  C   UNL A   1      41.843  19.510  26.293  1.00  0.00     0.188 C 
ENDROOT
BRANCH   1   2
ATOM      2  O   UNL A   1      41.809  20.495  27.310  1.00  0.00    -0.376 OA
BRANCH   2   3
ATOM      3  C   UNL A   1      40.751  21.440  27.218  1.00  0.00     0.202 C 
BRANCH   3   4
ATOM      4  C   UNL A   1      39.749  21.312  26.057  1.00  0.00     0.261 C 
BRANCH   4   5
ATOM      5  O   UNL A   1      38.524  22.111  26.147  1.00  0.00    -0.463 OA
BRANCH   5   6
ATOM      6  C   UNL A   1      37.493  21.798  25.324  1.00  0.00     0.305 C 
ATOM      7  O   UNL A   1      37.307  20.651  24.919  1.00  0.00    -0.252 OA
BRANCH   6   8
ATOM      8  C   UNL A   1      36.580  22.936  24.833  1.00  0.00     0.126 C 
BRANCH   8   9
ATOM      9  C   UNL A   1      35.667  23.899  25.613  1.00  0.00     0.053 C 
BRANCH   9  10
ATOM     10  C   UNL A   1      34.741  24.971  25.005  1.00  0.00     0.232 C 
BRANCH  10  11
ATOM     11  O   UNL A   1      33.332  24.806  24.862  1.00  0.00    -0.477 OA
BRANCH  11  12
ATOM     12  C   UNL A   1      32.736  25.277  23.749  1.00  0.00     0.235 A 
ATOM     13  C   UNL A   1      29.223  29.333  22.621  1.00  0.00     0.067 C 
ATOM     14  C   UNL A   1      29.822  27.965  22.802  1.00  0.00     0.039 A 
ATOM     15  C   UNL A   1      29.478  27.202  23.912  1.00  0.00     0.027 A 
ATOM     16  N   UNL A   1      30.754  27.586  21.913  1.00  0.00    -0.240 NA
ATOM     17  C   UNL A   1      30.313  26.159  24.363  1.00  0.00    -0.034 A 
ATOM     18  C   UNL A   1      31.522  26.571  22.341  1.00  0.00     0.147 A 
ATOM     19  C   UNL A   1      30.013  25.479  25.672  1.00  0.00     0.045 C 
ATOM     20  C   UNL A   1      31.467  25.926  23.577  1.00  0.00     0.078 A 
ATOM     21  S   UNL A   1      32.799  25.932  21.416  1.00  0.00    -0.012 S 
ATOM     22  N   UNL A   1      33.475  25.070  22.659  1.00  0.00    -0.153 NA
ENDBRANCH  11  12
ENDBRANCH  10  11
ENDBRANCH   9  10
ENDBRANCH   8   9
ENDBRANCH   6   8
ENDBRANCH   5   6
ENDBRANCH   4   5
ENDBRANCH   3   4
ENDBRANCH   2   3
ENDBRANCH   1   2
BRANCH   1  23
ATOM     23  C   UNL A   1      42.800  18.317  26.506  1.00  0.00     0.188 C 
BRANCH  23  24
ATOM     24  O   UNL A   1      43.927  18.235  25.651  1.00  0.00    -0.376 OA
BRANCH  24  25
ATOM     25  C   UNL A   1      44.274  19.210  24.675  1.00  0.00     0.202 C 
BRANCH  25  26
ATOM     26  C   UNL A   1      45.210  20.401  24.887  1.00  0.00     0.261 C 
BRANCH  26  27
ATOM     27  O   UNL A   1      44.724  21.373  25.767  1.00  0.00    -0.460 OA
BRANCH  27  28
ATOM     28  C   UNL A   1      44.028  22.366  25.196  1.00  0.00     0.338 C 
ATOM     29  O   UNL A   1      43.045  22.270  24.470  1.00  0.00    -0.246 OA
BRANCH  28  30
ATOM     30  C   UNL A   1      44.596  23.610  25.708  1.00  0.00     0.060 A 
ATOM     31  C   UNL A   1      45.096  23.619  27.009  1.00  0.00     0.016 A 
ATOM     32  C   UNL A   1      44.467  24.777  24.936  1.00  0.00     0.016 A 
ATOM     33  C   UNL A   1      45.094  24.821  27.661  1.00  0.00     0.010 A 
ATOM     34  C   UNL A   1      44.475  25.971  25.579  1.00  0.00     0.010 A 
ATOM     35  C   UNL A   1      44.612  25.926  26.957  1.00  0.00    -0.014 A 
BRANCH  35  36
ATOM     36  C   UNL A   1      44.096  27.041  27.699  1.00  0.00     0.031 A 
ATOM     37  C   UNL A   1      45.019  28.179  27.661  1.00  0.00     0.074 A 
ATOM     38  C   UNL A   1      42.865  26.973  28.244  1.00  0.00     0.049 A 
ATOM     39  N   UNL A   1      45.846  28.532  28.585  1.00  0.00    -0.248 NA
ATOM     40  C   UNL A   1      45.258  28.816  26.355  1.00  0.00     0.031 C 
ATOM     41  C   UNL A   1      41.835  25.937  28.074  1.00  0.00     0.029 A 
ATOM     42  N   UNL A   1      42.238  27.887  29.024  1.00  0.00    -0.354 N 
ATOM     43  C   UNL A   1      46.491  29.639  28.058  1.00  0.00     0.074 A 
ATOM     44  C   UNL A   1      46.321  29.571  26.632  1.00  0.00     0.031 C 
ATOM     45  C   UNL A   1      40.650  26.394  28.546  1.00  0.00     0.029 A 
ATOM     46  C   UNL A   1      40.866  27.683  29.176  1.00  0.00     0.049 A 
ATOM     47  H   UNL A   1      42.714  28.636  29.451  1.00  0.00     0.167 HD
ATOM     48  C   UNL A   1      46.780  30.706  28.848  1.00  0.00     0.037 A 
ATOM     49  C   UNL A   1      40.006  28.583  29.726  1.00  0.00     0.037 A 
ATOM     50  C   UNL A   1      46.718  30.355  30.245  1.00  0.00     0.049 A 
ATOM     51  C   UNL A   1      40.848  29.507  30.540  1.00  0.00     0.074 A 
ATOM     52  C   UNL A   1      47.398  29.456  31.044  1.00  0.00     0.029 A 
ATOM     53  N   UNL A   1      45.556  30.658  30.912  1.00  0.00    -0.354 N 
ATOM     54  N   UNL A   1      41.508  29.137  31.606  1.00  0.00    -0.248 NA
ATOM     55  C   UNL A   1      41.346  30.709  29.888  1.00  0.00     0.031 C 
ATOM     56  C   UNL A   1      46.423  28.941  31.948  1.00  0.00     0.029 A 
ATOM     57  C   UNL A   1      45.213  29.595  31.712  1.00  0.00     0.049 A 
ATOM     58  H   UNL A   1      45.051  31.500  30.830  1.00  0.00     0.167 HD
ATOM     59  C   UNL A   1      42.728  29.795  31.521  1.00  0.00     0.074 A 
ATOM     60  C   UNL A   1      42.541  30.803  30.479  1.00  0.00     0.031 C 
ATOM     61  C   UNL A   1      43.852  29.265  32.089  1.00  0.00     0.037 A 
BRANCH  48  62
ATOM     62  C   UNL A   1      46.712  32.120  28.341  1.00  0.00     0.058 A 
ATOM     63  C   UNL A   1      47.849  32.939  28.419  1.00  0.00     0.135 A 
ATOM     64  C   UNL A   1      45.509  32.774  27.980  1.00  0.00     0.135 A 
ATOM     65  F   UNL A   1      49.030  32.427  28.802  1.00  0.00    -0.206 F 
ATOM     66  C   UNL A   1      47.794  34.308  28.160  1.00  0.00     0.059 A 
ATOM     67  C   UNL A   1      45.444  34.118  27.651  1.00  0.00     0.059 A 
ATOM     68  F   UNL A   1      44.318  32.164  28.022  1.00  0.00    -0.206 F 
ATOM     69  C   UNL A   1      46.587  34.886  27.770  1.00  0.00     0.060 A 
BRANCH  69  70
ATOM     70  S   UNL A   1      46.503  36.658  27.474  1.00  0.00     0.124 S 
ATOM     71  O   UNL A   1      47.179  37.183  28.654  1.00  0.00    -0.237 OA
ATOM     72  O   UNL A   1      47.225  36.783  26.211  1.00  0.00    -0.237 OA
ATOM     73  O   UNL A   1      45.068  36.919  27.396  1.00  0.00    -0.744 OA
ENDBRANCH  69  70
ENDBRANCH  48  62
BRANCH  49  74
ATOM     74  C   UNL A   1      38.641  28.970  29.268  1.00  0.00     0.058 A 
ATOM     75  C   UNL A   1      37.607  29.173  30.204  1.00  0.00     0.135 A 
ATOM     76  C   UNL A   1      38.405  29.468  27.972  1.00  0.00     0.135 A 
ATOM     77  F   UNL A   1      37.746  28.736  31.466  1.00  0.00    -0.206 F 
ATOM     78  C   UNL A   1      36.451  29.900  29.899  1.00  0.00     0.059 A 
ATOM     79  C   UNL A   1      37.257  30.190  27.643  1.00  0.00     0.059 A 
ATOM     80  F   UNL A   1      39.331  29.354  27.008  1.00  0.00    -0.206 F 
ATOM     81  C   UNL A   1      36.301  30.434  28.621  1.00  0.00     0.060 A 
BRANCH  81  82
ATOM     82  S   UNL A   1      34.916  31.552  28.286  1.00  0.00     0.124 S 
ATOM     83  O   UNL A   1      35.549  32.584  27.473  1.00  0.00    -0.237 OA
ATOM     84  O   UNL A   1      33.978  30.677  27.590  1.00  0.00    -0.237 OA
ATOM     85  O   UNL A   1      34.495  31.977  29.618  1.00  0.00    -0.744 OA
ENDBRANCH  81  82
ENDBRANCH  49  74
BRANCH  61  86
ATOM     86  C   UNL A   1      43.673  28.118  33.059  1.00  0.00     0.058 A 
ATOM     87  C   UNL A   1      43.739  26.754  32.717  1.00  0.00     0.135 A 
ATOM     88  C   UNL A   1      43.570  28.426  34.424  1.00  0.00     0.135 A 
ATOM     89  F   UNL A   1      43.929  26.373  31.445  1.00  0.00    -0.206 F 
ATOM     90  C   UNL A   1      43.672  25.745  33.685  1.00  0.00     0.059 A 
ATOM     91  C   UNL A   1      43.532  27.441  35.406  1.00  0.00     0.059 A 
ATOM     92  F   UNL A   1      43.558  29.709  34.821  1.00  0.00    -0.206 F 
ATOM     93  C   UNL A   1      43.572  26.101  35.030  1.00  0.00     0.060 A 
BRANCH  93  94
ATOM     94  S   UNL A   1      43.549  24.805  36.291  1.00  0.00     0.124 S 
ATOM     95  O   UNL A   1      42.261  24.164  36.051  1.00  0.00    -0.237 OA
ATOM     96  O   UNL A   1      44.727  24.013  35.951  1.00  0.00    -0.237 OA
ATOM     97  O   UNL A   1      43.650  25.548  37.546  1.00  0.00    -0.744 OA
ENDBRANCH  93  94
ENDBRANCH  61  86
ENDBRANCH  35  36
ENDBRANCH  28  30
ENDBRANCH  27  28
ENDBRANCH  26  27
ENDBRANCH  25  26
ENDBRANCH  24  25
ENDBRANCH  23  24
ENDBRANCH   1  23
TORSDOF 24
ENDMDL
MODEL 2
REMARK VINA RESULT:     -10.0      2.315      3.992
REMARK SMILES Cc1cc(C)c2c(OCCCC(=O)OCCOCCOCCOC(=O)c3ccc(-c4c5nc(c(-c6c(F)cc(S(=O)(=O)[O-])cc6F)c6ccc([nH]6)c(-c6c(F)cc(S(=O)(=O)[O-])cc6F)c6nc(c(-c7c(F)cc(S(=O)(=O)[O-])cc7F)c7ccc4[nH]7)C=C6)C=C5)cc3)nsc2n1
REMARK SMILES IDX 18 1 17 2 16 3 15 4 14 5 12 6 13 7 11 8 10 9 9 10 8 11 7 12
REMARK SMILES IDX 1 13 2 14 3 15 95 16 4 17 94 18 5 19 6 20 93 21 92 22 19 23
REMARK SMILES IDX 20 24 21 25 22 26 23 27 24 28 25 29 26 30 27 31 91 32 28 33
REMARK SMILES IDX 90 34 29 35 30 36 31 37 84 38 32 39 89 40 83 41 85 42 33 43
REMARK SMILES IDX 88 44 82 45 81 46 34 48 68 49 47 50 67 51 48 52 51 53 66 54
REMARK SMILES IDX 86 55 49 56 50 57 65 59 87 60 52 61 35 62 36 63 45 64 37 65
REMARK SMILES IDX 38 66 44 67 46 68 39 69 40 70 41 71 42 72 43 73 69 74 70 75
REMARK SMILES IDX 79 76 71 77 72 78 78 79 80 80 73 81 74 82 75 83 76 84 77 85
REMARK SMILES IDX 53 86 54 87 63 88 55 89 56 90 62 91 64 92 57 93 58 94 59 95
REMARK SMILES IDX 60 96 61 97
REMARK H PARENT 85 47 51 58
REMARK Flexibility Score: inf
ROOT
ATOM      1  C   UNL A   1      36.201  22.829  23.697  1.00  0.00     0.188 C 
ENDROOT
BRANCH   1   2
ATOM      2  O   UNL A   1      35.214  23.633  23.075  1.00  0.00    -0.376 OA
BRANCH   2   3
ATOM      3  C   UNL A   1      34.022  22.960  22.692  1.00  0.00     0.202 C 
BRANCH   3   4
ATOM      4  C   UNL A   1      32.698  23.743  22.705  1.00  0.00     0.261 C 
BRANCH   4   5
ATOM      5  O   UNL A   1      32.788  25.197  22.861  1.00  0.00    -0.463 OA
BRANCH   5   6
ATOM      6  C   UNL A   1      32.549  25.974  21.777  1.00  0.00     0.305 C 
ATOM      7  O   UNL A   1      33.296  25.978  20.799  1.00  0.00    -0.252 OA
BRANCH   6   8
ATOM      8  C   UNL A   1      31.343  26.930  21.815  1.00  0.00     0.126 C 
BRANCH   8   9
ATOM      9  C   UNL A   1      31.240  28.400  22.260  1.00  0.00     0.053 C 
BRANCH   9  10
ATOM     10  C   UNL A   1      30.887  28.902  23.674  1.00  0.00     0.232 C 
BRANCH  10  11
ATOM     11  O   UNL A   1      30.503  28.040  24.743  1.00  0.00    -0.477 OA
BRANCH  11  12
ATOM     12  C   UNL A   1      31.461  27.357  25.399  1.00  0.00     0.235 A 
ATOM     13  C   UNL A   1      32.722  22.062  26.064  1.00  0.00     0.067 C 
ATOM     14  C   UNL A   1      32.289  23.477  26.335  1.00  0.00     0.039 A 
ATOM     15  C   UNL A   1      30.939  23.768  26.492  1.00  0.00     0.027 A 
ATOM     16  N   UNL A   1      33.244  24.420  26.311  1.00  0.00    -0.240 NA
ATOM     17  C   UNL A   1      30.451  25.076  26.295  1.00  0.00    -0.034 A 
ATOM     18  C   UNL A   1      32.764  25.666  26.155  1.00  0.00     0.147 A 
ATOM     19  C   UNL A   1      28.966  25.321  26.284  1.00  0.00     0.045 C 
ATOM     20  C   UNL A   1      31.433  26.049  25.989  1.00  0.00     0.078 A 
ATOM     21  S   UNL A   1      33.772  27.033  26.055  1.00  0.00    -0.012 S 
ATOM     22  N   UNL A   1      32.591  28.056  25.504  1.00  0.00    -0.153 NA
ENDBRANCH  11  12
ENDBRANCH  10  11
ENDBRANCH   9  10
ENDBRANCH   8   9
ENDBRANCH   6   8
ENDBRANCH   5   6
ENDBRANCH   4   5
ENDBRANCH   3   4
ENDBRANCH   2   3
ENDBRANCH   1   2
BRANCH   1  23
ATOM     23  C   UNL A   1      36.207  22.797  25.241  1.00  0.00     0.188 C 
BRANCH  23  24
ATOM     24  O   UNL A   1      37.468  22.886  25.882  1.00  0.00    -0.376 OA
BRANCH  24  25
ATOM     25  C   UNL A   1      38.468  21.875  25.844  1.00  0.00     0.202 C 
BRANCH  25  26
ATOM     26  C   UNL A   1      39.850  21.952  26.494  1.00  0.00     0.261 C 
BRANCH  26  27
ATOM     27  O   UNL A   1      40.368  23.246  26.608  1.00  0.00    -0.460 OA
BRANCH  27  28
ATOM     28  C   UNL A   1      41.677  23.316  26.891  1.00  0.00     0.338 C 
ATOM     29  O   UNL A   1      42.444  22.387  27.118  1.00  0.00    -0.246 OA
BRANCH  28  30
ATOM     30  C   UNL A   1      42.049  24.722  26.757  1.00  0.00     0.060 A 
ATOM     31  C   UNL A   1      43.179  25.170  27.439  1.00  0.00     0.016 A 
ATOM     32  C   UNL A   1      41.170  25.591  26.089  1.00  0.00     0.016 A 
ATOM     33  C   UNL A   1      43.209  26.496  27.776  1.00  0.00     0.010 A 
ATOM     34  C   UNL A   1      41.204  26.906  26.415  1.00  0.00     0.010 A 
ATOM     35  C   UNL A   1      42.117  27.275  27.391  1.00  0.00    -0.014 A 
BRANCH  35  36
ATOM     36  C   UNL A   1      41.830  28.470  28.132  1.00  0.00     0.031 A 
ATOM     37  C   UNL A   1      42.910  29.452  27.998  1.00  0.00     0.074 A 
ATOM     38  C   UNL A   1      40.644  28.602  28.760  1.00  0.00     0.049 A 
ATOM     39  N   UNL A   1      43.845  29.692  28.853  1.00  0.00    -0.248 NA
ATOM     40  C   UNL A   1      43.150  30.019  26.660  1.00  0.00     0.031 C 
ATOM     41  C   UNL A   1      39.461  27.733  28.692  1.00  0.00     0.029 A 
ATOM     42  N   UNL A   1      40.221  29.616  29.553  1.00  0.00    -0.354 N 
ATOM     43  C   UNL A   1      44.611  30.676  28.251  1.00  0.00     0.074 A 
ATOM     44  C   UNL A   1      44.332  30.607  26.842  1.00  0.00     0.031 C 
ATOM     45  C   UNL A   1      38.395  28.376  29.228  1.00  0.00     0.029 A 
ATOM     46  C   UNL A   1      38.848  29.628  29.803  1.00  0.00     0.049 A 
ATOM     47  H   UNL A   1      40.834  30.292  29.925  1.00  0.00     0.167 HD
ATOM     48  C   UNL A   1      45.114  31.701  28.987  1.00  0.00     0.037 A 
ATOM     49  C   UNL A   1      38.177  30.660  30.383  1.00  0.00     0.037 A 
ATOM     50  C   UNL A   1      45.100  31.391  30.395  1.00  0.00     0.049 A 
ATOM     51  C   UNL A   1      39.204  31.460  31.111  1.00  0.00     0.074 A 
ATOM     52  C   UNL A   1      45.690  30.414  31.174  1.00  0.00     0.029 A 
ATOM     53  N   UNL A   1      44.046  31.881  31.130  1.00  0.00    -0.354 N 
ATOM     54  N   UNL A   1      39.874  31.013  32.140  1.00  0.00    -0.248 NA
ATOM     55  C   UNL A   1      39.831  32.558  30.390  1.00  0.00     0.031 C 
ATOM     56  C   UNL A   1      44.715  30.072  32.156  1.00  0.00     0.029 A 
ATOM     57  C   UNL A   1      43.604  30.900  31.983  1.00  0.00     0.049 A 
ATOM     58  H   UNL A   1      43.671  32.789  31.057  1.00  0.00     0.167 HD
ATOM     59  C   UNL A   1      41.171  31.475  31.953  1.00  0.00     0.074 A 
ATOM     60  C   UNL A   1      41.066  32.479  30.897  1.00  0.00     0.031 C 
ATOM     61  C   UNL A   1      42.239  30.790  32.460  1.00  0.00     0.037 A 
BRANCH  48  62
ATOM     62  C   UNL A   1      45.226  33.099  28.445  1.00  0.00     0.058 A 
ATOM     63  C   UNL A   1      46.495  33.660  28.232  1.00  0.00     0.135 A 
ATOM     64  C   UNL A   1      44.133  33.992  28.329  1.00  0.00     0.135 A 
ATOM     65  F   UNL A   1      47.601  32.911  28.368  1.00  0.00    -0.206 F 
ATOM     66  C   UNL A   1      46.665  35.011  27.930  1.00  0.00     0.059 A 
ATOM     67  C   UNL A   1      44.273  35.320  27.961  1.00  0.00     0.059 A 
ATOM     68  F   UNL A   1      42.883  33.646  28.660  1.00  0.00    -0.206 F 
ATOM     69  C   UNL A   1      45.546  35.830  27.790  1.00  0.00     0.060 A 
BRANCH  69  70
ATOM     70  S   UNL A   1      45.763  37.580  27.439  1.00  0.00     0.124 S 
ATOM     71  O   UNL A   1      46.747  37.542  26.363  1.00  0.00    -0.237 OA
ATOM     72  O   UNL A   1      44.411  37.977  27.058  1.00  0.00    -0.237 OA
ATOM     73  O   UNL A   1      46.234  38.124  28.710  1.00  0.00    -0.744 OA
ENDBRANCH  69  70
ENDBRANCH  48  62
BRANCH  49  74
ATOM     74  C   UNL A   1      36.857  31.244  30.007  1.00  0.00     0.058 A 
ATOM     75  C   UNL A   1      36.043  31.852  30.983  1.00  0.00     0.135 A 
ATOM     76  C   UNL A   1      36.519  31.516  28.666  1.00  0.00     0.135 A 
ATOM     77  F   UNL A   1      36.293  31.653  32.287  1.00  0.00    -0.206 F 
ATOM     78  C   UNL A   1      35.016  32.743  30.654  1.00  0.00     0.059 A 
ATOM     79  C   UNL A   1      35.494  32.396  28.314  1.00  0.00     0.059 A 
ATOM     80  F   UNL A   1      37.241  31.011  27.655  1.00  0.00    -0.206 F 
ATOM     81  C   UNL A   1      34.771  33.034  29.314  1.00  0.00     0.060 A 
BRANCH  81  82
ATOM     82  S   UNL A   1      33.593  34.344  28.894  1.00  0.00     0.124 S 
ATOM     83  O   UNL A   1      34.460  35.351  28.292  1.00  0.00    -0.237 OA
ATOM     84  O   UNL A   1      32.685  33.657  27.980  1.00  0.00    -0.237 OA
ATOM     85  O   UNL A   1      33.015  34.708  30.185  1.00  0.00    -0.744 OA
ENDBRANCH  81  82
ENDBRANCH  49  74
BRANCH  61  86
ATOM     86  C   UNL A   1      41.958  29.702  33.474  1.00  0.00     0.058 A 
ATOM     87  C   UNL A   1      41.735  28.347  33.163  1.00  0.00     0.135 A 
ATOM     88  C   UNL A   1      42.060  30.033  34.833  1.00  0.00     0.135 A 
ATOM     89  F   UNL A   1      41.715  27.928  31.890  1.00  0.00    -0.206 F 
ATOM     90  C   UNL A   1      41.588  27.375  34.160  1.00  0.00     0.059 A 
ATOM     91  C   UNL A   1      41.947  29.080  35.840  1.00  0.00     0.059 A 
ATOM     92  F   UNL A   1      42.326  31.299  35.195  1.00  0.00    -0.206 F 
ATOM     93  C   UNL A   1      41.700  27.752  35.498  1.00  0.00     0.060 A 
BRANCH  93  94
ATOM     94  S   UNL A   1      41.574  26.493  36.789  1.00  0.00     0.124 S 
ATOM     95  O   UNL A   1      41.282  25.289  36.019  1.00  0.00    -0.237 OA
ATOM     96  O   UNL A   1      42.895  26.545  37.409  1.00  0.00    -0.237 OA
ATOM     97  O   UNL A   1      40.481  26.975  37.631  1.00  0.00    -0.744 OA
ENDBRANCH  93  94
ENDBRANCH  61  86
ENDBRANCH  35  36
ENDBRANCH  28  30
ENDBRANCH  27  28
ENDBRANCH  26  27
ENDBRANCH  25  26
ENDBRANCH  24  25
ENDBRANCH  23  24
ENDBRANCH   1  23
TORSDOF 24
ENDMDL
MODEL 3
REMARK VINA RESULT:      -9.5      1.852      3.644
REMARK SMILES Cc1cc(C)c2c(OCCCC(=O)OCCOCCOCCOC(=O)c3ccc(-c4c5nc(c(-c6c(F)cc(S(=O)(=O)[O-])cc6F)c6ccc([nH]6)c(-c6c(F)cc(S(=O)(=O)[O-])cc6F)c6nc(c(-c7c(F)cc(S(=O)(=O)[O-])cc7F)c7ccc4[nH]7)C=C6)C=C5)cc3)nsc2n1
REMARK SMILES IDX 18 1 17 2 16 3 15 4 14 5 12 6 13 7 11 8 10 9 9 10 8 11 7 12
REMARK SMILES IDX 1 13 2 14 3 15 95 16 4 17 94 18 5 19 6 20 93 21 92 22 19 23
REMARK SMILES IDX 20 24 21 25 22 26 23 27 24 28 25 29 26 30 27 31 91 32 28 33
REMARK SMILES IDX 90 34 29 35 30 36 31 37 84 38 32 39 89 40 83 41 85 42 33 43
REMARK SMILES IDX 88 44 82 45 81 46 34 48 68 49 47 50 67 51 48 52 51 53 66 54
REMARK SMILES IDX 86 55 49 56 50 57 65 59 87 60 52 61 35 62 36 63 45 64 37 65
REMARK SMILES IDX 38 66 44 67 46 68 39 69 40 70 41 71 42 72 43 73 69 74 70 75
REMARK SMILES IDX 79 76 71 77 72 78 78 79 80 80 73 81 74 82 75 83 76 84 77 85
REMARK SMILES IDX 53 86 54 87 63 88 55 89 56 90 62 91 64 92 57 93 58 94 59 95
REMARK SMILES IDX 60 96 61 97
REMARK H PARENT 85 47 51 58
REMARK Flexibility Score: inf
ROOT
ATOM      1  C   UNL A   1      36.337  22.510  23.795  1.00  0.00     0.188 C 
ENDROOT
BRANCH   1   2
ATOM      2  O   UNL A   1      35.368  23.529  23.629  1.00  0.00    -0.376 OA
BRANCH   2   3
ATOM      3  C   UNL A   1      34.389  23.292  22.627  1.00  0.00     0.202 C 
BRANCH   3   4
ATOM      4  C   UNL A   1      32.960  23.815  22.856  1.00  0.00     0.261 C 
BRANCH   4   5
ATOM      5  O   UNL A   1      32.812  25.248  23.124  1.00  0.00    -0.463 OA
BRANCH   5   6
ATOM      6  C   UNL A   1      32.668  26.086  22.069  1.00  0.00     0.305 C 
ATOM      7  O   UNL A   1      33.575  26.280  21.261  1.00  0.00    -0.252 OA
BRANCH   6   8
ATOM      8  C   UNL A   1      31.348  26.867  21.932  1.00  0.00     0.126 C 
BRANCH   8   9
ATOM      9  C   UNL A   1      31.029  28.351  22.190  1.00  0.00     0.053 C 
BRANCH   9  10
ATOM     10  C   UNL A   1      30.707  28.990  23.556  1.00  0.00     0.232 C 
BRANCH  10  11
ATOM     11  O   UNL A   1      30.377  28.235  24.720  1.00  0.00    -0.477 OA
BRANCH  11  12
ATOM     12  C   UNL A   1      31.373  27.656  25.419  1.00  0.00     0.235 A 
ATOM     13  C   UNL A   1      33.130  22.518  26.181  1.00  0.00     0.067 C 
ATOM     14  C   UNL A   1      32.548  23.884  26.423  1.00  0.00     0.039 A 
ATOM     15  C   UNL A   1      31.171  24.039  26.526  1.00  0.00     0.027 A 
ATOM     16  N   UNL A   1      33.404  24.918  26.425  1.00  0.00    -0.240 NA
ATOM     17  C   UNL A   1      30.562  25.290  26.298  1.00  0.00    -0.034 A 
ATOM     18  C   UNL A   1      32.809  26.108  26.239  1.00  0.00     0.147 A 
ATOM     19  C   UNL A   1      29.062  25.386  26.230  1.00  0.00     0.045 C 
ATOM     20  C   UNL A   1      31.453  26.355  26.020  1.00  0.00     0.078 A 
ATOM     21  S   UNL A   1      33.678  27.568  26.164  1.00  0.00    -0.012 S 
ATOM     22  N   UNL A   1      32.423  28.465  25.559  1.00  0.00    -0.153 NA
ENDBRANCH  11  12
ENDBRANCH  10  11
ENDBRANCH   9  10
ENDBRANCH   8   9
ENDBRANCH   6   8
ENDBRANCH   5   6
ENDBRANCH   4   5
ENDBRANCH   3   4
ENDBRANCH   2   3
ENDBRANCH   1   2
BRANCH   1  23
ATOM     23  C   UNL A   1      36.273  21.689  25.102  1.00  0.00     0.188 C 
BRANCH  23  24
ATOM     24  O   UNL A   1      37.500  21.431  25.762  1.00  0.00    -0.376 OA
BRANCH  24  25
ATOM     25  C   UNL A   1      38.514  20.562  25.273  1.00  0.00     0.202 C 
BRANCH  25  26
ATOM     26  C   UNL A   1      39.848  20.261  25.958  1.00  0.00     0.261 C 
BRANCH  26  27
ATOM     27  O   UNL A   1      40.426  21.354  26.612  1.00  0.00    -0.460 OA
BRANCH  27  28
ATOM     28  C   UNL A   1      41.559  21.089  27.277  1.00  0.00     0.338 C 
ATOM     29  O   UNL A   1      41.934  20.007  27.716  1.00  0.00    -0.246 OA
BRANCH  28  30
ATOM     30  C   UNL A   1      42.334  22.327  27.274  1.00  0.00     0.060 A 
ATOM     31  C   UNL A   1      43.145  22.597  28.375  1.00  0.00     0.016 A 
ATOM     32  C   UNL A   1      42.104  23.262  26.251  1.00  0.00     0.016 A 
ATOM     33  C   UNL A   1      43.402  23.914  28.641  1.00  0.00     0.010 A 
ATOM     34  C   UNL A   1      42.367  24.567  26.510  1.00  0.00     0.010 A 
ATOM     35  C   UNL A   1      42.844  24.859  27.778  1.00  0.00    -0.014 A 
BRANCH  35  36
ATOM     36  C   UNL A   1      42.621  26.189  28.268  1.00  0.00     0.031 A 
ATOM     37  C   UNL A   1      43.747  27.071  27.946  1.00  0.00     0.074 A 
ATOM     38  C   UNL A   1      41.447  26.501  28.852  1.00  0.00     0.049 A 
ATOM     39  N   UNL A   1      44.698  27.428  28.741  1.00  0.00    -0.248 NA
ATOM     40  C   UNL A   1      44.007  27.350  26.524  1.00  0.00     0.031 C 
ATOM     41  C   UNL A   1      40.222  25.695  28.952  1.00  0.00     0.029 A 
ATOM     42  N   UNL A   1      41.079  27.672  29.428  1.00  0.00    -0.354 N 
ATOM     43  C   UNL A   1      45.508  28.236  27.960  1.00  0.00     0.074 A 
ATOM     44  C   UNL A   1      45.218  27.903  26.591  1.00  0.00     0.031 C 
ATOM     45  C   UNL A   1      39.192  26.484  29.346  1.00  0.00     0.029 A 
ATOM     46  C   UNL A   1      39.710  27.801  29.665  1.00  0.00     0.049 A 
ATOM     47  H   UNL A   1      41.727  28.376  29.661  1.00  0.00     0.167 HD
ATOM     48  C   UNL A   1      46.065  29.359  28.481  1.00  0.00     0.037 A 
ATOM     49  C   UNL A   1      39.093  28.958  30.026  1.00  0.00     0.037 A 
ATOM     50  C   UNL A   1      46.043  29.334  29.922  1.00  0.00     0.049 A 
ATOM     51  C   UNL A   1      40.163  29.834  30.586  1.00  0.00     0.074 A 
ATOM     52  C   UNL A   1      46.589  28.503  30.881  1.00  0.00     0.029 A 
ATOM     53  N   UNL A   1      45.020  30.011  30.542  1.00  0.00    -0.354 N 
ATOM     54  N   UNL A   1      40.816  29.567  31.685  1.00  0.00    -0.248 NA
ATOM     55  C   UNL A   1      40.839  30.736  29.665  1.00  0.00     0.031 C 
ATOM     56  C   UNL A   1      45.604  28.410  31.907  1.00  0.00     0.029 A 
ATOM     57  C   UNL A   1      44.535  29.241  31.569  1.00  0.00     0.049 A 
ATOM     58  H   UNL A   1      44.689  30.904  30.289  1.00  0.00     0.167 HD
ATOM     59  C   UNL A   1      42.133  29.918  31.417  1.00  0.00     0.074 A 
ATOM     60  C   UNL A   1      42.071  30.698  30.182  1.00  0.00     0.031 C 
ATOM     61  C   UNL A   1      43.169  29.295  32.053  1.00  0.00     0.037 A 
BRANCH  48  62
ATOM     62  C   UNL A   1      46.243  30.615  27.673  1.00  0.00     0.058 A 
ATOM     63  C   UNL A   1      47.520  31.183  27.548  1.00  0.00     0.135 A 
ATOM     64  C   UNL A   1      45.169  31.406  27.196  1.00  0.00     0.135 A 
ATOM     65  F   UNL A   1      48.600  30.538  28.016  1.00  0.00    -0.206 F 
ATOM     66  C   UNL A   1      47.716  32.447  26.991  1.00  0.00     0.059 A 
ATOM     67  C   UNL A   1      45.347  32.633  26.576  1.00  0.00     0.059 A 
ATOM     68  F   UNL A   1      43.887  31.074  27.392  1.00  0.00    -0.206 F 
ATOM     69  C   UNL A   1      46.622  33.160  26.502  1.00  0.00     0.060 A 
BRANCH  69  70
ATOM     70  S   UNL A   1      46.866  34.806  25.820  1.00  0.00     0.124 S 
ATOM     71  O   UNL A   1      46.987  35.608  27.031  1.00  0.00    -0.237 OA
ATOM     72  O   UNL A   1      48.088  34.628  25.042  1.00  0.00    -0.237 OA
ATOM     73  O   UNL A   1      45.656  35.027  25.032  1.00  0.00    -0.744 OA
ENDBRANCH  69  70
ENDBRANCH  48  62
BRANCH  49  74
ATOM     74  C   UNL A   1      37.802  29.521  29.537  1.00  0.00     0.058 A 
ATOM     75  C   UNL A   1      36.827  29.967  30.451  1.00  0.00     0.135 A 
ATOM     76  C   UNL A   1      37.630  29.937  28.202  1.00  0.00     0.135 A 
ATOM     77  F   UNL A   1      36.912  29.624  31.746  1.00  0.00    -0.206 F 
ATOM     78  C   UNL A   1      35.799  30.842  30.085  1.00  0.00     0.059 A 
ATOM     79  C   UNL A   1      36.608  30.804  27.811  1.00  0.00     0.059 A 
ATOM     80  F   UNL A   1      38.512  29.593  27.252  1.00  0.00    -0.206 F 
ATOM     81  C   UNL A   1      35.718  31.282  28.765  1.00  0.00     0.060 A 
BRANCH  81  82
ATOM     82  S   UNL A   1      34.527  32.576  28.335  1.00  0.00     0.124 S 
ATOM     83  O   UNL A   1      34.060  33.009  29.647  1.00  0.00    -0.237 OA
ATOM     84  O   UNL A   1      35.360  33.529  27.608  1.00  0.00    -0.237 OA
ATOM     85  O   UNL A   1      33.539  31.870  27.522  1.00  0.00    -0.744 OA
ENDBRANCH  81  82
ENDBRANCH  49  74
BRANCH  61  86
ATOM     86  C   UNL A   1      42.840  28.444  33.261  1.00  0.00     0.058 A 
ATOM     87  C   UNL A   1      42.910  27.038  33.301  1.00  0.00     0.135 A 
ATOM     88  C   UNL A   1      42.578  29.102  34.472  1.00  0.00     0.135 A 
ATOM     89  F   UNL A   1      43.246  26.336  32.210  1.00  0.00    -0.206 F 
ATOM     90  C   UNL A   1      42.697  26.322  34.484  1.00  0.00     0.059 A 
ATOM     91  C   UNL A   1      42.391  28.412  35.666  1.00  0.00     0.059 A 
ATOM     92  F   UNL A   1      42.552  30.444  34.512  1.00  0.00    -0.206 F 
ATOM     93  C   UNL A   1      42.441  27.020  35.665  1.00  0.00     0.060 A 
BRANCH  93  94
ATOM     94  S   UNL A   1      42.226  26.105  37.209  1.00  0.00     0.124 S 
ATOM     95  O   UNL A   1      43.312  26.625  38.031  1.00  0.00    -0.237 OA
ATOM     96  O   UNL A   1      40.878  26.490  37.618  1.00  0.00    -0.237 OA
ATOM     97  O   UNL A   1      42.367  24.709  36.801  1.00  0.00    -0.744 OA
ENDBRANCH  93  94
ENDBRANCH  61  86
ENDBRANCH  35  36
ENDBRANCH  28  30
ENDBRANCH  27  28
ENDBRANCH  26  27
ENDBRANCH  25  26
ENDBRANCH  24  25
ENDBRANCH  23  24
ENDBRANCH   1  23
TORSDOF 24
ENDMDL
