MODEL 1
REMARK VINA RESULT:     -10.1      0.000      0.000
REMARK SMILES O=C(OCCOCCOCCOC(=O)c1cc2nn[nH]n2n1)c1ccc(-c2c3nc(c(-c4c(F)cc(S(=O)(=O)[O-])cc4F)c4ccc([nH]4)c(-c4c(F)cc(S(=O)(=O)[O-])cc4F)c4nc(c(-c5c(F)cc(S(=O)(=O)[O-])cc5F)c5ccc2[nH]5)C=C4)C=C3)cc1
REMARK SMILES IDX 6 1 5 2 4 3 3 4 2 5 1 6 23 7 24 8 88 9 25 10 87 11 26 12
REMARK SMILES IDX 27 13 28 14 81 15 29 16 86 17 80 18 82 19 30 20 85 21 79 22
REMARK SMILES IDX 78 23 31 25 65 26 44 27 64 28 45 29 48 30 63 31 83 32 46 33
REMARK SMILES IDX 47 34 62 36 84 37 49 38 32 39 33 40 42 41 34 42 35 43 41 44
REMARK SMILES IDX 43 45 36 46 37 47 38 48 39 49 40 50 66 51 67 52 76 53 68 54
REMARK SMILES IDX 69 55 75 56 77 57 70 58 71 59 72 60 73 61 74 62 50 63 51 64
REMARK SMILES IDX 60 65 52 66 53 67 59 68 61 69 54 70 55 71 56 72 57 73 58 74
REMARK SMILES IDX 7 75 8 76 9 77 10 78 11 79 12 80 13 81 14 82 15 83 16 84
REMARK SMILES IDX 22 85 17 86 21 87 18 88 20 89 19 90
REMARK H PARENT 82 24 48 35 20 91
REMARK Flexibility Score: inf
ROOT
ATOM      1  O   UNL A   1      34.969  34.643  29.181  1.00  0.00    -0.376 OA
ENDROOT
BRANCH   1   2
ATOM      2  C   UNL A   1      33.677  34.984  29.653  1.00  0.00     0.202 C 
BRANCH   2   3
ATOM      3  C   UNL A   1      33.542  35.071  31.178  1.00  0.00     0.261 C 
BRANCH   3   4
ATOM      4  O   UNL A   1      33.620  33.816  31.873  1.00  0.00    -0.460 OA
BRANCH   4   5
ATOM      5  C   UNL A   1      34.637  33.297  32.589  1.00  0.00     0.338 C 
ATOM      6  O   UNL A   1      34.759  33.595  33.774  1.00  0.00    -0.246 OA
BRANCH   5   7
ATOM      7  C   UNL A   1      35.751  32.572  31.929  1.00  0.00     0.060 A 
ATOM      8  C   UNL A   1      35.797  31.190  31.732  1.00  0.00     0.016 A 
ATOM      9  C   UNL A   1      36.856  33.361  31.555  1.00  0.00     0.016 A 
ATOM     10  C   UNL A   1      36.956  30.590  31.271  1.00  0.00     0.010 A 
ATOM     11  C   UNL A   1      38.025  32.765  31.106  1.00  0.00     0.010 A 
ATOM     12  C   UNL A   1      38.087  31.373  31.061  1.00  0.00    -0.014 A 
BRANCH  12  13
ATOM     13  C   UNL A   1      39.365  30.673  31.056  1.00  0.00     0.031 A 
ATOM     14  C   UNL A   1      40.098  30.555  32.345  1.00  0.00     0.074 A 
ATOM     15  C   UNL A   1      39.792  30.133  29.895  1.00  0.00     0.049 A 
ATOM     16  N   UNL A   1      41.313  30.905  32.627  1.00  0.00    -0.248 NA
ATOM     17  C   UNL A   1      39.345  30.033  33.497  1.00  0.00     0.031 C 
ATOM     18  C   UNL A   1      39.035  30.000  28.640  1.00  0.00     0.029 A 
ATOM     19  N   UNL A   1      40.945  29.471  29.621  1.00  0.00    -0.354 N 
ATOM     20  C   UNL A   1      41.546  30.457  33.927  1.00  0.00     0.074 A 
ATOM     21  C   UNL A   1      40.268  30.052  34.457  1.00  0.00     0.031 C 
ATOM     22  C   UNL A   1      39.636  29.084  27.855  1.00  0.00     0.029 A 
ATOM     23  C   UNL A   1      40.871  28.669  28.492  1.00  0.00     0.049 A 
ATOM     24  H   UNL A   1      41.757  29.552  30.172  1.00  0.00     0.167 HD
ATOM     25  C   UNL A   1      42.796  30.238  34.420  1.00  0.00     0.037 A 
ATOM     26  C   UNL A   1      41.695  27.642  28.180  1.00  0.00     0.037 A 
ATOM     27  C   UNL A   1      43.811  30.941  33.689  1.00  0.00     0.049 A 
ATOM     28  C   UNL A   1      42.954  27.839  28.945  1.00  0.00     0.074 A 
ATOM     29  C   UNL A   1      44.081  32.273  33.439  1.00  0.00     0.029 A 
ATOM     30  N   UNL A   1      44.592  30.237  32.805  1.00  0.00    -0.354 N 
ATOM     31  N   UNL A   1      43.775  28.838  28.755  1.00  0.00    -0.248 NA
ATOM     32  C   UNL A   1      43.086  27.165  30.228  1.00  0.00     0.031 C 
ATOM     33  C   UNL A   1      44.622  32.305  32.120  1.00  0.00     0.029 A 
ATOM     34  C   UNL A   1      44.672  30.989  31.659  1.00  0.00     0.049 A 
ATOM     35  H   UNL A   1      45.014  29.362  32.964  1.00  0.00     0.167 HD
ATOM     36  C   UNL A   1      44.245  29.168  30.020  1.00  0.00     0.074 A 
ATOM     37  C   UNL A   1      43.863  28.043  30.869  1.00  0.00     0.031 C 
ATOM     38  C   UNL A   1      44.655  30.436  30.322  1.00  0.00     0.037 A 
BRANCH  25  39
ATOM     39  C   UNL A   1      43.110  29.119  35.381  1.00  0.00     0.058 A 
ATOM     40  C   UNL A   1      43.776  29.378  36.594  1.00  0.00     0.135 A 
ATOM     41  C   UNL A   1      43.009  27.758  35.013  1.00  0.00     0.135 A 
ATOM     42  F   UNL A   1      43.953  30.639  37.019  1.00  0.00    -0.206 F 
ATOM     43  C   UNL A   1      44.339  28.357  37.366  1.00  0.00     0.059 A 
ATOM     44  C   UNL A   1      43.513  26.723  35.792  1.00  0.00     0.059 A 
ATOM     45  F   UNL A   1      42.501  27.381  33.832  1.00  0.00    -0.206 F 
ATOM     46  C   UNL A   1      44.215  27.034  36.945  1.00  0.00     0.060 A 
BRANCH  46  47
ATOM     47  S   UNL A   1      45.044  25.724  37.864  1.00  0.00     0.124 S 
ATOM     48  O   UNL A   1      46.407  25.836  37.356  1.00  0.00    -0.237 OA
ATOM     49  O   UNL A   1      44.838  26.141  39.246  1.00  0.00    -0.237 OA
ATOM     50  O   UNL A   1      44.316  24.523  37.463  1.00  0.00    -0.744 OA
ENDBRANCH  46  47
ENDBRANCH  25  39
BRANCH  26  51
ATOM     51  C   UNL A   1      41.252  26.335  27.625  1.00  0.00     0.058 A 
ATOM     52  C   UNL A   1      41.973  25.682  26.614  1.00  0.00     0.135 A 
ATOM     53  C   UNL A   1      40.222  25.584  28.237  1.00  0.00     0.135 A 
ATOM     54  F   UNL A   1      42.996  26.305  26.008  1.00  0.00    -0.206 F 
ATOM     55  C   UNL A   1      41.700  24.360  26.242  1.00  0.00     0.059 A 
ATOM     56  C   UNL A   1      39.918  24.277  27.868  1.00  0.00     0.059 A 
ATOM     57  F   UNL A   1      39.531  26.067  29.278  1.00  0.00    -0.206 F 
ATOM     58  C   UNL A   1      40.674  23.663  26.882  1.00  0.00     0.060 A 
BRANCH  58  59
ATOM     59  S   UNL A   1      40.405  21.915  26.505  1.00  0.00     0.124 S 
ATOM     60  O   UNL A   1      40.446  21.312  27.831  1.00  0.00    -0.237 OA
ATOM     61  O   UNL A   1      39.099  21.941  25.855  1.00  0.00    -0.237 OA
ATOM     62  O   UNL A   1      41.527  21.580  25.631  1.00  0.00    -0.744 OA
ENDBRANCH  58  59
ENDBRANCH  26  51
BRANCH  38  63
ATOM     63  C   UNL A   1      44.815  31.417  29.186  1.00  0.00     0.058 A 
ATOM     64  C   UNL A   1      45.965  31.479  28.379  1.00  0.00     0.135 A 
ATOM     65  C   UNL A   1      43.714  32.187  28.785  1.00  0.00     0.135 A 
ATOM     66  F   UNL A   1      47.016  30.686  28.622  1.00  0.00    -0.206 F 
ATOM     67  C   UNL A   1      46.035  32.296  27.251  1.00  0.00     0.059 A 
ATOM     68  C   UNL A   1      43.749  32.988  27.643  1.00  0.00     0.059 A 
ATOM     69  F   UNL A   1      42.560  32.116  29.469  1.00  0.00    -0.206 F 
ATOM     70  C   UNL A   1      44.919  33.045  26.885  1.00  0.00     0.060 A 
BRANCH  70  71
ATOM     71  S   UNL A   1      44.978  34.006  25.358  1.00  0.00     0.124 S 
ATOM     72  O   UNL A   1      46.398  34.322  25.247  1.00  0.00    -0.237 OA
ATOM     73  O   UNL A   1      44.460  33.065  24.368  1.00  0.00    -0.237 OA
ATOM     74  O   UNL A   1      44.103  35.143  25.637  1.00  0.00    -0.744 OA
ENDBRANCH  70  71
ENDBRANCH  38  63
ENDBRANCH  12  13
ENDBRANCH   5   7
ENDBRANCH   4   5
ENDBRANCH   3   4
ENDBRANCH   2   3
ENDBRANCH   1   2
BRANCH   1  75
ATOM     75  C   UNL A   1      35.026  33.784  28.051  1.00  0.00     0.188 C 
BRANCH  75  76
ATOM     76  C   UNL A   1      34.211  32.474  28.182  1.00  0.00     0.188 C 
BRANCH  76  77
ATOM     77  O   UNL A   1      34.559  31.274  27.494  1.00  0.00    -0.376 OA
BRANCH  77  78
ATOM     78  C   UNL A   1      33.555  30.372  27.068  1.00  0.00     0.202 C 
BRANCH  78  79
ATOM     79  C   UNL A   1      34.006  28.928  26.820  1.00  0.00     0.261 C 
BRANCH  79  80
ATOM     80  O   UNL A   1      34.229  28.599  25.442  1.00  0.00    -0.458 OA
BRANCH  80  81
ATOM     81  C   UNL A   1      33.454  27.610  24.917  1.00  0.00     0.359 C 
ATOM     82  O   UNL A   1      33.627  26.401  25.104  1.00  0.00    -0.244 OA
BRANCH  81  83
ATOM     83  C   UNL A   1      32.380  28.134  24.072  1.00  0.00     0.174 A 
ATOM     84  C   UNL A   1      30.964  28.004  24.303  1.00  0.00     0.091 A 
ATOM     85  N   UNL A   1      32.636  28.852  22.945  1.00  0.00    -0.142 NA
ATOM     86  C   UNL A   1      30.402  28.714  23.279  1.00  0.00     0.199 A 
ATOM     87  N   UNL A   1      31.418  29.146  22.531  1.00  0.00    -0.135 N 
ATOM     88  N   UNL A   1      29.239  29.154  22.746  1.00  0.00    -0.109 NA
ATOM     89  N   UNL A   1      30.894  29.882  21.571  1.00  0.00    -0.177 N 
ATOM     90  N   UNL A   1      29.518  29.825  21.688  1.00  0.00    -0.050 NA
ATOM     91  H   UNL A   1      31.395  30.385  20.890  1.00  0.00     0.216 HD
ENDBRANCH  81  83
ENDBRANCH  80  81
ENDBRANCH  79  80
ENDBRANCH  78  79
ENDBRANCH  77  78
ENDBRANCH  76  77
ENDBRANCH  75  76
ENDBRANCH   1  75
TORSDOF 20
ENDMDL
MODEL 2
REMARK VINA RESULT:      -9.4      2.618      3.551
REMARK SMILES O=C(OCCOCCOCCOC(=O)c1cc2nn[nH]n2n1)c1ccc(-c2c3nc(c(-c4c(F)cc(S(=O)(=O)[O-])cc4F)c4ccc([nH]4)c(-c4c(F)cc(S(=O)(=O)[O-])cc4F)c4nc(c(-c5c(F)cc(S(=O)(=O)[O-])cc5F)c5ccc2[nH]5)C=C4)C=C3)cc1
REMARK SMILES IDX 6 1 5 2 4 3 3 4 2 5 1 6 23 7 24 8 88 9 25 10 87 11 26 12
REMARK SMILES IDX 27 13 28 14 81 15 29 16 86 17 80 18 82 19 30 20 85 21 79 22
REMARK SMILES IDX 78 23 31 25 65 26 44 27 64 28 45 29 48 30 63 31 83 32 46 33
REMARK SMILES IDX 47 34 62 36 84 37 49 38 32 39 33 40 42 41 34 42 35 43 41 44
REMARK SMILES IDX 43 45 36 46 37 47 38 48 39 49 40 50 66 51 67 52 76 53 68 54
REMARK SMILES IDX 69 55 75 56 77 57 70 58 71 59 72 60 73 61 74 62 50 63 51 64
REMARK SMILES IDX 60 65 52 66 53 67 59 68 61 69 54 70 55 71 56 72 57 73 58 74
REMARK SMILES IDX 7 75 8 76 9 77 10 78 11 79 12 80 13 81 14 82 15 83 16 84
REMARK SMILES IDX 22 85 17 86 21 87 18 88 20 89 19 90
REMARK H PARENT 82 24 48 35 20 91
REMARK Flexibility Score: inf
ROOT
ATOM      1  O   UNL A   1      33.439  29.754  26.680  1.00  0.00    -0.376 OA
ENDROOT
BRANCH   1   2
ATOM      2  C   UNL A   1      34.522  30.431  27.292  1.00  0.00     0.202 C 
BRANCH   2   3
ATOM      3  C   UNL A   1      34.289  31.922  27.563  1.00  0.00     0.261 C 
BRANCH   3   4
ATOM      4  O   UNL A   1      34.082  32.269  28.942  1.00  0.00    -0.460 OA
BRANCH   4   5
ATOM      5  C   UNL A   1      34.851  33.013  29.761  1.00  0.00     0.338 C 
ATOM      6  O   UNL A   1      34.633  34.216  29.873  1.00  0.00    -0.246 OA
BRANCH   5   7
ATOM      7  C   UNL A   1      36.105  32.470  30.342  1.00  0.00     0.060 A 
ATOM      8  C   UNL A   1      37.305  33.175  30.445  1.00  0.00     0.016 A 
ATOM      9  C   UNL A   1      36.060  31.118  30.736  1.00  0.00     0.016 A 
ATOM     10  C   UNL A   1      38.465  32.525  30.833  1.00  0.00     0.010 A 
ATOM     11  C   UNL A   1      37.220  30.458  31.112  1.00  0.00     0.010 A 
ATOM     12  C   UNL A   1      38.427  31.153  31.063  1.00  0.00    -0.014 A 
BRANCH  12  13
ATOM     13  C   UNL A   1      39.701  30.452  30.986  1.00  0.00     0.031 A 
ATOM     14  C   UNL A   1      40.516  30.350  32.226  1.00  0.00     0.074 A 
ATOM     15  C   UNL A   1      40.053  29.895  29.807  1.00  0.00     0.049 A 
ATOM     16  N   UNL A   1      41.747  30.703  32.424  1.00  0.00    -0.248 NA
ATOM     17  C   UNL A   1      39.839  29.846  33.431  1.00  0.00     0.031 C 
ATOM     18  C   UNL A   1      39.217  29.746  28.605  1.00  0.00     0.029 A 
ATOM     19  N   UNL A   1      41.185  29.227  29.468  1.00  0.00    -0.354 N 
ATOM     20  C   UNL A   1      42.063  30.273  33.712  1.00  0.00     0.074 A 
ATOM     21  C   UNL A   1      40.822  29.876  34.329  1.00  0.00     0.031 C 
ATOM     22  C   UNL A   1      39.765  28.818  27.796  1.00  0.00     0.029 A 
ATOM     23  C   UNL A   1      41.038  28.410  28.358  1.00  0.00     0.049 A 
ATOM     24  H   UNL A   1      42.031  29.315  29.965  1.00  0.00     0.167 HD
ATOM     25  C   UNL A   1      43.343  30.059  34.127  1.00  0.00     0.037 A 
ATOM     26  C   UNL A   1      41.840  27.378  28.008  1.00  0.00     0.037 A 
ATOM     27  C   UNL A   1      44.309  30.750  33.322  1.00  0.00     0.049 A 
ATOM     28  C   UNL A   1      43.146  27.584  28.687  1.00  0.00     0.074 A 
ATOM     29  C   UNL A   1      44.562  32.079  33.037  1.00  0.00     0.029 A 
ATOM     30  N   UNL A   1      45.030  30.033  32.399  1.00  0.00    -0.354 N 
ATOM     31  N   UNL A   1      43.953  28.579  28.431  1.00  0.00    -0.248 NA
ATOM     32  C   UNL A   1      43.360  26.928  29.968  1.00  0.00     0.031 C 
ATOM     33  C   UNL A   1      45.017  32.092  31.686  1.00  0.00     0.029 A 
ATOM     34  C   UNL A   1      45.037  30.769  31.240  1.00  0.00     0.049 A 
ATOM     35  H   UNL A   1      45.462  29.160  32.543  1.00  0.00     0.167 HD
ATOM     36  C   UNL A   1      44.504  28.926  29.658  1.00  0.00     0.074 A 
ATOM     37  C   UNL A   1      44.177  27.814  30.545  1.00  0.00     0.031 C 
ATOM     38  C   UNL A   1      44.933  30.198  29.915  1.00  0.00     0.037 A 
BRANCH  25  39
ATOM     39  C   UNL A   1      43.718  28.953  35.081  1.00  0.00     0.058 A 
ATOM     40  C   UNL A   1      44.439  29.231  36.257  1.00  0.00     0.135 A 
ATOM     41  C   UNL A   1      43.615  27.587  34.731  1.00  0.00     0.135 A 
ATOM     42  F   UNL A   1      44.622  30.498  36.662  1.00  0.00    -0.206 F 
ATOM     43  C   UNL A   1      45.053  28.225  37.009  1.00  0.00     0.059 A 
ATOM     44  C   UNL A   1      44.169  26.566  35.493  1.00  0.00     0.059 A 
ATOM     45  F   UNL A   1      43.055  27.193  33.580  1.00  0.00    -0.206 F 
ATOM     46  C   UNL A   1      44.924  26.897  36.607  1.00  0.00     0.060 A 
BRANCH  46  47
ATOM     47  S   UNL A   1      45.814  25.606  37.495  1.00  0.00     0.124 S 
ATOM     48  O   UNL A   1      45.904  26.185  38.830  1.00  0.00    -0.237 OA
ATOM     49  O   UNL A   1      44.920  24.462  37.352  1.00  0.00    -0.237 OA
ATOM     50  O   UNL A   1      47.073  25.504  36.762  1.00  0.00    -0.744 OA
ENDBRANCH  46  47
ENDBRANCH  25  39
BRANCH  26  51
ATOM     51  C   UNL A   1      41.361  26.064  27.500  1.00  0.00     0.058 A 
ATOM     52  C   UNL A   1      42.062  25.357  26.511  1.00  0.00     0.135 A 
ATOM     53  C   UNL A   1      40.315  25.362  28.142  1.00  0.00     0.135 A 
ATOM     54  F   UNL A   1      43.098  25.933  25.880  1.00  0.00    -0.206 F 
ATOM     55  C   UNL A   1      41.754  24.030  26.187  1.00  0.00     0.059 A 
ATOM     56  C   UNL A   1      39.977  24.051  27.821  1.00  0.00     0.059 A 
ATOM     57  F   UNL A   1      39.641  25.899  29.168  1.00  0.00    -0.206 F 
ATOM     58  C   UNL A   1      40.713  23.383  26.855  1.00  0.00     0.060 A 
BRANCH  58  59
ATOM     59  S   UNL A   1      40.398  21.631  26.540  1.00  0.00     0.124 S 
ATOM     60  O   UNL A   1      41.438  21.308  25.571  1.00  0.00    -0.237 OA
ATOM     61  O   UNL A   1      40.559  21.048  27.868  1.00  0.00    -0.237 OA
ATOM     62  O   UNL A   1      39.034  21.620  26.018  1.00  0.00    -0.744 OA
ENDBRANCH  58  59
ENDBRANCH  26  51
BRANCH  38  63
ATOM     63  C   UNL A   1      45.020  31.163  28.758  1.00  0.00     0.058 A 
ATOM     64  C   UNL A   1      43.983  32.049  28.415  1.00  0.00     0.135 A 
ATOM     65  C   UNL A   1      46.244  31.329  28.094  1.00  0.00     0.135 A 
ATOM     66  F   UNL A   1      42.824  32.038  29.084  1.00  0.00    -0.206 F 
ATOM     67  C   UNL A   1      44.138  33.027  27.433  1.00  0.00     0.059 A 
ATOM     68  C   UNL A   1      46.433  32.320  27.130  1.00  0.00     0.059 A 
ATOM     69  F   UNL A   1      47.298  30.566  28.427  1.00  0.00    -0.206 F 
ATOM     70  C   UNL A   1      45.370  33.160  26.797  1.00  0.00     0.060 A 
BRANCH  70  71
ATOM     71  S   UNL A   1      45.599  34.504  25.613  1.00  0.00     0.124 S 
ATOM     72  O   UNL A   1      44.800  34.054  24.479  1.00  0.00    -0.237 OA
ATOM     73  O   UNL A   1      45.075  35.659  26.338  1.00  0.00    -0.237 OA
ATOM     74  O   UNL A   1      47.043  34.523  25.393  1.00  0.00    -0.744 OA
ENDBRANCH  70  71
ENDBRANCH  38  63
ENDBRANCH  12  13
ENDBRANCH   5   7
ENDBRANCH   4   5
ENDBRANCH   3   4
ENDBRANCH   2   3
ENDBRANCH   1   2
BRANCH   1  75
ATOM     75  C   UNL A   1      33.294  28.376  26.991  1.00  0.00     0.188 C 
BRANCH  75  76
ATOM     76  C   UNL A   1      31.894  27.965  27.509  1.00  0.00     0.188 C 
BRANCH  76  77
ATOM     77  O   UNL A   1      31.199  26.813  27.034  1.00  0.00    -0.376 OA
BRANCH  77  78
ATOM     78  C   UNL A   1      31.423  26.326  25.725  1.00  0.00     0.202 C 
BRANCH  78  79
ATOM     79  C   UNL A   1      32.211  25.015  25.618  1.00  0.00     0.261 C 
BRANCH  79  80
ATOM     80  O   UNL A   1      33.496  25.139  24.990  1.00  0.00    -0.458 OA
BRANCH  80  81
ATOM     81  C   UNL A   1      34.412  24.173  25.277  1.00  0.00     0.359 C 
ATOM     82  O   UNL A   1      35.603  24.380  25.528  1.00  0.00    -0.244 OA
BRANCH  81  83
ATOM     83  C   UNL A   1      33.833  22.829  25.238  1.00  0.00     0.174 A 
ATOM     84  C   UNL A   1      33.363  22.129  24.070  1.00  0.00     0.091 A 
ATOM     85  N   UNL A   1      33.704  22.069  26.359  1.00  0.00    -0.142 NA
ATOM     86  C   UNL A   1      32.988  20.907  24.553  1.00  0.00     0.199 A 
ATOM     87  N   UNL A   1      33.187  20.957  25.872  1.00  0.00    -0.135 N 
ATOM     88  N   UNL A   1      32.516  19.683  24.222  1.00  0.00    -0.109 NA
ATOM     89  N   UNL A   1      32.885  19.764  26.344  1.00  0.00    -0.177 N 
ATOM     90  N   UNL A   1      32.406  18.996  25.299  1.00  0.00    -0.050 NA
ATOM     91  H   UNL A   1      32.983  19.471  27.279  1.00  0.00     0.216 HD
ENDBRANCH  81  83
ENDBRANCH  80  81
ENDBRANCH  79  80
ENDBRANCH  78  79
ENDBRANCH  77  78
ENDBRANCH  76  77
ENDBRANCH  75  76
ENDBRANCH   1  75
TORSDOF 20
ENDMDL
MODEL 3
REMARK VINA RESULT:      -9.3      2.306      3.040
REMARK SMILES O=C(OCCOCCOCCOC(=O)c1cc2nn[nH]n2n1)c1ccc(-c2c3nc(c(-c4c(F)cc(S(=O)(=O)[O-])cc4F)c4ccc([nH]4)c(-c4c(F)cc(S(=O)(=O)[O-])cc4F)c4nc(c(-c5c(F)cc(S(=O)(=O)[O-])cc5F)c5ccc2[nH]5)C=C4)C=C3)cc1
REMARK SMILES IDX 6 1 5 2 4 3 3 4 2 5 1 6 23 7 24 8 88 9 25 10 87 11 26 12
REMARK SMILES IDX 27 13 28 14 81 15 29 16 86 17 80 18 82 19 30 20 85 21 79 22
REMARK SMILES IDX 78 23 31 25 65 26 44 27 64 28 45 29 48 30 63 31 83 32 46 33
REMARK SMILES IDX 47 34 62 36 84 37 49 38 32 39 33 40 42 41 34 42 35 43 41 44
REMARK SMILES IDX 43 45 36 46 37 47 38 48 39 49 40 50 66 51 67 52 76 53 68 54
REMARK SMILES IDX 69 55 75 56 77 57 70 58 71 59 72 60 73 61 74 62 50 63 51 64
REMARK SMILES IDX 60 65 52 66 53 67 59 68 61 69 54 70 55 71 56 72 57 73 58 74
REMARK SMILES IDX 7 75 8 76 9 77 10 78 11 79 12 80 13 81 14 82 15 83 16 84
REMARK SMILES IDX 22 85 17 86 21 87 18 88 20 89 19 90
REMARK H PARENT 82 24 48 35 20 91
REMARK Flexibility Score: inf
ROOT
ATOM      1  O   UNL A   1      34.201  33.515  28.003  1.00  0.00    -0.376 OA
ENDROOT
BRANCH   1   2
ATOM      2  C   UNL A   1      33.448  33.910  29.137  1.00  0.00     0.202 C 
BRANCH   2   3
ATOM      3  C   UNL A   1      33.466  35.413  29.439  1.00  0.00     0.261 C 
BRANCH   3   4
ATOM      4  O   UNL A   1      33.456  35.759  30.834  1.00  0.00    -0.460 OA
BRANCH   4   5
ATOM      5  C   UNL A   1      33.501  34.955  31.914  1.00  0.00     0.338 C 
ATOM      6  O   UNL A   1      32.522  34.874  32.652  1.00  0.00    -0.246 OA
BRANCH   5   7
ATOM      7  C   UNL A   1      34.779  34.356  32.375  1.00  0.00     0.060 A 
ATOM      8  C   UNL A   1      35.914  35.084  32.736  1.00  0.00     0.016 A 
ATOM      9  C   UNL A   1      34.834  32.949  32.360  1.00  0.00     0.016 A 
ATOM     10  C   UNL A   1      37.112  34.433  32.977  1.00  0.00     0.010 A 
ATOM     11  C   UNL A   1      36.034  32.292  32.587  1.00  0.00     0.010 A 
ATOM     12  C   UNL A   1      37.181  33.054  32.800  1.00  0.00    -0.014 A 
BRANCH  12  13
ATOM     13  C   UNL A   1      38.510  32.497  32.587  1.00  0.00     0.031 A 
ATOM     14  C   UNL A   1      39.401  32.351  33.769  1.00  0.00     0.074 A 
ATOM     15  C   UNL A   1      38.845  32.105  31.339  1.00  0.00     0.049 A 
ATOM     16  N   UNL A   1      40.602  32.804  33.945  1.00  0.00    -0.248 NA
ATOM     17  C   UNL A   1      38.845  31.658  34.942  1.00  0.00     0.031 C 
ATOM     18  C   UNL A   1      37.959  31.997  30.169  1.00  0.00     0.029 A 
ATOM     19  N   UNL A   1      40.014  31.594  30.876  1.00  0.00    -0.354 N 
ATOM     20  C   UNL A   1      41.031  32.276  35.163  1.00  0.00     0.074 A 
ATOM     21  C   UNL A   1      39.871  31.694  35.791  1.00  0.00     0.031 C 
ATOM     22  C   UNL A   1      38.546  31.218  29.238  1.00  0.00     0.029 A 
ATOM     23  C   UNL A   1      39.882  30.886  29.692  1.00  0.00     0.049 A 
ATOM     24  H   UNL A   1      40.875  31.715  31.339  1.00  0.00     0.167 HD
ATOM     25  C   UNL A   1      42.347  32.152  35.491  1.00  0.00     0.037 A 
ATOM     26  C   UNL A   1      40.758  29.982  29.194  1.00  0.00     0.037 A 
ATOM     27  C   UNL A   1      43.195  33.017  34.722  1.00  0.00     0.049 A 
ATOM     28  C   UNL A   1      42.075  30.247  29.829  1.00  0.00     0.074 A 
ATOM     29  C   UNL A   1      43.303  34.386  34.572  1.00  0.00     0.029 A 
ATOM     30  N   UNL A   1      43.927  32.476  33.694  1.00  0.00    -0.354 N 
ATOM     31  N   UNL A   1      42.767  31.340  29.645  1.00  0.00    -0.248 NA
ATOM     32  C   UNL A   1      42.425  29.487  31.019  1.00  0.00     0.031 C 
ATOM     33  C   UNL A   1      43.676  34.586  33.210  1.00  0.00     0.029 A 
ATOM     34  C   UNL A   1      43.797  33.325  32.622  1.00  0.00     0.049 A 
ATOM     35  H   UNL A   1      44.447  31.641  33.721  1.00  0.00     0.167 HD
ATOM     36  C   UNL A   1      43.352  31.612  30.875  1.00  0.00     0.074 A 
ATOM     37  C   UNL A   1      43.184  30.386  31.651  1.00  0.00     0.031 C 
ATOM     38  C   UNL A   1      43.672  32.887  31.249  1.00  0.00     0.037 A 
BRANCH  25  39
ATOM     39  C   UNL A   1      42.880  30.996  36.300  1.00  0.00     0.058 A 
ATOM     40  C   UNL A   1      43.759  31.217  37.378  1.00  0.00     0.135 A 
ATOM     41  C   UNL A   1      42.758  29.654  35.872  1.00  0.00     0.135 A 
ATOM     42  F   UNL A   1      43.970  32.459  37.841  1.00  0.00    -0.206 F 
ATOM     43  C   UNL A   1      44.497  30.182  37.960  1.00  0.00     0.059 A 
ATOM     44  C   UNL A   1      43.439  28.602  36.472  1.00  0.00     0.059 A 
ATOM     45  F   UNL A   1      42.045  29.321  34.788  1.00  0.00    -0.206 F 
ATOM     46  C   UNL A   1      44.340  28.881  37.487  1.00  0.00     0.060 A 
BRANCH  46  47
ATOM     47  S   UNL A   1      45.377  27.562  38.144  1.00  0.00     0.124 S 
ATOM     48  O   UNL A   1      46.460  28.324  38.753  1.00  0.00    -0.237 OA
ATOM     49  O   UNL A   1      44.470  26.888  39.066  1.00  0.00    -0.237 OA
ATOM     50  O   UNL A   1      45.734  26.794  36.954  1.00  0.00    -0.744 OA
ENDBRANCH  46  47
ENDBRANCH  25  39
BRANCH  26  51
ATOM     51  C   UNL A   1      40.379  28.686  28.569  1.00  0.00     0.058 A 
ATOM     52  C   UNL A   1      40.767  28.358  27.262  1.00  0.00     0.135 A 
ATOM     53  C   UNL A   1      39.811  27.638  29.330  1.00  0.00     0.135 A 
ATOM     54  F   UNL A   1      41.353  29.281  26.483  1.00  0.00    -0.206 F 
ATOM     55  C   UNL A   1      40.614  27.066  26.743  1.00  0.00     0.059 A 
ATOM     56  C   UNL A   1      39.630  26.353  28.829  1.00  0.00     0.059 A 
ATOM     57  F   UNL A   1      39.493  27.806  30.621  1.00  0.00    -0.206 F 
ATOM     58  C   UNL A   1      40.051  26.067  27.539  1.00  0.00     0.060 A 
BRANCH  58  59
ATOM     59  S   UNL A   1      39.977  24.368  26.928  1.00  0.00     0.124 S 
ATOM     60  O   UNL A   1      38.686  24.348  26.251  1.00  0.00    -0.237 OA
ATOM     61  O   UNL A   1      41.152  24.302  26.065  1.00  0.00    -0.237 OA
ATOM     62  O   UNL A   1      40.055  23.565  28.146  1.00  0.00    -0.744 OA
ENDBRANCH  58  59
ENDBRANCH  26  51
BRANCH  38  63
ATOM     63  C   UNL A   1      43.599  33.971  30.201  1.00  0.00     0.058 A 
ATOM     64  C   UNL A   1      42.418  34.674  29.902  1.00  0.00     0.135 A 
ATOM     65  C   UNL A   1      44.784  34.440  29.616  1.00  0.00     0.135 A 
ATOM     66  F   UNL A   1      41.266  34.369  30.512  1.00  0.00    -0.206 F 
ATOM     67  C   UNL A   1      42.406  35.765  29.033  1.00  0.00     0.059 A 
ATOM     68  C   UNL A   1      44.801  35.547  28.768  1.00  0.00     0.059 A 
ATOM     69  F   UNL A   1      45.958  33.860  29.919  1.00  0.00    -0.206 F 
ATOM     70  C   UNL A   1      43.604  36.199  28.472  1.00  0.00     0.060 A 
BRANCH  70  71
ATOM     71  S   UNL A   1      43.597  37.683  27.443  1.00  0.00     0.124 S 
ATOM     72  O   UNL A   1      43.351  38.736  28.423  1.00  0.00    -0.237 OA
ATOM     73  O   UNL A   1      44.932  37.667  26.852  1.00  0.00    -0.237 OA
ATOM     74  O   UNL A   1      42.507  37.439  26.501  1.00  0.00    -0.744 OA
ENDBRANCH  70  71
ENDBRANCH  38  63
ENDBRANCH  12  13
ENDBRANCH   5   7
ENDBRANCH   4   5
ENDBRANCH   3   4
ENDBRANCH   2   3
ENDBRANCH   1   2
BRANCH   1  75
ATOM     75  C   UNL A   1      34.917  32.293  28.111  1.00  0.00     0.188 C 
BRANCH  75  76
ATOM     76  C   UNL A   1      34.281  31.093  27.367  1.00  0.00     0.188 C 
BRANCH  76  77
ATOM     77  O   UNL A   1      32.872  30.944  27.199  1.00  0.00    -0.376 OA
BRANCH  77  78
ATOM     78  C   UNL A   1      32.353  30.072  26.214  1.00  0.00     0.202 C 
BRANCH  78  79
ATOM     79  C   UNL A   1      32.360  28.579  26.561  1.00  0.00     0.261 C 
BRANCH  79  80
ATOM     80  O   UNL A   1      31.177  27.868  26.168  1.00  0.00    -0.458 OA
BRANCH  80  81
ATOM     81  C   UNL A   1      31.328  26.547  25.872  1.00  0.00     0.359 C 
ATOM     82  O   UNL A   1      31.099  25.617  26.651  1.00  0.00    -0.244 OA
BRANCH  81  83
ATOM     83  C   UNL A   1      31.820  26.336  24.509  1.00  0.00     0.174 A 
ATOM     84  C   UNL A   1      33.123  25.854  24.131  1.00  0.00     0.091 A 
ATOM     85  N   UNL A   1      31.039  26.566  23.419  1.00  0.00    -0.142 NA
ATOM     86  C   UNL A   1      33.056  25.773  22.768  1.00  0.00     0.199 A 
ATOM     87  N   UNL A   1      31.845  26.221  22.433  1.00  0.00    -0.135 N 
ATOM     88  N   UNL A   1      33.721  25.410  21.648  1.00  0.00    -0.109 NA
ATOM     89  N   UNL A   1      31.744  26.094  21.125  1.00  0.00    -0.177 N 
ATOM     90  N   UNL A   1      32.957  25.639  20.643  1.00  0.00    -0.050 NA
ATOM     91  H   UNL A   1      30.944  26.289  20.586  1.00  0.00     0.216 HD
ENDBRANCH  81  83
ENDBRANCH  80  81
ENDBRANCH  79  80
ENDBRANCH  78  79
ENDBRANCH  77  78
ENDBRANCH  76  77
ENDBRANCH  75  76
ENDBRANCH   1  75
TORSDOF 20
ENDMDL
