MODEL 1
REMARK VINA RESULT:     -10.2      0.000      0.000
REMARK SMILES C[C@@H](C(=O)OCCOCCOCCOC(=O)c1ccc(-c2c3nc(c(-c4c(F)cc(S(=O)(=O)[O-])cc4F)c4ccc([nH]4)c(-c4c(F)cc(S(=O)(=O)[O-])cc4F)c4nc(c(-c5c(F)cc(S(=O)(=O)[O-])cc5F)c5ccc2[nH]5)C=C4)C=C3)cc1)c1cc(C(=O)c2ccccc2)ccc1O
REMARK SMILES IDX 9 1 8 2 7 3 6 4 5 5 3 6 4 7 2 8 1 9 83 10 84 11 96 12 85 13
REMARK SMILES IDX 95 14 94 15 97 16 86 18 87 19 88 20 89 21 93 22 90 23 92 24
REMARK SMILES IDX 91 25 10 26 11 27 12 28 13 29 14 30 15 31 16 32 17 33 18 34
REMARK SMILES IDX 82 35 19 36 81 37 20 38 21 39 22 40 75 41 23 42 80 43 74 44
REMARK SMILES IDX 76 45 24 46 79 47 73 48 72 49 25 51 59 52 38 53 58 54 39 55
REMARK SMILES IDX 42 56 57 57 77 58 40 59 41 60 56 62 78 63 43 64 26 65 27 66
REMARK SMILES IDX 36 67 28 68 29 69 35 70 37 71 30 72 31 73 32 74 33 75 34 76
REMARK SMILES IDX 60 77 61 78 70 79 62 80 63 81 69 82 71 83 64 84 65 85 66 86
REMARK SMILES IDX 67 87 68 88 44 89 45 90 54 91 46 92 47 93 53 94 55 95 48 96
REMARK SMILES IDX 49 97 50 98 51 99 52 100
REMARK H PARENT 97 17 76 50 42 61
REMARK Flexibility Score: inf
ROOT
ATOM      1  C   UNL A   1      34.616  31.897  28.341  1.00  0.00     0.188 C 
ENDROOT
BRANCH   1   2
ATOM      2  O   UNL A   1      33.438  31.679  27.590  1.00  0.00    -0.376 OA
BRANCH   2   3
ATOM      3  C   UNL A   1      33.245  30.426  26.953  1.00  0.00     0.202 C 
BRANCH   3   4
ATOM      4  C   UNL A   1      32.021  30.126  26.068  1.00  0.00     0.261 C 
BRANCH   4   5
ATOM      5  O   UNL A   1      32.131  28.973  25.212  1.00  0.00    -0.463 OA
BRANCH   5   6
ATOM      6  C   UNL A   1      31.005  28.606  24.545  1.00  0.00     0.313 C 
ATOM      7  O   UNL A   1      30.311  29.387  23.893  1.00  0.00    -0.252 OA
BRANCH   6   8
ATOM      8  C   UNL A   1      30.702  27.105  24.561  1.00  0.00     0.130 C 
ATOM      9  C   UNL A   1      30.680  26.496  25.977  1.00  0.00     0.025 C 
BRANCH   8  10
ATOM     10  C   UNL A   1      31.448  26.260  23.510  1.00  0.00     0.009 A 
ATOM     11  C   UNL A   1      31.997  25.011  23.902  1.00  0.00     0.020 A 
ATOM     12  C   UNL A   1      31.567  26.582  22.150  1.00  0.00     0.119 A 
ATOM     13  C   UNL A   1      32.650  24.145  22.995  1.00  0.00     0.023 A 
ATOM     14  C   UNL A   1      32.223  25.741  21.247  1.00  0.00     0.047 A 
ATOM     15  C   UNL A   1      32.753  24.521  21.659  1.00  0.00     0.016 A 
BRANCH  12  16
ATOM     16  O   UNL A   1      31.075  27.719  21.578  1.00  0.00    -0.508 OA
ATOM     17  H   UNL A   1      30.636  27.676  20.752  1.00  0.00     0.293 HD
ENDBRANCH  12  16
BRANCH  13  18
ATOM     18  C   UNL A   1      33.143  22.819  23.485  1.00  0.00     0.193 C 
ATOM     19  O   UNL A   1      32.402  21.840  23.440  1.00  0.00    -0.289 OA
BRANCH  18  20
ATOM     20  C   UNL A   1      34.531  22.637  23.979  1.00  0.00     0.022 A 
ATOM     21  C   UNL A   1      34.727  22.128  25.265  1.00  0.00     0.012 A 
ATOM     22  C   UNL A   1      35.633  22.973  23.187  1.00  0.00     0.012 A 
ATOM     23  C   UNL A   1      36.025  21.905  25.731  1.00  0.00     0.001 A 
ATOM     24  C   UNL A   1      36.928  22.742  23.651  1.00  0.00     0.001 A 
ATOM     25  C   UNL A   1      37.122  22.201  24.921  1.00  0.00     0.000 A 
ENDBRANCH  18  20
ENDBRANCH  13  18
ENDBRANCH   8  10
ENDBRANCH   6   8
ENDBRANCH   5   6
ENDBRANCH   4   5
ENDBRANCH   3   4
ENDBRANCH   2   3
ENDBRANCH   1   2
BRANCH   1  26
ATOM     26  C   UNL A   1      34.631  33.010  29.400  1.00  0.00     0.188 C 
BRANCH  26  27
ATOM     27  O   UNL A   1      34.485  34.350  28.999  1.00  0.00    -0.376 OA
BRANCH  27  28
ATOM     28  C   UNL A   1      33.214  34.970  29.056  1.00  0.00     0.202 C 
BRANCH  28  29
ATOM     29  C   UNL A   1      32.783  36.056  30.065  1.00  0.00     0.261 C 
BRANCH  29  30
ATOM     30  O   UNL A   1      32.172  35.646  31.291  1.00  0.00    -0.460 OA
BRANCH  30  31
ATOM     31  C   UNL A   1      32.848  35.977  32.418  1.00  0.00     0.338 C 
ATOM     32  O   UNL A   1      32.485  36.747  33.296  1.00  0.00    -0.246 OA
BRANCH  31  33
ATOM     33  C   UNL A   1      34.028  35.101  32.542  1.00  0.00     0.060 A 
ATOM     34  C   UNL A   1      33.855  33.804  33.041  1.00  0.00     0.016 A 
ATOM     35  C   UNL A   1      35.299  35.563  32.201  1.00  0.00     0.016 A 
ATOM     36  C   UNL A   1      34.957  32.971  33.208  1.00  0.00     0.010 A 
ATOM     37  C   UNL A   1      36.408  34.734  32.410  1.00  0.00     0.010 A 
ATOM     38  C   UNL A   1      36.248  33.442  32.943  1.00  0.00    -0.014 A 
BRANCH  38  39
ATOM     39  C   UNL A   1      37.431  32.663  33.393  1.00  0.00     0.031 A 
ATOM     40  C   UNL A   1      38.055  33.005  34.719  1.00  0.00     0.074 A 
ATOM     41  C   UNL A   1      37.940  31.659  32.657  1.00  0.00     0.049 A 
ATOM     42  N   UNL A   1      39.140  32.530  35.273  1.00  0.00    -0.248 NA
ATOM     43  C   UNL A   1      37.362  34.023  35.526  1.00  0.00     0.031 C 
ATOM     44  C   UNL A   1      37.402  31.193  31.382  1.00  0.00     0.029 A 
ATOM     45  N   UNL A   1      39.034  30.856  32.874  1.00  0.00    -0.354 N 
ATOM     46  C   UNL A   1      39.285  33.219  36.473  1.00  0.00     0.074 A 
ATOM     47  C   UNL A   1      38.174  34.143  36.565  1.00  0.00     0.031 C 
ATOM     48  C   UNL A   1      38.167  30.184  30.929  1.00  0.00     0.029 A 
ATOM     49  C   UNL A   1      39.281  29.971  31.850  1.00  0.00     0.049 A 
ATOM     50  H   UNL A   1      39.588  30.910  33.686  1.00  0.00     0.167 HD
ATOM     51  C   UNL A   1      40.257  33.099  37.407  1.00  0.00     0.037 A 
ATOM     52  C   UNL A   1      40.308  29.116  31.660  1.00  0.00     0.037 A 
ATOM     53  C   UNL A   1      41.362  32.180  37.313  1.00  0.00     0.049 A 
ATOM     54  C   UNL A   1      41.416  29.047  32.684  1.00  0.00     0.074 A 
ATOM     55  C   UNL A   1      42.385  31.971  38.222  1.00  0.00     0.029 A 
ATOM     56  N   UNL A   1      41.598  31.326  36.246  1.00  0.00    -0.354 N 
ATOM     57  N   UNL A   1      41.535  29.695  33.820  1.00  0.00    -0.248 NA
ATOM     58  C   UNL A   1      42.536  28.138  32.395  1.00  0.00     0.031 C 
ATOM     59  C   UNL A   1      43.270  31.036  37.678  1.00  0.00     0.029 A 
ATOM     60  C   UNL A   1      42.763  30.609  36.461  1.00  0.00     0.049 A 
ATOM     61  H   UNL A   1      41.021  31.242  35.452  1.00  0.00     0.167 HD
ATOM     62  C   UNL A   1      42.727  29.252  34.389  1.00  0.00     0.074 A 
ATOM     63  C   UNL A   1      43.283  28.271  33.482  1.00  0.00     0.031 C 
ATOM     64  C   UNL A   1      43.306  29.623  35.559  1.00  0.00     0.037 A 
BRANCH  51  65
ATOM     65  C   UNL A   1      40.200  34.020  38.596  1.00  0.00     0.058 A 
ATOM     66  C   UNL A   1      40.706  35.329  38.549  1.00  0.00     0.135 A 
ATOM     67  C   UNL A   1      39.598  33.594  39.791  1.00  0.00     0.135 A 
ATOM     68  F   UNL A   1      41.307  35.782  37.438  1.00  0.00    -0.206 F 
ATOM     69  C   UNL A   1      40.643  36.172  39.654  1.00  0.00     0.059 A 
ATOM     70  C   UNL A   1      39.496  34.431  40.898  1.00  0.00     0.059 A 
ATOM     71  F   UNL A   1      39.100  32.352  39.892  1.00  0.00    -0.206 F 
ATOM     72  C   UNL A   1      40.034  35.713  40.824  1.00  0.00     0.060 A 
BRANCH  72  73
ATOM     73  S   UNL A   1      39.956  36.822  42.247  1.00  0.00     0.124 S 
ATOM     74  O   UNL A   1      39.601  38.087  41.611  1.00  0.00    -0.237 OA
ATOM     75  O   UNL A   1      38.913  36.208  43.062  1.00  0.00    -0.237 OA
ATOM     76  O   UNL A   1      41.303  36.757  42.804  1.00  0.00    -0.744 OA
ENDBRANCH  72  73
ENDBRANCH  51  65
BRANCH  52  77
ATOM     77  C   UNL A   1      40.364  28.270  30.436  1.00  0.00     0.058 A 
ATOM     78  C   UNL A   1      41.258  28.562  29.395  1.00  0.00     0.135 A 
ATOM     79  C   UNL A   1      39.514  27.164  30.273  1.00  0.00     0.135 A 
ATOM     80  F   UNL A   1      42.077  29.620  29.492  1.00  0.00    -0.206 F 
ATOM     81  C   UNL A   1      41.300  27.799  28.232  1.00  0.00     0.059 A 
ATOM     82  C   UNL A   1      39.559  26.366  29.133  1.00  0.00     0.059 A 
ATOM     83  F   UNL A   1      38.641  26.838  31.239  1.00  0.00    -0.206 F 
ATOM     84  C   UNL A   1      40.449  26.698  28.113  1.00  0.00     0.060 A 
BRANCH  84  85
ATOM     85  S   UNL A   1      40.549  25.685  26.622  1.00  0.00     0.124 S 
ATOM     86  O   UNL A   1      40.927  26.674  25.619  1.00  0.00    -0.237 OA
ATOM     87  O   UNL A   1      41.578  24.715  26.981  1.00  0.00    -0.237 OA
ATOM     88  O   UNL A   1      39.200  25.140  26.495  1.00  0.00    -0.744 OA
ENDBRANCH  84  85
ENDBRANCH  52  77
BRANCH  64  89
ATOM     89  C   UNL A   1      44.585  28.935  35.961  1.00  0.00     0.058 A 
ATOM     90  C   UNL A   1      44.590  27.740  36.699  1.00  0.00     0.135 A 
ATOM     91  C   UNL A   1      45.825  29.451  35.549  1.00  0.00     0.135 A 
ATOM     92  F   UNL A   1      43.435  27.205  37.125  1.00  0.00    -0.206 F 
ATOM     93  C   UNL A   1      45.778  27.096  37.034  1.00  0.00     0.059 A 
ATOM     94  C   UNL A   1      47.023  28.807  35.844  1.00  0.00     0.059 A 
ATOM     95  F   UNL A   1      45.880  30.584  34.831  1.00  0.00    -0.206 F 
ATOM     96  C   UNL A   1      46.990  27.635  36.597  1.00  0.00     0.060 A 
BRANCH  96  97
ATOM     97  S   UNL A   1      48.521  26.771  37.009  1.00  0.00     0.124 S 
ATOM     98  O   UNL A   1      48.023  25.457  37.400  1.00  0.00    -0.237 OA
ATOM     99  O   UNL A   1      49.255  26.822  35.748  1.00  0.00    -0.237 OA
ATOM    100  O   UNL A   1      49.087  27.575  38.088  1.00  0.00    -0.744 OA
ENDBRANCH  96  97
ENDBRANCH  64  89
ENDBRANCH  38  39
ENDBRANCH  31  33
ENDBRANCH  30  31
ENDBRANCH  29  30
ENDBRANCH  28  29
ENDBRANCH  27  28
ENDBRANCH  26  27
ENDBRANCH   1  26
TORSDOF 24
ENDMDL
MODEL 2
REMARK VINA RESULT:     -10.1      2.226      9.562
REMARK SMILES C[C@@H](C(=O)OCCOCCOCCOC(=O)c1ccc(-c2c3nc(c(-c4c(F)cc(S(=O)(=O)[O-])cc4F)c4ccc([nH]4)c(-c4c(F)cc(S(=O)(=O)[O-])cc4F)c4nc(c(-c5c(F)cc(S(=O)(=O)[O-])cc5F)c5ccc2[nH]5)C=C4)C=C3)cc1)c1cc(C(=O)c2ccccc2)ccc1O
REMARK SMILES IDX 9 1 8 2 7 3 6 4 5 5 3 6 4 7 2 8 1 9 83 10 84 11 96 12 85 13
REMARK SMILES IDX 95 14 94 15 97 16 86 18 87 19 88 20 89 21 93 22 90 23 92 24
REMARK SMILES IDX 91 25 10 26 11 27 12 28 13 29 14 30 15 31 16 32 17 33 18 34
REMARK SMILES IDX 82 35 19 36 81 37 20 38 21 39 22 40 75 41 23 42 80 43 74 44
REMARK SMILES IDX 76 45 24 46 79 47 73 48 72 49 25 51 59 52 38 53 58 54 39 55
REMARK SMILES IDX 42 56 57 57 77 58 40 59 41 60 56 62 78 63 43 64 26 65 27 66
REMARK SMILES IDX 36 67 28 68 29 69 35 70 37 71 30 72 31 73 32 74 33 75 34 76
REMARK SMILES IDX 60 77 61 78 70 79 62 80 63 81 69 82 71 83 64 84 65 85 66 86
REMARK SMILES IDX 67 87 68 88 44 89 45 90 54 91 46 92 47 93 53 94 55 95 48 96
REMARK SMILES IDX 49 97 50 98 51 99 52 100
REMARK H PARENT 97 17 76 50 42 61
REMARK Flexibility Score: inf
ROOT
ATOM      1  C   UNL A   1      36.420  20.910  24.645  1.00  0.00     0.188 C 
ENDROOT
BRANCH   1   2
ATOM      2  O   UNL A   1      35.316  20.441  25.394  1.00  0.00    -0.376 OA
BRANCH   2   3
ATOM      3  C   UNL A   1      34.305  19.690  24.740  1.00  0.00     0.202 C 
BRANCH   3   4
ATOM      4  C   UNL A   1      32.943  20.296  24.351  1.00  0.00     0.261 C 
BRANCH   4   5
ATOM      5  O   UNL A   1      32.578  21.509  25.035  1.00  0.00    -0.463 OA
BRANCH   5   6
ATOM      6  C   UNL A   1      33.238  22.636  24.662  1.00  0.00     0.313 C 
ATOM      7  O   UNL A   1      33.566  22.884  23.500  1.00  0.00    -0.252 OA
BRANCH   6   8
ATOM      8  C   UNL A   1      33.462  23.659  25.779  1.00  0.00     0.130 C 
ATOM      9  C   UNL A   1      33.693  23.019  27.163  1.00  0.00     0.025 C 
BRANCH   8  10
ATOM     10  C   UNL A   1      32.504  24.867  25.784  1.00  0.00     0.009 A 
ATOM     11  C   UNL A   1      33.042  26.167  25.590  1.00  0.00     0.020 A 
ATOM     12  C   UNL A   1      31.107  24.790  25.886  1.00  0.00     0.119 A 
ATOM     13  C   UNL A   1      32.235  27.325  25.526  1.00  0.00     0.023 A 
ATOM     14  C   UNL A   1      30.300  25.930  25.839  1.00  0.00     0.047 A 
ATOM     15  C   UNL A   1      30.854  27.192  25.646  1.00  0.00     0.016 A 
BRANCH  12  16
ATOM     16  O   UNL A   1      30.405  23.630  26.041  1.00  0.00    -0.508 OA
ATOM     17  H   UNL A   1      29.647  23.467  25.515  1.00  0.00     0.293 HD
ENDBRANCH  12  16
BRANCH  13  18
ATOM     18  C   UNL A   1      32.883  28.647  25.255  1.00  0.00     0.193 C 
ATOM     19  O   UNL A   1      32.738  29.182  24.159  1.00  0.00    -0.289 OA
BRANCH  18  20
ATOM     20  C   UNL A   1      33.659  29.363  26.298  1.00  0.00     0.022 A 
ATOM     21  C   UNL A   1      33.136  30.541  26.836  1.00  0.00     0.012 A 
ATOM     22  C   UNL A   1      34.897  28.885  26.738  1.00  0.00     0.012 A 
ATOM     23  C   UNL A   1      33.829  31.206  27.852  1.00  0.00     0.001 A 
ATOM     24  C   UNL A   1      35.582  29.545  27.758  1.00  0.00     0.001 A 
ATOM     25  C   UNL A   1      35.043  30.701  28.319  1.00  0.00     0.000 A 
ENDBRANCH  18  20
ENDBRANCH  13  18
ENDBRANCH   8  10
ENDBRANCH   6   8
ENDBRANCH   5   6
ENDBRANCH   4   5
ENDBRANCH   3   4
ENDBRANCH   2   3
ENDBRANCH   1   2
BRANCH   1  26
ATOM     26  C   UNL A   1      37.838  20.710  25.201  1.00  0.00     0.188 C 
BRANCH  26  27
ATOM     27  O   UNL A   1      38.554  21.819  25.686  1.00  0.00    -0.376 OA
BRANCH  27  28
ATOM     28  C   UNL A   1      37.932  23.089  25.752  1.00  0.00     0.202 C 
BRANCH  28  29
ATOM     29  C   UNL A   1      38.585  24.390  26.264  1.00  0.00     0.261 C 
BRANCH  29  30
ATOM     30  O   UNL A   1      39.985  24.383  26.558  1.00  0.00    -0.460 OA
BRANCH  30  31
ATOM     31  C   UNL A   1      40.622  25.567  26.388  1.00  0.00     0.338 C 
ATOM     32  O   UNL A   1      40.931  26.093  25.327  1.00  0.00    -0.246 OA
BRANCH  31  33
ATOM     33  C   UNL A   1      40.717  26.249  27.691  1.00  0.00     0.060 A 
ATOM     34  C   UNL A   1      39.734  25.997  28.657  1.00  0.00     0.016 A 
ATOM     35  C   UNL A   1      41.744  27.156  27.951  1.00  0.00     0.016 A 
ATOM     36  C   UNL A   1      39.775  26.659  29.880  1.00  0.00     0.010 A 
ATOM     37  C   UNL A   1      41.757  27.849  29.168  1.00  0.00     0.010 A 
ATOM     38  C   UNL A   1      40.754  27.627  30.129  1.00  0.00    -0.014 A 
BRANCH  38  39
ATOM     39  C   UNL A   1      40.626  28.530  31.302  1.00  0.00     0.031 A 
ATOM     40  C   UNL A   1      39.590  29.622  31.259  1.00  0.00     0.074 A 
ATOM     41  C   UNL A   1      41.394  28.385  32.396  1.00  0.00     0.049 A 
ATOM     42  N   UNL A   1      39.358  30.581  32.117  1.00  0.00    -0.248 NA
ATOM     43  C   UNL A   1      38.699  29.633  30.088  1.00  0.00     0.031 C 
ATOM     44  C   UNL A   1      42.397  27.341  32.588  1.00  0.00     0.029 A 
ATOM     45  N   UNL A   1      41.457  29.128  33.551  1.00  0.00    -0.354 N 
ATOM     46  C   UNL A   1      38.324  31.335  31.572  1.00  0.00     0.074 A 
ATOM     47  C   UNL A   1      37.974  30.719  30.310  1.00  0.00     0.031 C 
ATOM     48  C   UNL A   1      42.976  27.509  33.790  1.00  0.00     0.029 A 
ATOM     49  C   UNL A   1      42.428  28.704  34.429  1.00  0.00     0.049 A 
ATOM     50  H   UNL A   1      40.862  29.892  33.732  1.00  0.00     0.167 HD
ATOM     51  C   UNL A   1      37.728  32.443  32.072  1.00  0.00     0.037 A 
ATOM     52  C   UNL A   1      42.851  29.241  35.592  1.00  0.00     0.037 A 
ATOM     53  C   UNL A   1      38.079  33.055  33.328  1.00  0.00     0.049 A 
ATOM     54  C   UNL A   1      42.216  30.514  36.098  1.00  0.00     0.074 A 
ATOM     55  C   UNL A   1      37.515  34.167  33.927  1.00  0.00     0.029 A 
ATOM     56  N   UNL A   1      39.091  32.618  34.170  1.00  0.00    -0.354 N 
ATOM     57  N   UNL A   1      41.232  31.211  35.579  1.00  0.00    -0.248 NA
ATOM     58  C   UNL A   1      42.757  31.081  37.342  1.00  0.00     0.031 C 
ATOM     59  C   UNL A   1      38.224  34.438  35.102  1.00  0.00     0.029 A 
ATOM     60  C   UNL A   1      39.184  33.454  35.271  1.00  0.00     0.049 A 
ATOM     61  H   UNL A   1      39.659  31.829  34.009  1.00  0.00     0.167 HD
ATOM     62  C   UNL A   1      41.021  32.280  36.447  1.00  0.00     0.074 A 
ATOM     63  C   UNL A   1      41.969  32.130  37.530  1.00  0.00     0.031 C 
ATOM     64  C   UNL A   1      40.123  33.292  36.355  1.00  0.00     0.037 A 
BRANCH  51  65
ATOM     65  C   UNL A   1      36.663  33.099  31.236  1.00  0.00     0.058 A 
ATOM     66  C   UNL A   1      35.301  33.027  31.574  1.00  0.00     0.135 A 
ATOM     67  C   UNL A   1      37.015  33.838  30.095  1.00  0.00     0.135 A 
ATOM     68  F   UNL A   1      34.907  32.318  32.643  1.00  0.00    -0.206 F 
ATOM     69  C   UNL A   1      34.326  33.641  30.795  1.00  0.00     0.059 A 
ATOM     70  C   UNL A   1      36.059  34.486  29.319  1.00  0.00     0.059 A 
ATOM     71  F   UNL A   1      38.301  33.938  29.725  1.00  0.00    -0.206 F 
ATOM     72  C   UNL A   1      34.716  34.370  29.669  1.00  0.00     0.060 A 
BRANCH  72  73
ATOM     73  S   UNL A   1      33.438  35.165  28.672  1.00  0.00     0.124 S 
ATOM     74  O   UNL A   1      33.092  34.097  27.738  1.00  0.00    -0.237 OA
ATOM     75  O   UNL A   1      32.423  35.489  29.669  1.00  0.00    -0.237 OA
ATOM     76  O   UNL A   1      34.127  36.311  28.085  1.00  0.00    -0.744 OA
ENDBRANCH  72  73
ENDBRANCH  51  65
BRANCH  52  77
ATOM     77  C   UNL A   1      43.957  28.598  36.357  1.00  0.00     0.058 A 
ATOM     78  C   UNL A   1      45.267  29.096  36.289  1.00  0.00     0.135 A 
ATOM     79  C   UNL A   1      43.731  27.466  37.156  1.00  0.00     0.135 A 
ATOM     80  F   UNL A   1      45.540  30.164  35.524  1.00  0.00    -0.206 F 
ATOM     81  C   UNL A   1      46.315  28.489  36.973  1.00  0.00     0.059 A 
ATOM     82  C   UNL A   1      44.757  26.860  37.875  1.00  0.00     0.059 A 
ATOM     83  F   UNL A   1      42.496  26.950  37.258  1.00  0.00    -0.206 F 
ATOM     84  C   UNL A   1      46.048  27.372  37.768  1.00  0.00     0.060 A 
BRANCH  84  85
ATOM     85  S   UNL A   1      47.408  26.624  38.692  1.00  0.00     0.124 S 
ATOM     86  O   UNL A   1      46.846  25.326  39.043  1.00  0.00    -0.237 OA
ATOM     87  O   UNL A   1      48.478  26.609  37.701  1.00  0.00    -0.237 OA
ATOM     88  O   UNL A   1      47.607  27.549  39.805  1.00  0.00    -0.744 OA
ENDBRANCH  84  85
ENDBRANCH  52  77
BRANCH  64  89
ATOM     89  C   UNL A   1      40.076  34.297  37.476  1.00  0.00     0.058 A 
ATOM     90  C   UNL A   1      40.815  35.491  37.440  1.00  0.00     0.135 A 
ATOM     91  C   UNL A   1      39.230  34.087  38.579  1.00  0.00     0.135 A 
ATOM     92  F   UNL A   1      41.643  35.742  36.415  1.00  0.00    -0.206 F 
ATOM     93  C   UNL A   1      40.735  36.428  38.467  1.00  0.00     0.059 A 
ATOM     94  C   UNL A   1      39.110  35.025  39.600  1.00  0.00     0.059 A 
ATOM     95  F   UNL A   1      38.492  32.969  38.660  1.00  0.00    -0.206 F 
ATOM     96  C   UNL A   1      39.875  36.188  39.542  1.00  0.00     0.060 A 
BRANCH  96  97
ATOM     97  S   UNL A   1      39.756  37.426  40.850  1.00  0.00     0.124 S 
ATOM     98  O   UNL A   1      38.751  38.333  40.307  1.00  0.00    -0.237 OA
ATOM     99  O   UNL A   1      39.334  36.626  41.997  1.00  0.00    -0.237 OA
ATOM    100  O   UNL A   1      41.109  37.966  40.934  1.00  0.00    -0.744 OA
ENDBRANCH  96  97
ENDBRANCH  64  89
ENDBRANCH  38  39
ENDBRANCH  31  33
ENDBRANCH  30  31
ENDBRANCH  29  30
ENDBRANCH  28  29
ENDBRANCH  27  28
ENDBRANCH  26  27
ENDBRANCH   1  26
TORSDOF 24
ENDMDL
MODEL 3
REMARK VINA RESULT:      -9.3      5.572      9.838
REMARK SMILES C[C@@H](C(=O)OCCOCCOCCOC(=O)c1ccc(-c2c3nc(c(-c4c(F)cc(S(=O)(=O)[O-])cc4F)c4ccc([nH]4)c(-c4c(F)cc(S(=O)(=O)[O-])cc4F)c4nc(c(-c5c(F)cc(S(=O)(=O)[O-])cc5F)c5ccc2[nH]5)C=C4)C=C3)cc1)c1cc(C(=O)c2ccccc2)ccc1O
REMARK SMILES IDX 9 1 8 2 7 3 6 4 5 5 3 6 4 7 2 8 1 9 83 10 84 11 96 12 85 13
REMARK SMILES IDX 95 14 94 15 97 16 86 18 87 19 88 20 89 21 93 22 90 23 92 24
REMARK SMILES IDX 91 25 10 26 11 27 12 28 13 29 14 30 15 31 16 32 17 33 18 34
REMARK SMILES IDX 82 35 19 36 81 37 20 38 21 39 22 40 75 41 23 42 80 43 74 44
REMARK SMILES IDX 76 45 24 46 79 47 73 48 72 49 25 51 59 52 38 53 58 54 39 55
REMARK SMILES IDX 42 56 57 57 77 58 40 59 41 60 56 62 78 63 43 64 26 65 27 66
REMARK SMILES IDX 36 67 28 68 29 69 35 70 37 71 30 72 31 73 32 74 33 75 34 76
REMARK SMILES IDX 60 77 61 78 70 79 62 80 63 81 69 82 71 83 64 84 65 85 66 86
REMARK SMILES IDX 67 87 68 88 44 89 45 90 54 91 46 92 47 93 53 94 55 95 48 96
REMARK SMILES IDX 49 97 50 98 51 99 52 100
REMARK H PARENT 97 17 76 50 42 61
REMARK Flexibility Score: inf
ROOT
ATOM      1  C   UNL A   1      34.327  21.279  24.581  1.00  0.00     0.188 C 
ENDROOT
BRANCH   1   2
ATOM      2  O   UNL A   1      33.156  21.651  25.281  1.00  0.00    -0.376 OA
BRANCH   2   3
ATOM      3  C   UNL A   1      31.998  22.019  24.547  1.00  0.00     0.202 C 
BRANCH   3   4
ATOM      4  C   UNL A   1      31.569  23.486  24.359  1.00  0.00     0.261 C 
BRANCH   4   5
ATOM      5  O   UNL A   1      32.098  24.423  25.316  1.00  0.00    -0.463 OA
BRANCH   5   6
ATOM      6  C   UNL A   1      31.435  24.519  26.498  1.00  0.00     0.313 C 
ATOM      7  O   UNL A   1      31.664  23.799  27.472  1.00  0.00    -0.252 OA
BRANCH   6   8
ATOM      8  C   UNL A   1      30.435  25.675  26.591  1.00  0.00     0.130 C 
ATOM      9  C   UNL A   1      29.090  25.384  25.896  1.00  0.00     0.025 C 
BRANCH   8  10
ATOM     10  C   UNL A   1      31.008  27.079  26.316  1.00  0.00     0.009 A 
ATOM     11  C   UNL A   1      30.911  27.613  25.004  1.00  0.00     0.020 A 
ATOM     12  C   UNL A   1      31.558  27.932  27.285  1.00  0.00     0.119 A 
ATOM     13  C   UNL A   1      31.360  28.911  24.672  1.00  0.00     0.023 A 
ATOM     14  C   UNL A   1      32.018  29.212  26.966  1.00  0.00     0.047 A 
ATOM     15  C   UNL A   1      31.910  29.710  25.671  1.00  0.00     0.016 A 
BRANCH  12  16
ATOM     16  O   UNL A   1      31.703  27.613  28.603  1.00  0.00    -0.508 OA
ATOM     17  H   UNL A   1      32.554  27.610  28.994  1.00  0.00     0.293 HD
ENDBRANCH  12  16
BRANCH  13  18
ATOM     18  C   UNL A   1      31.159  29.414  23.276  1.00  0.00     0.193 C 
ATOM     19  O   UNL A   1      32.011  29.189  22.420  1.00  0.00    -0.289 OA
BRANCH  18  20
ATOM     20  C   UNL A   1      29.925  30.136  22.878  1.00  0.00     0.022 A 
ATOM     21  C   UNL A   1      29.407  29.931  21.597  1.00  0.00     0.012 A 
ATOM     22  C   UNL A   1      29.285  31.018  23.755  1.00  0.00     0.012 A 
ATOM     23  C   UNL A   1      28.221  30.566  21.219  1.00  0.00     0.001 A 
ATOM     24  C   UNL A   1      28.097  31.644  23.378  1.00  0.00     0.001 A 
ATOM     25  C   UNL A   1      27.562  31.411  22.112  1.00  0.00     0.000 A 
ENDBRANCH  18  20
ENDBRANCH  13  18
ENDBRANCH   8  10
ENDBRANCH   6   8
ENDBRANCH   5   6
ENDBRANCH   4   5
ENDBRANCH   3   4
ENDBRANCH   2   3
ENDBRANCH   1   2
BRANCH   1  26
ATOM     26  C   UNL A   1      35.156  20.090  25.092  1.00  0.00     0.188 C 
BRANCH  26  27
ATOM     27  O   UNL A   1      36.555  20.110  24.951  1.00  0.00    -0.376 OA
BRANCH  27  28
ATOM     28  C   UNL A   1      37.193  21.246  24.397  1.00  0.00     0.202 C 
BRANCH  28  29
ATOM     29  C   UNL A   1      37.556  22.539  25.158  1.00  0.00     0.261 C 
BRANCH  29  30
ATOM     30  O   UNL A   1      38.140  22.426  26.459  1.00  0.00    -0.460 OA
BRANCH  30  31
ATOM     31  C   UNL A   1      39.494  22.367  26.487  1.00  0.00     0.338 C 
ATOM     32  O   UNL A   1      40.207  21.527  25.954  1.00  0.00    -0.246 OA
BRANCH  31  33
ATOM     33  C   UNL A   1      40.013  23.603  27.099  1.00  0.00     0.060 A 
ATOM     34  C   UNL A   1      39.607  24.837  26.576  1.00  0.00     0.016 A 
ATOM     35  C   UNL A   1      40.919  23.550  28.159  1.00  0.00     0.016 A 
ATOM     36  C   UNL A   1      40.114  26.019  27.107  1.00  0.00     0.010 A 
ATOM     37  C   UNL A   1      41.456  24.741  28.662  1.00  0.00     0.010 A 
ATOM     38  C   UNL A   1      41.080  25.983  28.119  1.00  0.00    -0.014 A 
BRANCH  38  39
ATOM     39  C   UNL A   1      41.827  27.217  28.478  1.00  0.00     0.031 A 
ATOM     40  C   UNL A   1      41.083  28.334  29.160  1.00  0.00     0.074 A 
ATOM     41  C   UNL A   1      43.141  27.349  28.227  1.00  0.00     0.049 A 
ATOM     42  N   UNL A   1      41.498  29.532  29.483  1.00  0.00    -0.248 NA
ATOM     43  C   UNL A   1      39.683  28.064  29.523  1.00  0.00     0.031 C 
ATOM     44  C   UNL A   1      43.988  26.326  27.620  1.00  0.00     0.029 A 
ATOM     45  N   UNL A   1      43.993  28.406  28.442  1.00  0.00    -0.354 N 
ATOM     46  C   UNL A   1      40.401  30.173  30.049  1.00  0.00     0.074 A 
ATOM     47  C   UNL A   1      39.304  29.229  30.025  1.00  0.00     0.031 C 
ATOM     48  C   UNL A   1      45.241  26.805  27.512  1.00  0.00     0.029 A 
ATOM     49  C   UNL A   1      45.272  28.187  27.987  1.00  0.00     0.049 A 
ATOM     50  H   UNL A   1      43.712  29.242  28.881  1.00  0.00     0.167 HD
ATOM     51  C   UNL A   1      40.313  31.433  30.534  1.00  0.00     0.037 A 
ATOM     52  C   UNL A   1      46.334  29.018  27.925  1.00  0.00     0.037 A 
ATOM     53  C   UNL A   1      41.406  32.371  30.555  1.00  0.00     0.049 A 
ATOM     54  C   UNL A   1      46.193  30.440  28.412  1.00  0.00     0.074 A 
ATOM     55  C   UNL A   1      41.417  33.664  31.048  1.00  0.00     0.029 A 
ATOM     56  N   UNL A   1      42.675  32.125  30.053  1.00  0.00    -0.354 N 
ATOM     57  N   UNL A   1      45.154  31.031  28.954  1.00  0.00    -0.248 NA
ATOM     58  C   UNL A   1      47.368  31.314  28.267  1.00  0.00     0.031 C 
ATOM     59  C   UNL A   1      42.674  34.220  30.790  1.00  0.00     0.029 A 
ATOM     60  C   UNL A   1      43.469  33.251  30.200  1.00  0.00     0.049 A 
ATOM     61  H   UNL A   1      42.968  31.275  29.651  1.00  0.00     0.167 HD
ATOM     62  C   UNL A   1      45.559  32.333  29.238  1.00  0.00     0.074 A 
ATOM     63  C   UNL A   1      46.941  32.440  28.822  1.00  0.00     0.031 C 
ATOM     64  C   UNL A   1      44.850  33.347  29.795  1.00  0.00     0.037 A 
BRANCH  51  65
ATOM     65  C   UNL A   1      38.973  31.894  31.040  1.00  0.00     0.058 A 
ATOM     66  C   UNL A   1      38.535  31.620  32.346  1.00  0.00     0.135 A 
ATOM     67  C   UNL A   1      38.126  32.649  30.212  1.00  0.00     0.135 A 
ATOM     68  F   UNL A   1      39.296  30.887  33.174  1.00  0.00    -0.206 F 
ATOM     69  C   UNL A   1      37.296  32.055  32.803  1.00  0.00     0.059 A 
ATOM     70  C   UNL A   1      36.896  33.121  30.658  1.00  0.00     0.059 A 
ATOM     71  F   UNL A   1      38.493  32.937  28.953  1.00  0.00    -0.206 F 
ATOM     72  C   UNL A   1      36.483  32.806  31.951  1.00  0.00     0.060 A 
BRANCH  72  73
ATOM     73  S   UNL A   1      34.879  33.367  32.562  1.00  0.00     0.124 S 
ATOM     74  O   UNL A   1      34.892  34.772  32.165  1.00  0.00    -0.237 OA
ATOM     75  O   UNL A   1      33.952  32.510  31.830  1.00  0.00    -0.237 OA
ATOM     76  O   UNL A   1      34.956  33.120  33.998  1.00  0.00    -0.744 OA
ENDBRANCH  72  73
ENDBRANCH  51  65
BRANCH  52  77
ATOM     77  C   UNL A   1      47.625  28.544  27.353  1.00  0.00     0.058 A 
ATOM     78  C   UNL A   1      47.804  28.431  25.966  1.00  0.00     0.135 A 
ATOM     79  C   UNL A   1      48.700  28.177  28.179  1.00  0.00     0.135 A 
ATOM     80  F   UNL A   1      46.801  28.750  25.133  1.00  0.00    -0.206 F 
ATOM     81  C   UNL A   1      48.993  27.962  25.418  1.00  0.00     0.059 A 
ATOM     82  C   UNL A   1      49.910  27.735  27.655  1.00  0.00     0.059 A 
ATOM     83  F   UNL A   1      48.583  28.267  29.513  1.00  0.00    -0.206 F 
ATOM     84  C   UNL A   1      50.044  27.620  26.273  1.00  0.00     0.060 A 
BRANCH  84  85
ATOM     85  S   UNL A   1      51.601  27.061  25.548  1.00  0.00     0.124 S 
ATOM     86  O   UNL A   1      51.795  28.035  24.480  1.00  0.00    -0.237 OA
ATOM     87  O   UNL A   1      52.517  27.162  26.679  1.00  0.00    -0.237 OA
ATOM     88  O   UNL A   1      51.299  25.700  25.114  1.00  0.00    -0.744 OA
ENDBRANCH  84  85
ENDBRANCH  52  77
BRANCH  64  89
ATOM     89  C   UNL A   1      45.562  34.653  30.039  1.00  0.00     0.058 A 
ATOM     90  C   UNL A   1      45.527  35.707  29.113  1.00  0.00     0.135 A 
ATOM     91  C   UNL A   1      46.241  34.871  31.251  1.00  0.00     0.135 A 
ATOM     92  F   UNL A   1      44.898  35.553  27.937  1.00  0.00    -0.206 F 
ATOM     93  C   UNL A   1      46.159  36.921  29.368  1.00  0.00     0.059 A 
ATOM     94  C   UNL A   1      46.852  36.088  31.540  1.00  0.00     0.059 A 
ATOM     95  F   UNL A   1      46.297  33.902  32.178  1.00  0.00    -0.206 F 
ATOM     96  C   UNL A   1      46.815  37.104  30.587  1.00  0.00     0.060 A 
BRANCH  96  97
ATOM     97  S   UNL A   1      47.602  38.695  30.919  1.00  0.00     0.124 S 
ATOM     98  O   UNL A   1      46.741  39.238  31.963  1.00  0.00    -0.237 OA
ATOM     99  O   UNL A   1      48.941  38.296  31.344  1.00  0.00    -0.237 OA
ATOM    100  O   UNL A   1      47.539  39.381  29.633  1.00  0.00    -0.744 OA
ENDBRANCH  96  97
ENDBRANCH  64  89
ENDBRANCH  38  39
ENDBRANCH  31  33
ENDBRANCH  30  31
ENDBRANCH  29  30
ENDBRANCH  28  29
ENDBRANCH  27  28
ENDBRANCH  26  27
ENDBRANCH   1  26
TORSDOF 24
ENDMDL
